data_PCOD9373506
_publ_section_title
;
Structure prediction by ZEFSAII (Michael W. Deem and Ramdas Pophale) SiO2 
 PCOD9373506
Probable space group: I M M 2
;
_chemical_formula_sum "Si O2"
_cell_formula_units_Z 48
_cell_length_a 7.899199
_cell_length_b 14.927484
_cell_length_c 21.190470
_cell_angle_alpha 90.000000
_cell_angle_beta 90.000000
_cell_angle_gamma 90.000000
_cell_volume 2498.677802
_symmetry_space_group_name_H-M "I M M 2"
_symmetry_group_IT_number 44
_symmetry_cell_setting 'orthorhombic'
loop_
_space_group_symop_operation_xyz
x,y,z
-x,-y,z
-x,y,z
x,-y,z
1/2+x,1/2+y,1/2+z
1/2-x,1/2-y,1/2+z
1/2-x,1/2+y,1/2+z
1/2+x,1/2-y,1/2+z
loop_
_atom_site_type_symbol
_atom_site_label
_atom_site_fract_x
_atom_site_fract_y
_atom_site_fract_z
Si Si1 0.297958 0.500000 0.674070
Si Si2 0.703420 0.500000 0.819465
Si Si3 0.296868 0.500000 0.218090
Si Si4 0.702345 0.808019 0.373105
Si Si5 0.791978 0.195619 0.753743
Si Si6 0.204972 0.500000 0.071003
Si Si7 0.297684 0.186960 0.513204
Si Si8 0.700868 0.194755 0.130394
O O1 0.500000 0.500000 0.676708
O O2 0.234326 0.500000 0.746701
O O3 0.242168 0.590799 0.640041
O O4 0.500000 0.500000 0.818955
O O5 0.764695 0.589423 0.853866
O O6 0.500000 0.500000 0.224284
O O7 0.235369 0.592938 0.247915
O O8 0.255519 0.500000 0.144015
O O9 0.500000 0.794264 0.374379
O O10 0.768047 0.745040 0.316922
O O11 0.769595 0.790990 0.443502
O O12 0.734956 0.250418 0.691725
O O13 0.000000 0.196933 0.753468
O O14 0.267790 0.409152 0.037941
O O15 0.000000 0.500000 0.068330
O O16 0.500000 0.176980 0.507098
O O17 0.266371 0.261094 0.566302
O O18 0.500000 0.205288 0.129734
#
# Coordination Sequence:
#
# PCOD9373506 Si02
#       8
#     4   4   4   8   8   4   8   8
#     4  11  23  38  57  85 117 147 185 238 291 340
#     4  11  22  34  54  86 116 144 182 240 296 334
#     4  10  18  33  54  81 107 133 178 230 273 319
#     4  10  20  37  57  79 112 153 191 227 276 345
#     4   9  18  32  55  81 106 142 188 230 269 323
#     4  10  19  31  49  78 110 142 177 218 276 337
#     4  10  21  36  55  81 115 151 186 230 283 336
#     4  11  21  36  59  84 111 149 191 233 279 334
#
# _framework density 19.210159000000001
#
# number of rings (size 3 to 8) (size 9 to 14) (size 15 to 20)
#    0.000    1.833    3.333    1.500    0.000    2.667 
#    0.000    2.500    0.000    3.000    0.000    0.000 
#    0.000    0.000    0.000    0.000    0.000    0.000 
#
# Total GULP energy -134033.880303 kJ/mol
# GULP energy per Si atom -5584.745013 kJ/mol
# Density = 1.916644 g / cm^3
# Si number density = 19.210159 Si / 1000 Ang^3
#
#
#
# Elastic Constant Matrix: (Units=GPa)
#
#
# Indices 1 2 3 4 5 6 
#
# 1 8.4761 -8.8857 -1.5072 0.0000 0.0000 0.0000
# 2 -8.8857 158.1548 102.8834 0.0000 0.0000 0.0000
# 3 -1.5072 102.8834 193.9190 0.0000 0.0000 0.0000
# 4 0.0000 0.0000 0.0000 24.2271 0.0000 0.0000
# 5 0.0000 0.0000 0.0000 0.0000 15.5916 0.0000
# 6 0.0000 0.0000 0.0000 0.0000 0.0000 11.2655
#
#
#
# Elastic Compliance Matrix: (Units=1/GPa)
#
#
# Indices 1 2 3 4 5 6 
#
# 1 0.127663 0.009967 -0.004296 0.000000 0.000000 0.000000
# 2 0.009967 0.010433 -0.005458 0.000000 0.000000 0.000000
# 3 -0.004296 -0.005458 0.008019 0.000000 0.000000 0.000000
# 4 0.000000 0.000000 0.000000 0.041276 0.000000 0.000000
# 5 0.000000 0.000000 0.000000 0.000000 0.064137 0.000000
# 6 0.000000 0.000000 0.000000 0.000000 0.000000 0.088766
#
#
# Mechanical properties :
#
#
# Convention : Reuss Voigt Hill
#
# Bulk Modulus (GPa) = 6.82397 60.61456 33.71926
# Shear Modulus (GPa) = 12.86286 28.08746 20.47516
#
# Velocity S-wave (km/s) = 2.59044 3.82791 3.26828
# Velocity P-wave (km/s) = 3.53655 7.15256 5.64209
#
# Compressibility (1/GPa) = 0.14654218
#
# Stress axis : x y z
#
# Youngs Moduli (GPa) = 7.83312 95.84564 124.70188
#
# Poissons Ratio (x) = -0.95529 0.53568
# Poissons Ratio (y) = -0.07807 0.68062
# Poissons Ratio (z) = 0.03365 0.52312
#
# Static dielectric constant tensor:
#      x y z
#    x 1.690780 0.000000 0.000000 
#    y 0.000000 1.642490 0.000000 
#    z 0.000000 0.000000 1.669230 
# 
# From -- ./inp_files/20372.got.cif
#   From: 2010.05.17/outbox.cif.g08.bks.cpg/sg44_11_cif.got.tgz:20372.got - 2010.06.03 19:37:08.
