data_PCOD9373522
_publ_section_title
;
Structure prediction by ZEFSAII (Michael W. Deem and Ramdas Pophale) SiO2 
 PCOD9373522
Probable space group: I M M 2
;
_chemical_formula_sum "Si O2"
_cell_formula_units_Z 64
_cell_length_a 32.310008
_cell_length_b 7.516713
_cell_length_c 12.193866
_cell_angle_alpha 90.000000
_cell_angle_beta 90.000000
_cell_angle_gamma 90.000000
_cell_volume 2961.463963
_symmetry_space_group_name_H-M "I M M 2"
_symmetry_group_IT_number 44
_symmetry_cell_setting 'orthorhombic'
loop_
_space_group_symop_operation_xyz
x,y,z
-x,-y,z
-x,y,z
x,-y,z
1/2+x,1/2+y,1/2+z
1/2-x,1/2-y,1/2+z
1/2-x,1/2+y,1/2+z
1/2+x,1/2-y,1/2+z
loop_
_atom_site_type_symbol
_atom_site_label
_atom_site_fract_x
_atom_site_fract_y
_atom_site_fract_z
Si Si1 0.373188 0.209761 0.237410
Si Si2 0.070948 0.216873 0.119534
Si Si3 0.873442 0.207099 0.484444
Si Si4 0.454677 0.285253 0.378581
Si Si5 0.333683 0.714398 0.621097
Si Si6 0.545134 0.717713 0.860533
Si Si7 0.202198 0.290514 0.884780
Si Si8 0.705102 0.717956 0.851068
O O1 0.375567 0.283580 0.115036
O O2 0.415511 0.235172 0.305005
O O3 0.334180 0.283459 0.306761
O O4 0.367136 0.000000 0.224734
O O5 0.118762 0.273602 0.122869
O O6 0.050006 0.270748 0.233205
O O7 0.069743 0.000000 0.118479
O O8 0.051777 0.275653 0.004308
O O9 0.915040 0.281784 0.428469
O O10 0.830225 0.279281 0.436368
O O11 0.873266 0.000000 0.451425
O O12 0.500000 0.225528 0.338795
O O13 0.454996 0.500000 0.380439
O O14 0.334408 0.500000 0.621695
O O15 0.312216 0.772174 0.509632
O O16 0.310118 0.770831 0.730369
O O17 0.500000 0.774380 0.902269
O O18 0.545401 0.500000 0.863494
O O19 0.204755 0.500000 0.859209
O O20 0.248394 0.216993 0.871469
O O21 0.706437 0.500000 0.855979
#
# Coordination Sequence:
#
# PCOD9373522 Si02
#       8
#     8   8   8   8   8   8   8   8
#     4  11  24  39  54  76 111 151 185 223 274 330
#     4   9  15  28  52  84 113 133 163 216 274 320
#     4  10  20  36  57  79 106 142 184 228 272 321
#     4  10  20  35  58  86 111 139 181 229 271 320
#     4  10  18  33  60  85 107 138 179 225 274 326
#     4   9  16  28  51  83 111 133 164 213 273 326
#     4  10  22  38  54  77 111 147 183 224 273 328
#     4   9  19  36  57  81 109 142 181 230 280 325
#
# _framework density 21.610932999999999
#
# number of rings (size 3 to 8) (size 9 to 14) (size 15 to 20)
#    0.000    2.250    2.500    0.750    1.750    2.750 
#    0.000    2.500    0.000    0.750    0.000    0.000 
#    0.000    0.000    0.000    0.000    0.000    0.000 
#
# Total GULP energy -178719.997384 kJ/mol
# GULP energy per Si atom -5584.999918 kJ/mol
# Density = 2.156175 g / cm^3
# Si number density = 21.610933 Si / 1000 Ang^3
#
#
#
# Elastic Constant Matrix: (Units=GPa)
#
#
# Indices 1 2 3 4 5 6 
#
# 1 215.8058 2.9761 85.1571 0.0000 0.0000 0.0000
# 2 2.9761 52.4962 -13.8535 0.0000 0.0000 0.0000
# 3 85.1571 -13.8535 126.2489 0.0000 0.0000 0.0000
# 4 0.0000 0.0000 0.0000 -50.2288 0.0000 0.0000
# 5 0.0000 0.0000 0.0000 0.0000 71.9420 0.0000
# 6 0.0000 0.0000 0.0000 0.0000 0.0000 6.9032
#
#
#
# Elastic Compliance Matrix: (Units=1/GPa)
#
#
# Indices 1 2 3 4 5 6 
#
# 1 0.006436 -0.001555 -0.004512 0.000000 0.000000 0.000000
# 2 -0.001555 0.019993 0.003243 0.000000 0.000000 0.000000
# 3 -0.004512 0.003243 0.011320 0.000000 0.000000 0.000000
# 4 0.000000 0.000000 0.000000 -0.019909 0.000000 0.000000
# 5 0.000000 0.000000 0.000000 0.000000 0.013900 0.000000
# 6 0.000000 0.000000 0.000000 0.000000 0.000000 0.144861
#
#
# Mechanical properties :
#
#
# Convention : Reuss Voigt Hill
#
# Bulk Modulus (GPa) = 31.15219 60.34560 45.74889
# Shear Modulus (GPa) = 25.91368 27.07468 26.49418
#
# Velocity S-wave (km/s) = 3.46656 3.54336 3.50517
# Velocity P-wave (km/s) = 5.51988 6.68766 6.13163
#
# Compressibility (1/GPa) = 0.03210047
#
# Stress axis : x y z
#
# Youngs Moduli (GPa) = 155.38801 50.01748 88.34051
#
# Poissons Ratio (x) = 0.07780 0.39855
# Poissons Ratio (y) = 0.24169 -0.28649
# Poissons Ratio (z) = 0.70104 -0.16221
#
# Static dielectric constant tensor:
#      x y z
#    x 1.785850 0.000000 0.000000 
#    y 0.000000 1.840740 0.000000 
#    z 0.000000 0.000000 1.725870 
# 
# From -- ./inp_files/11424.got.cif
#   From: 2010.05.17/outbox.cif.g08.bks.cpg/sg44_6_cif.got.tgz:11424.got - 2010.06.03 19:37:08.
