data_PCOD9373317
_publ_section_title
;
Structure prediction by ZEFSAII (Michael W. Deem and Ramdas Pophale) SiO2 
 PCOD9373317
Probable space group: I M M 2
;
_chemical_formula_sum "Si O2"
_cell_formula_units_Z 48
_cell_length_a 24.740132
_cell_length_b 8.042358
_cell_length_c 14.252857
_cell_angle_alpha 90.000000
_cell_angle_beta 90.000000
_cell_angle_gamma 90.000000
_cell_volume 2835.876683
_symmetry_space_group_name_H-M "I M M 2"
_symmetry_group_IT_number 44
_symmetry_cell_setting 'orthorhombic'
loop_
_space_group_symop_operation_xyz
x,y,z
-x,-y,z
-x,y,z
x,-y,z
1/2+x,1/2+y,1/2+z
1/2-x,1/2-y,1/2+z
1/2-x,1/2+y,1/2+z
1/2+x,1/2-y,1/2+z
loop_
_atom_site_type_symbol
_atom_site_label
_atom_site_fract_x
_atom_site_fract_y
_atom_site_fract_z
Si Si1 0.169104 0.197602 0.954560
Si Si2 0.560827 0.200655 0.355423
Si Si3 0.225168 0.796515 0.141997
Si Si4 0.276512 0.303563 0.852443
Si Si5 0.833090 0.698541 0.538680
Si Si6 0.439512 0.203191 0.138247
O O1 0.109382 0.238498 0.919866
O O2 0.215022 0.272413 0.886581
O O3 0.177131 0.000000 0.951883
O O4 0.183101 0.253328 0.060737
O O5 0.500000 0.255526 0.381912
O O6 0.570238 0.250766 0.246848
O O7 0.561261 0.000000 0.357265
O O8 0.215033 0.736964 0.247361
O O9 0.225733 0.000000 0.144913
O O10 0.283929 0.740687 0.104436
O O11 0.285338 0.500000 0.850445
O O12 0.315623 0.232618 0.932349
O O13 0.834521 0.500000 0.550465
O O14 0.890875 0.763448 0.572943
O O15 0.500000 0.257795 0.111550
O O16 0.439920 0.000000 0.136311
#
# Coordination Sequence:
#
# PCOD9373317 Si02
#       6
#     8   8   8   8   8   8
#     4  10  19  31  46  66  91 117 147 181 219 261
#     4   9  17  30  48  69  91 116 147 180 215 259
#     4   8  16  29  44  61  85 118 147 174 214 267
#     4  10  18  30  47  65  87 117 151 182 218 261
#     4   9  16  28  45  66  90 113 143 183 222 259
#     4   8  14  26  46  68  90 120 151 175 210 266
#
# _framework density 16.925982999999999
#
# number of rings (size 3 to 8) (size 9 to 14) (size 15 to 20)
#    0.000    3.000    0.000    4.000    0.000    3.000 
#    0.000   12.500    0.000    2.500    0.000    4.667 
#    0.000    0.000    0.000    0.000    0.000    0.000 
#
# Total GULP energy -133718.971363 kJ/mol
# GULP energy per Si atom -5571.623807 kJ/mol
# Density = 1.688746 g / cm^3
# Si number density = 16.925983 Si / 1000 Ang^3
#
#
#
# Elastic Constant Matrix: (Units=GPa)
#
#
# Indices 1 2 3 4 5 6 
#
# 1 140.9354 -1.2594 79.6574 0.0000 0.0000 0.0000
# 2 -1.2594 3.6355 -8.0525 0.0000 0.0000 0.0000
# 3 79.6574 -8.0525 118.0550 0.0000 0.0000 0.0000
# 4 0.0000 0.0000 0.0000 19.1549 0.0000 0.0000
# 5 0.0000 0.0000 0.0000 0.0000 23.7766 0.0000
# 6 0.0000 0.0000 0.0000 0.0000 0.0000 16.7605
#
#
#
# Elastic Compliance Matrix: (Units=1/GPa)
#
#
# Indices 1 2 3 4 5 6 
#
# 1 0.012264 -0.016586 -0.009406 0.000000 0.000000 0.000000
# 2 -0.016586 0.346450 0.034822 0.000000 0.000000 0.000000
# 3 -0.009406 0.034822 0.017193 0.000000 0.000000 0.000000
# 4 0.000000 0.000000 0.000000 0.052206 0.000000 0.000000
# 5 0.000000 0.000000 0.000000 0.000000 0.042058 0.000000
# 6 0.000000 0.000000 0.000000 0.000000 0.000000 0.059664
#
#
# Mechanical properties :
#
#
# Convention : Reuss Voigt Hill
#
# Bulk Modulus (GPa) = 2.54086 44.81300 23.67693
# Shear Modulus (GPa) = 7.77166 24.75710 16.26438
#
# Velocity S-wave (km/s) = 2.14512 3.82863 3.10322
# Velocity P-wave (km/s) = 2.76402 6.78807 5.18255
#
# Compressibility (1/GPa) = 0.39356736
#
# Stress axis : x y z
#
# Youngs Moduli (GPa) = 81.54173 2.88642 58.16440
#
# Poissons Ratio (x) = 0.04787 0.54711
# Poissons Ratio (y) = 1.35244 -2.02542
# Poissons Ratio (z) = 0.76700 -0.10051
#
# Static dielectric constant tensor:
#      x y z
#    x 1.569670 0.000000 0.000000 
#    y 0.000000 1.613510 0.000000 
#    z 0.000000 0.000000 1.574570 
# 
# From -- ./inp_files/11152.got.cif
#   From: 2010.05.17/outbox.cif.g08.bks.cpg/sg44_6_cif.got.tgz:11152.got - 2010.06.03 19:37:08.
