data_PCOD9373490
_publ_section_title
;
Structure prediction by ZEFSAII (Michael W. Deem and Ramdas Pophale) SiO2 
 PCOD9373490
Probable space group: I M M 2
;
_chemical_formula_sum "Si O2"
_cell_formula_units_Z 48
_cell_length_a 7.873712
_cell_length_b 18.989059
_cell_length_c 15.310699
_cell_angle_alpha 90.000000
_cell_angle_beta 90.000000
_cell_angle_gamma 90.000000
_cell_volume 2289.169695
_symmetry_space_group_name_H-M "I M M 2"
_symmetry_group_IT_number 44
_symmetry_cell_setting 'orthorhombic'
loop_
_space_group_symop_operation_xyz
x,y,z
-x,-y,z
-x,y,z
x,-y,z
1/2+x,1/2+y,1/2+z
1/2-x,1/2-y,1/2+z
1/2-x,1/2+y,1/2+z
1/2+x,1/2-y,1/2+z
loop_
_atom_site_type_symbol
_atom_site_label
_atom_site_fract_x
_atom_site_fract_y
_atom_site_fract_z
Si Si1 0.196780 0.731670 0.919710
Si Si2 0.706831 0.500000 0.541261
Si Si3 0.793916 0.116563 0.177154
Si Si4 0.203189 0.924633 0.370241
Si Si5 0.790995 0.846459 0.777900
Si Si6 0.707728 0.500000 0.341739
Si Si7 0.695316 0.263661 0.114355
O O1 0.254719 0.650885 0.910643
O O2 0.269703 0.790021 0.851959
O O3 0.000000 0.730927 0.898532
O O4 0.219316 0.750276 0.021353
O O5 0.500000 0.500000 0.540597
O O6 0.758186 0.431868 0.596278
O O7 0.764522 0.500000 0.442374
O O8 0.747161 0.081338 0.268554
O O9 0.710151 0.192090 0.169099
O O10 0.000000 0.124257 0.175671
O O11 0.000000 0.928359 0.373359
O O12 0.269077 0.000000 0.405902
O O13 0.738616 0.926153 0.799282
O O14 0.735385 0.821994 0.681336
O O15 0.000000 0.845383 0.778079
O O16 0.500000 0.500000 0.341181
O O17 0.500000 0.280782 0.094884
#
# Coordination Sequence:
#
# PCOD9373490 Si02
#       7
#     8   4   8   8   8   4   8
#     4  11  22  39  60  85 114 151 198 245 294 350
#     4   9  16  28  53  86 113 138 184 237 283 342
#     4  10  18  32  56  85 114 148 186 232 289 350
#     4  10  20  36  58  86 119 152 190 237 290 349
#     4   9  19  35  56  81 112 146 187 238 289 342
#     4   9  16  30  52  78 107 142 184 233 281 328
#     4  11  22  37  55  83 116 151 194 242 292 347
#
# _framework density 20.968302999999999
#
# number of rings (size 3 to 8) (size 9 to 14) (size 15 to 20)
#    0.000    2.000    2.500    2.000    0.000    3.000 
#    1.500    0.417    0.000    0.000    0.000    6.417 
#    0.000    0.000    0.000    0.000    0.000    0.000 
#
# Total GULP energy -133882.921363 kJ/mol
# GULP energy per Si atom -5578.455057 kJ/mol
# Density = 2.092058 g / cm^3
# Si number density = 20.968303 Si / 1000 Ang^3
#
#
#
# Elastic Constant Matrix: (Units=GPa)
#
#
# Indices 1 2 3 4 5 6 
#
# 1 13.7632 5.7394 -4.6326 0.0000 0.0000 0.0000
# 2 5.7394 121.5519 17.9575 0.0000 0.0000 0.0000
# 3 -4.6326 17.9575 39.6456 0.0000 0.0000 0.0000
# 4 0.0000 0.0000 0.0000 23.6215 0.0000 0.0000
# 5 0.0000 0.0000 0.0000 0.0000 17.5049 0.0000
# 6 0.0000 0.0000 0.0000 0.0000 0.0000 18.8179
#
#
#
# Elastic Compliance Matrix: (Units=1/GPa)
#
#
# Indices 1 2 3 4 5 6 
#
# 1 0.078863 -0.005450 0.011684 0.000000 0.000000 0.000000
# 2 -0.005450 0.009194 -0.004801 0.000000 0.000000 0.000000
# 3 0.011684 -0.004801 0.028763 0.000000 0.000000 0.000000
# 4 0.000000 0.000000 0.000000 0.042334 0.000000 0.000000
# 5 0.000000 0.000000 0.000000 0.000000 0.057127 0.000000
# 6 0.000000 0.000000 0.000000 0.000000 0.000000 0.053141
#
#
# Mechanical properties :
#
#
# Convention : Reuss Voigt Hill
#
# Bulk Modulus (GPa) = 8.35527 23.67660 16.01594
# Shear Modulus (GPa) = 16.31581 22.38195 19.34888
#
# Velocity S-wave (km/s) = 2.79250 3.27068 3.04101
# Velocity P-wave (km/s) = 3.79352 5.05760 4.47046
#
# Compressibility (1/GPa) = 0.11968499
#
# Stress axis : x y z
#
# Youngs Moduli (GPa) = 12.68026 108.77197 34.76655
#
# Poissons Ratio (x) = 0.59279 -0.40620
# Poissons Ratio (y) = 0.06910 0.16691
# Poissons Ratio (z) = -0.14815 0.52222
#
# Static dielectric constant tensor:
#      x y z
#    x 1.771170 0.000000 0.000000 
#    y 0.000000 1.800780 0.000000 
#    z 0.000000 0.000000 1.734980 
# 
# From -- ./inp_files/16142.got.cif
#   From: 2010.05.17/outbox.cif.g08.bks.cpg/sg44_9_cif.got.tgz:16142.got - 2010.06.03 19:37:08.
