data_PCOD9373005
_publ_section_title
;
Structure prediction by ZEFSAII (Michael W. Deem and Ramdas Pophale) SiO2 
 PCOD9373005
Probable space group: I M M 2
;
_chemical_formula_sum "Si O2"
_cell_formula_units_Z 58
_cell_length_a 17.916746
_cell_length_b 18.753302
_cell_length_c 8.751592
_cell_angle_alpha 90.000000
_cell_angle_beta 90.000000
_cell_angle_gamma 90.000000
_cell_volume 2940.518709
_symmetry_space_group_name_H-M "I M M 2"
_symmetry_group_IT_number 44
_symmetry_cell_setting 'orthorhombic'
loop_
_space_group_symop_operation_xyz
x,y,z
-x,-y,z
-x,y,z
x,-y,z
1/2+x,1/2+y,1/2+z
1/2-x,1/2-y,1/2+z
1/2-x,1/2+y,1/2+z
1/2+x,1/2-y,1/2+z
loop_
_atom_site_type_symbol
_atom_site_label
_atom_site_fract_x
_atom_site_fract_y
_atom_site_fract_z
Si Si1 0.500000 0.000000 0.540870
Si Si2 0.292646 0.709542 0.382224
Si Si3 0.417006 0.648865 0.961214
Si Si4 0.914259 0.285389 0.686496
Si Si5 0.622011 0.887255 0.643425
Si Si6 0.651510 0.267423 0.708727
Si Si7 0.712157 0.582622 0.150635
Si Si8 0.909835 0.421433 0.491255
O O1 0.564915 0.937024 0.554294
O O2 0.357213 0.760599 0.315096
O O3 0.303884 0.705134 0.561928
O O4 0.213257 0.741419 0.331670
O O5 0.300133 0.634281 0.295529
O O6 0.500000 0.618195 0.973834
O O7 0.398448 0.673945 0.790417
O O8 0.415664 0.721747 0.061918
O O9 0.352844 0.599679 0.030566
O O10 0.888731 0.357397 0.602121
O O11 0.000000 0.295180 0.740314
O O12 0.605963 0.803098 0.658126
O O13 0.706608 0.895863 0.585331
O O14 0.621199 0.913660 0.820460
O O15 0.713073 0.500000 0.191686
O O16 0.891247 0.500000 0.551911
O O17 0.000000 0.417660 0.473572
#
# Coordination Sequence:
#
# PCOD9373005 Si02
#       8
#     2   8   8   8   8   8   8   8
#     4  12  20  32  52 104 128 172 206 236 306 364
#     4  10  22  38  60  87 124 168 213 256 316 378
#     4  10  21  38  63  88 110 153 213 271 327 382
#     4   9  18  33  54  80 117 159 207 255 309 366
#     4  11  19  31  57  89 130 166 205 248 293 374
#     4  11  22  37  60  89 123 165 215 265 310 374
#     4  10  21  39  62  91 124 163 206 264 327 380
#     4  10  16  27  50  83 122 161 206 245 289 354
#
# _framework density 19.724409999999999
#
# number of rings (size 3 to 8) (size 9 to 14) (size 15 to 20)
#    0.000    1.793    3.448    2.483    2.897    0.828 
#    0.000    0.690    1.517    0.828    0.000    0.000 
#    0.000    0.000    0.000    0.000    0.000    0.000 
#
# Total GULP energy -161722.557461 kJ/mol
# GULP energy per Si atom -5576.639912 kJ/mol
# Density = 1.967952 g / cm^3
# Si number density = 19.724410 Si / 1000 Ang^3
#
#
#
# Elastic Constant Matrix: (Units=GPa)
#
#
# Indices 1 2 3 4 5 6 
#
# 1 95.6507 10.7736 20.7138 0.0000 0.0000 0.0000
# 2 10.7736 55.4827 -4.6089 0.0000 0.0000 0.0000
# 3 20.7138 -4.6089 44.2789 0.0000 0.0000 0.0000
# 4 0.0000 0.0000 0.0000 13.2336 0.0000 0.0000
# 5 0.0000 0.0000 0.0000 0.0000 14.4828 0.0000
# 6 0.0000 0.0000 0.0000 0.0000 0.0000 30.2078
#
#
#
# Elastic Compliance Matrix: (Units=1/GPa)
#
#
# Indices 1 2 3 4 5 6 
#
# 1 0.012060 -0.002835 -0.005937 0.000000 0.000000 0.000000
# 2 -0.002835 0.018847 0.003288 0.000000 0.000000 0.000000
# 3 -0.005937 0.003288 0.025704 0.000000 0.000000 0.000000
# 4 0.000000 0.000000 0.000000 0.075565 0.000000 0.000000
# 5 0.000000 0.000000 0.000000 0.000000 0.069048 0.000000
# 6 0.000000 0.000000 0.000000 0.000000 0.000000 0.033104
#
#
# Mechanical properties :
#
#
# Convention : Reuss Voigt Hill
#
# Bulk Modulus (GPa) = 21.90903 27.68547 24.79725
# Shear Modulus (GPa) = 19.19322 22.82042 21.00682
#
# Velocity S-wave (km/s) = 3.12279 3.40511 3.26700
# Velocity P-wave (km/s) = 4.91265 5.43381 5.17979
#
# Compressibility (1/GPa) = 0.04564329
#
# Stress axis : x y z
#
# Youngs Moduli (GPa) = 82.92130 53.05813 38.90520
#
# Poissons Ratio (x) = 0.15041 0.23096
# Poissons Ratio (y) = 0.23507 -0.12792
# Poissons Ratio (z) = 0.49227 -0.17445
#
# Static dielectric constant tensor:
#      x y z
#    x 1.716170 0.000000 0.000000 
#    y 0.000000 1.691470 0.000000 
#    z 0.000000 0.000000 1.699090 
# 
# From -- ./inp_files/8315.got.cif
#   From: 2010.05.17/outbox.cif.g08.bks.cpg/sg44_5_cif.got.tgz:8315.got - 2010.06.03 19:37:08.
