data_PCOD9373360
_publ_section_title
;
Structure prediction by ZEFSAII (Michael W. Deem and Ramdas Pophale) SiO2 
 PCOD9373360
Probable space group: I M M 2
;
_chemical_formula_sum "Si O2"
_cell_formula_units_Z 40
_cell_length_a 8.685992
_cell_length_b 26.675698
_cell_length_c 9.203120
_cell_angle_alpha 90.000000
_cell_angle_beta 90.000000
_cell_angle_gamma 90.000000
_cell_volume 2132.407994
_symmetry_space_group_name_H-M "I M M 2"
_symmetry_group_IT_number 44
_symmetry_cell_setting 'orthorhombic'
loop_
_space_group_symop_operation_xyz
x,y,z
-x,-y,z
-x,y,z
x,-y,z
1/2+x,1/2+y,1/2+z
1/2-x,1/2-y,1/2+z
1/2-x,1/2+y,1/2+z
1/2+x,1/2-y,1/2+z
loop_
_atom_site_type_symbol
_atom_site_label
_atom_site_fract_x
_atom_site_fract_y
_atom_site_fract_z
Si Si1 0.684498 0.896436 0.847610
Si Si2 0.184697 0.705264 0.517053
Si Si3 0.316157 0.000000 0.520816
Si Si4 0.183791 0.000000 0.850202
Si Si5 0.183294 0.698408 0.856880
Si Si6 0.683085 0.396456 0.021404
O O1 0.500000 0.901463 0.838767
O O2 0.750092 0.890071 0.684619
O O3 0.753787 0.947760 0.913005
O O4 0.722971 0.847445 0.940786
O O5 0.222644 0.703463 0.687158
O O6 0.268532 0.751076 0.439115
O O7 0.000000 0.712610 0.503274
O O8 0.253676 0.052054 0.457364
O O9 0.500000 0.000000 0.523749
O O10 0.250281 0.000000 0.685584
O O11 0.000000 0.000000 0.846716
O O12 0.000000 0.690702 0.869642
O O13 0.268194 0.651329 0.928372
O O14 0.500000 0.401283 0.030768
#
# Coordination Sequence:
#
# PCOD9373360 Si02
#       6
#     8   8   4   4   8   8
#     4  10  19  35  58  83 112 147 186 226 273 324
#     4  10  23  40  58  82 110 143 184 229 276 328
#     4  10  18  32  55  82 111 146 186 224 270 322
#     4  10  18  30  51  82 115 146 184 226 270 320
#     4  11  23  39  58  81 110 144 183 227 276 329
#     4  11  21  35  56  84 115 146 184 227 272 322
#
# _framework density 18.758134999999999
#
# number of rings (size 3 to 8) (size 9 to 14) (size 15 to 20)
#    0.000    1.600    0.000    8.400    0.000    6.400 
#    0.000    1.000    0.000    2.400    0.000    0.000 
#    0.000    0.000    0.000    0.000    0.000    0.000 
#
# Total GULP energy -111742.751157 kJ/mol
# GULP energy per Si atom -5587.137558 kJ/mol
# Density = 1.871544 g / cm^3
# Si number density = 18.758135 Si / 1000 Ang^3
#
#
#
# Elastic Constant Matrix: (Units=GPa)
#
#
# Indices 1 2 3 4 5 6 
#
# 1 123.2741 84.8370 45.3584 0.0001 -0.0002 -0.0002
# 2 84.8370 179.1464 59.6073 0.0001 0.0000 -0.0001
# 3 45.3584 59.6073 74.7873 0.0013 -0.0009 -0.0019
# 4 0.0001 0.0001 0.0013 27.0957 -0.0001 0.0000
# 5 -0.0002 0.0000 -0.0009 -0.0001 16.3465 -0.0001
# 6 -0.0002 -0.0001 -0.0019 0.0000 -0.0001 46.9677
#
#
#
# Elastic Compliance Matrix: (Units=1/GPa)
#
#
# Indices 1 2 3 4 5 6 
#
# 1 0.012860 -0.004756 -0.004009 0.000000 0.000000 0.000000
# 2 -0.004756 0.009356 -0.004572 0.000000 0.000000 0.000000
# 3 -0.004009 -0.004572 0.019447 -0.000001 0.000001 0.000001
# 4 0.000000 0.000000 -0.000001 0.036906 0.000000 0.000000
# 5 0.000000 0.000000 0.000001 0.000000 0.061175 0.000000
# 6 0.000000 0.000000 0.000001 0.000000 0.000000 0.021291
#
#
# Mechanical properties :
#
#
# Convention : Reuss Voigt Hill
#
# Bulk Modulus (GPa) = 66.71890 84.09037 75.40464
# Shear Modulus (GPa) = 25.94629 30.57564 28.26097
#
# Velocity S-wave (km/s) = 3.72318 4.04170 3.88570
# Velocity P-wave (km/s) = 7.35717 8.16740 7.77285
#
# Compressibility (1/GPa) = 0.01498826
#
# Stress axis : x y z
#
# Youngs Moduli (GPa) = 77.75843 106.88697 51.42274
#
# Poissons Ratio (x) = 0.50839 0.20615
# Poissons Ratio (y) = 0.36984 0.23511
# Poissons Ratio (z) = 0.31172 0.48869
#
# Static dielectric constant tensor:
#      x y z
#    x 1.630820 0.000000 0.000000 
#    y 0.000000 1.668690 0.000000 
#    z 0.000000 0.000000 1.631010 
# 
# From -- ./inp_files/4633.got.cif
#   From: 2010.05.17/outbox.cif.g08.bks.cpg/sg44_3_cif.got.tgz:4633.got - 2010.06.03 19:37:08.
