data_PCOD9373831
_publ_section_title
;
Structure prediction by ZEFSAII (Michael W. Deem and Ramdas Pophale) SiO2 
 PCOD9373831
Probable space group: I M M 2
;
_chemical_formula_sum "Si O2"
_cell_formula_units_Z 64
_cell_length_a 18.205179
_cell_length_b 26.355401
_cell_length_c 7.683305
_cell_angle_alpha 90.000000
_cell_angle_beta 90.000000
_cell_angle_gamma 90.000000
_cell_volume 3686.486564
_symmetry_space_group_name_H-M "I M M 2"
_symmetry_group_IT_number 44
_symmetry_cell_setting 'orthorhombic'
loop_
_space_group_symop_operation_xyz
x,y,z
-x,-y,z
-x,y,z
x,-y,z
1/2+x,1/2+y,1/2+z
1/2-x,1/2-y,1/2+z
1/2-x,1/2+y,1/2+z
1/2+x,1/2-y,1/2+z
loop_
_atom_site_type_symbol
_atom_site_label
_atom_site_fract_x
_atom_site_fract_y
_atom_site_fract_z
Si Si1 0.580509 0.105735 0.625000
Si Si2 0.261238 0.940761 0.625000
Si Si3 0.083464 0.797099 0.835412
Si Si4 0.781753 0.133430 0.321496
Si Si5 0.626727 0.182570 0.330205
Si Si6 0.083464 0.202901 0.414588
Si Si7 0.781753 0.866570 0.928504
Si Si8 0.873273 0.317430 0.419795
O O1 0.500000 0.081644 0.625000
O O2 0.650774 0.069037 0.625000
O O3 0.588771 0.142048 0.456195
O O4 0.588771 0.142048 0.793805
O O5 0.228596 0.911363 0.458821
O O6 0.228596 0.911363 0.791179
O O7 0.245184 0.000000 0.625000
O O8 0.105190 0.739462 0.882123
O O9 0.086163 0.799765 0.625000
O O10 0.142802 0.836400 0.905524
O O11 0.000000 0.807266 0.891314
O O12 0.713864 0.172402 0.350739
O O13 0.857198 0.163600 0.344476
O O14 0.774963 0.114257 0.125000
O O15 0.608303 0.175747 0.125000
O O16 0.105190 0.260538 0.367877
O O17 0.000000 0.192734 0.358686
O O18 0.713864 0.827598 0.899261
#
# Coordination Sequence:
#
# PCOD9373831 Si02
#       8
#     8   8   8   8   8   8   8   8
#     4  10  20  33  54  83 111 142 177 211 260 316
#     4  10  22  41  59  76 102 135 181 235 274 312
#     4  10  19  31  50  78 114 148 175 209 259 314
#     4  10  20  35  56  78 103 140 180 222 265 313
#     4   9  19  33  50  76 113 150 179 205 246 311
#     4  10  19  31  50  78 114 148 175 209 259 314
#     4  10  20  35  56  78 103 140 180 222 265 313
#     4   9  19  33  50  76 113 150 179 205 246 311
#
# _framework density 17.360703999999998
#
# number of rings (size 3 to 8) (size 9 to 14) (size 15 to 20)
#    0.000    2.250    1.250    1.500    1.750    2.750 
#    0.000    0.000    0.000    1.500    0.000    8.750 
#    0.000    0.000    0.000    0.000    0.000    0.000 
#
# Total GULP energy -178617.906561 kJ/mol
# GULP energy per Si atom -5581.809580 kJ/mol
# Density = 1.732119 g / cm^3
# Si number density = 17.360704 Si / 1000 Ang^3
#
#
#
# Elastic Constant Matrix: (Units=GPa)
#
#
# Indices 1 2 3 4 5 6 
#
# 1 101.4103 29.3401 34.8350 0.0000 0.0000 0.0000
# 2 29.3401 58.5385 31.3585 0.0000 0.0000 0.0000
# 3 34.8350 31.3585 72.5711 0.0000 0.0000 0.0000
# 4 0.0000 0.0000 0.0000 0.3375 0.0000 0.0000
# 5 0.0000 0.0000 0.0000 0.0000 11.4929 0.0000
# 6 0.0000 0.0000 0.0000 0.0000 0.0000 3.1096
#
#
#
# Elastic Compliance Matrix: (Units=1/GPa)
#
#
# Indices 1 2 3 4 5 6 
#
# 1 0.012476 -0.003962 -0.004277 0.000000 0.000000 0.000000
# 2 -0.003962 0.023486 -0.008247 0.000000 0.000000 0.000000
# 3 -0.004277 -0.008247 0.019396 0.000000 0.000000 0.000000
# 4 0.000000 0.000000 0.000000 2.962683 0.000000 0.000000
# 5 0.000000 0.000000 0.000000 0.000000 0.087010 0.000000
# 6 0.000000 0.000000 0.000000 0.000000 0.000000 0.321587
#
#
# Mechanical properties :
#
#
# Convention : Reuss Voigt Hill
#
# Bulk Modulus (GPa) = 44.66809 47.06521 45.86665
# Shear Modulus (GPa) = 1.44214 12.12043 6.78128
#
# Velocity S-wave (km/s) = 0.91241 2.64513 1.97853
# Velocity P-wave (km/s) = 5.18607 6.04135 5.62998
#
# Compressibility (1/GPa) = 0.02238735
#
# Stress axis : x y z
#
# Youngs Moduli (GPa) = 80.15150 42.57784 51.55736
#
# Poissons Ratio (x) = 0.16871 0.22049
# Poissons Ratio (y) = 0.31759 0.42518
# Poissons Ratio (z) = 0.34278 0.35113
#
# Static dielectric constant tensor:
#      x y z
#    x 1.602650 0.000000 0.000000 
#    y 0.000000 1.526590 0.000000 
#    z 0.000000 0.000000 1.617130 
# 
# From -- ./inp_files/8521.got.cif
#   From: 2010.05.17/outbox.cif.g08.bks.cpg/sg44_5_cif.got.tgz:8521.got - 2010.06.03 19:37:08.
