data_PCOD9373625
_publ_section_title
;
Structure prediction by ZEFSAII (Michael W. Deem and Ramdas Pophale) SiO2 
 PCOD9373625
Probable space group: I M M 2
;
_chemical_formula_sum "Si O2"
_cell_formula_units_Z 56
_cell_length_a 14.021818
_cell_length_b 9.209683
_cell_length_c 29.939157
_cell_angle_alpha 90.000000
_cell_angle_beta 90.000000
_cell_angle_gamma 90.000000
_cell_volume 3866.237914
_symmetry_space_group_name_H-M "I M M 2"
_symmetry_group_IT_number 44
_symmetry_cell_setting 'orthorhombic'
loop_
_space_group_symop_operation_xyz
x,y,z
-x,-y,z
-x,y,z
x,-y,z
1/2+x,1/2+y,1/2+z
1/2-x,1/2-y,1/2+z
1/2-x,1/2+y,1/2+z
1/2+x,1/2-y,1/2+z
loop_
_atom_site_type_symbol
_atom_site_label
_atom_site_fract_x
_atom_site_fract_y
_atom_site_fract_z
Si Si1 0.292021 0.327446 0.140630
Si Si2 0.615852 0.167500 0.958949
Si Si3 0.611166 0.674161 0.869119
Si Si4 0.610517 0.326256 0.235023
Si Si5 0.109825 0.673338 0.196249
Si Si6 0.111461 0.324599 0.558061
Si Si7 0.213333 0.825447 0.277675
O O1 0.298297 0.500000 0.132278
O O2 0.357918 0.294819 0.183907
O O3 0.184849 0.292480 0.156999
O O4 0.327318 0.242099 0.097668
O O5 0.500000 0.169270 0.959937
O O6 0.645133 0.257729 0.915721
O O7 0.645463 0.000000 0.953867
O O8 0.644498 0.220959 0.008264
O O9 0.500000 0.717092 0.861941
O O10 0.613212 0.500000 0.872689
O O11 0.673374 0.716316 0.826277
O O12 0.500000 0.289811 0.241839
O O13 0.622861 0.500000 0.241212
O O14 0.683402 0.241043 0.266599
O O15 0.119761 0.500000 0.205187
O O16 0.143624 0.760206 0.239842
O O17 0.000000 0.703477 0.185484
O O18 0.114991 0.500000 0.559053
O O19 0.000000 0.282557 0.563798
O O20 0.215167 0.000000 0.274531
#
# Coordination Sequence:
#
# PCOD9373625 Si02
#       7
#     8   8   8   8   8   8   8
#     4   9  17  28  43  63  83 107 141 175 207 244
#     4   8  15  27  41  58  81 109 140 171 203 244
#     4   9  17  28  41  60  87 114 138 168 207 249
#     4   9  18  32  46  61  85 115 147 180 208 242
#     4   9  18  32  46  60  83 115 148 179 209 246
#     4   9  17  28  41  60  87 114 138 167 205 249
#     4  10  19  29  43  65  90 113 140 175 214 254
#
# _framework density 14.484365
#
# number of rings (size 3 to 8) (size 9 to 14) (size 15 to 20)
#    0.000    3.000    0.000    3.000    0.000    6.000 
#    0.000    2.857    0.000    0.000    0.000    1.000 
#    0.000    3.429    0.000    0.000    0.000    0.000 
#
# Total GULP energy -155938.652303 kJ/mol
# GULP energy per Si atom -5569.237582 kJ/mol
# Density = 1.445140 g / cm^3
# Si number density = 14.484365 Si / 1000 Ang^3
#
#
#
# Elastic Constant Matrix: (Units=GPa)
#
#
# Indices 1 2 3 4 5 6 
#
# 1 97.8655 35.4392 67.5143 0.0000 0.0000 0.0000
# 2 35.4392 28.3888 51.4792 0.0000 0.0000 0.0000
# 3 67.5143 51.4792 145.7889 0.0000 0.0000 0.0000
# 4 0.0000 0.0000 0.0000 29.4022 0.0000 0.0000
# 5 0.0000 0.0000 0.0000 0.0000 22.1017 0.0000
# 6 0.0000 0.0000 0.0000 0.0000 0.0000 19.9124
#
#
#
# Elastic Compliance Matrix: (Units=1/GPa)
#
#
# Indices 1 2 3 4 5 6 
#
# 1 0.018718 -0.021263 -0.001160 0.000000 0.000000 0.000000
# 2 -0.021263 0.122087 -0.033263 0.000000 0.000000 0.000000
# 3 -0.001160 -0.033263 0.019142 0.000000 0.000000 0.000000
# 4 0.000000 0.000000 0.000000 0.034011 0.000000 0.000000
# 5 0.000000 0.000000 0.000000 0.000000 0.045245 0.000000
# 6 0.000000 0.000000 0.000000 0.000000 0.000000 0.050220
#
#
# Mechanical properties :
#
#
# Convention : Reuss Voigt Hill
#
# Bulk Modulus (GPa) = 20.58688 64.54539 42.56614
# Shear Modulus (GPa) = 11.99073 22.12394 17.05734
#
# Velocity S-wave (km/s) = 2.88034 3.91248 3.43540
# Velocity P-wave (km/s) = 5.03049 8.06653 6.72215
#
# Compressibility (1/GPa) = 0.04857463
#
# Stress axis : x y z
#
# Youngs Moduli (GPa) = 53.42348 8.19085 52.24122
#
# Poissons Ratio (x) = 0.17416 0.06061
# Poissons Ratio (y) = 1.13596 1.73770
# Poissons Ratio (z) = 0.06198 0.27245
#
# Static dielectric constant tensor:
#      x y z
#    x 1.470330 0.000000 0.000000 
#    y 0.000000 1.484090 0.000000 
#    z 0.000000 0.000000 1.468130 
# 
# From -- ./inp_files/27204.got.cif
#   From: 2010.05.17/outbox.cif.g08.bks.cpg/sg44_14_cif.got.tgz:27204.got - 2010.06.03 19:37:08.
