data_PCOD9373132
_publ_section_title
;
Structure prediction by ZEFSAII (Michael W. Deem and Ramdas Pophale) SiO2 
 PCOD9373132
Probable space group: I M M 2
;
_chemical_formula_sum "Si O2"
_cell_formula_units_Z 64
_cell_length_a 7.366333
_cell_length_b 19.496980
_cell_length_c 22.393874
_cell_angle_alpha 90.000000
_cell_angle_beta 90.000000
_cell_angle_gamma 90.000000
_cell_volume 3216.236113
_symmetry_space_group_name_H-M "I M M 2"
_symmetry_group_IT_number 44
_symmetry_cell_setting 'orthorhombic'
loop_
_space_group_symop_operation_xyz
x,y,z
-x,-y,z
-x,y,z
x,-y,z
1/2+x,1/2+y,1/2+z
1/2-x,1/2-y,1/2+z
1/2-x,1/2+y,1/2+z
1/2+x,1/2-y,1/2+z
loop_
_atom_site_type_symbol
_atom_site_label
_atom_site_fract_x
_atom_site_fract_y
_atom_site_fract_z
Si Si1 0.778632 0.924939 0.628710
Si Si2 0.221853 0.277410 0.710304
Si Si3 0.716723 0.280284 0.082574
Si Si4 0.279417 0.370370 0.256708
Si Si5 0.705747 0.075399 0.231620
Si Si6 0.216168 0.924714 0.094355
Si Si7 0.215911 0.827457 0.992451
Si Si8 0.221925 0.078008 0.885583
O O1 0.718438 0.858051 0.592288
O O2 0.725094 0.911658 0.697547
O O3 0.000000 0.924828 0.627494
O O4 0.718397 0.000000 0.608606
O O5 0.280892 0.263800 0.641063
O O6 0.273194 0.208886 0.746108
O O7 0.286748 0.348490 0.740388
O O8 0.000000 0.281135 0.709574
O O9 0.500000 0.281163 0.088404
O O10 0.757694 0.248854 0.017711
O O11 0.500000 0.371252 0.257394
O O12 0.218832 0.402552 0.318796
O O13 0.500000 0.075594 0.255353
O O14 0.699063 0.075807 0.159399
O O15 0.786203 0.000000 0.247617
O O16 0.290457 0.871078 0.047911
O O17 0.000000 0.914692 0.103435
O O18 0.239792 0.000000 0.067485
O O19 0.000000 0.838010 0.991128
O O20 0.282217 0.862825 0.931892
O O21 0.000000 0.077932 0.885439
O O22 0.276489 0.000000 0.901423
#
# Coordination Sequence:
#
# PCOD9373132 Si02
#       8
#     8   8   8   8   8   8   8   8
#     4   8  13  22  39  63  85 102 126 167 213 247
#     4   8  13  22  35  54  78 100 127 163 201 238
#     4   9  16  26  40  58  81 106 131 162 200 244
#     4   8  13  21  36  57  81 106 130 165 210 244
#     4   9  15  22  34  52  75 101 126 154 190 235
#     4   9  16  24  33  47  71 103 133 159 187 219
#     4  10  18  26  37  55  81 109 136 165 194 229
#     4   9  16  25  37  55  80 110 142 171 199 234
#
# _framework density 19.899037
#
# number of rings (size 3 to 8) (size 9 to 14) (size 15 to 20)
#    0.000    3.250    1.250    2.250    0.000    3.000 
#    0.000    0.000    0.000    1.500    0.000    5.250 
#    0.000    7.000    0.000    0.000    0.000    0.500 
#
# Total GULP energy -178171.860228 kJ/mol
# GULP energy per Si atom -5567.870632 kJ/mol
# Density = 1.985375 g / cm^3
# Si number density = 19.899037 Si / 1000 Ang^3
#
#
#
# Elastic Constant Matrix: (Units=GPa)
#
#
# Indices 1 2 3 4 5 6 
#
# 1 69.5147 4.7572 -0.7868 0.0000 0.0000 0.0000
# 2 4.7572 153.2156 41.7519 0.0000 0.0000 0.0000
# 3 -0.7868 41.7519 72.4297 0.0000 0.0000 0.0000
# 4 0.0000 0.0000 0.0000 24.9771 0.0000 0.0000
# 5 0.0000 0.0000 0.0000 0.0000 5.0032 0.0000
# 6 0.0000 0.0000 0.0000 0.0000 0.0000 2.3806
#
#
#
# Elastic Compliance Matrix: (Units=1/GPa)
#
#
# Indices 1 2 3 4 5 6 
#
# 1 0.014431 -0.000582 0.000492 0.000000 0.000000 0.000000
# 2 -0.000582 0.007767 -0.004483 0.000000 0.000000 0.000000
# 3 0.000492 -0.004483 0.016396 0.000000 0.000000 0.000000
# 4 0.000000 0.000000 0.000000 0.040037 0.000000 0.000000
# 5 0.000000 0.000000 0.000000 0.000000 0.199872 0.000000
# 6 0.000000 0.000000 0.000000 0.000000 0.000000 0.420063
#
#
# Mechanical properties :
#
#
# Convention : Reuss Voigt Hill
#
# Bulk Modulus (GPa) = 33.95896 42.95605 38.45751
# Shear Modulus (GPa) = 6.96838 23.10135 15.03487
#
# Velocity S-wave (km/s) = 1.87336 3.41094 2.75172
# Velocity P-wave (km/s) = 4.66712 6.09479 5.42810
#
# Compressibility (1/GPa) = 0.02944731
#
# Stress axis : x y z
#
# Youngs Moduli (GPa) = 69.29589 128.75715 60.98956
#
# Poissons Ratio (x) = 0.07497 -0.03003
# Poissons Ratio (y) = 0.04035 0.27344
# Poissons Ratio (z) = -0.03412 0.57726
#
# Static dielectric constant tensor:
#      x y z
#    x 1.791780 0.000000 0.000000 
#    y 0.000000 1.800520 0.000000 
#    z 0.000000 0.000000 1.661010 
# 
# From -- ./inp_files/22313.got.cif
#   From: 2010.05.17/outbox.cif.g08.bks.cpg/sg44_12_cif.got.tgz:22313.got - 2010.06.03 19:37:08.
