data_PCOD9373321
_publ_section_title
;
Structure prediction by ZEFSAII (Michael W. Deem and Ramdas Pophale) SiO2 
 PCOD9373321
Probable space group: I M M 2
;
_chemical_formula_sum "Si O2"
_cell_formula_units_Z 64
_cell_length_a 8.516672
_cell_length_b 24.051135
_cell_length_c 19.651779
_cell_angle_alpha 90.000000
_cell_angle_beta 90.000000
_cell_angle_gamma 90.000000
_cell_volume 4025.384493
_symmetry_space_group_name_H-M "I M M 2"
_symmetry_group_IT_number 44
_symmetry_cell_setting 'orthorhombic'
loop_
_space_group_symop_operation_xyz
x,y,z
-x,-y,z
-x,y,z
x,-y,z
1/2+x,1/2+y,1/2+z
1/2-x,1/2-y,1/2+z
1/2-x,1/2+y,1/2+z
1/2+x,1/2-y,1/2+z
loop_
_atom_site_type_symbol
_atom_site_label
_atom_site_fract_x
_atom_site_fract_y
_atom_site_fract_z
Si Si1 0.812455 0.733503 0.151690
Si Si2 0.189505 0.247604 0.999623
Si Si3 0.813734 0.338141 0.735531
Si Si4 0.191835 0.936850 0.861560
Si Si5 0.691067 0.382105 0.503335
Si Si6 0.814444 0.770512 0.356185
Si Si7 0.187723 0.833826 0.772846
Si Si8 0.690089 0.435808 0.646335
O O1 0.737680 0.789326 0.183241
O O2 0.762451 0.683786 0.201304
O O3 0.000000 0.740722 0.154579
O O4 0.767054 0.727493 0.072983
O O5 0.264244 0.276207 0.934163
O O6 0.000000 0.249422 0.992997
O O7 0.237477 0.182471 0.000380
O O8 0.738748 0.320575 0.807377
O O9 0.754925 0.395900 0.704770
O O10 0.000000 0.337637 0.741915
O O11 0.240675 0.892133 0.804935
O O12 0.000000 0.936713 0.861987
O O13 0.243504 0.000000 0.850086
O O14 0.242183 0.914503 0.935691
O O15 0.500000 0.382866 0.503587
O O16 0.741995 0.411270 0.573130
O O17 0.732129 0.715242 0.325641
O O18 0.000000 0.763134 0.350189
O O19 0.000000 0.834346 0.765772
O O20 0.500000 0.433303 0.647675
O O21 0.737122 0.500000 0.653024
#
# Coordination Sequence:
#
# PCOD9373321 Si02
#       8
#     8   8   8   8   8   8   8   8
#     4  10  19  32  50  69  95 127 161 200 244 295
#     4  10  18  31  50  71  96 127 161 197 242 292
#     4  11  21  33  49  69  97 130 166 205 247 289
#     4   9  16  26  44  69  94 125 164 200 230 268
#     4   9  15  27  45  68  98 129 165 198 229 275
#     4  11  21  32  49  70  96 125 160 201 248 298
#     4  10  18  30  47  69  96 125 161 203 241 281
#     4  10  19  32  51  73  98 133 174 208 241 285
#
# _framework density 15.899101999999999
#
# number of rings (size 3 to 8) (size 9 to 14) (size 15 to 20)
#    0.000    2.000    2.500    4.875    0.000    2.750 
#    0.000    0.000    0.000    1.500    0.000    0.875 
#    0.000    3.000    0.000    0.000    0.000    0.000 
#
# Total GULP energy -178556.231277 kJ/mol
# GULP energy per Si atom -5579.882227 kJ/mol
# Density = 1.586291 g / cm^3
# Si number density = 15.899102 Si / 1000 Ang^3
#
#
#
# Elastic Constant Matrix: (Units=GPa)
#
#
# Indices 1 2 3 4 5 6 
#
# 1 14.4788 0.7131 6.1071 0.0000 0.0000 0.0000
# 2 0.7131 84.4417 53.3862 0.0000 0.0000 0.0000
# 3 6.1071 53.3862 119.8752 0.0000 0.0000 0.0000
# 4 0.0000 0.0000 0.0000 21.8760 0.0000 0.0000
# 5 0.0000 0.0000 0.0000 0.0000 23.7622 0.0000
# 6 0.0000 0.0000 0.0000 0.0000 0.0000 16.0364
#
#
#
# Elastic Compliance Matrix: (Units=1/GPa)
#
#
# Indices 1 2 3 4 5 6 
#
# 1 0.070916 0.002346 -0.004658 0.000000 0.000000 0.000000
# 2 0.002346 0.016561 -0.007495 0.000000 0.000000 0.000000
# 3 -0.004658 -0.007495 0.011917 0.000000 0.000000 0.000000
# 4 0.000000 0.000000 0.000000 0.045712 0.000000 0.000000
# 5 0.000000 0.000000 0.000000 0.000000 0.042084 0.000000
# 6 0.000000 0.000000 0.000000 0.000000 0.000000 0.062358
#
#
# Mechanical properties :
#
#
# Convention : Reuss Voigt Hill
#
# Bulk Modulus (GPa) = 12.53438 37.68983 25.11210
# Shear Modulus (GPa) = 16.90587 22.90753 19.90670
#
# Velocity S-wave (km/s) = 3.26440 3.79991 3.54229
# Velocity P-wave (km/s) = 4.70205 6.55817 5.70608
#
# Compressibility (1/GPa) = 0.07978056
#
# Stress axis : x y z
#
# Youngs Moduli (GPa) = 14.10125 60.38197 83.91240
#
# Poissons Ratio (x) = -0.14164 0.39082
# Poissons Ratio (y) = -0.03308 0.62893
# Poissons Ratio (z) = 0.06568 0.45256
#
# Static dielectric constant tensor:
#      x y z
#    x 1.544820 0.000000 0.000000 
#    y 0.000000 1.514300 0.000000 
#    z 0.000000 0.000000 1.534430 
# 
# From -- ./inp_files/23473.got.cif
#   From: 2010.05.17/outbox.cif.g08.bks.cpg/sg44_12_cif.got.tgz:23473.got - 2010.06.03 19:37:08.
