data_PCOD9373008
_publ_section_title
;
Structure prediction by ZEFSAII (Michael W. Deem and Ramdas Pophale) SiO2 
 PCOD9373008
Probable space group: I M M 2
;
_chemical_formula_sum "Si O2"
_cell_formula_units_Z 46
_cell_length_a 8.082042
_cell_length_b 16.991079
_cell_length_c 20.955593
_cell_angle_alpha 90.000000
_cell_angle_beta 90.000000
_cell_angle_gamma 90.000000
_cell_volume 2877.676811
_symmetry_space_group_name_H-M "I M M 2"
_symmetry_group_IT_number 44
_symmetry_cell_setting 'orthorhombic'
loop_
_space_group_symop_operation_xyz
x,y,z
-x,-y,z
-x,y,z
x,-y,z
1/2+x,1/2+y,1/2+z
1/2-x,1/2-y,1/2+z
1/2-x,1/2+y,1/2+z
1/2+x,1/2-y,1/2+z
loop_
_atom_site_type_symbol
_atom_site_label
_atom_site_fract_x
_atom_site_fract_y
_atom_site_fract_z
Si Si1 0.194285 0.642867 0.512720
Si Si2 0.000000 0.093794 0.456905
Si Si3 0.199883 0.588424 0.369853
Si Si4 0.683858 0.247508 0.330567
Si Si5 0.312707 0.500000 0.592306
Si Si6 0.316676 0.806273 0.479542
Si Si7 0.500000 0.500000 0.716479
Si Si8 0.000000 0.851475 0.308188
O O1 0.239575 0.603391 0.444615
O O2 0.227013 0.578366 0.566524
O O3 0.287755 0.725582 0.518472
O O4 0.000000 0.661584 0.509109
O O5 0.835376 0.133832 0.486179
O O6 0.000000 0.116009 0.381212
O O7 0.000000 0.000000 0.463789
O O8 0.750764 0.500000 0.352153
O O9 0.281345 0.659290 0.331133
O O10 0.000000 0.594807 0.364181
O O11 0.500000 0.229896 0.305694
O O12 0.687287 0.221567 0.405281
O O13 0.835688 0.201030 0.299675
O O14 0.500000 0.500000 0.564738
O O15 0.344248 0.500000 0.667910
O O16 0.500000 0.838686 0.492466
O O17 0.500000 0.423749 0.760235
#
# Coordination Sequence:
#
# PCOD9373008 Si02
#       8
#     8   4   8   8   4   8   2   4
#     4  10  16  29  46  66 100 140 165 197 245 297
#     4  10  18  30  50  72  96 131 169 198 257 304
#     4   9  15  24  41  70 106 138 161 184 238 314
#     4   9  17  28  46  69  91 128 169 202 249 306
#     4  10  21  31  44  70  95 129 180 209 237 289
#     4   9  17  28  44  70  99 127 165 199 241 312
#     4  10  24  38  52  66  92 140 190 224 254 272
#     4  10  18  38  51  60  91 134 170 232 250 272
#
# _framework density 15.985118
#
# number of rings (size 3 to 8) (size 9 to 14) (size 15 to 20)
#    0.261    2.261    3.043    0.783    0.000    1.391 
#    0.000    2.174    0.000    0.000    0.000    0.000 
#    0.000    2.783    0.348    0.000    0.000    0.000 
#
# Total GULP energy -128071.825024 kJ/mol
# GULP energy per Si atom -5568.340218 kJ/mol
# Density = 1.594873 g / cm^3
# Si number density = 15.985118 Si / 1000 Ang^3
#
#
#
# Elastic Constant Matrix: (Units=GPa)
#
#
# Indices 1 2 3 4 5 6 
#
# 1 112.7739 70.7107 17.5729 0.0000 0.0000 0.0000
# 2 70.7107 129.0800 23.6683 0.0000 0.0000 0.0000
# 3 17.5729 23.6683 33.5174 0.0000 0.0000 0.0000
# 4 0.0000 0.0000 0.0000 9.4362 0.0000 0.0000
# 5 0.0000 0.0000 0.0000 0.0000 11.7436 0.0000
# 6 0.0000 0.0000 0.0000 0.0000 0.0000 10.3828
#
#
#
# Elastic Compliance Matrix: (Units=1/GPa)
#
#
# Indices 1 2 3 4 5 6 
#
# 1 0.013641 -0.007077 -0.002154 0.000000 0.000000 0.000000
# 2 -0.007077 0.012572 -0.005167 0.000000 0.000000 0.000000
# 3 -0.002154 -0.005167 0.034613 0.000000 0.000000 0.000000
# 4 0.000000 0.000000 0.000000 0.105975 0.000000 0.000000
# 5 0.000000 0.000000 0.000000 0.000000 0.085152 0.000000
# 6 0.000000 0.000000 0.000000 0.000000 0.000000 0.096313
#
#
# Mechanical properties :
#
#
# Convention : Reuss Voigt Hill
#
# Bulk Modulus (GPa) = 31.22175 55.47501 43.34838
# Shear Modulus (GPa) = 12.89532 17.20717 15.05124
#
# Velocity S-wave (km/s) = 2.84334 3.28449 3.07184
# Velocity P-wave (km/s) = 5.50941 7.01166 6.30543
#
# Compressibility (1/GPa) = 0.03202896
#
# Stress axis : x y z
#
# Youngs Moduli (GPa) = 73.31068 79.54449 28.89086
#
# Poissons Ratio (x) = 0.56297 0.06223
# Poissons Ratio (y) = 0.51885 0.14927
# Poissons Ratio (z) = 0.15790 0.41099
#
# Static dielectric constant tensor:
#      x y z
#    x 1.572920 0.000000 0.000000 
#    y 0.000000 1.530680 0.000000 
#    z 0.000000 0.000000 1.497360 
# 
# From -- ./inp_files/22935.got.cif
#   From: 2010.05.17/outbox.cif.g08.bks.cpg/sg44_12_cif.got.tgz:22935.got - 2010.06.03 19:37:08.
