data_PCOD9373702
_publ_section_title
;
Structure prediction by ZEFSAII (Michael W. Deem and Ramdas Pophale) SiO2 
 PCOD9373702
Probable space group: I M M 2
;
_chemical_formula_sum "Si O2"
_cell_formula_units_Z 64
_cell_length_a 13.838376
_cell_length_b 13.603710
_cell_length_c 16.080123
_cell_angle_alpha 90.000000
_cell_angle_beta 90.000000
_cell_angle_gamma 90.000000
_cell_volume 3027.135479
_symmetry_space_group_name_H-M "I M M 2"
_symmetry_group_IT_number 44
_symmetry_cell_setting 'orthorhombic'
loop_
_space_group_symop_operation_xyz
x,y,z
-x,-y,z
-x,y,z
x,-y,z
1/2+x,1/2+y,1/2+z
1/2-x,1/2-y,1/2+z
1/2-x,1/2+y,1/2+z
1/2+x,1/2-y,1/2+z
loop_
_atom_site_type_symbol
_atom_site_label
_atom_site_fract_x
_atom_site_fract_y
_atom_site_fract_z
Si Si1 0.394127 0.682214 0.488260
Si Si2 0.604444 0.115293 0.093227
Si Si3 0.605038 0.381645 0.193872
Si Si4 0.866203 0.392062 0.061745
Si Si5 0.354665 0.390273 0.004587
Si Si6 0.812681 0.113851 0.161170
Si Si7 0.676833 0.811127 0.922154
Si Si8 0.182347 0.313948 0.238230
O O1 0.500000 0.650886 0.454592
O O2 0.403056 0.796283 0.514865
O O3 0.371345 0.625582 0.574874
O O4 0.293779 0.676247 0.436163
O O5 0.500000 0.157146 0.117736
O O6 0.624550 0.131439 0.996071
O O7 0.600400 0.000000 0.109698
O O8 0.702653 0.146533 0.138223
O O9 0.500000 0.353863 0.230098
O O10 0.615901 0.500000 0.202119
O O11 0.601149 0.362720 0.094238
O O12 0.701816 0.333755 0.230470
O O13 0.905142 0.500000 0.044950
O O14 0.756569 0.396342 0.030843
O O15 0.864781 0.369971 0.160256
O O16 0.386721 0.500000 0.978730
O O17 0.357128 0.301687 0.939304
O O18 0.842873 0.198692 0.224645
O O19 0.815636 0.000000 0.188048
O O20 0.651882 0.844154 0.829979
#
# Coordination Sequence:
#
# PCOD9373702 Si02
#       8
#     8   8   8   8   8   8   8   8
#     4   9  18  33  52  73  96 127 168 204 236 283
#     4   9  18  34  55  74  92 121 164 209 246 281
#     4   9  17  30  51  77  99 123 160 203 247 295
#     4   8  15  30  50  68  89 121 161 203 240 276
#     4   8  15  29  47  66  90 123 162 199 235 277
#     4   9  19  35  53  72  94 127 172 211 239 275
#     4  10  20  31  47  74 105 132 156 192 244 298
#     4  10  19  30  47  72 103 134 159 192 244 300
#
# _framework density 21.142099000000002
#
# number of rings (size 3 to 8) (size 9 to 14) (size 15 to 20)
#    0.000    3.000    0.000    3.375    0.000    4.500 
#    0.000    2.500    0.000    0.000    0.000    5.250 
#    0.000    0.000    0.000    0.000    0.000    0.000 
#
# Total GULP energy -178211.763828 kJ/mol
# GULP energy per Si atom -5569.117620 kJ/mol
# Density = 2.109398 g / cm^3
# Si number density = 21.142099 Si / 1000 Ang^3
#
#
#
# Elastic Constant Matrix: (Units=GPa)
#
#
# Indices 1 2 3 4 5 6 
#
# 1 61.7811 -0.8351 -26.4493 0.0000 0.0000 0.0000
# 2 -0.8351 60.0401 -15.7187 0.0000 0.0000 0.0000
# 3 -26.4493 -15.7187 28.8700 0.0000 0.0000 0.0000
# 4 0.0000 0.0000 0.0000 7.2535 0.0000 0.0000
# 5 0.0000 0.0000 0.0000 0.0000 -5.7789 0.0000
# 6 0.0000 0.0000 0.0000 0.0000 0.0000 -27.0962
#
#
#
# Elastic Compliance Matrix: (Units=1/GPa)
#
#
# Indices 1 2 3 4 5 6 
#
# 1 0.030266 0.008957 0.032605 0.000000 0.000000 0.000000
# 2 0.008957 0.022075 0.020225 0.000000 0.000000 0.000000
# 3 0.032605 0.020225 0.075521 0.000000 0.000000 0.000000
# 4 0.000000 0.000000 0.000000 0.137864 0.000000 0.000000
# 5 0.000000 0.000000 0.000000 0.000000 -0.173043 0.000000
# 6 0.000000 0.000000 0.000000 0.000000 0.000000 -0.036905
#
#
# Mechanical properties :
#
#
# Convention : Reuss Voigt Hill
#
# Bulk Modulus (GPa) = 3.97716 7.18723 5.58219
# Shear Modulus (GPa) = 312.19857 7.78862 159.99359
#
# Velocity S-wave (km/s) = 12.16501 1.92144 8.70860
# Velocity P-wave (km/s) = 14.11388 2.88608 10.18654
#
# Compressibility (1/GPa) = 0.25143597
#
# Stress axis : x y z
#
# Youngs Moduli (GPa) = 33.04052 45.29991 13.24136
#
# Poissons Ratio (x) = -0.40575 -0.43173
# Poissons Ratio (y) = -0.29594 -0.26781
# Poissons Ratio (z) = -1.07728 -0.91619
#
# Static dielectric constant tensor:
#      x y z
#    x 2.160940 0.000000 0.000000 
#    y 0.000000 1.796210 0.000000 
#    z 0.000000 0.000000 1.721470 
# 
# From -- ./inp_files/21945.got.cif
#   From: 2010.05.17/outbox.cif.g08.bks.cpg/sg44_11_cif.got.tgz:21945.got - 2010.06.03 19:37:08.
