data_PCOD9373574
_publ_section_title
;
Structure prediction by ZEFSAII (Michael W. Deem and Ramdas Pophale) SiO2 
 PCOD9373574
Probable space group: I M M 2
;
_chemical_formula_sum "Si O2"
_cell_formula_units_Z 56
_cell_length_a 21.891257
_cell_length_b 7.959723
_cell_length_c 14.237584
_cell_angle_alpha 90.000000
_cell_angle_beta 90.000000
_cell_angle_gamma 90.000000
_cell_volume 2480.875404
_symmetry_space_group_name_H-M "I M M 2"
_symmetry_group_IT_number 44
_symmetry_cell_setting 'orthorhombic'
loop_
_space_group_symop_operation_xyz
x,y,z
-x,-y,z
-x,y,z
x,-y,z
1/2+x,1/2+y,1/2+z
1/2-x,1/2-y,1/2+z
1/2-x,1/2+y,1/2+z
1/2+x,1/2-y,1/2+z
loop_
_atom_site_type_symbol
_atom_site_label
_atom_site_fract_x
_atom_site_fract_y
_atom_site_fract_z
Si Si1 0.884443 0.203531 0.864230
Si Si2 0.207306 0.800339 0.709366
Si Si3 0.500000 0.805133 0.241213
Si Si4 0.500000 0.692851 0.032262
Si Si5 0.070502 0.196758 0.056428
Si Si6 0.068725 0.691460 0.264974
Si Si7 0.310156 0.686608 0.829048
Si Si8 0.140558 0.792484 0.518436
O O1 0.826702 0.257633 0.804104
O O2 0.941791 0.264104 0.804306
O O3 0.886702 0.000000 0.867958
O O4 0.888411 0.261273 0.971388
O O5 0.276914 0.765330 0.738526
O O6 0.172441 0.736331 0.616499
O O7 0.200451 0.000000 0.703267
O O8 0.500000 0.698984 0.146058
O O9 0.500000 0.000000 0.213812
O O10 0.500000 0.500000 0.999482
O O11 0.431219 0.762788 0.008532
O O12 0.073026 0.296609 0.152487
O O13 0.000000 0.202525 0.022290
O O14 0.084090 0.000000 0.076483
O O15 0.081114 0.500000 0.294243
O O16 0.118404 0.813751 0.305295
O O17 0.000000 0.736627 0.292623
O O18 0.285537 0.500000 0.838216
O O19 0.314889 0.765275 0.933323
O O20 0.139320 0.000000 0.517425
#
# Coordination Sequence:
#
# PCOD9373574 Si02
#       8
#     8   8   4   4   8   8   8   8
#     4  10  19  35  59  84 117 162 207 247 299 365
#     4  10  21  40  63  86 117 159 203 247 301 366
#     4  12  22  30  50  89 128 157 194 251 316 364
#     4  10  18  38  66  89 116 159 208 257 310 368
#     4   9  17  31  55  86 116 150 195 243 287 342
#     4  10  22  40  60  84 117 156 196 244 303 366
#     4  11  24  41  62  90 120 154 199 252 303 365
#     4   9  20  38  66  94 118 156 209 255 303 363
#
# _framework density 22.572676999999999
#
# number of rings (size 3 to 8) (size 9 to 14) (size 15 to 20)
#    0.000    2.000    2.143    1.500    1.000    3.143 
#    0.000    5.714    0.000    0.000    0.000    0.000 
#    0.000    0.000    0.000    0.000    0.000    0.000 
#
# Total GULP energy -156145.811068 kJ/mol
# GULP energy per Si atom -5576.636110 kJ/mol
# Density = 2.252130 g / cm^3
# Si number density = 22.572677 Si / 1000 Ang^3
#
#
#
# Elastic Constant Matrix: (Units=GPa)
#
#
# Indices 1 2 3 4 5 6 
#
# 1 69.1958 15.9071 19.8231 0.0000 0.0000 0.0000
# 2 15.9071 22.9685 8.7738 0.0000 0.0000 0.0000
# 3 19.8231 8.7738 78.2723 0.0000 0.0000 0.0000
# 4 0.0000 0.0000 0.0000 12.0261 0.0000 0.0000
# 5 0.0000 0.0000 0.0000 0.0000 14.7042 0.0000
# 6 0.0000 0.0000 0.0000 0.0000 0.0000 11.4623
#
#
#
# Elastic Compliance Matrix: (Units=1/GPa)
#
#
# Indices 1 2 3 4 5 6 
#
# 1 0.017967 -0.011184 -0.003297 0.000000 0.000000 0.000000
# 2 -0.011184 0.052447 -0.003047 0.000000 0.000000 0.000000
# 3 -0.003297 -0.003047 0.013952 0.000000 0.000000 0.000000
# 4 0.000000 0.000000 0.000000 0.083152 0.000000 0.000000
# 5 0.000000 0.000000 0.000000 0.000000 0.068008 0.000000
# 6 0.000000 0.000000 0.000000 0.000000 0.000000 0.087243
#
#
# Mechanical properties :
#
#
# Convention : Reuss Voigt Hill
#
# Bulk Modulus (GPa) = 20.27897 28.82719 24.55308
# Shear Modulus (GPa) = 13.35963 16.03402 14.69683
#
# Velocity S-wave (km/s) = 2.43544 2.66809 2.55441
# Velocity P-wave (km/s) = 4.11240 4.72125 4.42730
#
# Compressibility (1/GPa) = 0.04931217
#
# Stress axis : x y z
#
# Youngs Moduli (GPa) = 55.65688 19.06679 71.67259
#
# Poissons Ratio (x) = 0.21324 0.23628
# Poissons Ratio (y) = 0.62247 0.21835
# Poissons Ratio (z) = 0.18348 0.05809
#
# Static dielectric constant tensor:
#      x y z
#    x 1.923070 0.000000 0.000000 
#    y 0.000000 1.852320 0.000000 
#    z 0.000000 0.000000 1.870060 
# 
# From -- ./inp_files/19229.got.cif
#   From: 2010.05.17/outbox.cif.g08.bks.cpg/sg44_10_cif.got.tgz:19229.got - 2010.06.03 19:37:08.
