data_PCOD9374715
_publ_section_title
;
Structure prediction by ZEFSAII (Michael W. Deem and Ramdas Pophale) SiO2 
 PCOD9374715
Probable space group: I M M 2
;
_chemical_formula_sum "Si O2"
_cell_formula_units_Z 64
_cell_length_a 17.893635
_cell_length_b 8.991413
_cell_length_c 21.138414
_cell_angle_alpha 90.000000
_cell_angle_beta 90.000000
_cell_angle_gamma 90.000000
_cell_volume 3400.939608
_symmetry_space_group_name_H-M "I M M 2"
_symmetry_group_IT_number 44
_symmetry_cell_setting 'orthorhombic'
loop_
_space_group_symop_operation_xyz
x,y,z
-x,-y,z
-x,y,z
x,-y,z
1/2+x,1/2+y,1/2+z
1/2-x,1/2-y,1/2+z
1/2-x,1/2+y,1/2+z
1/2+x,1/2-y,1/2+z
loop_
_atom_site_type_symbol
_atom_site_label
_atom_site_fract_x
_atom_site_fract_y
_atom_site_fract_z
Si Si1 0.286285 0.175241 0.273270
Si Si2 0.305688 0.174941 0.135703
Si Si3 0.125691 0.676389 0.271357
Si Si4 0.629667 0.178353 0.911282
Si Si5 0.917252 0.824018 0.539218
Si Si6 0.082382 0.678633 0.012216
Si Si7 0.793028 0.676844 0.913212
Si Si8 0.626857 0.676337 0.641931
O O1 0.330006 0.204427 0.208475
O O2 0.213422 0.278955 0.273486
O O3 0.323712 0.193831 0.341491
O O4 0.261795 0.000000 0.269089
O O5 0.352554 0.265615 0.085133
O O6 0.216567 0.205551 0.135421
O O7 0.315573 0.000000 0.122170
O O8 0.115941 0.500000 0.264390
O O9 0.098456 0.721096 0.341611
O O10 0.097969 0.757416 0.208284
O O11 0.714739 0.237890 0.916618
O O12 0.629132 0.000000 0.914322
O O13 0.588477 0.246586 0.971112
O O14 0.000000 0.793280 0.566151
O O15 0.909019 0.000000 0.530662
O O16 0.088184 0.500000 0.018082
O O17 0.090661 0.749728 0.080948
O O18 0.000000 0.713470 0.986370
O O19 0.148210 0.728365 0.965469
O O20 0.778736 0.500000 0.922414
O O21 0.616066 0.500000 0.641842
#
# Coordination Sequence:
#
# PCOD9374715 Si02
#       8
#     8   8   8   8   8   8   8   8
#     4   8  15  29  50  78 106 130 163 207 252 298
#     4   9  18  33  54  79 104 130 164 209 256 302
#     4   9  17  30  51  79 105 129 161 204 254 303
#     4  10  20  34  55  81 104 129 165 208 254 305
#     4  11  24  38  51  71 101 137 175 212 251 299
#     4  10  21  35  50  72 104 140 176 212 250 295
#     4   9  17  32  55  79 104 135 169 208 253 298
#     4  10  20  34  54  79 104 132 169 210 252 301
#
# _framework density 18.818328000000001
#
# number of rings (size 3 to 8) (size 9 to 14) (size 15 to 20)
#    0.000    2.500    0.000    3.000    0.000    7.750 
#    0.000    1.250    0.000    3.000    0.000    0.000 
#    0.000    0.000    0.000    0.000    0.000    0.000 
#
# Total GULP energy -178437.553670 kJ/mol
# GULP energy per Si atom -5576.173552 kJ/mol
# Density = 1.877550 g / cm^3
# Si number density = 18.818328 Si / 1000 Ang^3
#
#
#
# Elastic Constant Matrix: (Units=GPa)
#
#
# Indices 1 2 3 4 5 6 
#
# 1 47.2822 20.1896 26.9568 0.0000 0.0000 0.0000
# 2 20.1896 29.5948 20.4152 0.0000 0.0000 0.0000
# 3 26.9568 20.4152 92.0589 0.0000 0.0000 0.0000
# 4 0.0000 0.0000 0.0000 29.0326 0.0000 0.0000
# 5 0.0000 0.0000 0.0000 0.0000 -16.5648 0.0000
# 6 0.0000 0.0000 0.0000 0.0000 0.0000 9.8896
#
#
#
# Elastic Compliance Matrix: (Units=1/GPa)
#
#
# Indices 1 2 3 4 5 6 
#
# 1 0.031917 -0.018095 -0.005333 0.000000 0.000000 0.000000
# 2 -0.018095 0.050151 -0.005823 0.000000 0.000000 0.000000
# 3 -0.005333 -0.005823 0.013716 0.000000 0.000000 0.000000
# 4 0.000000 0.000000 0.000000 0.034444 0.000000 0.000000
# 5 0.000000 0.000000 0.000000 0.000000 -0.060369 0.000000
# 6 0.000000 0.000000 0.000000 0.000000 0.000000 0.101116
#
#
# Mechanical properties :
#
#
# Convention : Reuss Voigt Hill
#
# Bulk Modulus (GPa) = 26.82308 33.78435 30.30372
# Shear Modulus (GPa) = 20.66945 11.22978 15.94961
#
# Velocity S-wave (km/s) = 3.31776 2.44549 2.91444
# Velocity P-wave (km/s) = 5.38157 5.09566 5.24057
#
# Compressibility (1/GPa) = 0.03728132
#
# Stress axis : x y z
#
# Youngs Moduli (GPa) = 31.33163 19.93987 72.90967
#
# Poissons Ratio (x) = 0.36080 0.38884
# Poissons Ratio (y) = 0.56693 0.42456
# Poissons Ratio (z) = 0.16710 0.11611
#
# Static dielectric constant tensor:
#      x y z
#    x 1.637960 0.000000 0.000000 
#    y 0.000000 1.625830 0.000000 
#    z 0.000000 0.000000 1.678910 
# 
# From -- ./inp_files/23275.got.cif
#   From: 2010.05.17/outbox.cif.g08.bks.cpg/sg44_12_cif.got.tgz:23275.got - 2010.06.03 19:37:08.
