data_PCOD9374508
_publ_section_title
;
Structure prediction by ZEFSAII (Michael W. Deem and Ramdas Pophale) SiO2 
 PCOD9374508
Probable space group: I M M 2
;
_chemical_formula_sum "Si O2"
_cell_formula_units_Z 48
_cell_length_a 14.193130
_cell_length_b 8.565405
_cell_length_c 24.551194
_cell_angle_alpha 90.000000
_cell_angle_beta 90.000000
_cell_angle_gamma 90.000000
_cell_volume 2984.686363
_symmetry_space_group_name_H-M "I M M 2"
_symmetry_group_IT_number 44
_symmetry_cell_setting 'orthorhombic'
loop_
_space_group_symop_operation_xyz
x,y,z
-x,-y,z
-x,y,z
x,-y,z
1/2+x,1/2+y,1/2+z
1/2-x,1/2-y,1/2+z
1/2-x,1/2+y,1/2+z
1/2+x,1/2-y,1/2+z
loop_
_atom_site_type_symbol
_atom_site_label
_atom_site_fract_x
_atom_site_fract_y
_atom_site_fract_z
Si Si1 0.893470 0.688929 0.214290
Si Si2 0.109496 0.686673 0.424764
Si Si3 0.392570 0.688843 0.263556
Si Si4 0.288589 0.314566 0.819900
Si Si5 0.610127 0.688336 0.043454
Si Si6 0.789581 0.189889 0.652602
O O1 0.893054 0.500000 0.215152
O O2 0.856110 0.745413 0.272752
O O3 0.815392 0.739477 0.170099
O O4 0.000000 0.741880 0.203993
O O5 0.112974 0.500000 0.421288
O O6 0.174026 0.758169 0.377995
O O7 0.136999 0.740447 0.485348
O O8 0.000000 0.736036 0.416426
O O9 0.500000 0.738072 0.272966
O O10 0.388727 0.500000 0.265974
O O11 0.316022 0.755204 0.305276
O O12 0.357569 0.734589 0.202856
O O13 0.291132 0.500000 0.816935
O O14 0.500000 0.726175 0.053674
O O15 0.617009 0.500000 0.039807
O O16 0.671973 0.743684 0.094542
O O17 0.790315 0.000000 0.650963
#
# Coordination Sequence:
#
# PCOD9374508 Si02
#       6
#     8   8   8   8   8   8
#     4   9  17  30  48  69  94 125 159 192 227 272
#     4  10  20  33  48  66  90 121 157 195 234 279
#     4   9  17  31  51  72  95 125 157 186 221 270
#     4  11  21  31  46  69  96 123 153 192 235 277
#     4   9  16  27  45  68  92 118 150 189 232 277
#     4   8  14  26  46  71  95 120 152 186 223 271
#
# _framework density 16.082091999999999
#
# number of rings (size 3 to 8) (size 9 to 14) (size 15 to 20)
#    0.000    2.667    0.000    4.000    0.000    5.667 
#    0.000    3.333    0.000    5.000    0.000    2.333 
#    0.000    0.000    0.000    0.000    0.000    0.000 
#
# Total GULP energy -133802.278515 kJ/mol
# GULP energy per Si atom -5575.094938 kJ/mol
# Density = 1.604549 g / cm^3
# Si number density = 16.082092 Si / 1000 Ang^3
#
#
#
# Elastic Constant Matrix: (Units=GPa)
#
#
# Indices 1 2 3 4 5 6 
#
# 1 137.2559 26.6032 88.1907 0.0000 0.0000 0.0000
# 2 26.6032 17.0196 22.6006 0.0000 0.0000 0.0000
# 3 88.1907 22.6006 134.3905 0.0000 0.0000 0.0000
# 4 0.0000 0.0000 0.0000 23.1933 0.0000 0.0000
# 5 0.0000 0.0000 0.0000 0.0000 23.4375 0.0000
# 6 0.0000 0.0000 0.0000 0.0000 0.0000 11.2072
#
#
#
# Elastic Compliance Matrix: (Units=1/GPa)
#
#
# Indices 1 2 3 4 5 6 
#
# 1 0.014514 -0.012925 -0.007351 0.000000 0.000000 0.000000
# 2 -0.012925 0.087160 -0.006176 0.000000 0.000000 0.000000
# 3 -0.007351 -0.006176 0.013303 0.000000 0.000000 0.000000
# 4 0.000000 0.000000 0.000000 0.043116 0.000000 0.000000
# 5 0.000000 0.000000 0.000000 0.000000 0.042667 0.000000
# 6 0.000000 0.000000 0.000000 0.000000 0.000000 0.089228
#
#
# Mechanical properties :
#
#
# Convention : Reuss Voigt Hill
#
# Bulk Modulus (GPa) = 16.10995 62.60611 39.35803
# Shear Modulus (GPa) = 13.75201 21.65239 17.70220
#
# Velocity S-wave (km/s) = 2.92740 3.67327 3.32134
# Velocity P-wave (km/s) = 4.63307 7.55011 6.26376
#
# Compressibility (1/GPa) = 0.06207343
#
# Stress axis : x y z
#
# Youngs Moduli (GPa) = 68.89926 11.47314 75.16892
#
# Poissons Ratio (x) = 0.14829 0.55255
# Poissons Ratio (y) = 0.89055 0.46423
# Poissons Ratio (z) = 0.50646 0.07086
#
# Static dielectric constant tensor:
#      x y z
#    x 1.541390 0.000000 0.000000 
#    y 0.000000 1.546410 0.000000 
#    z 0.000000 0.000000 1.516030 
# 
# From -- ./inp_files/22894.got.cif
#   From: 2010.05.17/outbox.cif.g08.bks.cpg/sg44_12_cif.got.tgz:22894.got - 2010.06.03 19:37:08.
