data_PCOD9374293
_publ_section_title
;
Structure prediction by ZEFSAII (Michael W. Deem and Ramdas Pophale) SiO2 
 PCOD9374293
Probable space group: I M M 2
;
_chemical_formula_sum "Si O2"
_cell_formula_units_Z 64
_cell_length_a 30.727251
_cell_length_b 20.528828
_cell_length_c 5.262558
_cell_angle_alpha 90.000000
_cell_angle_beta 90.000000
_cell_angle_gamma 90.000000
_cell_volume 3319.592383
_symmetry_space_group_name_H-M "I M M 2"
_symmetry_group_IT_number 44
_symmetry_cell_setting 'orthorhombic'
loop_
_space_group_symop_operation_xyz
x,y,z
-x,-y,z
-x,y,z
x,-y,z
1/2+x,1/2+y,1/2+z
1/2-x,1/2-y,1/2+z
1/2-x,1/2+y,1/2+z
1/2+x,1/2-y,1/2+z
loop_
_atom_site_type_symbol
_atom_site_label
_atom_site_fract_x
_atom_site_fract_y
_atom_site_fract_z
Si Si1 0.908027 0.423313 0.398730
Si Si2 0.591583 0.735421 0.540688
Si Si3 0.834969 0.182891 0.710198
Si Si4 0.104226 0.072231 0.536378
Si Si5 0.847168 0.689833 0.396014
Si Si6 0.949922 0.896246 0.042800
Si Si7 0.551157 0.135608 0.384345
Si Si8 0.256229 0.790194 0.670245
O O1 0.900369 0.500000 0.396883
O O2 0.864595 0.381323 0.461421
O O3 0.940571 0.403587 0.625758
O O4 0.926947 0.400949 0.124953
O O5 0.633308 0.693634 0.447719
O O6 0.610722 0.774665 0.775860
O O7 0.554743 0.681947 0.578651
O O8 0.573688 0.792992 0.361770
O O9 0.860015 0.129608 0.542470
O O10 0.833590 0.256815 0.603130
O O11 0.784705 0.164153 0.744475
O O12 0.077084 0.075218 0.277270
O O13 0.123422 0.000000 0.565930
O O14 0.071996 0.085017 0.774675
O O15 0.805172 0.684656 0.212640
O O16 0.000000 0.915938 0.048325
O O17 0.500000 0.143632 0.432166
O O18 0.249240 0.767602 0.380109
#
# Coordination Sequence:
#
# PCOD9374293 Si02
#       8
#     8   8   8   8   8   8   8   8
#     4  11  24  39  58  83 117 155 190 232 286 340
#     4  10  19  36  56  88 112 150 184 242 289 334
#     4  10  19  37  58  86 114 147 187 233 282 337
#     4  11  24  39  58  83 117 155 190 232 286 340
#     4  10  19  37  58  86 114 147 187 233 282 337
#     4  11  23  38  59  83 114 151 196 241 283 333
#     4  11  23  38  59  83 114 151 196 241 283 333
#     4  10  20  32  59  90 113 140 186 236 278 332
#
# _framework density 19.279475999999999
#
# number of rings (size 3 to 8) (size 9 to 14) (size 15 to 20)
#    0.000    1.500    3.750    1.875    0.000    3.000 
#    0.000    4.375    0.000    0.000    0.000    9.625 
#    0.000    0.000    0.000    0.000    0.000    0.000 
#
# Total GULP energy -178313.959544 kJ/mol
# GULP energy per Si atom -5572.311236 kJ/mol
# Density = 1.923560 g / cm^3
# Si number density = 19.279476 Si / 1000 Ang^3
#
#
#
# Elastic Constant Matrix: (Units=GPa)
#
#
# Indices 1 2 3 4 5 6 
#
# 1 80.0909 29.7992 8.6389 0.0000 0.0000 0.0000
# 2 29.7992 112.7446 15.5840 0.0000 0.0000 0.0000
# 3 8.6389 15.5840 69.4633 0.0000 0.0000 0.0000
# 4 0.0000 0.0000 0.0000 -0.9875 0.0000 0.0000
# 5 0.0000 0.0000 0.0000 0.0000 24.4268 0.0000
# 6 0.0000 0.0000 0.0000 0.0000 0.0000 13.2296
#
#
#
# Elastic Compliance Matrix: (Units=1/GPa)
#
#
# Indices 1 2 3 4 5 6 
#
# 1 0.013906 -0.003546 -0.000934 0.000000 0.000000 0.000000
# 2 -0.003546 0.010058 -0.001815 0.000000 0.000000 0.000000
# 3 -0.000934 -0.001815 0.014920 0.000000 0.000000 0.000000
# 4 0.000000 0.000000 0.000000 -1.012617 0.000000 0.000000
# 5 0.000000 0.000000 0.000000 0.000000 0.040939 0.000000
# 6 0.000000 0.000000 0.000000 0.000000 0.000000 0.075588
#
#
# Mechanical properties :
#
#
# Convention : Reuss Voigt Hill
#
# Bulk Modulus (GPa) = 38.03412 41.14923 39.59167
# Shear Modulus (GPa) = -5.98192 21.21890 7.61849
#
# Velocity S-wave (km/s) = -1.76337 3.32112 1.99002
# Velocity P-wave (km/s) = 3.95280 6.00802 5.08532
#
# Compressibility (1/GPa) = 0.02629218
#
# Stress axis : x y z
#
# Youngs Moduli (GPa) = 71.91126 99.42459 67.02630
#
# Poissons Ratio (x) = 0.35260 0.06259
# Poissons Ratio (y) = 0.25503 0.12168
# Poissons Ratio (z) = 0.06715 0.18050
#
# Static dielectric constant tensor:
#      x y z
#    x 1.734910 0.000000 0.000000 
#    y 0.000000 1.702020 0.000000 
#    z 0.000000 0.000000 1.714750 
# 
# From -- ./inp_files/3120.got.cif
#   From: 2010.05.17/outbox.cif.g08.bks.cpg/sg44_2_cif.got.tgz:3120.got - 2010.06.03 19:37:08.
