data_PCOD9374352
_publ_section_title
;
Structure prediction by ZEFSAII (Michael W. Deem and Ramdas Pophale) SiO2 
 PCOD9374352
Probable space group: I M M 2
;
_chemical_formula_sum "Si O2"
_cell_formula_units_Z 50
_cell_length_a 11.628219
_cell_length_b 14.144721
_cell_length_c 15.404657
_cell_angle_alpha 90.000000
_cell_angle_beta 90.000000
_cell_angle_gamma 90.000000
_cell_volume 2533.725841
_symmetry_space_group_name_H-M "I M M 2"
_symmetry_group_IT_number 44
_symmetry_cell_setting 'orthorhombic'
loop_
_space_group_symop_operation_xyz
x,y,z
-x,-y,z
-x,y,z
x,-y,z
1/2+x,1/2+y,1/2+z
1/2-x,1/2-y,1/2+z
1/2-x,1/2+y,1/2+z
1/2+x,1/2-y,1/2+z
loop_
_atom_site_type_symbol
_atom_site_label
_atom_site_fract_x
_atom_site_fract_y
_atom_site_fract_z
Si Si1 0.298773 0.156738 0.837520
Si Si2 0.762541 0.605515 0.658781
Si Si3 0.000000 0.500000 0.337520
Si Si4 0.868058 0.869958 0.337520
Si Si5 0.762541 0.394485 0.016259
Si Si6 0.632622 0.309240 0.498188
Si Si7 0.132622 0.190760 0.676852
O O1 0.397737 0.080377 0.837520
O O2 0.361039 0.257254 0.837520
O O3 0.216536 0.156050 0.753262
O O4 0.216535 0.156050 0.921778
O O5 0.810206 0.500000 0.639729
O O6 0.698689 0.600664 0.750978
O O7 0.672098 0.636712 0.584954
O O8 0.848045 0.695761 0.663726
O O9 0.801311 0.899336 0.424062
O O10 0.000000 0.899406 0.337520
O O11 0.810205 0.500000 0.035311
O O12 0.848045 0.304239 0.011314
O O13 0.672098 0.363288 0.090086
O O14 0.500000 0.326907 0.478019
O O15 0.000000 0.173093 0.697022
#
# Coordination Sequence:
#
# PCOD9374352 Si02
#       7
#     8   8   2   8   8   8   8
#     4  10  23  41  63  91 122 163 208 258 323 371
#     4  10  22  38  59  92 123 164 213 252 317 372
#     4  12  24  44  66  96 122 166 220 262 304 420
#     4  10  19  37  60  84 120 159 202 262 308 365
#     4  10  22  38  59  92 123 164 213 252 317 372
#     4  10  22  42  62  90 129 165 209 263 316 378
#     4  10  22  42  62  90 129 165 209 263 316 378
#
# _framework density 19.733785000000001
#
# number of rings (size 3 to 8) (size 9 to 14) (size 15 to 20)
#    0.000    1.920    0.800    1.920    2.240    3.840 
#    2.880    0.800    0.000    5.760    0.000    0.000 
#    0.000    0.000    0.000    0.000    0.000    0.000 
#
# Total GULP energy -139262.657921 kJ/mol
# GULP energy per Si atom -5570.506317 kJ/mol
# Density = 1.968887 g / cm^3
# Si number density = 19.733785 Si / 1000 Ang^3
#
#
#
# Elastic Constant Matrix: (Units=GPa)
#
#
# Indices 1 2 3 4 5 6 
#
# 1 132.9673 42.3910 42.8206 0.0000 0.0000 0.0000
# 2 42.3910 151.4504 54.7161 0.0000 0.0000 0.0000
# 3 42.8206 54.7161 118.2147 0.0000 0.0000 0.0000
# 4 0.0000 0.0000 0.0000 -40.6416 0.0000 0.0000
# 5 0.0000 0.0000 0.0000 0.0000 -9.5905 0.0000
# 6 0.0000 0.0000 0.0000 0.0000 0.0000 60.5362
#
#
#
# Elastic Compliance Matrix: (Units=1/GPa)
#
#
# Indices 1 2 3 4 5 6 
#
# 1 0.008817 -0.001578 -0.002463 0.000000 0.000000 0.000000
# 2 -0.001578 0.008211 -0.003229 0.000000 0.000000 0.000000
# 3 -0.002463 -0.003229 0.010846 0.000000 0.000000 0.000000
# 4 0.000000 0.000000 0.000000 -0.024605 0.000000 0.000000
# 5 0.000000 0.000000 0.000000 0.000000 -0.104270 0.000000
# 6 0.000000 0.000000 0.000000 0.000000 0.000000 0.016519
#
#
# Mechanical properties :
#
#
# Convention : Reuss Voigt Hill
#
# Bulk Modulus (GPa) = 74.99888 75.83199 75.41543
# Shear Modulus (GPa) = -76.33897 19.57447 -28.38225
#
# Velocity S-wave (km/s) = -6.22643 3.15290 -3.79655
# Velocity P-wave (km/s) = 3.68827 7.19481 4.36818
#
# Compressibility (1/GPa) = 0.01333353
#
# Stress axis : x y z
#
# Youngs Moduli (GPa) = 113.41711 121.78736 92.19954
#
# Poissons Ratio (x) = 0.19217 0.22713
# Poissons Ratio (y) = 0.17896 0.29771
# Poissons Ratio (z) = 0.27940 0.39325
#
# Static dielectric constant tensor:
#      x y z
#    x 1.633840 0.000000 0.000000 
#    y 0.000000 1.716510 0.000000 
#    z 0.000000 0.000000 1.689520 
# 
# From -- ./inp_files/17739.got.cif
#   From: 2010.05.17/outbox.cif.g08.bks.cpg/sg44_9_cif.got.tgz:17739.got - 2010.06.03 19:37:08.
