data_PCOD9374594
_publ_section_title
;
Structure prediction by ZEFSAII (Michael W. Deem and Ramdas Pophale) SiO2 
 PCOD9374594
Probable space group: I M M 2
;
_chemical_formula_sum "Si O2"
_cell_formula_units_Z 56
_cell_length_a 24.138860
_cell_length_b 8.856520
_cell_length_c 14.078550
_cell_angle_alpha 90.000000
_cell_angle_beta 90.000000
_cell_angle_gamma 90.000000
_cell_volume 3009.801063
_symmetry_space_group_name_H-M "I M M 2"
_symmetry_group_IT_number 44
_symmetry_cell_setting 'orthorhombic'
loop_
_space_group_symop_operation_xyz
x,y,z
-x,-y,z
-x,y,z
x,-y,z
1/2+x,1/2+y,1/2+z
1/2-x,1/2-y,1/2+z
1/2-x,1/2+y,1/2+z
1/2+x,1/2-y,1/2+z
loop_
_atom_site_type_symbol
_atom_site_label
_atom_site_fract_x
_atom_site_fract_y
_atom_site_fract_z
Si Si1 0.938012 0.318821 0.669540
Si Si2 0.330516 0.681010 0.853793
Si Si3 0.827382 0.680933 0.559635
Si Si4 0.435327 0.180305 0.532124
Si Si5 0.731203 0.680698 0.239114
Si Si6 0.118618 0.820267 0.850247
Si Si7 0.563120 0.318291 0.737676
O O1 0.936280 0.500000 0.682732
O O2 0.889662 0.279876 0.595439
O O3 0.922382 0.242673 0.769231
O O4 0.000000 0.276277 0.639459
O O5 0.327299 0.500000 0.860458
O O6 0.318677 0.754282 0.955426
O O7 0.285877 0.741916 0.779011
O O8 0.391521 0.723940 0.815716
O O9 0.821382 0.500000 0.560158
O O10 0.786864 0.753590 0.637494
O O11 0.500000 0.219024 0.511197
O O12 0.396808 0.246794 0.450149
O O13 0.422641 0.246767 0.635796
O O14 0.430665 0.000000 0.534148
O O15 0.737431 0.500000 0.233823
O O16 0.680192 0.714429 0.311290
O O17 0.113150 0.000000 0.856984
O O18 0.500000 0.273342 0.761856
O O19 0.564360 0.500000 0.727778
#
# Coordination Sequence:
#
# PCOD9374594 Si02
#       7
#     8   8   8   8   8   8   8
#     4   9  18  33  53  79 112 148 185 226 272 322
#     4  11  23  39  61  86 111 143 182 223 273 329
#     4  10  21  38  59  83 113 147 184 226 272 324
#     4  10  20  33  52  80 112 146 184 226 273 325
#     4  10  22  40  59  81 111 145 185 231 276 324
#     4  10  20  33  52  79 110 146 186 227 273 325
#     4   9  20  39  59  80 109 143 180 224 271 322
#
# _framework density 18.605882000000001
#
# number of rings (size 3 to 8) (size 9 to 14) (size 15 to 20)
#    0.000    2.143    0.000    2.571    0.000    8.000 
#    0.000    1.429    0.000    0.000    0.000    0.000 
#    0.000    0.000    0.000    0.000    0.000    0.000 
#
# Total GULP energy -156377.703173 kJ/mol
# GULP energy per Si atom -5584.917970 kJ/mol
# Density = 1.856353 g / cm^3
# Si number density = 18.605882 Si / 1000 Ang^3
#
#
#
# Elastic Constant Matrix: (Units=GPa)
#
#
# Indices 1 2 3 4 5 6 
#
# 1 79.1107 28.7670 55.8533 0.0000 0.0000 0.0000
# 2 28.7670 33.3540 34.9558 0.0000 0.0000 0.0000
# 3 55.8533 34.9558 114.9060 0.0000 0.0000 0.0000
# 4 0.0000 0.0000 0.0000 30.7270 0.0000 0.0000
# 5 0.0000 0.0000 0.0000 0.0000 15.9113 0.0000
# 6 0.0000 0.0000 0.0000 0.0000 0.0000 18.7077
#
#
#
# Elastic Compliance Matrix: (Units=1/GPa)
#
#
# Indices 1 2 3 4 5 6 
#
# 1 0.021806 -0.011302 -0.007161 0.000000 0.000000 0.000000
# 2 -0.011302 0.049872 -0.009678 0.000000 0.000000 0.000000
# 3 -0.007161 -0.009678 0.015128 0.000000 0.000000 0.000000
# 4 0.000000 0.000000 0.000000 0.032545 0.000000 0.000000
# 5 0.000000 0.000000 0.000000 0.000000 0.062848 0.000000
# 6 0.000000 0.000000 0.000000 0.000000 0.000000 0.053454
#
#
# Mechanical properties :
#
#
# Convention : Reuss Voigt Hill
#
# Bulk Modulus (GPa) = 32.76185 51.83585 42.29885
# Shear Modulus (GPa) = 16.55025 20.25551 18.40288
#
# Velocity S-wave (km/s) = 2.98571 3.30307 3.14839
# Velocity P-wave (km/s) = 5.43438 6.51670 6.00000
#
# Compressibility (1/GPa) = 0.03052330
#
# Stress axis : x y z
#
# Youngs Moduli (GPa) = 45.85829 20.05139 66.10324
#
# Poissons Ratio (x) = 0.22662 0.47339
# Poissons Ratio (y) = 0.51830 0.63974
# Poissons Ratio (z) = 0.32841 0.19405
#
# Static dielectric constant tensor:
#      x y z
#    x 1.655440 0.000000 0.000000 
#    y 0.000000 1.617260 0.000000 
#    z 0.000000 0.000000 1.601260 
# 
# From -- ./inp_files/19196.got.cif
#   From: 2010.05.17/outbox.cif.g08.bks.cpg/sg44_10_cif.got.tgz:19196.got - 2010.06.03 19:37:08.
