data_PCOD9374244
_publ_section_title
;
Structure prediction by ZEFSAII (Michael W. Deem and Ramdas Pophale) SiO2 
 PCOD9374244
Probable space group: I M M 2
;
_chemical_formula_sum "Si O2"
_cell_formula_units_Z 64
_cell_length_a 9.049848
_cell_length_b 25.473725
_cell_length_c 15.042922
_cell_angle_alpha 90.000000
_cell_angle_beta 90.000000
_cell_angle_gamma 90.000000
_cell_volume 3467.895041
_symmetry_space_group_name_H-M "I M M 2"
_symmetry_group_IT_number 44
_symmetry_cell_setting 'orthorhombic'
loop_
_space_group_symop_operation_xyz
x,y,z
-x,-y,z
-x,y,z
x,-y,z
1/2+x,1/2+y,1/2+z
1/2-x,1/2-y,1/2+z
1/2-x,1/2+y,1/2+z
1/2+x,1/2-y,1/2+z
loop_
_atom_site_type_symbol
_atom_site_label
_atom_site_fract_x
_atom_site_fract_y
_atom_site_fract_z
Si Si1 0.176883 0.895096 0.592010
Si Si2 0.175873 0.640501 0.426580
Si Si3 0.171788 0.224485 0.619717
Si Si4 0.323825 0.348187 0.805426
Si Si5 0.174017 0.832251 0.097186
Si Si6 0.824122 0.561778 0.269290
Si Si7 0.672989 0.261267 0.332120
Si Si8 0.176532 0.560589 0.917654
O O1 0.211391 0.832971 0.584361
O O2 0.233456 0.915037 0.687058
O O3 0.257878 0.926656 0.514622
O O4 0.000000 0.900921 0.585479
O O5 0.240129 0.633692 0.524883
O O6 0.211491 0.593493 0.358834
O O7 0.248086 0.693049 0.386418
O O8 0.000000 0.646447 0.430132
O O9 0.271568 0.272139 0.586998
O O10 0.183394 0.224035 0.727206
O O11 0.000000 0.235357 0.597500
O O12 0.500000 0.347233 0.820179
O O13 0.295812 0.347788 0.699282
O O14 0.251886 0.294771 0.842999
O O15 0.251959 0.398465 0.851091
O O16 0.000000 0.835514 0.081640
O O17 0.795787 0.500000 0.278532
O O18 0.000000 0.568940 0.251726
O O19 0.500000 0.257752 0.355060
O O20 0.207908 0.500000 0.894752
O O21 0.000000 0.567921 0.918310
#
# Coordination Sequence:
#
# PCOD9374244 Si02
#       8
#     8   8   8   8   8   8   8   8
#     4  11  22  37  59  89 121 156 197 243 295 352
#     4  11  22  36  58  86 120 159 199 244 293 348
#     4   9  19  35  55  83 119 155 191 233 285 349
#     4  10  22  41  63  88 117 151 196 248 301 353
#     4  10  22  38  59  86 119 155 194 243 298 354
#     4  10  22  40  60  84 118 160 203 246 294 351
#     4  10  19  35  58  85 119 154 191 237 289 350
#     4  11  25  43  62  86 117 156 202 247 295 353
#
# _framework density 18.454999000000001
#
# number of rings (size 3 to 8) (size 9 to 14) (size 15 to 20)
#    0.000    1.750    1.250    2.625    1.750    6.250 
#    0.000    0.625    0.000    2.250    0.000    0.000 
#    0.000    0.000    0.000    0.000    0.000    0.000 
#
# Total GULP energy -178861.527097 kJ/mol
# GULP energy per Si atom -5589.422722 kJ/mol
# Density = 1.841299 g / cm^3
# Si number density = 18.454999 Si / 1000 Ang^3
#
#
#
# Elastic Constant Matrix: (Units=GPa)
#
#
# Indices 1 2 3 4 5 6 
#
# 1 72.5964 50.4045 46.2852 0.0000 0.0000 0.0000
# 2 50.4045 100.0858 37.6469 0.0000 0.0000 0.0000
# 3 46.2852 37.6469 57.4365 0.0001 0.0000 0.0000
# 4 0.0000 0.0000 0.0001 27.4266 0.0000 0.0000
# 5 0.0000 0.0000 0.0000 0.0000 33.1879 0.0000
# 6 0.0000 0.0000 0.0000 0.0000 0.0000 22.8007
#
#
#
# Elastic Compliance Matrix: (Units=1/GPa)
#
#
# Indices 1 2 3 4 5 6 
#
# 1 0.033380 -0.008883 -0.021077 0.000000 0.000000 0.000000
# 2 -0.008883 0.015625 -0.003083 0.000000 0.000000 0.000000
# 3 -0.021077 -0.003083 0.036417 0.000000 0.000000 0.000000
# 4 0.000000 0.000000 0.000000 0.036461 0.000000 0.000000
# 5 0.000000 0.000000 0.000000 0.000000 0.030131 0.000000
# 6 0.000000 0.000000 0.000000 0.000000 0.000000 0.043858
#
#
# Mechanical properties :
#
#
# Convention : Reuss Voigt Hill
#
# Bulk Modulus (GPa) = 51.71905 55.42132 53.57018
# Shear Modulus (GPa) = 18.62866 23.06851 20.84859
#
# Velocity S-wave (km/s) = 3.18057 3.53935 3.36475
# Velocity P-wave (km/s) = 6.44773 6.84093 6.64724
#
# Compressibility (1/GPa) = 0.01933524
#
# Stress axis : x y z
#
# Youngs Moduli (GPa) = 29.95771 64.00196 27.46000
#
# Poissons Ratio (x) = 0.56850 0.57879
# Poissons Ratio (y) = 0.26610 0.08466
# Poissons Ratio (z) = 0.63143 0.19732
#
# Static dielectric constant tensor:
#      x y z
#    x 1.611080 0.000000 0.000000 
#    y 0.000000 1.602940 0.000000 
#    z 0.000000 0.000000 1.649450 
# 
# From -- ./inp_files/16819.got.cif
#   From: 2010.05.17/outbox.cif.g08.bks.cpg/sg44_9_cif.got.tgz:16819.got - 2010.06.03 19:37:08.
