data_PCOD9374460
_publ_section_title
;
Structure prediction by ZEFSAII (Michael W. Deem and Ramdas Pophale) SiO2 
 PCOD9374460
Probable space group: I M M 2
;
_chemical_formula_sum "Si O2"
_cell_formula_units_Z 56
_cell_length_a 8.448519
_cell_length_b 20.912934
_cell_length_c 16.057638
_cell_angle_alpha 90.000000
_cell_angle_beta 90.000000
_cell_angle_gamma 90.000000
_cell_volume 2837.116797
_symmetry_space_group_name_H-M "I M M 2"
_symmetry_group_IT_number 44
_symmetry_cell_setting 'orthorhombic'
loop_
_space_group_symop_operation_xyz
x,y,z
-x,-y,z
-x,y,z
x,-y,z
1/2+x,1/2+y,1/2+z
1/2-x,1/2-y,1/2+z
1/2-x,1/2+y,1/2+z
1/2+x,1/2-y,1/2+z
loop_
_atom_site_type_symbol
_atom_site_label
_atom_site_fract_x
_atom_site_fract_y
_atom_site_fract_z
Si Si1 0.313368 0.248321 0.065260
Si Si2 0.676324 0.573964 0.126798
Si Si3 0.191483 0.426319 0.800090
Si Si4 0.689149 0.708533 0.744357
Si Si5 0.690309 0.926451 0.797846
Si Si6 0.692992 0.803992 0.894830
Si Si7 0.818758 0.627182 0.978250
O O1 0.500000 0.239178 0.077532
O O2 0.235609 0.239731 0.155577
O O3 0.279456 0.315372 0.018927
O O4 0.253329 0.203418 0.990164
O O5 0.500000 0.597926 0.106147
O O6 0.660246 0.500000 0.146506
O O7 0.742674 0.602024 0.211696
O O8 0.800283 0.577722 0.052771
O O9 0.244234 0.500000 0.782100
O O10 0.248314 0.364826 0.747378
O O11 0.000000 0.427572 0.797473
O O12 0.240575 0.405199 0.893833
O O13 0.500000 0.706868 0.749965
O O14 0.745640 0.750424 0.825739
O O15 0.500000 0.927009 0.791044
O O16 0.737532 0.874536 0.865360
O O17 0.739439 0.000000 0.813979
O O18 0.500000 0.799155 0.895662
O O19 0.000000 0.647288 0.965652
#
# Coordination Sequence:
#
# PCOD9374460 Si02
#       7
#     8   8   8   8   8   8   8
#     4  11  22  38  59  85 117 155 200 250 304 360
#     4  10  20  32  48  76 113 150 186 226 283 353
#     4  10  22  40  61  86 119 160 207 260 316 372
#     4  11  22  39  61  88 121 160 205 253 305 367
#     4   9  17  32  55  80 108 148 194 238 288 346
#     4   9  19  36  57  82 115 150 191 241 293 351
#     4  11  21  35  56  84 115 149 195 247 304 362
#
# _framework density 19.738347999999998
#
# number of rings (size 3 to 8) (size 9 to 14) (size 15 to 20)
#    0.000    1.857    1.429    3.000    0.000    3.429 
#    0.000    2.857    0.000    2.571    0.000    0.000 
#    0.000    0.000    0.000    0.000    0.000    0.000 
#
# Total GULP energy -155912.449256 kJ/mol
# GULP energy per Si atom -5568.301759 kJ/mol
# Density = 1.969342 g / cm^3
# Si number density = 19.738348 Si / 1000 Ang^3
#
#
#
# Elastic Constant Matrix: (Units=GPa)
#
#
# Indices 1 2 3 4 5 6 
#
# 1 20.2910 14.2425 6.3989 0.0000 0.0000 0.0000
# 2 14.2425 95.1378 24.0387 0.0000 0.0000 0.0000
# 3 6.3989 24.0387 78.6281 0.0000 0.0000 0.0000
# 4 0.0000 0.0000 0.0000 31.9828 0.0000 0.0000
# 5 0.0000 0.0000 0.0000 0.0000 19.4132 0.0000
# 6 0.0000 0.0000 0.0000 0.0000 0.0000 18.8359
#
#
#
# Elastic Compliance Matrix: (Units=1/GPa)
#
#
# Indices 1 2 3 4 5 6 
#
# 1 0.055399 -0.007753 -0.002138 0.000000 0.000000 0.000000
# 2 -0.007753 0.012476 -0.003183 0.000000 0.000000 0.000000
# 3 -0.002138 -0.003183 0.013865 0.000000 0.000000 0.000000
# 4 0.000000 0.000000 0.000000 0.031267 0.000000 0.000000
# 5 0.000000 0.000000 0.000000 0.000000 0.051511 0.000000
# 6 0.000000 0.000000 0.000000 0.000000 0.000000 0.053090
#
#
# Mechanical properties :
#
#
# Convention : Reuss Voigt Hill
#
# Bulk Modulus (GPa) = 17.98837 31.49080 24.73958
# Shear Modulus (GPa) = 19.06295 24.00484 21.53389
#
# Velocity S-wave (km/s) = 3.11108 3.49112 3.30656
# Velocity P-wave (km/s) = 4.69449 5.67797 5.20949
#
# Compressibility (1/GPa) = 0.05559147
#
# Stress axis : x y z
#
# Youngs Moduli (GPa) = 18.05072 80.15324 72.12234
#
# Poissons Ratio (x) = 0.62145 0.15421
# Poissons Ratio (y) = 0.13995 0.22959
# Poissons Ratio (z) = 0.03859 0.25515
#
# Static dielectric constant tensor:
#      x y z
#    x 1.719540 0.000000 0.000000 
#    y 0.000000 1.676280 0.000000 
#    z 0.000000 0.000000 1.720960 
# 
# From -- ./inp_files/16424.got.cif
#   From: 2010.05.17/outbox.cif.g08.bks.cpg/sg44_9_cif.got.tgz:16424.got - 2010.06.03 19:37:08.
