data_PCOD9374987
_publ_section_title
;
Structure prediction by ZEFSAII (Michael W. Deem and Ramdas Pophale) SiO2 
 PCOD9374987
Probable space group: I M M 2
;
_chemical_formula_sum "Si O2"
_cell_formula_units_Z 48
_cell_length_a 8.872500
_cell_length_b 16.792267
_cell_length_c 18.529415
_cell_angle_alpha 90.000000
_cell_angle_beta 90.000000
_cell_angle_gamma 90.000000
_cell_volume 2760.686219
_symmetry_space_group_name_H-M "I M M 2"
_symmetry_group_IT_number 44
_symmetry_cell_setting 'orthorhombic'
loop_
_space_group_symop_operation_xyz
x,y,z
-x,-y,z
-x,y,z
x,-y,z
1/2+x,1/2+y,1/2+z
1/2-x,1/2-y,1/2+z
1/2-x,1/2+y,1/2+z
1/2+x,1/2-y,1/2+z
loop_
_atom_site_type_symbol
_atom_site_label
_atom_site_fract_x
_atom_site_fract_y
_atom_site_fract_z
Si Si1 0.821154 0.500000 0.927060
Si Si2 0.821293 0.166186 0.437719
Si Si3 0.678025 0.821627 0.030480
Si Si4 0.679652 0.260427 0.304084
Si Si5 0.319209 0.092430 0.881718
Si Si6 0.320503 0.000000 0.254433
Si Si7 0.321005 0.342285 0.684622
O O1 0.746456 0.419401 0.956067
O O2 0.795038 0.500000 0.840435
O O3 0.000000 0.500000 0.939549
O O4 0.799304 0.232644 0.499352
O O5 0.740458 0.200919 0.366458
O O6 0.000000 0.160333 0.423384
O O7 0.500000 0.831764 0.046738
O O8 0.772953 0.837441 0.101449
O O9 0.716041 0.879741 0.963552
O O10 0.500000 0.256025 0.301085
O O11 0.734976 0.347487 0.328417
O O12 0.750780 0.230845 0.229519
O O13 0.500000 0.103599 0.873102
O O14 0.283136 0.000000 0.871034
O O15 0.248099 0.922000 0.219381
O O16 0.500000 0.000000 0.242101
O O17 0.500000 0.342678 0.692489
#
# Coordination Sequence:
#
# PCOD9374987 Si02
#       7
#     4   8   8   8   8   4   8
#     4  11  21  33  57  87 114 145 182 229 276 324
#     4  10  20  36  58  82 110 147 187 227 274 329
#     4   9  20  37  57  82 113 150 183 221 276 334
#     4  11  21  35  56  81 111 148 186 229 277 327
#     4   9  19  37  60  85 111 145 185 227 275 329
#     4  11  23  37  55  83 116 149 180 223 278 332
#     4  12  24  37  56  83 114 149 186 229 275 328
#
# _framework density 17.386982
#
# number of rings (size 3 to 8) (size 9 to 14) (size 15 to 20)
#    0.000    1.667    1.667    5.000    1.167    4.333 
#    0.000    0.000    1.833    0.000    0.000    0.000 
#    0.000    0.000    0.000    0.000    0.000    0.000 
#
# Total GULP energy -134080.981677 kJ/mol
# GULP energy per Si atom -5586.707570 kJ/mol
# Density = 1.734741 g / cm^3
# Si number density = 17.386982 Si / 1000 Ang^3
#
#
#
# Elastic Constant Matrix: (Units=GPa)
#
#
# Indices 1 2 3 4 5 6 
#
# 1 104.4729 53.3126 45.2312 0.0000 0.0000 0.0000
# 2 53.3126 116.6429 25.6350 0.0000 0.0000 0.0000
# 3 45.2312 25.6350 57.6849 0.0000 0.0000 0.0000
# 4 0.0000 0.0000 0.0000 12.2890 0.0000 0.0000
# 5 0.0000 0.0000 0.0000 0.0000 28.0878 0.0000
# 6 0.0000 0.0000 0.0000 0.0000 0.0000 24.5394
#
#
#
# Elastic Compliance Matrix: (Units=1/GPa)
#
#
# Indices 1 2 3 4 5 6 
#
# 1 0.017086 -0.005392 -0.011001 0.000000 0.000000 0.000000
# 2 -0.005392 0.011202 -0.000751 0.000000 0.000000 0.000000
# 3 -0.011001 -0.000751 0.026296 0.000000 0.000000 0.000000
# 4 0.000000 0.000000 0.000000 0.081374 0.000000 0.000000
# 5 0.000000 0.000000 0.000000 0.000000 0.035603 0.000000
# 6 0.000000 0.000000 0.000000 0.000000 0.000000 0.040751
#
#
# Mechanical properties :
#
#
# Convention : Reuss Voigt Hill
#
# Bulk Modulus (GPa) = 49.26924 58.57313 53.92118
# Shear Modulus (GPa) = 19.73441 23.29137 21.51289
#
# Velocity S-wave (km/s) = 3.37265 3.66401 3.52134
# Velocity P-wave (km/s) = 6.60036 7.18756 6.90021
#
# Compressibility (1/GPa) = 0.02029664
#
# Stress axis : x y z
#
# Youngs Moduli (GPa) = 58.52668 89.26637 38.02927
#
# Poissons Ratio (x) = 0.48129 0.41838
# Poissons Ratio (y) = 0.31555 0.02855
# Poissons Ratio (z) = 0.64388 0.06702
#
# Static dielectric constant tensor:
#      x y z
#    x 1.577840 0.000000 0.000000 
#    y 0.000000 1.589080 0.000000 
#    z 0.000000 0.000000 1.566090 
# 
# From -- ./inp_files/20342.got.cif
#   From: 2010.05.17/outbox.cif.g08.bks.cpg/sg44_11_cif.got.tgz:20342.got - 2010.06.03 19:37:08.
