data_PCOD9374528
_publ_section_title
;
Structure prediction by ZEFSAII (Michael W. Deem and Ramdas Pophale) SiO2 
 PCOD9374528
Probable space group: I M M 2
;
_chemical_formula_sum "Si O2"
_cell_formula_units_Z 40
_cell_length_a 14.052518
_cell_length_b 8.266450
_cell_length_c 19.131430
_cell_angle_alpha 90.000000
_cell_angle_beta 90.000000
_cell_angle_gamma 90.000000
_cell_volume 2222.391803
_symmetry_space_group_name_H-M "I M M 2"
_symmetry_group_IT_number 44
_symmetry_cell_setting 'orthorhombic'
loop_
_space_group_symop_operation_xyz
x,y,z
-x,-y,z
-x,y,z
x,-y,z
1/2+x,1/2+y,1/2+z
1/2-x,1/2-y,1/2+z
1/2-x,1/2+y,1/2+z
1/2+x,1/2-y,1/2+z
loop_
_atom_site_type_symbol
_atom_site_label
_atom_site_fract_x
_atom_site_fract_y
_atom_site_fract_z
Si Si1 0.608860 0.694825 0.556630
Si Si2 0.107226 0.693792 0.344003
Si Si3 0.606777 0.197377 0.270982
Si Si4 0.295498 0.807101 0.414799
Si Si5 0.298544 0.304036 0.700970
O O1 0.500000 0.754662 0.553040
O O2 0.605565 0.500000 0.560799
O O3 0.665579 0.739990 0.487130
O O4 0.660291 0.753494 0.627274
O O5 0.108969 0.500000 0.346614
O O6 0.187816 0.758647 0.396139
O O7 0.137798 0.748142 0.266252
O O8 0.000000 0.750019 0.359289
O O9 0.500000 0.253155 0.255560
O O10 0.640533 0.248431 0.348555
O O11 0.690381 0.248185 0.218182
O O12 0.605736 0.000000 0.270713
O O13 0.301569 0.000000 0.416898
O O14 0.299488 0.500000 0.701082
#
# Coordination Sequence:
#
# PCOD9374528 Si02
#       5
#     8   8   8   8   8
#     4  10  20  33  49  72 105 139 169 209 259 304
#     4  10  20  34  53  76 101 130 167 212 258 304
#     4   8  14  27  48  72  95 122 161 206 247 289
#     4  10  20  33  51  74 100 131 170 214 255 304
#     4   9  18  32  51  75 103 136 172 208 249 300
#
# _framework density 17.998626000000002
#
# number of rings (size 3 to 8) (size 9 to 14) (size 15 to 20)
#    0.000    2.600    0.000    3.600    0.000    4.400 
#    0.000    1.000    0.000    9.000    0.000    0.000 
#    0.000    0.000    0.000    0.000    0.000    0.000 
#
# Total GULP energy -111552.189057 kJ/mol
# GULP energy per Si atom -5577.609453 kJ/mol
# Density = 1.795766 g / cm^3
# Si number density = 17.998626 Si / 1000 Ang^3
#
#
#
# Elastic Constant Matrix: (Units=GPa)
#
#
# Indices 1 2 3 4 5 6 
#
# 1 172.3098 9.7430 93.9526 0.0000 0.0000 0.0000
# 2 9.7430 8.2033 11.5029 0.0000 0.0000 0.0000
# 3 93.9526 11.5029 148.8330 0.0000 0.0000 0.0000
# 4 0.0000 0.0000 0.0000 23.2372 0.0000 0.0000
# 5 0.0000 0.0000 0.0000 0.0000 11.5749 0.0000
# 6 0.0000 0.0000 0.0000 0.0000 0.0000 16.7425
#
#
#
# Elastic Compliance Matrix: (Units=1/GPa)
#
#
# Indices 1 2 3 4 5 6 
#
# 1 0.008916 -0.003025 -0.005394 0.000000 0.000000 0.000000
# 2 -0.003025 0.137745 -0.008736 0.000000 0.000000 0.000000
# 3 -0.005394 -0.008736 0.010799 0.000000 0.000000 0.000000
# 4 0.000000 0.000000 0.000000 0.043034 0.000000 0.000000
# 5 0.000000 0.000000 0.000000 0.000000 0.086394 0.000000
# 6 0.000000 0.000000 0.000000 0.000000 0.000000 0.059728
#
#
# Mechanical properties :
#
#
# Convention : Reuss Voigt Hill
#
# Bulk Modulus (GPa) = 8.12025 62.19368 35.15697
# Shear Modulus (GPa) = 11.84895 24.58744 18.21819
#
# Velocity S-wave (km/s) = 2.56857 3.70005 3.18496
# Velocity P-wave (km/s) = 3.64940 7.27211 5.75333
#
# Compressibility (1/GPa) = 0.12314885
#
# Stress axis : x y z
#
# Youngs Moduli (GPa) = 112.15914 7.25978 92.59697
#
# Poissons Ratio (x) = 0.02196 0.49951
# Poissons Ratio (y) = 0.33928 0.80897
# Poissons Ratio (z) = 0.60504 0.06342
#
# Static dielectric constant tensor:
#      x y z
#    x 1.634220 0.000000 0.000000 
#    y 0.000000 1.623700 0.000000 
#    z 0.000000 0.000000 1.586630 
# 
# From -- ./inp_files/15786.got.cif
#   From: 2010.05.17/outbox.cif.g08.bks.cpg/sg44_8_cif.got.tgz:15786.got - 2010.06.03 19:37:08.
