data_PCOD9374494
_publ_section_title
;
Structure prediction by ZEFSAII (Michael W. Deem and Ramdas Pophale) SiO2 
 PCOD9374494
Probable space group: I M M 2
;
_chemical_formula_sum "Si O2"
_cell_formula_units_Z 58
_cell_length_a 16.015591
_cell_length_b 7.445983
_cell_length_c 19.676724
_cell_angle_alpha 90.000000
_cell_angle_beta 90.000000
_cell_angle_gamma 90.000000
_cell_volume 2346.485116
_symmetry_space_group_name_H-M "I M M 2"
_symmetry_group_IT_number 44
_symmetry_cell_setting 'orthorhombic'
loop_
_space_group_symop_operation_xyz
x,y,z
-x,-y,z
-x,y,z
x,-y,z
1/2+x,1/2+y,1/2+z
1/2-x,1/2-y,1/2+z
1/2-x,1/2+y,1/2+z
1/2+x,1/2-y,1/2+z
loop_
_atom_site_type_symbol
_atom_site_label
_atom_site_fract_x
_atom_site_fract_y
_atom_site_fract_z
Si Si1 0.407798 0.281980 0.955180
Si Si2 0.911081 0.708087 0.711082
Si Si3 0.905913 0.717482 0.233053
Si Si4 0.375242 0.783709 0.573110
Si Si5 0.726973 0.208318 0.842936
Si Si6 0.313467 0.285786 0.083606
Si Si7 0.500000 0.500000 0.512596
Si Si8 0.407787 0.296591 0.363678
O O1 0.500000 0.220930 0.936770
O O2 0.407025 0.500000 0.953910
O O3 0.339282 0.217216 0.902962
O O4 0.381283 0.219976 0.030044
O O5 0.912110 0.500000 0.730015
O O6 0.836862 0.736468 0.659729
O O7 0.907556 0.808307 0.781646
O O8 0.000000 0.754555 0.676934
O O9 0.905084 0.500000 0.239619
O O10 0.896445 0.755860 0.152708
O O11 0.826877 0.782423 0.278459
O O12 0.000000 0.777966 0.254524
O O13 0.278932 0.733656 0.563436
O O14 0.429043 0.660063 0.524865
O O15 0.386828 0.000000 0.563217
O O16 0.815118 0.286176 0.871701
O O17 0.746531 0.000000 0.827034
O O18 0.315134 0.500000 0.081686
O O19 0.500000 0.216279 0.380940
O O20 0.411478 0.500000 0.392211
#
# Coordination Sequence:
#
# PCOD9374494 Si02
#       8
#     8   8   8   8   8   8   2   8
#     4  10  22  40  59  84 113 146 188 238 290 348
#     4  10  20  32  51  86 122 147 181 235 292 344
#     4   9  16  30  51  77 113 150 187 231 284 349
#     4  10  21  38  59  86 121 160 196 244 297 361
#     4  10  20  35  57  82 109 149 194 235 286 344
#     4  10  21  38  60  79 110 154 196 235 286 351
#     4  12  22  36  60  90 122 156 198 240 308 356
#     4   9  18  34  56  80 112 151 191 229 280 346
#
# _framework density 24.717822000000002
#
# number of rings (size 3 to 8) (size 9 to 14) (size 15 to 20)
#    0.000    2.207    0.690    2.276    0.966    5.517 
#    1.241    0.000    1.517    0.000    0.000    0.000 
#    0.000    0.000    0.000    0.000    0.000    0.000 
#
# Total GULP energy -161763.677878 kJ/mol
# GULP energy per Si atom -5578.057858 kJ/mol
# Density = 2.466156 g / cm^3
# Si number density = 24.717822 Si / 1000 Ang^3
#
#
#
# Elastic Constant Matrix: (Units=GPa)
#
#
# Indices 1 2 3 4 5 6 
#
# 1 198.4349 44.5229 37.4421 0.0000 0.0000 0.0000
# 2 44.5229 64.4864 -2.1448 0.0000 0.0000 0.0000
# 3 37.4421 -2.1448 75.0356 0.0000 0.0000 0.0000
# 4 0.0000 0.0000 0.0000 14.8085 0.0000 0.0000
# 5 0.0000 0.0000 0.0000 0.0000 12.9519 0.0000
# 6 0.0000 0.0000 0.0000 0.0000 0.0000 38.2015
#
#
#
# Elastic Compliance Matrix: (Units=1/GPa)
#
#
# Indices 1 2 3 4 5 6 
#
# 1 0.006780 -0.004798 -0.003520 0.000000 0.000000 0.000000
# 2 -0.004798 0.018918 0.002935 0.000000 0.000000 0.000000
# 3 -0.003520 0.002935 0.015168 0.000000 0.000000 0.000000
# 4 0.000000 0.000000 0.000000 0.067529 0.000000 0.000000
# 5 0.000000 0.000000 0.000000 0.000000 0.077209 0.000000
# 6 0.000000 0.000000 0.000000 0.000000 0.000000 0.026177
#
#
# Mechanical properties :
#
#
# Convention : Reuss Voigt Hill
#
# Bulk Modulus (GPa) = 33.22474 55.28858 44.25666
# Shear Modulus (GPa) = 21.49794 30.40148 25.94971
#
# Velocity S-wave (km/s) = 2.95233 3.51086 3.24364
# Velocity P-wave (km/s) = 5.00923 6.23308 5.65437
#
# Compressibility (1/GPa) = 0.03009806
#
# Stress axis : x y z
#
# Youngs Moduli (GPa) = 147.48569 52.86063 65.93002
#
# Poissons Ratio (x) = 0.25365 0.23211
# Poissons Ratio (y) = 0.70769 -0.19351
# Poissons Ratio (z) = 0.51922 -0.15515
#
# Static dielectric constant tensor:
#      x y z
#    x 1.991410 0.000000 0.000000 
#    y 0.000000 1.990790 0.000000 
#    z 0.000000 0.000000 1.985290 
# 
# From -- ./inp_files/24981.got.cif
#   From: 2010.05.17/outbox.cif.g08.bks.cpg/sg44_13_cif.got.tgz:24981.got - 2010.06.03 19:37:08.
