data_PCOD9374058
_publ_section_title
;
Structure prediction by ZEFSAII (Michael W. Deem and Ramdas Pophale) SiO2 
 PCOD9374058
Probable space group: I M M 2
;
_chemical_formula_sum "Si O2"
_cell_formula_units_Z 64
_cell_length_a 7.948116
_cell_length_b 25.918041
_cell_length_c 15.320866
_cell_angle_alpha 90.000000
_cell_angle_beta 90.000000
_cell_angle_gamma 90.000000
_cell_volume 3156.092212
_symmetry_space_group_name_H-M "I M M 2"
_symmetry_group_IT_number 44
_symmetry_cell_setting 'orthorhombic'
loop_
_space_group_symop_operation_xyz
x,y,z
-x,-y,z
-x,y,z
x,-y,z
1/2+x,1/2+y,1/2+z
1/2-x,1/2-y,1/2+z
1/2-x,1/2+y,1/2+z
1/2+x,1/2-y,1/2+z
loop_
_atom_site_type_symbol
_atom_site_label
_atom_site_fract_x
_atom_site_fract_y
_atom_site_fract_z
Si Si1 0.795943 0.329703 0.024200
Si Si2 0.704358 0.940206 0.856164
Si Si3 0.697331 0.607805 0.541076
Si Si4 0.303850 0.782367 0.988475
Si Si5 0.305033 0.731787 0.293092
Si Si6 0.198768 0.557179 0.715796
Si Si7 0.195633 0.369480 0.200898
Si Si8 0.706067 0.845717 0.325327
O O1 0.732697 0.364889 0.103517
O O2 0.000000 0.329566 0.025730
O O3 0.737218 0.270834 0.036698
O O4 0.743472 0.346281 0.927022
O O5 0.500000 0.937195 0.857417
O O6 0.768732 0.908554 0.772216
O O7 0.752783 0.000000 0.852611
O O8 0.765773 0.914315 0.945194
O O9 0.500000 0.607024 0.557318
O O10 0.760453 0.666651 0.542040
O O11 0.782186 0.573346 0.615185
O O12 0.500000 0.783778 0.965944
O O13 0.205347 0.781072 0.896557
O O14 0.500000 0.729852 0.265646
O O15 0.207837 0.687651 0.241957
O O16 0.240832 0.790524 0.285376
O O17 0.270669 0.500000 0.730912
O O18 0.267564 0.604437 0.773342
O O19 0.000000 0.554672 0.735489
O O20 0.000000 0.383911 0.191493
O O21 0.500000 0.844711 0.323174
#
# Coordination Sequence:
#
# PCOD9374058 Si02
#       8
#     8   8   8   8   8   8   8   8
#     4   9  19  36  56  82 117 151 187 233 282 332
#     4  10  21  38  58  81 113 153 191 230 276 332
#     4  12  24  37  55  82 113 148 187 233 288 341
#     4  11  21  35  55  81 113 149 187 227 283 341
#     4  10  19  33  54  81 113 148 186 230 278 332
#     4  10  21  38  59  82 109 147 194 239 282 333
#     4  10  20  34  55  83 116 152 190 230 276 333
#     4   8  17  35  56  79 110 146 185 232 283 329
#
# _framework density 20.278241000000001
#
# number of rings (size 3 to 8) (size 9 to 14) (size 15 to 20)
#    0.000    2.000    1.250    3.750    1.750    2.500 
#    0.000    3.125    0.000    3.750    0.000    0.000 
#    0.000    6.000    0.000    0.000    0.000    0.000 
#
# Total GULP energy -178711.942878 kJ/mol
# GULP energy per Si atom -5584.748215 kJ/mol
# Density = 2.023209 g / cm^3
# Si number density = 20.278241 Si / 1000 Ang^3
#
#
#
# Elastic Constant Matrix: (Units=GPa)
#
#
# Indices 1 2 3 4 5 6 
#
# 1 28.8125 1.0136 -10.7687 0.0000 0.0000 0.0000
# 2 1.0136 118.5032 37.0024 0.0000 0.0000 0.0000
# 3 -10.7687 37.0024 57.3968 0.0000 0.0000 0.0000
# 4 0.0000 0.0000 0.0000 15.7313 0.0000 0.0000
# 5 0.0000 0.0000 0.0000 0.0000 8.2088 0.0000
# 6 0.0000 0.0000 0.0000 0.0000 0.0000 13.8945
#
#
#
# Elastic Compliance Matrix: (Units=1/GPa)
#
#
# Indices 1 2 3 4 5 6 
#
# 1 0.038280 -0.003218 0.009256 0.000000 0.000000 0.000000
# 2 -0.003218 0.010836 -0.007589 0.000000 0.000000 0.000000
# 3 0.009256 -0.007589 0.024052 0.000000 0.000000 0.000000
# 4 0.000000 0.000000 0.000000 0.063568 0.000000 0.000000
# 5 0.000000 0.000000 0.000000 0.000000 0.121820 0.000000
# 6 0.000000 0.000000 0.000000 0.000000 0.000000 0.071971
#
#
# Mechanical properties :
#
#
# Convention : Reuss Voigt Hill
#
# Bulk Modulus (GPa) = 14.27216 28.80079 21.53647
# Shear Modulus (GPa) = 14.00626 19.39793 16.70209
#
# Velocity S-wave (km/s) = 2.63098 3.09623 2.87304
# Velocity P-wave (km/s) = 4.03520 5.19768 4.65288
#
# Compressibility (1/GPa) = 0.07006648
#
# Stress axis : x y z
#
# Youngs Moduli (GPa) = 26.12332 92.28611 41.57670
#
# Poissons Ratio (x) = 0.29695 -0.38485
# Poissons Ratio (y) = 0.08406 0.31554
# Poissons Ratio (z) = -0.24181 0.70039
#
# Static dielectric constant tensor:
#      x y z
#    x 1.724180 0.000000 0.000000 
#    y 0.000000 1.709050 0.000000 
#    z 0.000000 0.000000 1.728410 
# 
# From -- ./inp_files/16887.got.cif
#   From: 2010.05.17/outbox.cif.g08.bks.cpg/sg44_9_cif.got.tgz:16887.got - 2010.06.03 19:37:08.
