data_PCOD9374745
_publ_section_title
;
Structure prediction by ZEFSAII (Michael W. Deem and Ramdas Pophale) SiO2 
 PCOD9374745
Probable space group: I M M 2
;
_chemical_formula_sum "Si O2"
_cell_formula_units_Z 48
_cell_length_a 8.259135
_cell_length_b 18.976686
_cell_length_c 15.491586
_cell_angle_alpha 90.000000
_cell_angle_beta 90.000000
_cell_angle_gamma 90.000000
_cell_volume 2428.011944
_symmetry_space_group_name_H-M "I M M 2"
_symmetry_group_IT_number 44
_symmetry_cell_setting 'orthorhombic'
loop_
_space_group_symop_operation_xyz
x,y,z
-x,-y,z
-x,y,z
x,-y,z
1/2+x,1/2+y,1/2+z
1/2-x,1/2-y,1/2+z
1/2-x,1/2+y,1/2+z
1/2+x,1/2-y,1/2+z
loop_
_atom_site_type_symbol
_atom_site_label
_atom_site_fract_x
_atom_site_fract_y
_atom_site_fract_z
Si Si1 0.191884 0.000000 0.770741
Si Si2 0.804018 0.736356 0.491962
Si Si3 0.196807 0.729136 0.690184
Si Si4 0.307639 0.607752 0.936215
Si Si5 0.691128 0.924129 0.251069
Si Si6 0.193048 0.500000 0.074601
Si Si7 0.693926 0.847028 0.828875
O O1 0.244242 0.000000 0.671118
O O2 0.255405 0.926920 0.810351
O O3 0.000000 0.000000 0.776964
O O4 0.747566 0.737758 0.590919
O O5 0.766735 0.810867 0.448261
O O6 0.746291 0.678172 0.423556
O O7 0.000000 0.730413 0.497084
O O8 0.255995 0.651154 0.718701
O O9 0.249950 0.791401 0.755044
O O10 0.000000 0.729564 0.692001
O O11 0.500000 0.600119 0.922198
O O12 0.216168 0.577955 0.853741
O O13 0.259064 0.566714 0.022050
O O14 0.500000 0.924111 0.231007
O O15 0.758123 0.000000 0.219421
O O16 0.000000 0.500000 0.073704
O O17 0.500000 0.843556 0.829133
#
# Coordination Sequence:
#
# PCOD9374745 Si02
#       7
#     4   8   8   8   8   4   8
#     4  12  26  44  62  87 120 159 200 247 308 372
#     4   9  20  37  59  87 118 154 202 247 299 360
#     4  10  20  38  62  88 120 163 207 254 306 362
#     4  11  20  34  57  85 120 160 197 241 300 365
#     4  10  20  34  54  84 120 156 201 252 301 356
#     4  12  24  38  58  91 124 155 198 251 304 364
#     4  11  22  41  64  90 121 159 204 258 307 360
#
# _framework density 19.769262000000001
#
# number of rings (size 3 to 8) (size 9 to 14) (size 15 to 20)
#    0.000    1.500    2.500    3.500    0.000    1.333 
#    1.500    2.500    0.000    0.000    0.000    0.000 
#    0.000    0.000    0.000    0.000    0.000    0.000 
#
# Total GULP energy -133967.608237 kJ/mol
# GULP energy per Si atom -5581.983677 kJ/mol
# Density = 1.972427 g / cm^3
# Si number density = 19.769262 Si / 1000 Ang^3
#
#
#
# Elastic Constant Matrix: (Units=GPa)
#
#
# Indices 1 2 3 4 5 6 
#
# 1 33.0429 17.9147 5.9397 0.0000 0.0000 0.0000
# 2 17.9147 151.6622 48.9811 0.0000 0.0000 0.0000
# 3 5.9397 48.9811 97.3606 0.0000 0.0000 0.0000
# 4 0.0000 0.0000 0.0000 14.2399 0.0000 0.0000
# 5 0.0000 0.0000 0.0000 0.0000 22.2133 0.0000
# 6 0.0000 0.0000 0.0000 0.0000 0.0000 15.5998
#
#
#
# Elastic Compliance Matrix: (Units=1/GPa)
#
#
# Indices 1 2 3 4 5 6 
#
# 1 0.032335 -0.003800 -0.000061 0.000000 0.000000 0.000000
# 2 -0.003800 0.008319 -0.003954 0.000000 0.000000 0.000000
# 3 -0.000061 -0.003954 0.012264 0.000000 0.000000 0.000000
# 4 0.000000 0.000000 0.000000 0.070225 0.000000 0.000000
# 5 0.000000 0.000000 0.000000 0.000000 0.045018 0.000000
# 6 0.000000 0.000000 0.000000 0.000000 0.000000 0.064103
#
#
# Mechanical properties :
#
#
# Convention : Reuss Voigt Hill
#
# Bulk Modulus (GPa) = 26.81740 47.52629 37.17185
# Shear Modulus (GPa) = 19.20689 24.35926 21.78307
#
# Velocity S-wave (km/s) = 3.12036 3.51405 3.32304
# Velocity P-wave (km/s) = 5.15527 6.36847 5.79371
#
# Compressibility (1/GPa) = 0.03728922
#
# Stress axis : x y z
#
# Youngs Moduli (GPa) = 30.92645 120.20281 81.54078
#
# Poissons Ratio (x) = 0.45674 0.00498
# Poissons Ratio (y) = 0.11751 0.32237
# Poissons Ratio (z) = 0.00189 0.47523
#
# Static dielectric constant tensor:
#      x y z
#    x 1.690950 0.000000 0.000000 
#    y 0.000000 1.741060 0.000000 
#    z 0.000000 0.000000 1.682530 
# 
# From -- ./inp_files/16177.got.cif
#   From: 2010.05.17/outbox.cif.g08.bks.cpg/sg44_9_cif.got.tgz:16177.got - 2010.06.03 19:37:08.
