data_PCOD9374576
_publ_section_title
;
Structure prediction by ZEFSAII (Michael W. Deem and Ramdas Pophale) SiO2 
 PCOD9374576
Probable space group: I M M 2
;
_chemical_formula_sum "Si O2"
_cell_formula_units_Z 56
_cell_length_a 23.156585
_cell_length_b 14.716124
_cell_length_c 9.154827
_cell_angle_alpha 90.000000
_cell_angle_beta 90.000000
_cell_angle_gamma 90.000000
_cell_volume 3119.737785
_symmetry_space_group_name_H-M "I M M 2"
_symmetry_group_IT_number 44
_symmetry_cell_setting 'orthorhombic'
loop_
_space_group_symop_operation_xyz
x,y,z
-x,-y,z
-x,y,z
x,-y,z
1/2+x,1/2+y,1/2+z
1/2-x,1/2-y,1/2+z
1/2-x,1/2+y,1/2+z
1/2+x,1/2-y,1/2+z
loop_
_atom_site_type_symbol
_atom_site_label
_atom_site_fract_x
_atom_site_fract_y
_atom_site_fract_z
Si Si1 0.067094 0.107459 0.344310
Si Si2 0.134419 0.267637 0.895962
Si Si3 0.206157 0.395774 0.690977
Si Si4 0.889537 0.606345 0.457391
Si Si5 0.663160 0.395134 0.599756
Si Si6 0.065211 0.773853 0.612594
Si Si7 0.069022 0.391580 0.132278
O O1 0.109894 0.122084 0.209556
O O2 0.089416 0.162509 0.484377
O O3 0.000000 0.134622 0.313899
O O4 0.067068 0.000000 0.375572
O O5 0.180899 0.330112 0.813403
O O6 0.096374 0.226559 0.765790
O O7 0.161043 0.182930 0.980258
O O8 0.096763 0.330137 0.005661
O O9 0.191983 0.500000 0.729719
O O10 0.172797 0.378740 0.535847
O O11 0.274604 0.387916 0.676171
O O12 0.903958 0.500000 0.473828
O O13 0.930816 0.672016 0.548874
O O14 0.898462 0.627701 0.286338
O O15 0.658043 0.500000 0.546496
O O16 0.000000 0.803325 0.633950
O O17 0.075642 0.500000 0.101736
O O18 0.000000 0.374202 0.148345
#
# Coordination Sequence:
#
# PCOD9374576 Si02
#       7
#     8   8   8   8   8   8   8
#     4   9  19  37  58  77 101 138 181 221 263 316
#     4  11  22  34  54  81 111 141 176 223 277 325
#     4   9  20  39  57  76 106 143 182 223 269 321
#     4   9  18  33  53  76 105 142 180 216 258 315
#     4  10  22  39  58  80 108 142 181 225 271 324
#     4  10  20  33  51  77 107 138 173 216 266 320
#     4  10  20  34  54  82 114 147 184 226 272 323
#
# _framework density 17.950226000000001
#
# number of rings (size 3 to 8) (size 9 to 14) (size 15 to 20)
#    0.000    2.286    0.000    2.143    0.000    7.714 
#    0.000    0.000    0.000    6.000    0.000    0.000 
#    0.000    0.000    0.000    0.000    0.000    0.000 
#
# Total GULP energy -156103.923137 kJ/mol
# GULP energy per Si atom -5575.140112 kJ/mol
# Density = 1.790937 g / cm^3
# Si number density = 17.950226 Si / 1000 Ang^3
#
#
#
# Elastic Constant Matrix: (Units=GPa)
#
#
# Indices 1 2 3 4 5 6 
#
# 1 75.1367 45.0793 47.8660 0.0000 0.0000 0.0000
# 2 45.0793 78.8840 67.5009 0.0000 0.0000 0.0000
# 3 47.8660 67.5009 102.8527 0.0000 0.0000 0.0000
# 4 0.0000 0.0000 0.0000 31.2351 0.0000 0.0000
# 5 0.0000 0.0000 0.0000 0.0000 12.6098 0.0000
# 6 0.0000 0.0000 0.0000 0.0000 0.0000 10.0892
#
#
#
# Elastic Compliance Matrix: (Units=1/GPa)
#
#
# Indices 1 2 3 4 5 6 
#
# 1 0.021070 -0.008326 -0.004342 0.000000 0.000000 0.000000
# 2 -0.008326 0.032205 -0.017261 0.000000 0.000000 0.000000
# 3 -0.004342 -0.017261 0.023071 0.000000 0.000000 0.000000
# 4 0.000000 0.000000 0.000000 0.032015 0.000000 0.000000
# 5 0.000000 0.000000 0.000000 0.000000 0.079303 0.000000
# 6 0.000000 0.000000 0.000000 0.000000 0.000000 0.099116
#
#
# Mechanical properties :
#
#
# Convention : Reuss Voigt Hill
#
# Bulk Modulus (GPa) = 60.64408 64.19622 62.42015
# Shear Modulus (GPa) = 14.19916 17.21531 15.70723
#
# Velocity S-wave (km/s) = 2.81558 3.10023 2.96132
# Velocity P-wave (km/s) = 6.66542 6.97541 6.82218
#
# Compressibility (1/GPa) = 0.01648966
#
# Stress axis : x y z
#
# Youngs Moduli (GPa) = 47.46088 31.05124 43.34376
#
# Poissons Ratio (x) = 0.25852 0.18818
# Poissons Ratio (y) = 0.39514 0.74816
# Poissons Ratio (z) = 0.20606 0.53598
#
# Static dielectric constant tensor:
#      x y z
#    x 1.609490 0.000000 0.000000 
#    y 0.000000 1.621960 0.000000 
#    z 0.000000 0.000000 1.601750 
# 
# From -- ./inp_files/7376.got.cif
#   From: 2010.05.17/outbox.cif.g08.bks.cpg/sg44_4_cif.got.tgz:7376.got - 2010.06.03 19:37:08.
