data_PCOD9374126
_publ_section_title
;
Structure prediction by ZEFSAII (Michael W. Deem and Ramdas Pophale) SiO2 
 PCOD9374126
Probable space group: I M M 2
;
_chemical_formula_sum "Si O2"
_cell_formula_units_Z 58
_cell_length_a 7.992624
_cell_length_b 25.410493
_cell_length_c 13.930788
_cell_angle_alpha 90.000000
_cell_angle_beta 90.000000
_cell_angle_gamma 90.000000
_cell_volume 2829.294511
_symmetry_space_group_name_H-M "I M M 2"
_symmetry_group_IT_number 44
_symmetry_cell_setting 'orthorhombic'
loop_
_space_group_symop_operation_xyz
x,y,z
-x,-y,z
-x,y,z
x,-y,z
1/2+x,1/2+y,1/2+z
1/2-x,1/2-y,1/2+z
1/2-x,1/2+y,1/2+z
1/2+x,1/2-y,1/2+z
loop_
_atom_site_type_symbol
_atom_site_label
_atom_site_fract_x
_atom_site_fract_y
_atom_site_fract_z
Si Si1 0.311931 0.574951 0.323150
Si Si2 0.198678 0.060165 0.456549
Si Si3 0.301331 0.124464 0.636070
Si Si4 0.000000 0.500000 0.366737
Si Si5 0.202933 0.837774 0.127099
Si Si6 0.696307 0.765761 0.725381
Si Si7 0.699518 0.940780 0.237647
Si Si8 0.191714 0.810320 0.917238
O O1 0.500000 0.554558 0.340780
O O2 0.285038 0.583749 0.209327
O O3 0.309514 0.632324 0.369815
O O4 0.151108 0.544457 0.361740
O O5 0.272486 0.103194 0.529140
O O6 0.234067 0.071389 0.344596
O O7 0.000000 0.059974 0.470751
O O8 0.261726 0.000000 0.475616
O O9 0.500000 0.123294 0.656298
O O10 0.238810 0.183299 0.665108
O O11 0.263688 0.791147 0.196578
O O12 0.254907 0.895116 0.163343
O O13 0.000000 0.839436 0.123470
O O14 0.263326 0.819350 0.022492
O O15 0.500000 0.764254 0.702942
O O16 0.718949 0.775082 0.838264
O O17 0.500000 0.942738 0.243701
O O18 0.759634 0.000000 0.211164
O O19 0.000000 0.791242 0.926544
#
# Coordination Sequence:
#
# PCOD9374126 Si02
#       8
#     8   8   8   2   8   8   8   8
#     4  10  21  37  55  83 121 163 208 256 304 369
#     4  10  21  35  55  82 116 159 201 245 295 353
#     4  10  19  34  54  84 123 163 198 244 306 356
#     4  12  22  36  56  86 116 166 214 256 314 346
#     4  10  21  40  64  89 115 154 196 237 297 360
#     4   9  20  37  60  87 120 153 192 243 293 351
#     4  10  22  41  59  84 115 149 192 248 298 352
#     4   9  20  39  60  83 120 158 194 241 298 358
#
# _framework density 20.49981
#
# number of rings (size 3 to 8) (size 9 to 14) (size 15 to 20)
#    0.000    2.207    0.690    1.448    1.931    4.414 
#    1.241    1.379    0.000    0.000    0.000    0.000 
#    0.000    0.000    0.000    0.000    0.000    0.000 
#
# Total GULP energy -161439.255537 kJ/mol
# GULP energy per Si atom -5566.870881 kJ/mol
# Density = 2.045315 g / cm^3
# Si number density = 20.499810 Si / 1000 Ang^3
#
#
#
# Elastic Constant Matrix: (Units=GPa)
#
#
# Indices 1 2 3 4 5 6 
#
# 1 74.8430 9.2479 -3.2968 -0.0001 0.0000 0.0000
# 2 9.2479 87.5435 53.2899 -0.0002 0.0000 0.0000
# 3 -3.2968 53.2899 95.3752 -0.0007 0.0000 -0.0002
# 4 -0.0001 -0.0002 -0.0007 15.4134 0.0000 -0.0001
# 5 0.0000 0.0000 0.0000 0.0000 25.0479 0.0000
# 6 0.0000 0.0000 -0.0002 -0.0001 0.0000 51.5205
#
#
#
# Elastic Compliance Matrix: (Units=1/GPa)
#
#
# Indices 1 2 3 4 5 6 
#
# 1 0.013774 -0.002644 0.001954 0.000000 0.000000 0.000000
# 2 -0.002644 0.017818 -0.010047 0.000000 0.000000 0.000000
# 3 0.001954 -0.010047 0.016166 0.000001 0.000000 0.000000
# 4 0.000000 0.000000 0.000001 0.064878 0.000000 0.000000
# 5 0.000000 0.000000 0.000000 0.000000 0.039924 0.000000
# 6 0.000000 0.000000 0.000000 0.000000 0.000000 0.019410
#
#
# Mechanical properties :
#
#
# Convention : Reuss Voigt Hill
#
# Bulk Modulus (GPa) = 38.04768 41.80485 39.92627
# Shear Modulus (GPa) = 24.72718 31.63108 28.17913
#
# Velocity S-wave (km/s) = 3.47683 3.93236 3.71159
# Velocity P-wave (km/s) = 5.89221 6.40742 6.15520
#
# Compressibility (1/GPa) = 0.02628281
#
# Stress axis : x y z
#
# Youngs Moduli (GPa) = 72.60013 56.12263 61.85768
#
# Poissons Ratio (x) = 0.14840 -0.12084
# Poissons Ratio (y) = 0.19197 0.62149
# Poissons Ratio (z) = -0.14183 0.56387
#
# Static dielectric constant tensor:
#      x y z
#    x 1.736260 0.000000 0.000000 
#    y 0.000000 1.741010 0.000000 
#    z 0.000000 0.000000 1.746260 
# 
# From -- ./inp_files/11287.got.cif
#   From: 2010.05.17/outbox.cif.g08.bks.cpg/sg44_6_cif.got.tgz:11287.got - 2010.06.03 19:37:08.
