data_PCOD9374859
_publ_section_title
;
Structure prediction by ZEFSAII (Michael W. Deem and Ramdas Pophale) SiO2 
 PCOD9374859
Probable space group: I M M 2
;
_chemical_formula_sum "Si O2"
_cell_formula_units_Z 56
_cell_length_a 21.133390
_cell_length_b 7.699578
_cell_length_c 14.588478
_cell_angle_alpha 90.000000
_cell_angle_beta 90.000000
_cell_angle_gamma 90.000000
_cell_volume 2373.810658
_symmetry_space_group_name_H-M "I M M 2"
_symmetry_group_IT_number 44
_symmetry_cell_setting 'orthorhombic'
loop_
_space_group_symop_operation_xyz
x,y,z
-x,-y,z
-x,y,z
x,-y,z
1/2+x,1/2+y,1/2+z
1/2-x,1/2-y,1/2+z
1/2-x,1/2+y,1/2+z
1/2+x,1/2-y,1/2+z
loop_
_atom_site_type_symbol
_atom_site_label
_atom_site_fract_x
_atom_site_fract_y
_atom_site_fract_z
Si Si1 0.160835 0.702461 0.984580
Si Si2 0.927981 0.707242 0.819657
Si Si3 0.761890 0.296458 0.335543
Si Si4 0.569469 0.286349 0.042594
Si Si5 0.430434 0.290872 0.640728
Si Si6 0.403988 0.300168 0.842229
Si Si7 0.828456 0.805484 0.677469
O O1 0.175494 0.500000 0.984690
O O2 0.100789 0.737667 0.919239
O O3 0.218775 0.783467 0.927295
O O4 0.132840 0.747829 0.083499
O O5 0.921220 0.500000 0.800277
O O6 0.886547 0.812118 0.748627
O O7 0.000000 0.756294 0.815522
O O8 0.772972 0.500000 0.319304
O O9 0.828211 0.204865 0.347413
O O10 0.725170 0.226809 0.244225
O O11 0.500000 0.237271 0.082266
O O12 0.572363 0.500000 0.045452
O O13 0.634018 0.223288 0.092112
O O14 0.571410 0.226146 0.937586
O O15 0.500000 0.231926 0.604518
O O16 0.432010 0.500000 0.642559
O O17 0.423863 0.223765 0.744781
O O18 0.425551 0.500000 0.841107
O O19 0.807355 0.000000 0.650781
#
# Coordination Sequence:
#
# PCOD9374859 Si02
#       7
#     8   8   8   8   8   8   8
#     4  10  20  35  56  80 108 144 186 232 281 336
#     4   9  17  29  46  72 106 139 170 210 265 326
#     4  10  21  37  55  81 115 147 182 225 277 335
#     4   9  17  32  56  83 107 135 177 225 269 317
#     4  10  21  37  57  83 115 150 189 235 287 339
#     4  10  21  37  57  80 109 149 191 229 271 324
#     4   9  18  32  52  77 104 135 173 217 264 317
#
# _framework density 23.590762000000002
#
# number of rings (size 3 to 8) (size 9 to 14) (size 15 to 20)
#    0.000    2.429    0.000    2.143    0.000    6.286 
#    0.000    2.143    0.000    2.143    0.000    0.000 
#    0.000    0.000    0.000    0.000    0.000    0.000 
#
# Total GULP energy -156169.020352 kJ/mol
# GULP energy per Si atom -5577.465013 kJ/mol
# Density = 2.353707 g / cm^3
# Si number density = 23.590762 Si / 1000 Ang^3
#
#
#
# Elastic Constant Matrix: (Units=GPa)
#
#
# Indices 1 2 3 4 5 6 
#
# 1 120.9522 0.1999 20.0286 0.0000 0.0000 0.0000
# 2 0.1999 23.5634 6.4699 0.0000 0.0000 0.0000
# 3 20.0286 6.4699 98.5889 0.0000 0.0000 0.0000
# 4 0.0000 0.0000 0.0000 45.5881 0.0000 0.0000
# 5 0.0000 0.0000 0.0000 0.0000 27.4657 0.0000
# 6 0.0000 0.0000 0.0000 0.0000 0.0000 6.8319
#
#
#
# Elastic Compliance Matrix: (Units=1/GPa)
#
#
# Indices 1 2 3 4 5 6 
#
# 1 0.008559 0.000412 -0.001766 0.000000 0.000000 0.000000
# 2 0.000412 0.043237 -0.002921 0.000000 0.000000 0.000000
# 3 -0.001766 -0.002921 0.010694 0.000000 0.000000 0.000000
# 4 0.000000 0.000000 0.000000 0.021936 0.000000 0.000000
# 5 0.000000 0.000000 0.000000 0.000000 0.036409 0.000000
# 6 0.000000 0.000000 0.000000 0.000000 0.000000 0.146372
#
#
# Mechanical properties :
#
#
# Convention : Reuss Voigt Hill
#
# Bulk Modulus (GPa) = 18.53890 32.94458 25.74174
# Shear Modulus (GPa) = 17.02206 30.40422 23.71314
#
# Velocity S-wave (km/s) = 2.68909 3.59391 3.17391
# Velocity P-wave (km/s) = 4.18536 5.58721 4.93630
#
# Compressibility (1/GPa) = 0.05394064
#
# Stress axis : x y z
#
# Youngs Moduli (GPa) = 116.82962 23.12818 93.51391
#
# Poissons Ratio (x) = -0.00954 0.16514
# Poissons Ratio (y) = -0.04817 0.27317
# Poissons Ratio (z) = 0.20631 0.06756
#
# Static dielectric constant tensor:
#      x y z
#    x 1.901680 0.000000 0.000000 
#    y 0.000000 1.889010 0.000000 
#    z 0.000000 0.000000 1.976740 
# 
# From -- ./inp_files/16448.got.cif
#   From: 2010.05.17/outbox.cif.g08.bks.cpg/sg44_9_cif.got.tgz:16448.got - 2010.06.03 19:37:08.
