data_PCOD9374898
_publ_section_title
;
Structure prediction by ZEFSAII (Michael W. Deem and Ramdas Pophale) SiO2 
 PCOD9374898
Probable space group: I M M 2
;
_chemical_formula_sum "Si O2"
_cell_formula_units_Z 64
_cell_length_a 8.321172
_cell_length_b 28.938147
_cell_length_c 13.032311
_cell_angle_alpha 90.000000
_cell_angle_beta 90.000000
_cell_angle_gamma 90.000000
_cell_volume 3138.171347
_symmetry_space_group_name_H-M "I M M 2"
_symmetry_group_IT_number 44
_symmetry_cell_setting 'orthorhombic'
loop_
_space_group_symop_operation_xyz
x,y,z
-x,-y,z
-x,y,z
x,-y,z
1/2+x,1/2+y,1/2+z
1/2-x,1/2-y,1/2+z
1/2-x,1/2+y,1/2+z
1/2+x,1/2-y,1/2+z
loop_
_atom_site_type_symbol
_atom_site_label
_atom_site_fract_x
_atom_site_fract_y
_atom_site_fract_z
Si Si1 0.187422 0.619002 0.857530
Si Si2 0.314872 0.178679 0.695062
Si Si3 0.308553 0.447805 0.679250
Si Si4 0.187628 0.051421 0.522298
Si Si5 0.315289 0.069773 0.741236
Si Si6 0.804623 0.696012 0.413528
Si Si7 0.194248 0.408430 0.462702
Si Si8 0.194646 0.705402 0.975115
O O1 0.263513 0.589444 0.766093
O O2 0.252048 0.670165 0.885957
O O3 0.000000 0.623114 0.832858
O O4 0.209885 0.589113 0.961719
O O5 0.500000 0.194963 0.688577
O O6 0.319398 0.124701 0.721164
O O7 0.242042 0.200892 0.796495
O O8 0.241886 0.187111 0.584537
O O9 0.500000 0.449851 0.675712
O O10 0.247687 0.500000 0.702256
O O11 0.247686 0.431642 0.567792
O O12 0.219127 0.051318 0.644087
O O13 0.000000 0.060758 0.502652
O O14 0.225570 0.000000 0.482818
O O15 0.500000 0.053094 0.736356
O O16 0.252146 0.065568 0.857727
O O17 0.754623 0.645710 0.456477
O O18 0.745022 0.741631 0.468607
O O19 0.000000 0.695576 0.412195
O O20 0.000000 0.408672 0.457825
O O21 0.000000 0.702030 0.973034
#
# Coordination Sequence:
#
# PCOD9374898 Si02
#       8
#     8   8   8   8   8   8   8   8
#     4  11  23  40  62  85 113 152 202 254 299 356
#     4   8  15  33  55  74 105 145 181 227 284 335
#     4  11  25  43  62  86 121 163 205 254 312 372
#     4  11  23  36  53  83 120 150 182 233 296 357
#     4   9  17  35  60  82 107 146 192 236 285 342
#     4   9  19  35  57  85 116 152 194 242 295 350
#     4   9  20  39  63  88 118 155 201 251 295 351
#     4  10  20  35  57  84 114 149 194 245 297 353
#
# _framework density 20.394043
#
# number of rings (size 3 to 8) (size 9 to 14) (size 15 to 20)
#    0.000    2.250    1.250    3.000    0.000    7.000 
#    0.000    7.500    0.000    0.000    0.000    0.000 
#    0.000    0.000    0.000    0.000    0.000    0.000 
#
# Total GULP energy -178434.754344 kJ/mol
# GULP energy per Si atom -5576.086073 kJ/mol
# Density = 2.034763 g / cm^3
# Si number density = 20.394043 Si / 1000 Ang^3
#
#
#
# Elastic Constant Matrix: (Units=GPa)
#
#
# Indices 1 2 3 4 5 6 
#
# 1 11.9281 3.1753 1.5483 -0.0001 0.0000 0.0000
# 2 3.1753 51.8312 13.4746 -0.0001 0.0000 0.0000
# 3 1.5483 13.4746 96.8364 0.0000 0.0000 0.0000
# 4 -0.0001 -0.0001 0.0000 13.7507 0.0001 0.0000
# 5 0.0000 0.0000 0.0000 0.0001 5.0091 0.0000
# 6 0.0000 0.0000 0.0000 0.0000 0.0000 18.6623
#
#
#
# Elastic Compliance Matrix: (Units=1/GPa)
#
#
# Indices 1 2 3 4 5 6 
#
# 1 0.085266 -0.005052 -0.000660 0.000000 0.000000 0.000000
# 2 -0.005052 0.020317 -0.002746 0.000000 0.000000 0.000000
# 3 -0.000660 -0.002746 0.010719 0.000000 0.000000 0.000000
# 4 0.000000 0.000000 0.000000 0.072724 -0.000002 0.000000
# 5 0.000000 0.000000 0.000000 -0.000002 0.199637 0.000000
# 6 0.000000 0.000000 0.000000 0.000000 0.000000 0.053584
#
#
# Mechanical properties :
#
#
# Convention : Reuss Voigt Hill
#
# Bulk Modulus (GPa) = 10.06186 21.88800 15.97493
# Shear Modulus (GPa) = 10.15656 16.97758 13.56707
#
# Velocity S-wave (km/s) = 2.23405 2.88840 2.58204
# Velocity P-wave (km/s) = 3.40574 4.67757 4.09138
#
# Compressibility (1/GPa) = 0.09938515
#
# Stress axis : x y z
#
# Youngs Moduli (GPa) = 11.72800 49.22020 93.28892
#
# Poissons Ratio (x) = 0.24866 0.06160
# Poissons Ratio (y) = 0.05925 0.25620
# Poissons Ratio (z) = 0.00774 0.13517
#
# Static dielectric constant tensor:
#      x y z
#    x 1.712700 0.000000 0.000000 
#    y 0.000000 1.746740 0.000000 
#    z 0.000000 0.000000 1.746560 
# 
# From -- ./inp_files/11543.got.cif
#   From: 2010.05.17/outbox.cif.g08.bks.cpg/sg44_6_cif.got.tgz:11543.got - 2010.06.03 19:37:08.
