data_PCOD9374838
_publ_section_title
;
Structure prediction by ZEFSAII (Michael W. Deem and Ramdas Pophale) SiO2 
 PCOD9374838
Probable space group: I M M 2
;
_chemical_formula_sum "Si O2"
_cell_formula_units_Z 56
_cell_length_a 8.923043
_cell_length_b 14.627541
_cell_length_c 23.293243
_cell_angle_alpha 90.000000
_cell_angle_beta 90.000000
_cell_angle_gamma 90.000000
_cell_volume 3040.284793
_symmetry_space_group_name_H-M "I M M 2"
_symmetry_group_IT_number 44
_symmetry_cell_setting 'orthorhombic'
loop_
_space_group_symop_operation_xyz
x,y,z
-x,-y,z
-x,y,z
x,-y,z
1/2+x,1/2+y,1/2+z
1/2-x,1/2-y,1/2+z
1/2-x,1/2+y,1/2+z
1/2+x,1/2-y,1/2+z
loop_
_atom_site_type_symbol
_atom_site_label
_atom_site_fract_x
_atom_site_fract_y
_atom_site_fract_z
Si Si1 0.829876 0.855554 0.520620
Si Si2 0.180463 0.892586 0.294041
Si Si3 0.680268 0.901803 0.638039
Si Si4 0.180030 0.300056 0.905340
Si Si5 0.169714 0.356329 0.558884
Si Si6 0.819926 0.098106 0.941780
Si Si7 0.180773 0.800187 0.173630
O O1 0.741634 0.900136 0.573137
O O2 0.745903 0.854862 0.459954
O O3 0.837120 0.749738 0.539941
O O4 0.000000 0.889697 0.515280
O O5 0.258307 0.843335 0.347326
O O6 0.222462 0.843974 0.234280
O O7 0.000000 0.885103 0.300298
O O8 0.218343 0.000000 0.292415
O O9 0.500000 0.899285 0.636453
O O10 0.728337 0.806776 0.667946
O O11 0.726036 0.000000 0.664381
O O12 0.228880 0.193140 0.912213
O O13 0.000000 0.303292 0.907159
O O14 0.261937 0.400112 0.507146
O O15 0.248723 0.355575 0.620522
O O16 0.000000 0.391126 0.561987
O O17 0.000000 0.100403 0.942285
O O18 0.772098 0.000000 0.915834
O O19 0.000000 0.803482 0.168139
#
# Coordination Sequence:
#
# PCOD9374838 Si02
#       7
#     8   8   8   8   8   8   8
#     4   9  17  30  49  73 103 136 166 200 245 295
#     4  10  22  39  56  73  96 131 174 216 258 305
#     4   9  17  30  50  76 104 133 166 205 250 303
#     4  10  20  35  55  77 102 133 171 215 257 298
#     4   9  17  29  48  76 106 133 164 204 247 288
#     4   9  18  33  53  77 106 139 170 200 245 309
#     4   9  18  34  53  72  99 135 172 209 252 304
#
# _framework density 18.419328
#
# number of rings (size 3 to 8) (size 9 to 14) (size 15 to 20)
#    0.000    2.714    0.000    1.286    0.000    6.571 
#    0.000    2.143    0.000    0.857    0.000    0.000 
#    0.000    0.000    0.000    0.000    0.000    0.000 
#
# Total GULP energy -156036.155825 kJ/mol
# GULP energy per Si atom -5572.719851 kJ/mol
# Density = 1.837740 g / cm^3
# Si number density = 18.419328 Si / 1000 Ang^3
#
#
#
# Elastic Constant Matrix: (Units=GPa)
#
#
# Indices 1 2 3 4 5 6 
#
# 1 18.0381 21.9112 31.8279 0.0000 0.0000 0.0000
# 2 21.9112 126.8443 57.6719 0.0000 0.0000 0.0000
# 3 31.8279 57.6719 134.7447 0.0000 0.0000 0.0000
# 4 0.0000 0.0000 0.0000 15.2959 0.0000 0.0000
# 5 0.0000 0.0000 0.0000 0.0000 30.1122 0.0000
# 6 0.0000 0.0000 0.0000 0.0000 0.0000 6.5143
#
#
#
# Elastic Compliance Matrix: (Units=1/GPa)
#
#
# Indices 1 2 3 4 5 6 
#
# 1 0.101548 -0.008239 -0.020460 0.000000 0.000000 0.000000
# 2 -0.008239 0.010457 -0.002530 0.000000 0.000000 0.000000
# 3 -0.020460 -0.002530 0.013337 0.000000 0.000000 0.000000
# 4 0.000000 0.000000 0.000000 0.065377 0.000000 0.000000
# 5 0.000000 0.000000 0.000000 0.000000 0.033209 0.000000
# 6 0.000000 0.000000 0.000000 0.000000 0.000000 0.153509
#
#
# Mechanical properties :
#
#
# Convention : Reuss Voigt Hill
#
# Bulk Modulus (GPa) = 15.90213 55.82769 35.86491
# Shear Modulus (GPa) = 10.84936 21.59886 16.22411
#
# Velocity S-wave (km/s) = 2.42961 3.42807 2.97108
# Velocity P-wave (km/s) = 4.06482 6.78557 5.59315
#
# Compressibility (1/GPa) = 0.06288466
#
# Stress axis : x y z
#
# Youngs Moduli (GPa) = 9.84754 95.62971 74.97933
#
# Poissons Ratio (x) = 0.78789 1.53409
# Poissons Ratio (y) = 0.08113 0.18967
# Poissons Ratio (z) = 0.20148 0.24190
#
# Static dielectric constant tensor:
#      x y z
#    x 1.629110 0.000000 0.000000 
#    y 0.000000 1.703470 0.000000 
#    z 0.000000 0.000000 1.584990 
# 
# From -- ./inp_files/23009.got.cif
#   From: 2010.05.17/outbox.cif.g08.bks.cpg/sg44_12_cif.got.tgz:23009.got - 2010.06.03 19:37:08.
