data_PCOD9374109
_publ_section_title
;
Structure prediction by ZEFSAII (Michael W. Deem and Ramdas Pophale) SiO2 
 PCOD9374109
Probable space group: I M M 2
;
_chemical_formula_sum "Si O2"
_cell_formula_units_Z 64
_cell_length_a 7.803144
_cell_length_b 29.559171
_cell_length_c 13.353476
_cell_angle_alpha 90.000000
_cell_angle_beta 90.000000
_cell_angle_gamma 90.000000
_cell_volume 3080.038901
_symmetry_space_group_name_H-M "I M M 2"
_symmetry_group_IT_number 44
_symmetry_cell_setting 'orthorhombic'
loop_
_space_group_symop_operation_xyz
x,y,z
-x,-y,z
-x,y,z
x,-y,z
1/2+x,1/2+y,1/2+z
1/2-x,1/2-y,1/2+z
1/2-x,1/2+y,1/2+z
1/2+x,1/2-y,1/2+z
loop_
_atom_site_type_symbol
_atom_site_label
_atom_site_fract_x
_atom_site_fract_y
_atom_site_fract_z
Si Si1 0.199417 0.279002 0.848210
Si Si2 0.801647 0.198961 0.997890
Si Si3 0.293807 0.946857 0.010968
Si Si4 0.795686 0.622194 0.903373
Si Si5 0.197244 0.863598 0.627348
Si Si6 0.201744 0.875932 0.849354
Si Si7 0.699335 0.761601 0.650317
Si Si8 0.290524 0.947442 0.234925
O O1 0.271787 0.328497 0.869995
O O2 0.292486 0.248948 0.766775
O O3 0.000000 0.282872 0.817948
O O4 0.200904 0.247919 0.945746
O O5 0.727045 0.214682 0.103305
O O6 0.000000 0.184332 0.014238
O O7 0.722619 0.162759 0.922762
O O8 0.500000 0.941798 0.005964
O O9 0.238527 0.931116 0.122896
O O10 0.254051 0.000000 0.005547
O O11 0.217597 0.920384 0.916998
O O12 0.731218 0.583678 0.827104
O O13 0.000000 0.623674 0.889827
O O14 0.768955 0.617499 0.022709
O O15 0.273567 0.877804 0.736232
O O16 0.210920 0.808903 0.626560
O O17 0.000000 0.877532 0.627122
O O18 0.000000 0.864137 0.835481
O O19 0.500000 0.767164 0.622203
O O20 0.500000 0.947419 0.234532
O O21 0.238217 0.000000 0.246222
#
# Coordination Sequence:
#
# PCOD9374109 Si02
#       8
#     8   8   8   8   8   8   8   8
#     4  10  19  34  51  73 109 146 180 220 269 319
#     4   9  18  34  50  69 105 145 177 217 265 310
#     4   9  19  37  60  86 112 135 170 224 274 321
#     4  10  20  35  57  81 109 147 186 223 269 326
#     4  11  22  37  55  76 109 149 186 228 274 317
#     4  10  21  37  55  76 107 148 184 218 270 326
#     4  11  21  34  52  75 105 144 187 228 269 319
#     4   8  16  34  59  85 112 140 172 218 277 329
#
# _framework density 20.778959
#
# number of rings (size 3 to 8) (size 9 to 14) (size 15 to 20)
#    0.000    2.250    2.500    1.500    1.750    1.750 
#    0.000    1.875    0.000    3.375    0.000    0.000 
#    0.000    0.000    0.000    0.000    0.000    0.000 
#
# Total GULP energy -178270.606003 kJ/mol
# GULP energy per Si atom -5570.956438 kJ/mol
# Density = 2.073167 g / cm^3
# Si number density = 20.778959 Si / 1000 Ang^3
#
#
#
# Elastic Constant Matrix: (Units=GPa)
#
#
# Indices 1 2 3 4 5 6 
#
# 1 18.7873 -2.2873 -8.2523 0.0000 0.0000 0.0000
# 2 -2.2873 46.4672 19.2477 0.0002 0.0000 0.0007
# 3 -8.2523 19.2477 81.4971 0.0003 0.0001 0.0003
# 4 0.0000 0.0002 0.0003 37.2545 0.0000 -0.0001
# 5 0.0000 0.0000 0.0001 0.0000 18.5909 0.0003
# 6 0.0000 0.0007 0.0003 -0.0001 0.0003 -93.1820
#
#
#
# Elastic Compliance Matrix: (Units=1/GPa)
#
#
# Indices 1 2 3 4 5 6 
#
# 1 0.055714 0.000450 0.005535 0.000000 0.000000 0.000000
# 2 0.000450 0.023858 -0.005589 0.000000 0.000000 0.000000
# 3 0.005535 -0.005589 0.014151 0.000000 0.000000 0.000000
# 4 0.000000 0.000000 0.000000 0.026842 0.000000 0.000000
# 5 0.000000 0.000000 0.000000 0.000000 0.053790 0.000000
# 6 0.000000 0.000000 0.000000 0.000000 0.000000 -0.010732
#
#
# Mechanical properties :
#
#
# Convention : Reuss Voigt Hill
#
# Bulk Modulus (GPa) = 10.58047 18.24086 14.41067
# Shear Modulus (GPa) = 25.72867 1.73558 13.73212
#
# Velocity S-wave (km/s) = 3.52264 0.91492 2.57352
# Velocity P-wave (km/s) = 4.65277 3.14860 3.97253
#
# Compressibility (1/GPa) = 0.09451379
#
# Stress axis : x y z
#
# Youngs Moduli (GPa) = 17.94897 41.91502 70.66692
#
# Poissons Ratio (x) = -0.01885 -0.39116
# Poissons Ratio (y) = -0.00807 0.39497
# Poissons Ratio (z) = -0.09935 0.23427
#
# Static dielectric constant tensor:
#      x y z
#    x 1.792080 0.000000 0.000000 
#    y 0.000000 1.744370 0.000000 
#    z 0.000000 0.000000 1.797970 
# 
# From -- ./inp_files/11431.got.cif
#   From: 2010.05.17/outbox.cif.g08.bks.cpg/sg44_6_cif.got.tgz:11431.got - 2010.06.03 19:37:08.
