data_PCOD9374380
_publ_section_title
;
Structure prediction by ZEFSAII (Michael W. Deem and Ramdas Pophale) SiO2 
 PCOD9374380
Probable space group: I M M 2
;
_chemical_formula_sum "Si O2"
_cell_formula_units_Z 48
_cell_length_a 8.636988
_cell_length_b 8.001417
_cell_length_c 35.828145
_cell_angle_alpha 90.000000
_cell_angle_beta 90.000000
_cell_angle_gamma 90.000000
_cell_volume 2476.016554
_symmetry_space_group_name_H-M "I M M 2"
_symmetry_group_IT_number 44
_symmetry_cell_setting 'orthorhombic'
loop_
_space_group_symop_operation_xyz
x,y,z
-x,-y,z
-x,y,z
x,-y,z
1/2+x,1/2+y,1/2+z
1/2-x,1/2-y,1/2+z
1/2-x,1/2+y,1/2+z
1/2+x,1/2-y,1/2+z
loop_
_atom_site_type_symbol
_atom_site_label
_atom_site_fract_x
_atom_site_fract_y
_atom_site_fract_z
Si Si1 0.681955 0.303123 0.879020
Si Si2 0.815194 0.500000 0.666561
Si Si3 0.189027 0.684421 0.299868
Si Si4 0.675979 0.201268 0.535045
Si Si5 0.174587 0.698269 0.457587
Si Si6 0.811604 0.695352 0.117971
Si Si7 0.311817 0.500000 0.750140
O O1 0.500000 0.251672 0.881918
O O2 0.686044 0.500000 0.871357
O O3 0.745026 0.212525 0.842381
O O4 0.751604 0.268873 0.919841
O O5 0.751430 0.666748 0.646179
O O6 0.756913 0.500000 0.709023
O O7 0.000000 0.500000 0.664942
O O8 0.233600 0.500000 0.286601
O O9 0.000000 0.691037 0.301234
O O10 0.236670 0.835589 0.273275
O O11 0.500000 0.263308 0.534759
O O12 0.753214 0.263701 0.497470
O O13 0.742883 0.242349 0.575861
O O14 0.674124 0.000000 0.533701
O O15 0.169483 0.500000 0.452639
O O16 0.000000 0.767897 0.459195
O O17 0.769183 0.500000 0.125472
O O18 0.000000 0.700370 0.117941
O O19 0.500000 0.500000 0.747803
#
# Coordination Sequence:
#
# PCOD9374380 Si02
#       7
#     8   4   8   8   8   8   4
#     4   9  15  26  45  71 106 145 182 225 278 326
#     4  12  26  40  60  90 124 156 188 236 302 370
#     4   9  16  28  50  79 108 139 181 234 284 328
#     4   9  19  36  56  77 103 139 185 233 282 331
#     4  10  20  30  44  74 113 148 184 225 273 331
#     4   9  20  41  66  88 112 150 200 248 292 344
#     4  10  20  36  56  82 110 142 190 240 284 342
#
# _framework density 19.385978999999999
#
# number of rings (size 3 to 8) (size 9 to 14) (size 15 to 20)
#    0.000    2.500    0.833    2.750    1.167    5.000 
#    0.000    3.333    0.000    1.000    0.000    0.000 
#    0.000    0.000    0.000    0.000    0.000    0.000 
#
# Total GULP energy -133788.736719 kJ/mol
# GULP energy per Si atom -5574.530697 kJ/mol
# Density = 1.934186 g / cm^3
# Si number density = 19.385979 Si / 1000 Ang^3
#
#
#
# Elastic Constant Matrix: (Units=GPa)
#
#
# Indices 1 2 3 4 5 6 
#
# 1 17.4233 20.6941 29.0531 0.0000 0.0000 0.0000
# 2 20.6941 113.6662 91.1441 0.0000 0.0000 0.0000
# 3 29.0531 91.1441 171.4413 0.0000 0.0000 0.0000
# 4 0.0000 0.0000 0.0000 13.9329 0.0000 0.0000
# 5 0.0000 0.0000 0.0000 0.0000 17.7950 0.0000
# 6 0.0000 0.0000 0.0000 0.0000 0.0000 12.7461
#
#
#
# Elastic Compliance Matrix: (Units=1/GPa)
#
#
# Indices 1 2 3 4 5 6 
#
# 1 0.082799 -0.006664 -0.010489 0.000000 0.000000 0.000000
# 2 -0.006664 0.015871 -0.007308 0.000000 0.000000 0.000000
# 3 -0.010489 -0.007308 0.011496 0.000000 0.000000 0.000000
# 4 0.000000 0.000000 0.000000 0.071772 0.000000 0.000000
# 5 0.000000 0.000000 0.000000 0.000000 0.056196 0.000000
# 6 0.000000 0.000000 0.000000 0.000000 0.000000 0.078455
#
#
# Mechanical properties :
#
#
# Convention : Reuss Voigt Hill
#
# Bulk Modulus (GPa) = 16.32814 64.92371 40.62592
# Shear Modulus (GPa) = 12.95585 19.67077 16.31331
#
# Velocity S-wave (km/s) = 2.58797 3.18888 2.90401
# Velocity P-wave (km/s) = 4.16786 6.86450 5.67857
#
# Compressibility (1/GPa) = 0.06124397
#
# Stress axis : x y z
#
# Youngs Moduli (GPa) = 12.07743 63.00718 86.98878
#
# Poissons Ratio (x) = 0.41988 0.91240
# Poissons Ratio (y) = 0.08048 0.63575
# Poissons Ratio (z) = 0.12668 0.46048
#
# Static dielectric constant tensor:
#      x y z
#    x 1.700630 0.000000 0.000000 
#    y 0.000000 1.683650 0.000000 
#    z 0.000000 0.000000 1.692720 
# 
# From -- ./inp_files/26903.got.cif
#   From: 2010.05.17/outbox.cif.g08.bks.cpg/sg44_14_cif.got.tgz:26903.got - 2010.06.03 19:37:08.
