data_PCOD9374144
_publ_section_title
;
Structure prediction by ZEFSAII (Michael W. Deem and Ramdas Pophale) SiO2 
 PCOD9374144
Probable space group: I M M 2
;
_chemical_formula_sum "Si O2"
_cell_formula_units_Z 64
_cell_length_a 9.019666
_cell_length_b 32.959294
_cell_length_c 12.101281
_cell_angle_alpha 90.000000
_cell_angle_beta 90.000000
_cell_angle_gamma 90.000000
_cell_volume 3597.490882
_symmetry_space_group_name_H-M "I M M 2"
_symmetry_group_IT_number 44
_symmetry_cell_setting 'orthorhombic'
loop_
_space_group_symop_operation_xyz
x,y,z
-x,-y,z
-x,y,z
x,-y,z
1/2+x,1/2+y,1/2+z
1/2-x,1/2-y,1/2+z
1/2-x,1/2+y,1/2+z
1/2+x,1/2-y,1/2+z
loop_
_atom_site_type_symbol
_atom_site_label
_atom_site_fract_x
_atom_site_fract_y
_atom_site_fract_z
Si Si1 0.328860 0.179486 0.348900
Si Si2 0.331663 0.451372 0.900944
Si Si3 0.821885 0.547209 0.130473
Si Si4 0.170750 0.404378 0.714451
Si Si5 0.319508 0.188421 0.597061
Si Si6 0.679434 0.122612 0.779849
Si Si7 0.821820 0.139959 0.016438
Si Si8 0.821998 0.779581 0.149266
O O1 0.500000 0.193689 0.352104
O O2 0.326919 0.135953 0.290421
O O3 0.273008 0.176291 0.473725
O O4 0.236654 0.208738 0.269963
O O5 0.500000 0.435621 0.899254
O O6 0.335586 0.500000 0.903065
O O7 0.246529 0.437529 0.791706
O O8 0.250013 0.439246 0.014455
O O9 0.781020 0.500000 0.152531
O O10 0.782154 0.578851 0.226690
O O11 0.000000 0.548725 0.117203
O O12 0.259472 0.392561 0.604473
O O13 0.000000 0.414203 0.688787
O O14 0.500000 0.187611 0.598646
O O15 0.273369 0.156946 0.691308
O O16 0.270969 0.234615 0.617821
O O17 0.500000 0.124187 0.791661
O O18 0.753892 0.131324 0.896966
O O19 0.000000 0.138466 0.013230
O O20 0.776456 0.184457 0.064697
O O21 0.000000 0.779545 0.150287
#
# Coordination Sequence:
#
# PCOD9374144 Si02
#       8
#     8   8   8   8   8   8   8   8
#     4   9  18  33  53  74  97 129 171 215 258 306
#     4  10  20  33  53  83 115 142 170 214 271 324
#     4   9  18  34  56  81 109 142 181 224 269 320
#     4  10  19  34  56  78 101 137 181 219 261 315
#     4   9  18  32  51  74 102 134 168 214 267 318
#     4  10  20  35  55  78 104 139 183 227 270 324
#     4  10  21  36  53  74 105 142 179 222 274 327
#     4   9  19  34  50  71 101 136 170 212 266 320
#
# _framework density 17.790178000000001
#
# number of rings (size 3 to 8) (size 9 to 14) (size 15 to 20)
#    0.000    2.500    0.000    1.875    1.750    4.250 
#    0.000    1.875    0.000    2.250    0.000    0.000 
#    0.000    0.000    0.000    0.000    0.000    0.000 
#
# Total GULP energy -178450.969978 kJ/mol
# GULP energy per Si atom -5576.592812 kJ/mol
# Density = 1.774969 g / cm^3
# Si number density = 17.790178 Si / 1000 Ang^3
#
#
#
# Elastic Constant Matrix: (Units=GPa)
#
#
# Indices 1 2 3 4 5 6 
#
# 1 38.8519 30.6036 45.1965 0.0000 0.0000 0.0000
# 2 30.6036 65.8377 61.1359 0.0000 0.0000 0.0000
# 3 45.1965 61.1359 173.5669 0.0002 0.0000 0.0000
# 4 0.0000 0.0000 0.0002 19.8253 0.0000 0.0000
# 5 0.0000 0.0000 0.0000 0.0000 26.2356 0.0000
# 6 0.0000 0.0000 0.0000 0.0000 0.0000 15.9109
#
#
#
# Elastic Compliance Matrix: (Units=1/GPa)
#
#
# Indices 1 2 3 4 5 6 
#
# 1 0.045013 -0.014919 -0.006466 0.000000 0.000000 0.000000
# 2 -0.014919 0.027516 -0.005807 0.000000 0.000000 0.000000
# 3 -0.006466 -0.005807 0.009491 0.000000 0.000000 0.000000
# 4 0.000000 0.000000 0.000000 0.050441 0.000000 0.000000
# 5 0.000000 0.000000 0.000000 0.000000 0.038116 0.000000
# 6 0.000000 0.000000 0.000000 0.000000 0.000000 0.062850
#
#
# Mechanical properties :
#
#
# Convention : Reuss Voigt Hill
#
# Bulk Modulus (GPa) = 36.18633 61.34760 48.76697
# Shear Modulus (GPa) = 16.83372 21.81572 19.32472
#
# Velocity S-wave (km/s) = 3.07943 3.50563 3.29942
# Velocity P-wave (km/s) = 5.74706 7.13756 6.47971
#
# Compressibility (1/GPa) = 0.02763475
#
# Stress axis : x y z
#
# Youngs Moduli (GPa) = 22.21598 36.34226 105.36547
#
# Poissons Ratio (x) = 0.54219 0.68132
# Poissons Ratio (y) = 0.33144 0.61188
# Poissons Ratio (z) = 0.14365 0.21105
#
# Static dielectric constant tensor:
#      x y z
#    x 1.611110 0.000000 0.000000 
#    y 0.000000 1.621960 0.000000 
#    z 0.000000 0.000000 1.578160 
# 
# From -- ./inp_files/11436.got.cif
#   From: 2010.05.17/outbox.cif.g08.bks.cpg/sg44_6_cif.got.tgz:11436.got - 2010.06.03 19:37:08.
