data_PCOD9374737
_publ_section_title
;
Structure prediction by ZEFSAII (Michael W. Deem and Ramdas Pophale) SiO2 
 PCOD9374737
Probable space group: I M M 2
;
_chemical_formula_sum "Si O2"
_cell_formula_units_Z 64
_cell_length_a 23.750027
_cell_length_b 15.673118
_cell_length_c 9.083097
_cell_angle_alpha 90.000000
_cell_angle_beta 90.000000
_cell_angle_gamma 90.000000
_cell_volume 3381.064557
_symmetry_space_group_name_H-M "I M M 2"
_symmetry_group_IT_number 44
_symmetry_cell_setting 'orthorhombic'
loop_
_space_group_symop_operation_xyz
x,y,z
-x,-y,z
-x,y,z
x,-y,z
1/2+x,1/2+y,1/2+z
1/2-x,1/2-y,1/2+z
1/2-x,1/2+y,1/2+z
1/2+x,1/2-y,1/2+z
loop_
_atom_site_type_symbol
_atom_site_label
_atom_site_fract_x
_atom_site_fract_y
_atom_site_fract_z
Si Si1 0.231403 0.907324 0.085390
Si Si2 0.065185 0.740434 0.122116
Si Si3 0.563317 0.242515 0.270761
Si Si4 0.825542 0.350735 0.771384
Si Si5 0.378713 0.598434 0.775572
Si Si6 0.617294 0.596232 0.126878
Si Si7 0.772146 0.166440 0.775498
Si Si8 0.339142 0.898546 0.612730
O O1 0.291872 0.909857 0.161277
O O2 0.183408 0.890699 0.206201
O O3 0.218553 0.000000 0.019076
O O4 0.229066 0.843542 0.950826
O O5 0.084103 0.826246 0.206166
O O6 0.107178 0.661141 0.151333
O O7 0.000000 0.720546 0.155276
O O8 0.069724 0.757157 0.946303
O O9 0.500000 0.214006 0.240856
O O10 0.610900 0.173993 0.229423
O O11 0.576902 0.330819 0.189705
O O12 0.789608 0.263891 0.752646
O O13 0.826109 0.383710 0.938841
O O14 0.396905 0.500000 0.741920
O O15 0.376667 0.606433 0.951422
O O16 0.597697 0.500000 0.157477
O O17 0.677572 0.611813 0.203384
O O18 0.713830 0.136741 0.704764
O O19 0.347386 0.000000 0.637799
#
# Coordination Sequence:
#
# PCOD9374737 Si02
#       8
#     8   8   8   8   8   8   8   8
#     4  11  21  34  54  81 112 141 174 218 272 332
#     4  10  22  40  59  80 109 148 195 240 284 336
#     4   9  20  37  55  76 103 140 185 230 274 324
#     4  10  20  35  56  80 109 144 181 227 278 331
#     4  10  21  36  56  84 117 151 186 228 283 347
#     4  10  20  34  54  82 114 145 179 222 277 342
#     4  11  21  35  55  82 113 145 181 223 276 337
#     4  11  22  37  58  84 115 150 191 238 286 336
#
# _framework density 18.92895
#
# number of rings (size 3 to 8) (size 9 to 14) (size 15 to 20)
#    0.000    1.750    0.000    6.000    0.000    6.750 
#    0.000    2.500    0.000    1.125    0.000    0.000 
#    0.000    2.000    0.000    0.000    0.000    0.000 
#
# Total GULP energy -178618.863711 kJ/mol
# GULP energy per Si atom -5581.839491 kJ/mol
# Density = 1.888587 g / cm^3
# Si number density = 18.928950 Si / 1000 Ang^3
#
#
#
# Elastic Constant Matrix: (Units=GPa)
#
#
# Indices 1 2 3 4 5 6 
#
# 1 107.7674 50.8362 27.8005 0.0000 0.0000 0.0000
# 2 50.8362 101.1009 27.1241 0.0000 0.0000 0.0000
# 3 27.8005 27.1241 38.9147 0.0000 0.0000 0.0000
# 4 0.0000 0.0000 0.0000 28.4323 0.0000 0.0000
# 5 0.0000 0.0000 0.0000 0.0000 26.0212 0.0000
# 6 0.0000 0.0000 0.0000 0.0000 0.0000 14.3085
#
#
#
# Elastic Compliance Matrix: (Units=1/GPa)
#
#
# Indices 1 2 3 4 5 6 
#
# 1 0.013181 -0.005045 -0.005900 0.000000 0.000000 0.000000
# 2 -0.005045 0.014097 -0.006222 0.000000 0.000000 0.000000
# 3 -0.005900 -0.006222 0.034249 0.000000 0.000000 0.000000
# 4 0.000000 0.000000 0.000000 0.035171 0.000000 0.000000
# 5 0.000000 0.000000 0.000000 0.000000 0.038430 0.000000
# 6 0.000000 0.000000 0.000000 0.000000 0.000000 0.069889
#
#
# Mechanical properties :
#
#
# Convention : Reuss Voigt Hill
#
# Bulk Modulus (GPa) = 36.77359 51.03384 43.90372
# Shear Modulus (GPa) = 20.12757 23.22053 21.67405
#
# Velocity S-wave (km/s) = 3.26440 3.50626 3.38749
# Velocity P-wave (km/s) = 5.80325 6.58871 6.20841
#
# Compressibility (1/GPa) = 0.02719343
#
# Stress axis : x y z
#
# Youngs Moduli (GPa) = 75.86642 70.93693 29.19790
#
# Poissons Ratio (x) = 0.35787 0.17227
# Poissons Ratio (y) = 0.38273 0.18166
# Poissons Ratio (z) = 0.44763 0.44136
#
# Static dielectric constant tensor:
#      x y z
#    x 1.650510 0.000000 0.000000 
#    y 0.000000 1.679310 0.000000 
#    z 0.000000 0.000000 1.630220 
# 
# From -- ./inp_files/7585.got.cif
#   From: 2010.05.17/outbox.cif.g08.bks.cpg/sg44_4_cif.got.tgz:7585.got - 2010.06.03 19:37:08.
