data_PCOD9374847
_publ_section_title
;
Structure prediction by ZEFSAII (Michael W. Deem and Ramdas Pophale) SiO2 
 PCOD9374847
Probable space group: I M M 2
;
_chemical_formula_sum "Si O2"
_cell_formula_units_Z 64
_cell_length_a 25.818918
_cell_length_b 8.313625
_cell_length_c 15.558834
_cell_angle_alpha 90.000000
_cell_angle_beta 90.000000
_cell_angle_gamma 90.000000
_cell_volume 3339.685081
_symmetry_space_group_name_H-M "I M M 2"
_symmetry_group_IT_number 44
_symmetry_cell_setting 'orthorhombic'
loop_
_space_group_symop_operation_xyz
x,y,z
-x,-y,z
-x,y,z
x,-y,z
1/2+x,1/2+y,1/2+z
1/2-x,1/2-y,1/2+z
1/2-x,1/2+y,1/2+z
1/2+x,1/2-y,1/2+z
loop_
_atom_site_type_symbol
_atom_site_label
_atom_site_fract_x
_atom_site_fract_y
_atom_site_fract_z
Si Si1 0.279216 0.805641 0.415740
Si Si2 0.850976 0.691572 0.579898
Si Si3 0.939765 0.194910 0.052665
Si Si4 0.837190 0.806164 0.388030
Si Si5 0.864372 0.803161 0.205351
Si Si6 0.236905 0.807262 0.108169
Si Si7 0.108104 0.308008 0.872968
Si Si8 0.557669 0.309108 0.200825
O O1 0.223599 0.761229 0.376491
O O2 0.280101 0.732516 0.511077
O O3 0.331505 0.756968 0.367334
O O4 0.280238 0.000000 0.422940
O O5 0.848063 0.500000 0.582492
O O6 0.854637 0.743108 0.480481
O O7 0.795662 0.755405 0.616322
O O8 0.899114 0.744875 0.636284
O O9 0.907869 0.247185 0.137158
O O10 0.000000 0.241975 0.056634
O O11 0.937363 0.000000 0.048544
O O12 0.913381 0.261625 0.966531
O O13 0.868869 0.751972 0.304376
O O14 0.839274 0.000000 0.391646
O O15 0.808299 0.748064 0.170338
O O16 0.864459 0.000000 0.204932
O O17 0.238724 0.000000 0.119012
O O18 0.105956 0.500000 0.862950
O O19 0.074722 0.231176 0.797641
O O20 0.500000 0.243405 0.184274
O O21 0.556065 0.500000 0.191240
#
# Coordination Sequence:
#
# PCOD9374847 Si02
#       8
#     8   8   8   8   8   8   8   8
#     4   9  18  31  50  78 112 147 182 220 270 332
#     4  10  21  37  59  85 113 143 182 235 290 337
#     4  10  20  35  55  79 110 149 193 235 274 326
#     4   9  18  34  56  79 113 153 187 226 276 334
#     4   9  17  31  54  80 108 148 192 233 270 316
#     4   9  17  31  54  80 110 147 185 223 271 328
#     4  11  22  35  55  84 116 148 183 229 284 336
#     4  11  25  43  61  81 107 145 193 236 278 338
#
# _framework density 19.163482999999999
#
# number of rings (size 3 to 8) (size 9 to 14) (size 15 to 20)
#    0.000    2.250    1.250    1.500    1.750    3.750 
#    0.000    1.875    0.000    2.250    0.000    0.000 
#    0.000    0.000    0.000    0.000    0.000    0.000 
#
# Total GULP energy -178566.721055 kJ/mol
# GULP energy per Si atom -5580.210033 kJ/mol
# Density = 1.911987 g / cm^3
# Si number density = 19.163483 Si / 1000 Ang^3
#
#
#
# Elastic Constant Matrix: (Units=GPa)
#
#
# Indices 1 2 3 4 5 6 
#
# 1 101.2791 9.1500 50.0446 0.0000 0.0000 0.0000
# 2 9.1500 5.8127 7.3368 0.0000 0.0000 0.0000
# 3 50.0446 7.3368 80.2293 0.0000 0.0000 0.0000
# 4 0.0000 0.0000 0.0000 15.9130 0.0000 0.0000
# 5 0.0000 0.0000 0.0000 0.0000 23.2311 0.0000
# 6 0.0000 0.0000 0.0000 0.0000 0.0000 19.7005
#
#
#
# Elastic Compliance Matrix: (Units=1/GPa)
#
#
# Indices 1 2 3 4 5 6 
#
# 1 0.015153 -0.013478 -0.008219 0.000000 0.000000 0.000000
# 2 -0.013478 0.206475 -0.010475 0.000000 0.000000 0.000000
# 3 -0.008219 -0.010475 0.018549 0.000000 0.000000 0.000000
# 4 0.000000 0.000000 0.000000 0.062842 0.000000 0.000000
# 5 0.000000 0.000000 0.000000 0.000000 0.043046 0.000000
# 6 0.000000 0.000000 0.000000 0.000000 0.000000 0.050760
#
#
# Mechanical properties :
#
#
# Convention : Reuss Voigt Hill
#
# Bulk Modulus (GPa) = 5.68721 35.59820 20.64271
# Shear Modulus (GPa) = 9.61947 19.82158 14.72052
#
# Velocity S-wave (km/s) = 2.24290 3.21961 2.77457
# Velocity P-wave (km/s) = 3.11153 5.69540 4.58907
#
# Compressibility (1/GPa) = 0.17583315
#
# Stress axis : x y z
#
# Youngs Moduli (GPa) = 65.99479 4.84320 53.91099
#
# Poissons Ratio (x) = 0.06528 0.44311
# Poissons Ratio (y) = 0.88948 0.56470
# Poissons Ratio (z) = 0.54243 0.05073
#
# Static dielectric constant tensor:
#      x y z
#    x 1.700940 0.000000 0.000000 
#    y 0.000000 1.666850 0.000000 
#    z 0.000000 0.000000 1.650160 
# 
# From -- ./inp_files/16843.got.cif
#   From: 2010.05.17/outbox.cif.g08.bks.cpg/sg44_9_cif.got.tgz:16843.got - 2010.06.03 19:37:08.
