data_PCOD9374818
_publ_section_title
;
Structure prediction by ZEFSAII (Michael W. Deem and Ramdas Pophale) SiO2 
 PCOD9374818
Probable space group: I M M 2
;
_chemical_formula_sum "Si O2"
_cell_formula_units_Z 64
_cell_length_a 7.904186
_cell_length_b 15.289279
_cell_length_c 24.839847
_cell_angle_alpha 90.000000
_cell_angle_beta 90.000000
_cell_angle_gamma 90.000000
_cell_volume 3001.878247
_symmetry_space_group_name_H-M "I M M 2"
_symmetry_group_IT_number 44
_symmetry_cell_setting 'orthorhombic'
loop_
_space_group_symop_operation_xyz
x,y,z
-x,-y,z
-x,y,z
x,-y,z
1/2+x,1/2+y,1/2+z
1/2-x,1/2-y,1/2+z
1/2-x,1/2+y,1/2+z
1/2+x,1/2-y,1/2+z
loop_
_atom_site_type_symbol
_atom_site_label
_atom_site_fract_x
_atom_site_fract_y
_atom_site_fract_z
Si Si1 0.199917 0.291670 0.054770
Si Si2 0.757912 0.398966 0.552426
Si Si3 0.702642 0.756567 0.745153
Si Si4 0.706119 0.099929 0.661295
Si Si5 0.197051 0.595950 0.437138
Si Si6 0.302261 0.760216 0.368336
Si Si7 0.699786 0.400156 0.951317
Si Si8 0.299761 0.903245 0.169419
O O1 0.310998 0.203730 0.051943
O O2 0.250446 0.349729 0.106220
O O3 0.000000 0.266765 0.060672
O O4 0.217486 0.347301 0.000441
O O5 0.828703 0.500000 0.552566
O O6 0.690669 0.398833 0.491050
O O7 0.694189 0.398372 0.614095
O O8 0.500000 0.760628 0.748774
O O9 0.761817 0.842191 0.712230
O O10 0.772279 0.746528 0.804948
O O11 0.752896 0.673144 0.709509
O O12 0.500000 0.097755 0.662299
O O13 0.766318 0.000000 0.661898
O O14 0.221628 0.500000 0.412036
O O15 0.226945 0.674909 0.397313
O O16 0.000000 0.600454 0.456041
O O17 0.500000 0.761068 0.379775
O O18 0.227373 0.846199 0.396567
O O19 0.500000 0.402143 0.962344
O O20 0.762125 0.500000 0.948060
O O21 0.500000 0.895586 0.154054
O O22 0.276431 0.000000 0.193301
#
# Coordination Sequence:
#
# PCOD9374818 Si02
#       8
#     8   8   8   8   8   8   8   8
#     4  11  21  37  63  96 131 168 203 249 310 368
#     4  10  20  34  60  98 134 166 203 246 304 373
#     4  11  23  41  63  88 119 161 212 259 310 366
#     4   9  19  37  61  90 124 161 203 249 301 363
#     4  10  21  39  64  93 126 166 207 248 302 368
#     4  12  26  43  64  91 122 161 209 261 317 370
#     4  11  25  44  66  93 124 162 208 258 313 374
#     4  10  21  38  61  91 126 163 202 248 307 371
#
# _framework density 21.319984999999999
#
# number of rings (size 3 to 8) (size 9 to 14) (size 15 to 20)
#    0.000    1.500    2.500    2.625    0.000    5.250 
#    0.000    3.750    0.000    1.875    0.000    0.000 
#    0.000    0.000    0.000    0.000    0.000    0.000 
#
# Total GULP energy -178300.068757 kJ/mol
# GULP energy per Si atom -5571.877149 kJ/mol
# Density = 2.127146 g / cm^3
# Si number density = 21.319985 Si / 1000 Ang^3
#
#
#
# Elastic Constant Matrix: (Units=GPa)
#
#
# Indices 1 2 3 4 5 6 
#
# 1 67.6521 13.5287 -2.1014 0.0000 0.0000 0.0000
# 2 13.5287 215.7995 73.1163 0.0000 0.0000 0.0000
# 3 -2.1014 73.1163 132.4802 0.0000 0.0000 0.0000
# 4 0.0000 0.0000 0.0000 14.2224 0.0000 0.0000
# 5 0.0000 0.0000 0.0000 0.0000 -4.6686 0.0000
# 6 0.0000 0.0000 0.0000 0.0000 0.0000 7.4596
#
#
#
# Elastic Compliance Matrix: (Units=1/GPa)
#
#
# Indices 1 2 3 4 5 6 
#
# 1 0.015063 -0.001261 0.000935 0.000000 0.000000 0.000000
# 2 -0.001261 0.005805 -0.003224 0.000000 0.000000 0.000000
# 3 0.000935 -0.003224 0.009342 0.000000 0.000000 0.000000
# 4 0.000000 0.000000 0.000000 0.070312 0.000000 0.000000
# 5 0.000000 0.000000 0.000000 0.000000 -0.214196 0.000000
# 6 0.000000 0.000000 0.000000 0.000000 0.000000 0.134056
#
#
# Mechanical properties :
#
#
# Convention : Reuss Voigt Hill
#
# Bulk Modulus (GPa) = 43.27091 65.00214 54.13652
# Shear Modulus (GPa) = 142.10355 25.49522 83.79939
#
# Velocity S-wave (km/s) = 8.17297 3.46184 6.27622
# Velocity P-wave (km/s) = 10.45960 6.82159 8.82999
#
# Compressibility (1/GPa) = 0.02311022
#
# Stress axis : x y z
#
# Youngs Moduli (GPa) = 66.38909 172.25567 107.03831
#
# Poissons Ratio (x) = 0.21722 -0.10007
# Poissons Ratio (y) = 0.08372 0.34509
# Poissons Ratio (z) = -0.06207 0.55535
#
# Static dielectric constant tensor:
#      x y z
#    x 1.939220 0.000000 0.000000 
#    y 0.000000 1.757330 0.000000 
#    z 0.000000 0.000000 1.721030 
# 
# From -- ./inp_files/25157.got.cif
#   From: 2010.05.17/outbox.cif.g08.bks.cpg/sg44_13_cif.got.tgz:25157.got - 2010.06.03 19:37:08.
