data_PCOD9374437
_publ_section_title
;
Structure prediction by ZEFSAII (Michael W. Deem and Ramdas Pophale) SiO2 
 PCOD9374437
Probable space group: I M M 2
;
_chemical_formula_sum "Si O2"
_cell_formula_units_Z 64
_cell_length_a 14.279070
_cell_length_b 7.862507
_cell_length_c 25.171298
_cell_angle_alpha 90.000000
_cell_angle_beta 90.000000
_cell_angle_gamma 90.000000
_cell_volume 2825.963700
_symmetry_space_group_name_H-M "I M M 2"
_symmetry_group_IT_number 44
_symmetry_cell_setting 'orthorhombic'
loop_
_space_group_symop_operation_xyz
x,y,z
-x,-y,z
-x,y,z
x,-y,z
1/2+x,1/2+y,1/2+z
1/2-x,1/2-y,1/2+z
1/2-x,1/2+y,1/2+z
1/2+x,1/2-y,1/2+z
loop_
_atom_site_type_symbol
_atom_site_label
_atom_site_fract_x
_atom_site_fract_y
_atom_site_fract_z
Si Si1 0.890780 0.293183 0.395630
Si Si2 0.388966 0.310624 0.393015
Si Si3 0.109408 0.707074 0.276471
Si Si4 0.611295 0.196505 0.278407
Si Si5 0.895049 0.305973 0.009609
Si Si6 0.253994 0.691304 0.193093
Si Si7 0.897095 0.200290 0.611539
Si Si8 0.690859 0.801673 0.006328
O O1 0.887530 0.500000 0.393713
O O2 0.863809 0.234246 0.336149
O O3 0.829095 0.237744 0.446175
O O4 0.000000 0.246897 0.404556
O O5 0.500000 0.329993 0.384805
O O6 0.348584 0.500000 0.402926
O O7 0.354937 0.234026 0.338167
O O8 0.384142 0.200491 0.445692
O O9 0.120444 0.500000 0.276381
O O10 0.169464 0.772453 0.226659
O O11 0.000000 0.744156 0.269799
O O12 0.500000 0.224023 0.275112
O O13 0.665358 0.313546 0.237783
O O14 0.629542 0.000000 0.265411
O O15 0.893778 0.500000 0.028347
O O16 0.798270 0.219117 0.025689
O O17 0.000000 0.234367 0.021286
O O18 0.224149 0.500000 0.176942
O O19 0.308982 0.774898 0.144033
O O20 0.875488 0.215563 0.549435
O O21 0.000000 0.272777 0.624320
O O22 0.899517 0.000000 0.625261
O O23 0.667520 0.000000 0.006187
#
# Coordination Sequence:
#
# PCOD9374437 Si02
#       8
#     8   8   8   8   8   8   8   8
#     4   8  15  29  50  80 115 144 177 229 289 346
#     4   9  17  30  49  73 104 144 188 230 272 327
#     4   8  15  30  53  82 114 142 175 230 292 346
#     4  10  20  32  47  73 110 148 185 229 286 348
#     4  10  21  37  55  78 114 155 191 233 288 346
#     4  10  20  34  57  83 108 146 195 240 289 347
#     4  10  22  40  58  80 116 155 193 244 299 353
#     4  11  22  35  58  87 113 149 199 245 290 350
#
# _framework density 22.647141999999999
#
# number of rings (size 3 to 8) (size 9 to 14) (size 15 to 20)
#    0.000    2.500    0.000    3.000    1.750    4.750 
#    0.000    0.625    0.000    2.625    0.000    1.750 
#    0.000    0.000    0.000    0.000    0.000    0.000 
#
# Total GULP energy -178442.396677 kJ/mol
# GULP energy per Si atom -5576.324896 kJ/mol
# Density = 2.259560 g / cm^3
# Si number density = 22.647142 Si / 1000 Ang^3
#
#
#
# Elastic Constant Matrix: (Units=GPa)
#
#
# Indices 1 2 3 4 5 6 
#
# 1 133.5640 3.0776 46.4665 0.0000 0.0000 0.0000
# 2 3.0776 31.2973 -5.2675 0.0000 0.0000 0.0000
# 3 46.4665 -5.2675 86.9565 0.0000 0.0000 0.0000
# 4 0.0000 0.0000 0.0000 15.0844 0.0000 0.0000
# 5 0.0000 0.0000 0.0000 0.0000 36.8183 0.0000
# 6 0.0000 0.0000 0.0000 0.0000 0.0000 7.5070
#
#
#
# Elastic Compliance Matrix: (Units=1/GPa)
#
#
# Indices 1 2 3 4 5 6 
#
# 1 0.009293 -0.001768 -0.005073 0.000000 0.000000 0.000000
# 2 -0.001768 0.032617 0.002920 0.000000 0.000000 0.000000
# 3 -0.005073 0.002920 0.014388 0.000000 0.000000 0.000000
# 4 0.000000 0.000000 0.000000 0.066294 0.000000 0.000000
# 5 0.000000 0.000000 0.000000 0.000000 0.027160 0.000000
# 6 0.000000 0.000000 0.000000 0.000000 0.000000 0.133209
#
#
# Mechanical properties :
#
#
# Convention : Reuss Voigt Hill
#
# Bulk Modulus (GPa) = 20.63672 37.81900 29.22786
# Shear Modulus (GPa) = 16.28917 25.71801 21.00359
#
# Velocity S-wave (km/s) = 2.68481 3.37352 3.04867
# Velocity P-wave (km/s) = 4.32932 5.64886 5.03253
#
# Compressibility (1/GPa) = 0.04845732
#
# Stress axis : x y z
#
# Youngs Moduli (GPa) = 107.61317 30.65886 69.50444
#
# Poissons Ratio (x) = 0.05419 0.35257
# Poissons Ratio (y) = 0.19021 -0.20298
# Poissons Ratio (z) = 0.54589 -0.08953
#
# Static dielectric constant tensor:
#      x y z
#    x 1.834460 0.000000 0.000000 
#    y 0.000000 1.865600 0.000000 
#    z 0.000000 0.000000 1.842010 
# 
# From -- ./inp_files/25119.got.cif
#   From: 2010.05.17/outbox.cif.g08.bks.cpg/sg44_13_cif.got.tgz:25119.got - 2010.06.03 19:37:08.
