data_PCOD9374535
_publ_section_title
;
Structure prediction by ZEFSAII (Michael W. Deem and Ramdas Pophale) SiO2 
 PCOD9374535
Probable space group: I M M 2
;
_chemical_formula_sum "Si O2"
_cell_formula_units_Z 48
_cell_length_a 30.658054
_cell_length_b 7.469840
_cell_length_c 10.518300
_cell_angle_alpha 90.000000
_cell_angle_beta 90.000000
_cell_angle_gamma 90.000000
_cell_volume 2408.803857
_symmetry_space_group_name_H-M "I M M 2"
_symmetry_group_IT_number 44
_symmetry_cell_setting 'orthorhombic'
loop_
_space_group_symop_operation_xyz
x,y,z
-x,-y,z
-x,y,z
x,-y,z
1/2+x,1/2+y,1/2+z
1/2-x,1/2-y,1/2+z
1/2-x,1/2+y,1/2+z
1/2+x,1/2-y,1/2+z
loop_
_atom_site_type_symbol
_atom_site_label
_atom_site_fract_x
_atom_site_fract_y
_atom_site_fract_z
Si Si1 0.387727 0.707766 0.930890
Si Si2 0.049984 0.781554 0.650750
Si Si3 0.380756 0.719704 0.647650
Si Si4 0.781360 0.784924 0.153460
Si Si5 0.450207 0.718335 0.439139
Si Si6 0.212779 0.287851 0.445934
O O1 0.400621 0.500000 0.921839
O O2 0.393684 0.782391 0.789067
O O3 0.336143 0.714337 0.958639
O O4 0.416546 0.784630 0.044556
O O5 0.060180 0.724725 0.794948
O O6 0.000000 0.731483 0.621931
O O7 0.051453 0.000000 0.652961
O O8 0.380511 0.500000 0.648900
O O9 0.330764 0.776901 0.625312
O O10 0.414720 0.777997 0.541095
O O11 0.771692 0.743985 0.301080
O O12 0.782020 0.000000 0.142630
O O13 0.746181 0.717395 0.051939
O O14 0.500000 0.772575 0.468681
O O15 0.449881 0.500000 0.440281
O O16 0.209015 0.500000 0.463136
#
# Coordination Sequence:
#
# PCOD9374535 Si02
#       6
#     8   8   8   8   8   8
#     4   9  17  29  45  65  92 122 151 189 234 279
#     4   8  14  24  39  62  90 118 150 188 229 273
#     4   8  14  25  39  56  82 114 143 174 218 269
#     4   9  19  34  49  68  94 123 158 197 236 283
#     4   8  13  21  35  59  89 114 139 179 228 273
#     4  10  20  33  50  71  95 124 159 198 239 286
#
# _framework density 19.926904
#
# number of rings (size 3 to 8) (size 9 to 14) (size 15 to 20)
#    0.000    3.333    0.000    2.500    0.000    3.333 
#    0.000    6.667    0.000    0.500    0.000    0.000 
#    0.000    5.333    0.000    0.000    0.000    0.000 
#
# Total GULP energy -133813.323531 kJ/mol
# GULP energy per Si atom -5575.555147 kJ/mol
# Density = 1.988155 g / cm^3
# Si number density = 19.926904 Si / 1000 Ang^3
#
#
#
# Elastic Constant Matrix: (Units=GPa)
#
#
# Indices 1 2 3 4 5 6 
#
# 1 116.4233 -6.6333 137.2483 0.0000 0.0000 0.0000
# 2 -6.6333 54.9110 -4.2463 0.0000 0.0000 0.0000
# 3 137.2483 -4.2463 187.8918 0.0000 0.0000 0.0000
# 4 0.0000 0.0000 0.0000 4.1286 0.0000 0.0000
# 5 0.0000 0.0000 0.0000 0.0000 47.6547 0.0000
# 6 0.0000 0.0000 0.0000 0.0000 0.0000 3.4612
#
#
#
# Elastic Compliance Matrix: (Units=1/GPa)
#
#
# Indices 1 2 3 4 5 6 
#
# 1 0.062732 0.004042 -0.045732 0.000000 0.000000 0.000000
# 2 0.004042 0.018504 -0.002534 0.000000 0.000000 0.000000
# 3 -0.045732 -0.002534 0.038671 0.000000 0.000000 0.000000
# 4 0.000000 0.000000 0.000000 0.242213 0.000000 0.000000
# 5 0.000000 0.000000 0.000000 0.000000 0.020984 0.000000
# 6 0.000000 0.000000 0.000000 0.000000 0.000000 0.288915
#
#
# Mechanical properties :
#
#
# Convention : Reuss Voigt Hill
#
# Bulk Modulus (GPa) = 31.78940 67.99596 49.89268
# Shear Modulus (GPa) = 6.48546 26.57273 16.52910
#
# Velocity S-wave (km/s) = 1.80602 3.65569 2.88321
# Velocity P-wave (km/s) = 4.50961 7.21218 6.01465
#
# Compressibility (1/GPa) = 0.03145703
#
# Stress axis : x y z
#
# Youngs Moduli (GPa) = 15.94074 54.04363 25.85927
#
# Poissons Ratio (x) = -0.21843 1.18261
# Poissons Ratio (y) = -0.06443 0.06553
# Poissons Ratio (z) = 0.72901 0.13695
#
# Static dielectric constant tensor:
#      x y z
#    x 1.674530 0.000000 0.000000 
#    y 0.000000 1.783690 0.000000 
#    z 0.000000 0.000000 1.689220 
# 
# From -- ./inp_files/10040.got.cif
#   From: 2010.05.17/outbox.cif.g08.bks.cpg/sg44_6_cif.got.tgz:10040.got - 2010.06.03 19:37:08.
