data_PCOD9374496
_publ_section_title
;
Structure prediction by ZEFSAII (Michael W. Deem and Ramdas Pophale) SiO2 
 PCOD9374496
Probable space group: I M M 2
;
_chemical_formula_sum "Si O2"
_cell_formula_units_Z 40
_cell_length_a 13.217701
_cell_length_b 19.521756
_cell_length_c 7.283712
_cell_angle_alpha 90.000000
_cell_angle_beta 90.000000
_cell_angle_gamma 90.000000
_cell_volume 1879.436120
_symmetry_space_group_name_H-M "I M M 2"
_symmetry_group_IT_number 44
_symmetry_cell_setting 'orthorhombic'
loop_
_space_group_symop_operation_xyz
x,y,z
-x,-y,z
-x,y,z
x,-y,z
1/2+x,1/2+y,1/2+z
1/2-x,1/2-y,1/2+z
1/2-x,1/2+y,1/2+z
1/2+x,1/2-y,1/2+z
loop_
_atom_site_type_symbol
_atom_site_label
_atom_site_fract_x
_atom_site_fract_y
_atom_site_fract_z
Si Si1 0.621656 0.717661 0.882570
Si Si2 0.120359 0.670114 0.675699
Si Si3 0.379145 0.291059 0.454960
Si Si4 0.617428 0.426357 0.953116
Si Si5 0.706348 0.576363 0.561042
O O1 0.500000 0.709649 0.886686
O O2 0.851804 0.724585 0.835628
O O3 0.660660 0.649591 0.987914
O O4 0.641411 0.786488 0.991392
O O5 0.352587 0.721771 0.668618
O O6 0.190500 0.603752 0.657018
O O7 0.000000 0.655454 0.689863
O O8 0.500000 0.297705 0.434289
O O9 0.331843 0.366000 0.420156
O O10 0.500000 0.427315 0.009696
O O11 0.662925 0.500000 0.012206
O O12 0.626204 0.426394 0.729520
O O13 0.717730 0.500000 0.486520
#
# Coordination Sequence:
#
# PCOD9374496 Si02
#       5
#     8   8   8   8   8
#     4   8  15  30  51  74 100 134 176 218 262 308
#     4  10  21  35  53  78 107 143 186 223 263 322
#     4   9  19  35  56  80 105 139 181 225 272 325
#     4   8  14  27  48  73 101 131 164 206 260 317
#     4  10  20  32  52  81 109 143 179 221 279 326
#
# _framework density 21.282979999999998
#
# number of rings (size 3 to 8) (size 9 to 14) (size 15 to 20)
#    0.000    3.000    0.000    1.800    5.600    1.600 
#    0.000    1.000    0.000    9.600    0.000    5.600 
#    0.000    0.000    0.000    0.000    0.000    0.000 
#
# Total GULP energy -111422.621233 kJ/mol
# GULP energy per Si atom -5571.131062 kJ/mol
# Density = 2.123454 g / cm^3
# Si number density = 21.282980 Si / 1000 Ang^3
#
#
#
# Elastic Constant Matrix: (Units=GPa)
#
#
# Indices 1 2 3 4 5 6 
#
# 1 89.5708 49.5838 7.4757 0.0000 0.0000 0.0000
# 2 49.5838 98.8911 26.3293 0.0000 0.0000 0.0000
# 3 7.4757 26.3293 60.0035 0.0000 0.0000 0.0000
# 4 0.0000 0.0000 0.0000 15.7974 0.0000 0.0000
# 5 0.0000 0.0000 0.0000 0.0000 20.0476 0.0000
# 6 0.0000 0.0000 0.0000 0.0000 0.0000 21.4703
#
#
#
# Elastic Compliance Matrix: (Units=1/GPa)
#
#
# Indices 1 2 3 4 5 6 
#
# 1 0.015603 -0.008272 0.001686 0.000000 0.000000 0.000000
# 2 -0.008272 0.015835 -0.005918 0.000000 0.000000 0.000000
# 3 0.001686 -0.005918 0.019052 0.000000 0.000000 0.000000
# 4 0.000000 0.000000 0.000000 0.063301 0.000000 0.000000
# 5 0.000000 0.000000 0.000000 0.000000 0.049881 0.000000
# 6 0.000000 0.000000 0.000000 0.000000 0.000000 0.046576
#
#
# Mechanical properties :
#
#
# Convention : Reuss Voigt Hill
#
# Bulk Modulus (GPa) = 39.24291 46.13812 42.69051
# Shear Modulus (GPa) = 20.51270 22.46819 21.49045
#
# Velocity S-wave (km/s) = 3.10789 3.25266 3.18110
# Velocity P-wave (km/s) = 5.59976 5.98597 5.79608
#
# Compressibility (1/GPa) = 0.02548231
#
# Stress axis : x y z
#
# Youngs Moduli (GPa) = 64.09097 63.14994 52.48684
#
# Poissons Ratio (x) = 0.52238 -0.08848
# Poissons Ratio (y) = 0.53016 0.31061
# Poissons Ratio (z) = -0.10805 0.37371
#
# Static dielectric constant tensor:
#      x y z
#    x 1.839420 0.000000 0.000000 
#    y 0.000000 1.846130 0.000000 
#    z 0.000000 0.000000 1.781810 
# 
# From -- ./inp_files/17552.got.cif
#   From: 2010.05.17/outbox.cif.g08.bks.cpg/sg44_9_cif.got.tgz:17552.got - 2010.06.03 19:37:08.
