data_PCOD9374482
_publ_section_title
;
Structure prediction by ZEFSAII (Michael W. Deem and Ramdas Pophale) SiO2 
 PCOD9374482
Probable space group: I M M 2
;
_chemical_formula_sum "Si O2"
_cell_formula_units_Z 64
_cell_length_a 8.886481
_cell_length_b 32.993711
_cell_length_c 12.030665
_cell_angle_alpha 90.000000
_cell_angle_beta 90.000000
_cell_angle_gamma 90.000000
_cell_volume 3527.366747
_symmetry_space_group_name_H-M "I M M 2"
_symmetry_group_IT_number 44
_symmetry_cell_setting 'orthorhombic'
loop_
_space_group_symop_operation_xyz
x,y,z
-x,-y,z
-x,y,z
x,-y,z
1/2+x,1/2+y,1/2+z
1/2-x,1/2-y,1/2+z
1/2-x,1/2+y,1/2+z
1/2+x,1/2-y,1/2+z
loop_
_atom_site_type_symbol
_atom_site_label
_atom_site_fract_x
_atom_site_fract_y
_atom_site_fract_z
Si Si1 0.173268 0.318261 0.688600
Si Si2 0.679937 0.689581 0.925266
Si Si3 0.329709 0.451455 0.742918
Si Si4 0.181987 0.647974 0.352305
Si Si5 0.819345 0.453726 0.974536
Si Si6 0.180280 0.223432 0.981862
Si Si7 0.328838 0.096876 0.056863
Si Si8 0.181802 0.626313 0.098393
O O1 0.258271 0.322252 0.804236
O O2 0.259605 0.288813 0.603955
O O3 0.169338 0.361535 0.627508
O O4 0.000000 0.304954 0.705434
O O5 0.500000 0.690866 0.926320
O O6 0.748041 0.733765 0.950363
O O7 0.740803 0.657881 0.015645
O O8 0.500000 0.437524 0.761816
O O9 0.326944 0.500000 0.736442
O O10 0.232776 0.440416 0.851430
O O11 0.268927 0.433553 0.628502
O O12 0.261071 0.688430 0.398024
O O13 0.223822 0.611155 0.435411
O O14 0.217534 0.637329 0.225598
O O15 0.000000 0.653338 0.363336
O O16 0.763923 0.500000 0.994849
O O17 0.000000 0.455282 0.975139
O O18 0.773239 0.419274 0.062100
O O19 0.000000 0.225184 0.980407
O O20 0.500000 0.081551 0.048634
O O21 0.000000 0.629420 0.085825
#
# Coordination Sequence:
#
# PCOD9374482 Si02
#       8
#     8   8   8   8   8   8   8   8
#     4  10  21  39  59  81 108 139 181 229 280 335
#     4  12  25  38  56  83 115 149 188 234 282 337
#     4  10  20  32  50  79 113 146 181 228 282 337
#     4   9  20  39  59  80 112 150 189 234 284 340
#     4   9  18  34  57  84 114 149 188 234 289 344
#     4  11  23  39  59  82 110 147 188 233 287 339
#     4   9  18  34  56  79 105 140 179 225 277 332
#     4  10  21  38  59  84 115 151 193 240 287 341
#
# _framework density 18.143847000000001
#
# number of rings (size 3 to 8) (size 9 to 14) (size 15 to 20)
#    0.000    2.000    0.000    4.500    1.750    7.250 
#    0.000    0.625    0.000    2.250    0.000    1.750 
#    0.000    0.000    0.000    0.000    0.000    0.000 
#
# Total GULP energy -178638.638340 kJ/mol
# GULP energy per Si atom -5582.457448 kJ/mol
# Density = 1.810255 g / cm^3
# Si number density = 18.143847 Si / 1000 Ang^3
#
#
#
# Elastic Constant Matrix: (Units=GPa)
#
#
# Indices 1 2 3 4 5 6 
#
# 1 74.6564 37.0823 53.9481 0.0000 0.0000 0.0000
# 2 37.0823 66.2197 58.2624 0.0000 0.0000 0.0000
# 3 53.9481 58.2624 156.3913 -0.0005 0.0001 0.0001
# 4 0.0000 0.0000 -0.0005 12.2378 0.0000 0.0000
# 5 0.0000 0.0000 0.0001 0.0000 9.9752 0.0000
# 6 0.0000 0.0000 0.0001 0.0000 0.0000 26.3773
#
#
#
# Elastic Compliance Matrix: (Units=1/GPa)
#
#
# Indices 1 2 3 4 5 6 
#
# 1 0.020175 -0.007698 -0.004092 0.000000 0.000000 0.000000
# 2 -0.007698 0.025402 -0.006808 0.000000 0.000000 0.000000
# 3 -0.004092 -0.006808 0.010342 0.000000 0.000000 0.000000
# 4 0.000000 0.000000 0.000000 0.081714 0.000000 0.000000
# 5 0.000000 0.000000 0.000000 0.000000 0.100249 0.000000
# 6 0.000000 0.000000 0.000000 0.000000 0.000000 0.037911
#
#
# Mechanical properties :
#
#
# Convention : Reuss Voigt Hill
#
# Bulk Modulus (GPa) = 53.40753 66.20589 59.80671
# Shear Modulus (GPa) = 15.66275 19.58303 17.62289
#
# Velocity S-wave (km/s) = 2.94131 3.28887 3.11993
# Velocity P-wave (km/s) = 6.40582 7.14079 6.78327
#
# Compressibility (1/GPa) = 0.01872395
#
# Stress axis : x y z
#
# Youngs Moduli (GPa) = 49.56643 39.36762 96.69407
#
# Poissons Ratio (x) = 0.30304 0.39565
# Poissons Ratio (y) = 0.38155 0.65828
# Poissons Ratio (z) = 0.20281 0.26801
#
# Static dielectric constant tensor:
#      x y z
#    x 1.620190 0.000000 0.000000 
#    y 0.000000 1.628040 0.000000 
#    z 0.000000 0.000000 1.610080 
# 
# From -- ./inp_files/11573.got.cif
#   From: 2010.05.17/outbox.cif.g08.bks.cpg/sg44_6_cif.got.tgz:11573.got - 2010.06.03 19:37:08.
