data_PCOD9374310
_publ_section_title
;
Structure prediction by ZEFSAII (Michael W. Deem and Ramdas Pophale) SiO2 
 PCOD9374310
Probable space group: I M M 2
;
_chemical_formula_sum "Si O2"
_cell_formula_units_Z 64
_cell_length_a 28.630725
_cell_length_b 8.691463
_cell_length_c 12.913794
_cell_angle_alpha 90.000000
_cell_angle_beta 90.000000
_cell_angle_gamma 90.000000
_cell_volume 3213.505781
_symmetry_space_group_name_H-M "I M M 2"
_symmetry_group_IT_number 44
_symmetry_cell_setting 'orthorhombic'
loop_
_space_group_symop_operation_xyz
x,y,z
-x,-y,z
-x,y,z
x,-y,z
1/2+x,1/2+y,1/2+z
1/2-x,1/2-y,1/2+z
1/2-x,1/2+y,1/2+z
1/2+x,1/2-y,1/2+z
loop_
_atom_site_type_symbol
_atom_site_label
_atom_site_fract_x
_atom_site_fract_y
_atom_site_fract_z
Si Si1 0.427841 0.675679 0.786010
Si Si2 0.794159 0.681426 0.012228
Si Si3 0.181941 0.174520 0.232532
Si Si4 0.091890 0.317110 0.498824
Si Si5 0.446531 0.314465 0.211731
Si Si6 0.198981 0.681278 0.444907
Si Si7 0.949907 0.813032 0.063191
Si Si8 0.876110 0.813459 0.893655
O O1 0.444152 0.500000 0.801400
O O2 0.373064 0.669165 0.757190
O O3 0.432818 0.766556 0.892156
O O4 0.448922 0.743500 0.680929
O O5 0.800722 0.500000 0.020787
O O6 0.740118 0.723631 0.997060
O O7 0.825345 0.744501 0.916565
O O8 0.810280 0.763681 0.117829
O O9 0.201940 0.282063 0.322563
O O10 0.200338 0.000000 0.241829
O O11 0.089207 0.500000 0.510204
O O12 0.069111 0.238182 0.598029
O O13 0.146989 0.275536 0.484774
O O14 0.500000 0.262089 0.233959
O O15 0.447353 0.500000 0.216363
O O16 0.406607 0.265146 0.293962
O O17 0.205536 0.500000 0.463070
O O18 0.000000 0.776238 0.014537
O O19 0.946664 0.000000 0.069677
O O20 0.907541 0.763575 0.992068
O O21 0.872545 0.000000 0.892849
#
# Coordination Sequence:
#
# PCOD9374310 Si02
#       8
#     8   8   8   8   8   8   8   8
#     4   9  17  32  56  84 113 147 188 236 291 351
#     4  12  24  37  58  88 121 161 206 249 301 369
#     4  10  19  36  59  83 114 151 190 241 302 359
#     4  10  22  39  60  85 118 157 198 247 305 363
#     4  10  22  40  64  91 120 161 211 259 306 366
#     4  10  22  40  60  86 118 157 204 256 311 367
#     4   9  16  29  54  86 114 143 184 235 292 351
#     4  10  20  38  60  85 117 155 201 255 307 356
#
# _framework density 19.915945000000001
#
# number of rings (size 3 to 8) (size 9 to 14) (size 15 to 20)
#    0.000    2.000    1.250    2.625    0.000    5.750 
#    0.000    3.750    0.000    1.875    0.000    0.000 
#    0.000    0.000    0.000    0.000    0.000    0.000 
#
# Total GULP energy -178575.147006 kJ/mol
# GULP energy per Si atom -5580.473344 kJ/mol
# Density = 1.987062 g / cm^3
# Si number density = 19.915945 Si / 1000 Ang^3
#
#
#
# Elastic Constant Matrix: (Units=GPa)
#
#
# Indices 1 2 3 4 5 6 
#
# 1 42.8782 9.2794 5.3331 0.0000 0.0000 0.0000
# 2 9.2794 29.5822 2.9575 0.0000 0.0000 0.0000
# 3 5.3331 2.9575 81.7323 0.0000 0.0000 0.0000
# 4 0.0000 0.0000 0.0000 21.7934 0.0000 0.0000
# 5 0.0000 0.0000 0.0000 0.0000 19.9100 0.0000
# 6 0.0000 0.0000 0.0000 0.0000 0.0000 13.6902
#
#
#
# Elastic Compliance Matrix: (Units=1/GPa)
#
#
# Indices 1 2 3 4 5 6 
#
# 1 0.025170 -0.007759 -0.001362 0.000000 0.000000 0.000000
# 2 -0.007759 0.036319 -0.000808 0.000000 0.000000 0.000000
# 3 -0.001362 -0.000808 0.012353 0.000000 0.000000 0.000000
# 4 0.000000 0.000000 0.000000 0.045886 0.000000 0.000000
# 5 0.000000 0.000000 0.000000 0.000000 0.050226 0.000000
# 6 0.000000 0.000000 0.000000 0.000000 0.000000 0.073045
#
#
# Mechanical properties :
#
#
# Convention : Reuss Voigt Hill
#
# Bulk Modulus (GPa) = 18.52380 21.03698 19.78039
# Shear Modulus (GPa) = 17.80297 20.18688 18.99492
#
# Velocity S-wave (km/s) = 2.99307 3.18717 3.09164
# Velocity P-wave (km/s) = 4.61148 4.91222 4.76422
#
# Compressibility (1/GPa) = 0.05398462
#
# Stress axis : x y z
#
# Youngs Moduli (GPa) = 39.72910 27.53390 80.95103
#
# Poissons Ratio (x) = 0.21365 0.11023
# Poissons Ratio (y) = 0.30827 0.06540
# Poissons Ratio (z) = 0.05410 0.02224
#
# Static dielectric constant tensor:
#      x y z
#    x 1.727790 0.000000 0.000000 
#    y 0.000000 1.672670 0.000000 
#    z 0.000000 0.000000 1.690680 
# 
# From -- ./inp_files/15068.got.cif
#   From: 2010.05.17/outbox.cif.g08.bks.cpg/sg44_8_cif.got.tgz:15068.got - 2010.06.03 19:37:08.
