data_PCOD9374027
_publ_section_title
;
Structure prediction by ZEFSAII (Michael W. Deem and Ramdas Pophale) SiO2 
 PCOD9374027
Probable space group: I M M 2
;
_chemical_formula_sum "Si O2"
_cell_formula_units_Z 48
_cell_length_a 16.926061
_cell_length_b 8.956730
_cell_length_c 19.014126
_cell_angle_alpha 90.000000
_cell_angle_beta 90.000000
_cell_angle_gamma 90.000000
_cell_volume 2882.582541
_symmetry_space_group_name_H-M "I M M 2"
_symmetry_group_IT_number 44
_symmetry_cell_setting 'orthorhombic'
loop_
_space_group_symop_operation_xyz
x,y,z
-x,-y,z
-x,y,z
x,-y,z
1/2+x,1/2+y,1/2+z
1/2-x,1/2-y,1/2+z
1/2-x,1/2+y,1/2+z
1/2+x,1/2-y,1/2+z
loop_
_atom_site_type_symbol
_atom_site_label
_atom_site_fract_x
_atom_site_fract_y
_atom_site_fract_z
Si Si1 0.835410 0.321862 0.990550
Si Si2 0.000000 0.821637 0.962791
Si Si3 0.000000 0.178488 0.796867
Si Si4 0.306878 0.179719 0.069922
Si Si5 0.655793 0.180159 0.229939
Si Si6 0.731294 0.321447 0.853557
Si Si7 0.590566 0.820203 0.934629
O O1 0.841907 0.500000 0.995809
O O2 0.795269 0.285884 0.914756
O O3 0.920571 0.246810 0.994749
O O4 0.774067 0.257892 0.047069
O O5 0.000000 0.783407 0.879637
O O6 0.000000 0.000000 0.969815
O O7 0.922423 0.245902 0.760973
O O8 0.000000 0.000000 0.790481
O O9 0.331724 0.220210 0.148666
O O10 0.296815 0.000000 0.067086
O O11 0.372041 0.220173 0.010759
O O12 0.729892 0.222424 0.279512
O O13 0.647506 0.000000 0.234516
O O14 0.719854 0.500000 0.854048
O O15 0.649995 0.244697 0.876476
O O16 0.500000 0.769496 0.928206
O O17 0.591485 0.000000 0.930168
#
# Coordination Sequence:
#
# PCOD9374027 Si02
#       7
#     8   4   4   8   8   8   8
#     4  10  19  33  53  77 106 137 172 215 261 308
#     4  11  21  33  53  79 107 136 175 218 259 311
#     4  11  23  33  49  81 113 138 169 214 265 309
#     4   9  19  34  54  76 103 137 172 211 258 312
#     4  10  20  35  55  76 105 141 176 210 254 315
#     4   9  18  32  51  75 100 133 172 210 253 301
#     4   9  18  32  51  76 100 128 169 212 254 303
#
# _framework density 16.651734999999999
#
# number of rings (size 3 to 8) (size 9 to 14) (size 15 to 20)
#    0.000    2.333    1.667    1.000    1.167    3.000 
#    0.000    0.000    1.833    0.000    0.000    0.000 
#    0.000    0.000    0.000    0.000    0.000    0.000 
#
# Total GULP energy -133883.657859 kJ/mol
# GULP energy per Si atom -5578.485744 kJ/mol
# Density = 1.661384 g / cm^3
# Si number density = 16.651735 Si / 1000 Ang^3
#
#
#
# Elastic Constant Matrix: (Units=GPa)
#
#
# Indices 1 2 3 4 5 6 
#
# 1 165.9305 40.7613 55.2000 0.0000 0.0000 0.0000
# 2 40.7613 16.9721 21.9570 0.0000 0.0000 0.0000
# 3 55.2000 21.9570 83.4043 0.0000 0.0000 0.0000
# 4 0.0000 0.0000 0.0000 22.0511 0.0000 0.0000
# 5 0.0000 0.0000 0.0000 0.0000 17.8635 0.0000
# 6 0.0000 0.0000 0.0000 0.0000 0.0000 33.8384
#
#
#
# Elastic Compliance Matrix: (Units=1/GPa)
#
#
# Indices 1 2 3 4 5 6 
#
# 1 0.014722 -0.034503 -0.000660 0.000000 0.000000 0.000000
# 2 -0.034503 0.170215 -0.021975 0.000000 0.000000 0.000000
# 3 -0.000660 -0.021975 0.018212 0.000000 0.000000 0.000000
# 4 0.000000 0.000000 0.000000 0.045349 0.000000 0.000000
# 5 0.000000 0.000000 0.000000 0.000000 0.055980 0.000000
# 6 0.000000 0.000000 0.000000 0.000000 0.000000 0.029552
#
#
# Mechanical properties :
#
#
# Convention : Reuss Voigt Hill
#
# Bulk Modulus (GPa) = 11.25222 55.79374 33.52298
# Shear Modulus (GPa) = 10.46173 24.64314 17.55244
#
# Velocity S-wave (km/s) = 2.50924 3.85114 3.25020
# Velocity P-wave (km/s) = 3.89450 7.30438 5.85325
#
# Compressibility (1/GPa) = 0.08887139
#
# Stress axis : x y z
#
# Youngs Moduli (GPa) = 67.92498 5.87492 54.90879
#
# Poissons Ratio (x) = 0.20270 0.03626
# Poissons Ratio (y) = 2.34364 1.20664
# Poissons Ratio (z) = 0.04485 0.12910
#
# Static dielectric constant tensor:
#      x y z
#    x 1.536690 0.000000 0.000000 
#    y 0.000000 1.555760 0.000000 
#    z 0.000000 0.000000 1.551110 
# 
# From -- ./inp_files/20332.got.cif
#   From: 2010.05.17/outbox.cif.g08.bks.cpg/sg44_11_cif.got.tgz:20332.got - 2010.06.03 19:37:08.
