data_PCOD9374648
_publ_section_title
;
Structure prediction by ZEFSAII (Michael W. Deem and Ramdas Pophale) SiO2 
 PCOD9374648
Probable space group: I M M 2
;
_chemical_formula_sum "Si O2"
_cell_formula_units_Z 34
_cell_length_a 12.630339
_cell_length_b 14.383877
_cell_length_c 7.168668
_cell_angle_alpha 90.000000
_cell_angle_beta 90.000000
_cell_angle_gamma 90.000000
_cell_volume 1302.355161
_symmetry_space_group_name_H-M "I M M 2"
_symmetry_group_IT_number 44
_symmetry_cell_setting 'orthorhombic'
loop_
_space_group_symop_operation_xyz
x,y,z
-x,-y,z
-x,y,z
x,-y,z
1/2+x,1/2+y,1/2+z
1/2-x,1/2-y,1/2+z
1/2-x,1/2+y,1/2+z
1/2+x,1/2-y,1/2+z
loop_
_atom_site_type_symbol
_atom_site_label
_atom_site_fract_x
_atom_site_fract_y
_atom_site_fract_z
Si Si1 0.613630 0.684117 0.167280
Si Si2 0.000000 0.500000 0.009675
Si Si3 0.848562 0.398829 0.628166
Si Si4 0.615613 0.351031 0.722521
Si Si5 0.847584 0.639062 0.204479
O O1 0.500000 0.651410 0.240211
O O2 0.620853 0.795690 0.200320
O O3 0.720763 0.635104 0.228609
O O4 0.616248 0.663315 0.945897
O O5 0.906769 0.579304 0.052421
O O6 0.891235 0.500000 0.697346
O O7 0.721981 0.400836 0.658408
O O8 0.882595 0.391240 0.411364
O O9 0.500000 0.389179 0.672748
O O10 0.627022 0.245185 0.654140
#
# Coordination Sequence:
#
# PCOD9374648 Si02
#       5
#     8   2   8   8   8
#     4   9  20  38  60  81 116 156 185 226 289 342
#     4  12  20  36  66  86 110 140 196 240 280 324
#     4  10  20  33  57  88 112 143 195 242 272 331
#     4   9  18  36  57  80 117 156 183 224 291 342
#     4  10  20  35  60  88 110 144 193 237 279 332
#
# _framework density 26.106548
#
# number of rings (size 3 to 8) (size 9 to 14) (size 15 to 20)
#    0.000    2.353    2.353    0.000    1.647    1.882 
#    2.118    0.588    2.588    1.412    0.000    0.000 
#    0.000    0.000    0.000    0.000    0.000    0.000 
#
# Total GULP energy -94763.902948 kJ/mol
# GULP energy per Si atom -5574.347232 kJ/mol
# Density = 2.604713 g / cm^3
# Si number density = 26.106548 Si / 1000 Ang^3
#
#
#
# Elastic Constant Matrix: (Units=GPa)
#
#
# Indices 1 2 3 4 5 6 
#
# 1 256.4014 19.7650 -8.9795 0.0000 0.0000 0.0000
# 2 19.7650 100.4094 9.9516 0.0000 0.0000 0.0000
# 3 -8.9795 9.9516 93.6840 0.0000 0.0000 0.0000
# 4 0.0000 0.0000 0.0000 27.7427 0.0000 0.0000
# 5 0.0000 0.0000 0.0000 0.0000 -176.4512 0.0000
# 6 0.0000 0.0000 0.0000 0.0000 0.0000 225.3414
#
#
#
# Elastic Compliance Matrix: (Units=1/GPa)
#
#
# Indices 1 2 3 4 5 6 
#
# 1 0.003981 -0.000830 0.000470 0.000000 0.000000 0.000000
# 2 -0.000830 0.010238 -0.001167 0.000000 0.000000 0.000000
# 3 0.000470 -0.001167 0.010843 0.000000 0.000000 0.000000
# 4 0.000000 0.000000 0.000000 0.036045 0.000000 0.000000
# 5 0.000000 0.000000 0.000000 0.000000 -0.005667 0.000000
# 6 0.000000 0.000000 0.000000 0.000000 0.000000 0.004438
#
#
# Mechanical properties :
#
#
# Convention : Reuss Voigt Hill
#
# Bulk Modulus (GPa) = 45.44009 54.66324 50.05166
# Shear Modulus (GPa) = 71.15546 43.97709 57.56628
#
# Velocity S-wave (km/s) = 5.22637 4.10875 4.70089
# Velocity P-wave (km/s) = 7.33917 6.59493 6.97698
#
# Compressibility (1/GPa) = 0.02200700
#
# Stress axis : x y z
#
# Youngs Moduli (GPa) = 251.22008 97.67245 92.22383
#
# Poissons Ratio (x) = 0.08108 -0.04332
# Poissons Ratio (y) = 0.20854 0.10764
# Poissons Ratio (z) = -0.11800 0.11400
#
# Static dielectric constant tensor:
#      x y z
#    x 2.059850 0.000000 0.000000 
#    y 0.000000 1.980970 0.000000 
#    z 0.000000 0.000000 2.132150 
# 
# From -- ./inp_files/5397.got.cif
#   From: 2010.05.17/outbox.cif.g08.bks.cpg/sg44_3_cif.got.tgz:5397.got - 2010.06.03 19:37:08.
