data_PCOD9374386
_publ_section_title
;
Structure prediction by ZEFSAII (Michael W. Deem and Ramdas Pophale) SiO2 
 PCOD9374386
Probable space group: I M M 2
;
_chemical_formula_sum "Si O2"
_cell_formula_units_Z 56
_cell_length_a 7.633478
_cell_length_b 14.224639
_cell_length_c 30.558969
_cell_angle_alpha 90.000000
_cell_angle_beta 90.000000
_cell_angle_gamma 90.000000
_cell_volume 3318.198859
_symmetry_space_group_name_H-M "I M M 2"
_symmetry_group_IT_number 44
_symmetry_cell_setting 'orthorhombic'
loop_
_space_group_symop_operation_xyz
x,y,z
-x,-y,z
-x,y,z
x,-y,z
1/2+x,1/2+y,1/2+z
1/2-x,1/2-y,1/2+z
1/2-x,1/2+y,1/2+z
1/2+x,1/2-y,1/2+z
loop_
_atom_site_type_symbol
_atom_site_label
_atom_site_fract_x
_atom_site_fract_y
_atom_site_fract_z
Si Si1 0.208426 0.606145 0.514990
Si Si2 0.714146 0.110106 0.375921
Si Si3 0.208731 0.892693 0.184706
Si Si4 0.289454 0.213153 0.462378
Si Si5 0.789409 0.391112 0.780008
Si Si6 0.785141 0.606595 0.049721
Si Si7 0.205302 0.218062 0.101944
O O1 0.272438 0.500000 0.507225
O O2 0.246554 0.680698 0.476598
O O3 0.282103 0.648966 0.560131
O O4 0.000000 0.603025 0.520391
O O5 0.500000 0.110661 0.376318
O O6 0.775777 0.173692 0.416159
O O7 0.769609 0.144811 0.327547
O O8 0.764205 0.000000 0.381327
O O9 0.235672 0.850703 0.233181
O O10 0.281484 0.830668 0.145013
O O11 0.000000 0.900112 0.178216
O O12 0.279714 0.000000 0.183496
O O13 0.500000 0.206806 0.461332
O O14 0.230008 0.146549 0.502382
O O15 0.729699 0.500000 0.778898
O O16 0.000000 0.390739 0.780546
O O17 0.728953 0.500000 0.056595
O O18 0.722451 0.682186 0.085406
O O19 0.000000 0.607670 0.049817
O O20 0.000000 0.234238 0.110734
#
# Coordination Sequence:
#
# PCOD9374386 Si02
#       7
#     8   8   8   8   8   8   8
#     4  10  20  31  41  56  81 109 134 164 202 240
#     4   8  13  23  41  64  86 106 132 166 198 231
#     4   9  16  25  37  55  80 106 132 165 201 234
#     4   9  16  26  43  63  80 103 134 163 194 234
#     4   8  14  24  38  57  81 107 132 158 192 236
#     4   8  13  22  38  60  81  99 124 160 197 231
#     4   9  17  28  43  61  79 104 138 170 199 233
#
# _framework density 16.876624
#
# number of rings (size 3 to 8) (size 9 to 14) (size 15 to 20)
#    0.000    3.286    0.000    3.000    0.000    4.000 
#    0.000    2.143    0.000   11.571    0.000    1.000 
#    0.000    3.429    0.000    0.000    0.000    0.000 
#
# Total GULP energy -155885.462174 kJ/mol
# GULP energy per Si atom -5567.337935 kJ/mol
# Density = 1.683821 g / cm^3
# Si number density = 16.876624 Si / 1000 Ang^3
#
#
#
# Elastic Constant Matrix: (Units=GPa)
#
#
# Indices 1 2 3 4 5 6 
#
# 1 28.9502 -0.2103 -0.5876 0.0000 0.0000 0.0000
# 2 -0.2103 122.1677 79.3229 0.0000 0.0000 0.0000
# 3 -0.5876 79.3229 153.9863 0.0000 0.0000 0.0000
# 4 0.0000 0.0000 0.0000 26.1856 0.0000 0.0000
# 5 0.0000 0.0000 0.0000 0.0000 13.3321 0.0000
# 6 0.0000 0.0000 0.0000 0.0000 0.0000 974.5452
#
#
#
# Elastic Compliance Matrix: (Units=1/GPa)
#
#
# Indices 1 2 3 4 5 6 
#
# 1 0.034545 -0.000039 0.000152 0.000000 0.000000 0.000000
# 2 -0.000039 0.012299 -0.006336 0.000000 0.000000 0.000000
# 3 0.000152 -0.006336 0.009758 0.000000 0.000000 0.000000
# 4 0.000000 0.000000 0.000000 0.038189 0.000000 0.000000
# 5 0.000000 0.000000 0.000000 0.000000 0.075007 0.000000
# 6 0.000000 0.000000 0.000000 0.000000 0.000000 0.001026
#
#
# Mechanical properties :
#
#
# Convention : Reuss Voigt Hill
#
# Bulk Modulus (GPa) = 22.64675 51.35047 36.99861
# Shear Modulus (GPa) = 25.25387 217.91785 121.58586
#
# Velocity S-wave (km/s) = 3.87251 11.37561 8.49708
# Velocity P-wave (km/s) = 5.78301 14.24894 10.87372
#
# Compressibility (1/GPa) = 0.04415645
#
# Stress axis : x y z
#
# Youngs Moduli (GPa) = 28.94783 81.30584 102.47527
#
# Poissons Ratio (x) = 0.00319 -0.01558
# Poissons Ratio (y) = 0.00114 0.64927
# Poissons Ratio (z) = -0.00440 0.51514
#
# Static dielectric constant tensor:
#      x y z
#    x 1.641040 0.000000 0.000000 
#    y 0.000000 1.562390 0.000000 
#    z 0.000000 0.000000 1.597550 
# 
# From -- ./inp_files/26408.got.cif
#   From: 2010.05.17/outbox.cif.g08.bks.cpg/sg44_14_cif.got.tgz:26408.got - 2010.06.03 19:37:08.
