data_PCOD9374861
_publ_section_title
;
Structure prediction by ZEFSAII (Michael W. Deem and Ramdas Pophale) SiO2 
 PCOD9374861
Probable space group: I M M 2
;
_chemical_formula_sum "Si O2"
_cell_formula_units_Z 48
_cell_length_a 16.672193
_cell_length_b 9.149015
_cell_length_c 18.762436
_cell_angle_alpha 90.000000
_cell_angle_beta 90.000000
_cell_angle_gamma 90.000000
_cell_volume 2861.912112
_symmetry_space_group_name_H-M "I M M 2"
_symmetry_group_IT_number 44
_symmetry_cell_setting 'orthorhombic'
loop_
_space_group_symop_operation_xyz
x,y,z
-x,-y,z
-x,y,z
x,-y,z
1/2+x,1/2+y,1/2+z
1/2-x,1/2-y,1/2+z
1/2-x,1/2+y,1/2+z
1/2+x,1/2-y,1/2+z
loop_
_atom_site_type_symbol
_atom_site_label
_atom_site_fract_x
_atom_site_fract_y
_atom_site_fract_z
Si Si1 0.161057 0.674274 0.208300
Si Si2 0.676946 0.673898 0.557333
Si Si3 0.406455 0.174473 0.424325
Si Si4 0.500000 0.326687 0.950725
Si Si5 0.339482 0.172303 0.975860
Si Si6 0.730541 0.674820 0.339170
Si Si7 0.000000 0.327150 0.298050
O O1 0.164982 0.500000 0.193895
O O2 0.163210 0.761907 0.135234
O O3 0.233319 0.712187 0.262351
O O4 0.078754 0.701198 0.251127
O O5 0.662896 0.500000 0.554812
O O6 0.621727 0.752379 0.498431
O O7 0.768786 0.699655 0.532336
O O8 0.500000 0.205268 0.411297
O O9 0.348389 0.240683 0.363974
O O10 0.395580 0.000000 0.428731
O O11 0.500000 0.500000 0.950751
O O12 0.419211 0.264600 0.985961
O O13 0.500000 0.264798 0.870042
O O14 0.298735 0.205010 0.899025
O O15 0.359251 0.000000 0.976366
O O16 0.716068 0.500000 0.342258
O O17 0.000000 0.500000 0.317427
#
# Coordination Sequence:
#
# PCOD9374861 Si02
#       7
#     8   8   8   4   8   8   4
#     4  10  20  35  56  80 110 145 176 210 261 322
#     4  10  22  37  55  79 108 142 178 219 266 314
#     4  10  21  36  55  79 107 141 179 220 266 315
#     4  12  22  30  52  86 110 131 174 229 262 296
#     4   9  18  36  55  73 104 145 179 209 263 324
#     4   9  18  34  57  80 103 139 180 218 263 312
#     4  10  20  36  54  76 112 149 172 201 258 328
#
# _framework density 16.772003999999999
#
# number of rings (size 3 to 8) (size 9 to 14) (size 15 to 20)
#    0.000    2.167    1.667    2.750    1.167    6.000 
#    0.000    0.000    1.833    0.000    0.000    0.000 
#    0.000    0.000    0.000    0.000    0.000    0.000 
#
# Total GULP energy -133950.392655 kJ/mol
# GULP energy per Si atom -5581.266361 kJ/mol
# Density = 1.673383 g / cm^3
# Si number density = 16.772004 Si / 1000 Ang^3
#
#
#
# Elastic Constant Matrix: (Units=GPa)
#
#
# Indices 1 2 3 4 5 6 
#
# 1 125.9663 68.2042 37.2106 0.0000 0.0000 0.0000
# 2 68.2042 61.5015 27.4609 0.0000 0.0000 0.0000
# 3 37.2106 27.4609 57.5200 0.0000 0.0000 0.0000
# 4 0.0000 0.0000 0.0000 30.7596 0.0000 0.0000
# 5 0.0000 0.0000 0.0000 0.0000 10.3530 0.0000
# 6 0.0000 0.0000 0.0000 0.0000 0.0000 24.9505
#
#
#
# Elastic Compliance Matrix: (Units=1/GPa)
#
#
# Indices 1 2 3 4 5 6 
#
# 1 0.020276 -0.021134 -0.003027 0.000000 0.000000 0.000000
# 2 -0.021134 0.042693 -0.006711 0.000000 0.000000 0.000000
# 3 -0.003027 -0.006711 0.022547 0.000000 0.000000 0.000000
# 4 0.000000 0.000000 0.000000 0.032510 0.000000 0.000000
# 5 0.000000 0.000000 0.000000 0.000000 0.096590 0.000000
# 6 0.000000 0.000000 0.000000 0.000000 0.000000 0.040079
#
#
# Mechanical properties :
#
#
# Convention : Reuss Voigt Hill
#
# Bulk Modulus (GPa) = 42.06413 56.74881 49.40647
# Shear Modulus (GPa) = 15.41480 20.68674 18.05077
#
# Velocity S-wave (km/s) = 3.03492 3.51580 3.28418
# Velocity P-wave (km/s) = 6.11681 7.09859 6.62591
#
# Compressibility (1/GPa) = 0.02377323
#
# Stress axis : x y z
#
# Youngs Moduli (GPa) = 49.32002 23.42293 44.35133
#
# Poissons Ratio (x) = 0.49502 0.13426
# Poissons Ratio (y) = 1.04232 0.29762
# Poissons Ratio (z) = 0.14930 0.15718
#
# Static dielectric constant tensor:
#      x y z
#    x 1.563260 0.000000 0.000000 
#    y 0.000000 1.555310 0.000000 
#    z 0.000000 0.000000 1.541930 
# 
# From -- ./inp_files/21727.got.cif
#   From: 2010.05.17/outbox.cif.g08.bks.cpg/sg44_11_cif.got.tgz:21727.got - 2010.06.03 19:37:08.
