data_PCOD9374423
_publ_section_title
;
Structure prediction by ZEFSAII (Michael W. Deem and Ramdas Pophale) SiO2 
 PCOD9374423
Probable space group: I M M 2
;
_chemical_formula_sum "Si O2"
_cell_formula_units_Z 48
_cell_length_a 23.790522
_cell_length_b 9.237182
_cell_length_c 14.112096
_cell_angle_alpha 90.000000
_cell_angle_beta 90.000000
_cell_angle_gamma 90.000000
_cell_volume 3101.237266
_symmetry_space_group_name_H-M "I M M 2"
_symmetry_group_IT_number 44
_symmetry_cell_setting 'orthorhombic'
loop_
_space_group_symop_operation_xyz
x,y,z
-x,-y,z
-x,y,z
x,-y,z
1/2+x,1/2+y,1/2+z
1/2-x,1/2-y,1/2+z
1/2-x,1/2+y,1/2+z
1/2+x,1/2-y,1/2+z
loop_
_atom_site_type_symbol
_atom_site_label
_atom_site_fract_x
_atom_site_fract_y
_atom_site_fract_z
Si Si1 0.226739 0.326833 0.408830
Si Si2 0.066258 0.671302 0.909096
Si Si3 0.566258 0.671303 0.209570
Si Si4 0.159896 0.673695 0.595282
Si Si5 0.273261 0.673167 0.709835
Si Si6 0.659895 0.326305 0.523383
O O1 0.224709 0.500000 0.396778
O O2 0.181496 0.288539 0.490035
O O3 0.218087 0.250000 0.309333
O O4 0.287997 0.292437 0.453013
O O5 0.076872 0.500000 0.900165
O O6 0.078558 0.750000 0.809333
O O7 0.000000 0.692213 0.929176
O O8 0.105643 0.741759 0.988127
O O9 0.500000 0.692214 0.189489
O O10 0.576872 0.500000 0.218499
O O11 0.605643 0.741760 0.130539
O O12 0.150964 0.500000 0.598915
O O13 0.212004 0.707563 0.665653
O O14 0.275290 0.500000 0.721887
O O15 0.318504 0.711460 0.628630
O O16 0.650963 0.500000 0.519750
#
# Coordination Sequence:
#
# PCOD9374423 Si02
#       6
#     8   8   8   8   8   8
#     4   9  18  31  47  69  96 123 152 188 228 271
#     4  10  20  32  47  69  95 122 153 189 228 271
#     4  10  20  32  47  69  95 122 153 189 228 271
#     4   9  18  32  48  68  95 124 153 187 228 272
#     4   9  18  31  47  69  96 123 152 188 228 271
#     4   9  18  32  48  68  95 124 153 187 228 272
#
# _framework density 15.477695000000001
#
# number of rings (size 3 to 8) (size 9 to 14) (size 15 to 20)
#    0.000    2.667    0.000    4.000    0.000    7.333 
#    0.000    3.333    0.000    1.000    0.000    0.000 
#    0.000    0.000    0.000    0.000    0.000    0.000 
#
# Total GULP energy -133838.917058 kJ/mol
# GULP energy per Si atom -5576.621544 kJ/mol
# Density = 1.544247 g / cm^3
# Si number density = 15.477695 Si / 1000 Ang^3
#
#
#
# Elastic Constant Matrix: (Units=GPa)
#
#
# Indices 1 2 3 4 5 6 
#
# 1 69.5706 53.3272 65.3949 0.0000 0.0000 0.0000
# 2 53.3272 56.8355 63.2493 0.0000 0.0000 0.0000
# 3 65.3949 63.2493 142.2533 0.0000 0.0000 0.0000
# 4 0.0000 0.0000 0.0000 33.8278 0.0000 0.0000
# 5 0.0000 0.0000 0.0000 0.0000 21.4396 0.0000
# 6 0.0000 0.0000 0.0000 0.0000 0.0000 21.9999
#
#
#
# Elastic Compliance Matrix: (Units=1/GPa)
#
#
# Indices 1 2 3 4 5 6 
#
# 1 0.052560 -0.044392 -0.004425 0.000000 0.000000 0.000000
# 2 -0.044392 0.072320 -0.011748 0.000000 0.000000 0.000000
# 3 -0.004425 -0.011748 0.014287 0.000000 0.000000 0.000000
# 4 0.000000 0.000000 0.000000 0.029561 0.000000 0.000000
# 5 0.000000 0.000000 0.000000 0.000000 0.046643 0.000000
# 6 0.000000 0.000000 0.000000 0.000000 0.000000 0.045455
#
#
# Mechanical properties :
#
#
# Convention : Reuss Voigt Hill
#
# Bulk Modulus (GPa) = 55.43697 70.28911 62.86304
# Shear Modulus (GPa) = 12.88767 21.23265 17.06016
#
# Velocity S-wave (km/s) = 2.88872 3.70783 3.32360
# Velocity P-wave (km/s) = 6.85721 7.99015 7.44526
#
# Compressibility (1/GPa) = 0.01803850
#
# Stress axis : x y z
#
# Youngs Moduli (GPa) = 19.02588 13.82744 69.99290
#
# Poissons Ratio (x) = 0.61382 0.30969
# Poissons Ratio (y) = 0.84459 0.82228
# Poissons Ratio (z) = 0.08418 0.16245
#
# Static dielectric constant tensor:
#      x y z
#    x 1.506930 0.000000 0.000000 
#    y 0.000000 1.509930 0.000000 
#    z 0.000000 0.000000 1.495890 
# 
# From -- ./inp_files/11129.got.cif
#   From: 2010.05.17/outbox.cif.g08.bks.cpg/sg44_6_cif.got.tgz:11129.got - 2010.06.03 19:37:08.
