data_PCOD9374642
_publ_section_title
;
Structure prediction by ZEFSAII (Michael W. Deem and Ramdas Pophale) SiO2 
 PCOD9374642
Probable space group: I M M 2
;
_chemical_formula_sum "Si O2"
_cell_formula_units_Z 58
_cell_length_a 25.999877
_cell_length_b 9.356137
_cell_length_c 13.558528
_cell_angle_alpha 90.000000
_cell_angle_beta 90.000000
_cell_angle_gamma 90.000000
_cell_volume 3298.225979
_symmetry_space_group_name_H-M "I M M 2"
_symmetry_group_IT_number 44
_symmetry_cell_setting 'orthorhombic'
loop_
_space_group_symop_operation_xyz
x,y,z
-x,-y,z
-x,y,z
x,-y,z
1/2+x,1/2+y,1/2+z
1/2-x,1/2-y,1/2+z
1/2-x,1/2+y,1/2+z
1/2+x,1/2-y,1/2+z
loop_
_atom_site_type_symbol
_atom_site_label
_atom_site_fract_x
_atom_site_fract_y
_atom_site_fract_z
Si Si1 0.342004 0.169252 0.062350
Si Si2 0.191515 0.829436 0.371122
Si Si3 0.000000 0.000000 0.290371
Si Si4 0.439155 0.166358 0.544421
Si Si5 0.058846 0.830379 0.633303
Si Si6 0.599780 0.341683 0.726577
Si Si7 0.802934 0.331548 0.781399
Si Si8 0.901011 0.169150 0.853669
O O1 0.398038 0.240947 0.076808
O O2 0.311680 0.192982 0.165012
O O3 0.346975 0.000000 0.047236
O O4 0.313606 0.243781 0.972037
O O5 0.143548 0.791374 0.300987
O O6 0.245379 0.801824 0.316851
O O7 0.188027 0.000000 0.390518
O O8 0.046046 0.122492 0.281438
O O9 0.500000 0.178368 0.564266
O O10 0.409874 0.238120 0.635565
O O11 0.427039 0.250671 0.444347
O O12 0.425880 0.000000 0.533239
O O13 0.068794 0.808491 0.750316
O O14 0.000000 0.793172 0.608809
O O15 0.065892 0.000000 0.613342
O O16 0.616245 0.500000 0.687635
O O17 0.813954 0.500000 0.799870
O O18 0.844599 0.234957 0.836880
O O19 0.899105 0.000000 0.871869
#
# Coordination Sequence:
#
# PCOD9374642 Si02
#       8
#     8   8   2   8   8   8   8   8
#     4  10  21  37  56  80 113 144 178 223 277 327
#     4  10  21  38  60  83 107 143 187 224 269 327
#     4   8  16  36  58  76 108 142 190 232 270 312
#     4  11  21  33  51  80 115 150 183 225 278 331
#     4   9  18  35  55  79 106 142 187 232 272 324
#     4   9  18  35  56  77 106 144 184 227 269 318
#     4   9  20  39  57  77 109 144 180 230 274 321
#     4  10  20  33  55  81 109 144 188 230 276 328
#
# _framework density 17.58521
#
# number of rings (size 3 to 8) (size 9 to 14) (size 15 to 20)
#    0.414    1.931    0.690    1.655    0.000    4.966 
#    1.241    1.379    0.000    0.000    0.000    0.000 
#    0.000    0.000    0.000    0.000    0.000    0.000 
#
# Total GULP energy -161465.957466 kJ/mol
# GULP energy per Si atom -5567.791637 kJ/mol
# Density = 1.754519 g / cm^3
# Si number density = 17.585210 Si / 1000 Ang^3
#
#
#
# Elastic Constant Matrix: (Units=GPa)
#
#
# Indices 1 2 3 4 5 6 
#
# 1 86.1827 38.8253 35.2899 0.0000 0.0000 0.0000
# 2 38.8253 70.3115 50.4861 0.0000 0.0000 0.0000
# 3 35.2899 50.4861 56.2361 0.0000 0.0000 0.0000
# 4 0.0000 0.0000 0.0000 29.4256 0.0000 0.0000
# 5 0.0000 0.0000 0.0000 0.0000 15.9691 0.0000
# 6 0.0000 0.0000 0.0000 0.0000 0.0000 27.4503
#
#
#
# Elastic Compliance Matrix: (Units=1/GPa)
#
#
# Indices 1 2 3 4 5 6 
#
# 1 0.016130 -0.004612 -0.005982 0.000000 0.000000 0.000000
# 2 -0.004612 0.041338 -0.034218 0.000000 0.000000 0.000000
# 3 -0.005982 -0.034218 0.052256 0.000000 0.000000 0.000000
# 4 0.000000 0.000000 0.000000 0.033984 0.000000 0.000000
# 5 0.000000 0.000000 0.000000 0.000000 0.062621 0.000000
# 6 0.000000 0.000000 0.000000 0.000000 0.000000 0.036429
#
#
# Mechanical properties :
#
#
# Convention : Reuss Voigt Hill
#
# Bulk Modulus (GPa) = 49.74897 51.32586 50.53742
# Shear Modulus (GPa) = 14.74567 20.44427 17.59497
#
# Velocity S-wave (km/s) = 2.89887 3.41337 3.16659
# Velocity P-wave (km/s) = 6.28938 6.69216 6.49390
#
# Compressibility (1/GPa) = 0.02010092
#
# Stress axis : x y z
#
# Youngs Moduli (GPa) = 61.99486 24.19053 19.13674
#
# Poissons Ratio (x) = 0.11155 0.11448
# Poissons Ratio (y) = 0.28589 0.65482
# Poissons Ratio (z) = 0.37087 0.82775
#
# Static dielectric constant tensor:
#      x y z
#    x 1.581330 0.000000 0.000000 
#    y 0.000000 1.589740 0.000000 
#    z 0.000000 0.000000 1.586780 
# 
# From -- ./inp_files/14844.got.cif
#   From: 2010.05.17/outbox.cif.g08.bks.cpg/sg44_8_cif.got.tgz:14844.got - 2010.06.03 19:37:08.
