data_PCOD9374864
_publ_section_title
;
Structure prediction by ZEFSAII (Michael W. Deem and Ramdas Pophale) SiO2 
 PCOD9374864
Probable space group: I M M 2
;
_chemical_formula_sum "Si O2"
_cell_formula_units_Z 64
_cell_length_a 37.011524
_cell_length_b 7.673010
_cell_length_c 10.552954
_cell_angle_alpha 90.000000
_cell_angle_beta 90.000000
_cell_angle_gamma 90.000000
_cell_volume 2996.931230
_symmetry_space_group_name_H-M "I M M 2"
_symmetry_group_IT_number 44
_symmetry_cell_setting 'orthorhombic'
loop_
_space_group_symop_operation_xyz
x,y,z
-x,-y,z
-x,y,z
x,-y,z
1/2+x,1/2+y,1/2+z
1/2-x,1/2-y,1/2+z
1/2-x,1/2+y,1/2+z
1/2+x,1/2-y,1/2+z
loop_
_atom_site_type_symbol
_atom_site_label
_atom_site_fract_x
_atom_site_fract_y
_atom_site_fract_z
Si Si1 0.835284 0.792427 0.167050
Si Si2 0.458666 0.210491 0.452040
Si Si3 0.584529 0.786052 0.203516
Si Si4 0.459301 0.793547 0.959082
Si Si5 0.707234 0.788716 0.922700
Si Si6 0.710303 0.708808 0.428853
Si Si7 0.666883 0.790149 0.175412
Si Si8 0.083882 0.205962 0.207446
O O1 0.811778 0.764635 0.292616
O O2 0.875704 0.720759 0.187328
O O3 0.839185 0.000000 0.146735
O O4 0.814144 0.721791 0.044369
O O5 0.500000 0.273022 0.445922
O O6 0.435218 0.270326 0.332039
O O7 0.439700 0.260378 0.582800
O O8 0.459670 0.000000 0.446971
O O9 0.625973 0.727478 0.195225
O O10 0.584851 0.000000 0.203583
O O11 0.562255 0.725241 0.080855
O O12 0.500000 0.721851 0.946650
O O13 0.436448 0.773064 0.831487
O O14 0.462695 0.000000 0.980792
O O15 0.748560 0.725528 0.930343
O O16 0.707658 0.000000 0.925180
O O17 0.684612 0.727267 0.044581
O O18 0.712581 0.500000 0.444710
O O19 0.691380 0.744674 0.295431
O O20 0.665389 0.000000 0.167571
O O21 0.087211 0.000000 0.225961
#
# Coordination Sequence:
#
# PCOD9374864 Si02
#       8
#     8   8   8   8   8   8   8   8
#     4  10  22  39  57  78 108 145 181 218 263 317
#     4  10  20  35  56  81 108 140 179 222 268 318
#     4   9  18  34  57  83 108 135 175 227 273 315
#     4  10  20  36  59  83 107 140 180 221 268 319
#     4  10  21  36  56  82 109 138 176 223 270 315
#     4  10  21  37  55  78 109 142 178 221 266 315
#     4  10  20  35  56  81 108 140 178 221 269 318
#     4  11  23  37  54  79 111 146 181 218 263 314
#
# _framework density 21.355177999999999
#
# number of rings (size 3 to 8) (size 9 to 14) (size 15 to 20)
#    0.000    2.000    0.000    3.375    0.000    8.000 
#    0.000    1.250    0.000    1.500    0.000    0.000 
#    0.000    0.000    0.000    0.000    0.000    0.000 
#
# Total GULP energy -178887.079194 kJ/mol
# GULP energy per Si atom -5590.221225 kJ/mol
# Density = 2.130657 g / cm^3
# Si number density = 21.355178 Si / 1000 Ang^3
#
#
#
# Elastic Constant Matrix: (Units=GPa)
#
#
# Indices 1 2 3 4 5 6 
#
# 1 108.6191 -8.3409 1.8911 0.0000 0.0000 0.0000
# 2 -8.3409 29.4829 -28.1843 0.0000 0.0000 0.0000
# 3 1.8911 -28.1843 86.5808 0.0000 0.0000 0.0000
# 4 0.0000 0.0000 0.0000 -15.3578 0.0000 0.0000
# 5 0.0000 0.0000 0.0000 0.0000 44.4611 0.0000
# 6 0.0000 0.0000 0.0000 0.0000 0.0000 20.6292
#
#
#
# Elastic Compliance Matrix: (Units=1/GPa)
#
#
# Indices 1 2 3 4 5 6 
#
# 1 0.009466 0.003601 0.000965 0.000000 0.000000 0.000000
# 2 0.003601 0.050611 0.016397 0.000000 0.000000 0.000000
# 3 0.000965 0.016397 0.016866 0.000000 0.000000 0.000000
# 4 0.000000 0.000000 0.000000 -0.065113 0.000000 0.000000
# 5 0.000000 0.000000 0.000000 0.000000 0.022492 0.000000
# 6 0.000000 0.000000 0.000000 0.000000 0.000000 0.048475
#
#
# Mechanical properties :
#
#
# Convention : Reuss Voigt Hill
#
# Bulk Modulus (GPa) = 8.41259 17.26829 12.84044
# Shear Modulus (GPa) = 62.11655 27.23429 44.67542
#
# Velocity S-wave (km/s) = 5.39912 3.57501 4.57882
# Velocity P-wave (km/s) = 6.54334 5.01445 5.82924
#
# Compressibility (1/GPa) = 0.11886952
#
# Stress axis : x y z
#
# Youngs Moduli (GPa) = 105.63906 19.75853 59.28975
#
# Poissons Ratio (x) = -0.07115 -0.05724
# Poissons Ratio (y) = -0.38040 -0.97215
# Poissons Ratio (z) = -0.10199 -0.32397
#
# Static dielectric constant tensor:
#      x y z
#    x 1.761180 0.000000 0.000000 
#    y 0.000000 1.802830 0.000000 
#    z 0.000000 0.000000 1.708200 
# 
# From -- ./inp_files/15058.got.cif
#   From: 2010.05.17/outbox.cif.g08.bks.cpg/sg44_8_cif.got.tgz:15058.got - 2010.06.03 19:37:08.
