data_PCOD9374284
_publ_section_title
;
Structure prediction by ZEFSAII (Michael W. Deem and Ramdas Pophale) SiO2 
 PCOD9374284
Probable space group: I M M 2
;
_chemical_formula_sum "Si O2"
_cell_formula_units_Z 64
_cell_length_a 32.071856
_cell_length_b 7.871526
_cell_length_c 12.337315
_cell_angle_alpha 90.000000
_cell_angle_beta 90.000000
_cell_angle_gamma 90.000000
_cell_volume 3114.610053
_symmetry_space_group_name_H-M "I M M 2"
_symmetry_group_IT_number 44
_symmetry_cell_setting 'orthorhombic'
loop_
_space_group_symop_operation_xyz
x,y,z
-x,-y,z
-x,y,z
x,-y,z
1/2+x,1/2+y,1/2+z
1/2-x,1/2-y,1/2+z
1/2-x,1/2+y,1/2+z
1/2+x,1/2-y,1/2+z
loop_
_atom_site_type_symbol
_atom_site_label
_atom_site_fract_x
_atom_site_fract_y
_atom_site_fract_z
Si Si1 0.203159 0.704582 0.240670
Si Si2 0.833199 0.705404 0.013051
Si Si3 0.872794 0.795754 0.638230
Si Si4 0.045554 0.295067 0.251223
Si Si5 0.203903 0.202977 0.783554
Si Si6 0.429646 0.792710 0.512430
Si Si7 0.626270 0.702066 0.892261
Si Si8 0.045428 0.705338 0.774316
O O1 0.205440 0.500000 0.234824
O O2 0.249494 0.770557 0.264894
O O3 0.167967 0.743964 0.329181
O O4 0.187579 0.767016 0.123785
O O5 0.832886 0.500000 0.013970
O O6 0.809973 0.764170 0.906014
O O7 0.881321 0.758368 0.009781
O O8 0.832364 0.729741 0.703856
O O9 0.874912 0.729415 0.515187
O O10 0.914995 0.759151 0.704100
O O11 0.868861 0.000000 0.633272
O O12 0.045092 0.500000 0.247955
O O13 0.085074 0.248267 0.324056
O O14 0.000000 0.237195 0.291545
O O15 0.051518 0.235519 0.126798
O O16 0.205509 0.000000 0.766845
O O17 0.449703 0.737017 0.399360
O O18 0.431850 0.000000 0.513157
O O19 0.627226 0.500000 0.899020
O O20 0.045791 0.500000 0.775559
O O21 0.000000 0.761361 0.732583
#
# Coordination Sequence:
#
# PCOD9374284 Si02
#       8
#     8   8   8   8   8   8   8   8
#     4  10  22  40  61  85 115 151 190 235 282 336
#     4  10  19  35  62  87 113 149 186 229 285 339
#     4  10  23  41  57  78 113 155 190 227 283 341
#     4  10  20  37  62  87 114 151 190 230 283 344
#     4  10  22  39  59  84 115 149 189 235 281 333
#     4   9  16  32  57  86 115 143 179 227 282 334
#     4  11  24  40  59  82 114 153 192 238 285 334
#     4  10  20  35  58  87 114 143 186 236 280 329
#
# _framework density 20.548317000000001
#
# number of rings (size 3 to 8) (size 9 to 14) (size 15 to 20)
#    0.000    2.000    2.500    0.750    1.750    4.500 
#    0.000    3.125    0.000    1.500    0.000    0.000 
#    0.000    0.000    0.000    0.000    0.000    0.000 
#
# Total GULP energy -178698.262608 kJ/mol
# GULP energy per Si atom -5584.320707 kJ/mol
# Density = 2.050155 g / cm^3
# Si number density = 20.548317 Si / 1000 Ang^3
#
#
#
# Elastic Constant Matrix: (Units=GPa)
#
#
# Indices 1 2 3 4 5 6 
#
# 1 212.6781 9.9393 101.5269 0.0000 0.0000 0.0000
# 2 9.9393 21.2847 5.0570 0.0000 0.0000 0.0000
# 3 101.5269 5.0570 170.6507 0.0000 0.0000 0.0000
# 4 0.0000 0.0000 0.0000 27.5581 0.0000 0.0000
# 5 0.0000 0.0000 0.0000 0.0000 51.4119 0.0000
# 6 0.0000 0.0000 0.0000 0.0000 0.0000 17.9177
#
#
#
# Elastic Compliance Matrix: (Units=1/GPa)
#
#
# Indices 1 2 3 4 5 6 
#
# 1 0.006667 -0.002186 -0.003901 0.000000 0.000000 0.000000
# 2 -0.002186 0.048032 -0.000123 0.000000 0.000000 0.000000
# 3 -0.003901 -0.000123 0.008185 0.000000 0.000000 0.000000
# 4 0.000000 0.000000 0.000000 0.036287 0.000000 0.000000
# 5 0.000000 0.000000 0.000000 0.000000 0.019451 0.000000
# 6 0.000000 0.000000 0.000000 0.000000 0.000000 0.055811
#
#
# Mechanical properties :
#
#
# Convention : Reuss Voigt Hill
#
# Bulk Modulus (GPa) = 19.81657 70.85109 45.33383
# Shear Modulus (GPa) = 24.54910 38.58355 31.56632
#
# Velocity S-wave (km/s) = 3.46019 4.33794 3.92369
# Velocity P-wave (km/s) = 5.06248 7.72305 6.52971
#
# Compressibility (1/GPa) = 0.05046282
#
# Stress axis : x y z
#
# Youngs Moduli (GPa) = 150.00294 20.81937 122.17982
#
# Poissons Ratio (x) = 0.04551 0.47667
# Poissons Ratio (y) = 0.32793 0.01499
# Poissons Ratio (z) = 0.58522 0.00256
#
# Static dielectric constant tensor:
#      x y z
#    x 1.734120 0.000000 0.000000 
#    y 0.000000 1.755950 0.000000 
#    z 0.000000 0.000000 1.712390 
# 
# From -- ./inp_files/11479.got.cif
#   From: 2010.05.17/outbox.cif.g08.bks.cpg/sg44_6_cif.got.tgz:11479.got - 2010.06.03 19:37:08.
