data_PCOD9374425
_publ_section_title
;
Structure prediction by ZEFSAII (Michael W. Deem and Ramdas Pophale) SiO2 
 PCOD9374425
Probable space group: I M M 2
;
_chemical_formula_sum "Si O2"
_cell_formula_units_Z 48
_cell_length_a 7.459321
_cell_length_b 19.743909
_cell_length_c 15.632500
_cell_angle_alpha 90.000000
_cell_angle_beta 90.000000
_cell_angle_gamma 90.000000
_cell_volume 2302.294493
_symmetry_space_group_name_H-M "I M M 2"
_symmetry_group_IT_number 44
_symmetry_cell_setting 'orthorhombic'
loop_
_space_group_symop_operation_xyz
x,y,z
-x,-y,z
-x,y,z
x,-y,z
1/2+x,1/2+y,1/2+z
1/2-x,1/2-y,1/2+z
1/2-x,1/2+y,1/2+z
1/2+x,1/2-y,1/2+z
loop_
_atom_site_type_symbol
_atom_site_label
_atom_site_fract_x
_atom_site_fract_y
_atom_site_fract_z
Si Si1 0.780036 0.828562 0.132190
Si Si2 0.784945 0.923072 0.286126
Si Si3 0.216290 0.076653 0.781789
Si Si4 0.785962 0.423404 0.981540
Si Si5 0.781743 0.077051 0.976961
Si Si6 0.210712 0.675183 0.126953
O O1 0.720107 0.871016 0.214886
O O2 0.717037 0.751133 0.133734
O O3 0.000000 0.828578 0.133449
O O4 0.723976 0.868753 0.046968
O O5 0.744441 0.902799 0.383455
O O6 0.000000 0.925974 0.278137
O O7 0.717185 0.000000 0.273259
O O8 0.274992 0.090762 0.879290
O O9 0.273360 0.132222 0.713687
O O10 0.000000 0.075894 0.782101
O O11 0.275687 0.000000 0.758553
O O12 0.714566 0.500000 0.992830
O O13 0.000000 0.427335 0.994279
O O14 0.712811 0.370552 0.050250
O O15 0.000000 0.077463 0.976949
O O16 0.727889 0.000000 0.999425
O O17 0.000000 0.683600 0.108428
#
# Coordination Sequence:
#
# PCOD9374425 Si02
#       6
#     8   8   8   8   8   8
#     4   9  17  29  46  70  98 124 152 189 232 279
#     4   9  17  30  50  73  93 118 155 196 235 272
#     4   9  18  32  51  74  95 118 154 197 235 271
#     4   9  18  32  48  66  90 122 158 192 228 274
#     4   8  14  27  48  71  93 119 154 195 234 272
#     4  10  20  32  47  69  97 128 157 186 228 281
#
# _framework density 20.848766999999999
#
# number of rings (size 3 to 8) (size 9 to 14) (size 15 to 20)
#    0.000    3.000    0.000    2.000    0.000    5.000 
#    0.000    4.167    0.000    2.000    0.000    2.333 
#    0.000    0.000    0.000    0.000    0.000    0.000 
#
# Total GULP energy -133958.783018 kJ/mol
# GULP energy per Si atom -5581.615959 kJ/mol
# Density = 2.080131 g / cm^3
# Si number density = 20.848767 Si / 1000 Ang^3
#
#
#
# Elastic Constant Matrix: (Units=GPa)
#
#
# Indices 1 2 3 4 5 6 
#
# 1 59.9549 2.3509 -5.1713 0.0000 0.0000 0.0000
# 2 2.3509 191.0779 150.6092 0.0000 0.0000 0.0000
# 3 -5.1713 150.6092 167.6430 -0.0001 0.0000 0.0000
# 4 0.0000 0.0000 -0.0001 -244.9823 0.0001 0.0000
# 5 0.0000 0.0000 0.0000 0.0001 -43.5241 0.0000
# 6 0.0000 0.0000 0.0000 0.0000 0.0000 0.5487
#
#
#
# Elastic Compliance Matrix: (Units=1/GPa)
#
#
# Indices 1 2 3 4 5 6 
#
# 1 0.016973 -0.002129 0.002437 0.000000 0.000000 0.000000
# 2 -0.002129 0.018197 -0.016414 0.000000 0.000000 0.000000
# 3 0.002437 -0.016414 0.020786 0.000000 0.000000 0.000000
# 4 0.000000 0.000000 0.000000 -0.004082 0.000000 0.000000
# 5 0.000000 0.000000 0.000000 0.000000 -0.022976 0.000000
# 6 0.000000 0.000000 0.000000 0.000000 0.000000 1.822403
#
#
# Mechanical properties :
#
#
# Convention : Reuss Voigt Hill
#
# Bulk Modulus (GPa) = 42.11766 79.36150 60.73958
# Shear Modulus (GPa) = 2.64350 -39.53240 -18.44445
#
# Velocity S-wave (km/s) = 1.12725 -4.35921 -2.97758
# Velocity P-wave (km/s) = 4.68398 3.57925 4.16837
#
# Compressibility (1/GPa) = 0.02374301
#
# Stress axis : x y z
#
# Youngs Moduli (GPa) = 58.91757 54.95310 48.10827
#
# Poissons Ratio (x) = 0.11701 -0.11722
# Poissons Ratio (y) = 0.12545 0.78965
# Poissons Ratio (z) = -0.14355 0.90200
#
# Static dielectric constant tensor:
#      x y z
#    x 1.850770 0.000000 0.000000 
#    y 0.000000 1.729110 0.000000 
#    z 0.000000 0.000000 1.712140 
# 
# From -- ./inp_files/12282.got.cif
#   From: 2010.05.17/outbox.cif.g08.bks.cpg/sg44_7_cif.got.tgz:12282.got - 2010.06.03 19:37:08.
