data_PCOD9374517
_publ_section_title
;
Structure prediction by ZEFSAII (Michael W. Deem and Ramdas Pophale) SiO2 
 PCOD9374517
Probable space group: I M M 2
;
_chemical_formula_sum "Si O2"
_cell_formula_units_Z 64
_cell_length_a 20.589030
_cell_length_b 7.787839
_cell_length_c 20.862094
_cell_angle_alpha 90.000000
_cell_angle_beta 90.000000
_cell_angle_gamma 90.000000
_cell_volume 3345.112660
_symmetry_space_group_name_H-M "I M M 2"
_symmetry_group_IT_number 44
_symmetry_cell_setting 'orthorhombic'
loop_
_space_group_symop_operation_xyz
x,y,z
-x,-y,z
-x,y,z
x,-y,z
1/2+x,1/2+y,1/2+z
1/2-x,1/2-y,1/2+z
1/2-x,1/2+y,1/2+z
1/2+x,1/2-y,1/2+z
loop_
_atom_site_type_symbol
_atom_site_label
_atom_site_fract_x
_atom_site_fract_y
_atom_site_fract_z
Si Si1 0.926227 0.706092 0.831170
Si Si2 0.324575 0.796377 0.586000
Si Si3 0.824918 0.292466 0.725277
Si Si4 0.822247 0.203464 0.229185
Si Si5 0.073750 0.789988 0.330701
Si Si6 0.573876 0.709783 0.977115
Si Si7 0.926231 0.204807 0.976259
Si Si8 0.822355 0.793701 0.580010
O O1 0.928823 0.500000 0.824322
O O2 0.875532 0.771324 0.778405
O O3 0.906232 0.742987 0.904334
O O4 0.000000 0.772689 0.822578
O O5 0.344044 0.726647 0.655735
O O6 0.375715 0.760330 0.530283
O O7 0.251672 0.729058 0.571306
O O8 0.319297 0.000000 0.593286
O O9 0.823196 0.500000 0.729343
O O10 0.751173 0.227087 0.735461
O O11 0.843280 0.247022 0.652543
O O12 0.873788 0.273739 0.279825
O O13 0.817851 0.000000 0.241245
O O14 0.088623 0.739454 0.403896
O O15 0.000000 0.736389 0.315540
O O16 0.073859 0.000000 0.329387
O O17 0.500000 0.763092 0.992384
O O18 0.574185 0.500000 0.978243
O O19 0.626783 0.772177 0.027755
O O20 0.000000 0.271931 0.986972
O O21 0.929143 0.000000 0.978009
O O22 0.820586 0.000000 0.573318
#
# Coordination Sequence:
#
# PCOD9374517 Si02
#       8
#     8   8   8   8   8   8   8   8
#     4   9  18  33  51  71  97 128 161 198 243 294
#     4  10  20  33  49  70  98 129 159 195 240 289
#     4   9  18  31  47  68  95 127 160 194 234 281
#     4   9  17  30  48  69  94 124 159 197 234 277
#     4   8  14  25  43  67  91 114 145 188 232 270
#     4   8  14  26  45  70  97 122 153 195 237 275
#     4  10  21  36  53  73  96 123 159 203 247 293
#     4   9  18  31  48  71  98 128 162 199 237 280
#
# _framework density 19.132389
#
# number of rings (size 3 to 8) (size 9 to 14) (size 15 to 20)
#    0.000    3.000    0.000    1.500    0.000    3.750 
#    0.000    5.000    0.000    0.750    0.000    1.750 
#    0.000    0.000    0.000    0.000    0.000    0.000 
#
# Total GULP energy -178414.611094 kJ/mol
# GULP energy per Si atom -5575.456597 kJ/mol
# Density = 1.908884 g / cm^3
# Si number density = 19.132389 Si / 1000 Ang^3
#
#
#
# Elastic Constant Matrix: (Units=GPa)
#
#
# Indices 1 2 3 4 5 6 
#
# 1 124.4966 0.5198 127.6416 0.0000 0.0000 0.0000
# 2 0.5198 21.6173 -8.6871 0.0000 0.0000 0.0000
# 3 127.6416 -8.6871 158.7536 0.0000 0.0000 0.0000
# 4 0.0000 0.0000 0.0000 22.6955 0.0000 0.0000
# 5 0.0000 0.0000 0.0000 0.0000 44.7427 0.0000
# 6 0.0000 0.0000 0.0000 0.0000 0.0000 9.0991
#
#
#
# Elastic Compliance Matrix: (Units=1/GPa)
#
#
# Indices 1 2 3 4 5 6 
#
# 1 0.052067 -0.018481 -0.042874 0.000000 0.000000 0.000000
# 2 -0.018481 0.053859 0.017807 0.000000 0.000000 0.000000
# 3 -0.042874 0.017807 0.041745 0.000000 0.000000 0.000000
# 4 0.000000 0.000000 0.000000 0.044062 0.000000 0.000000
# 5 0.000000 0.000000 0.000000 0.000000 0.022350 0.000000
# 6 0.000000 0.000000 0.000000 0.000000 0.000000 0.109900
#
#
# Mechanical properties :
#
#
# Convention : Reuss Voigt Hill
#
# Bulk Modulus (GPa) = 16.50878 60.42398 38.46638
# Shear Modulus (GPa) = 11.59359 27.66702 19.63031
#
# Velocity S-wave (km/s) = 2.46431 3.80687 3.20664
# Velocity P-wave (km/s) = 4.09201 7.13958 5.81885
#
# Compressibility (1/GPa) = 0.06057382
#
# Stress axis : x y z
#
# Youngs Moduli (GPa) = 19.20609 18.56683 23.95476
#
# Poissons Ratio (x) = 0.34314 1.02704
# Poissons Ratio (y) = 0.35495 -0.42655
# Poissons Ratio (z) = 0.82345 -0.33061
#
# Static dielectric constant tensor:
#      x y z
#    x 1.684830 0.000000 0.000000 
#    y 0.000000 1.709030 0.000000 
#    z 0.000000 0.000000 1.632720 
# 
# From -- ./inp_files/20790.got.cif
#   From: 2010.05.17/outbox.cif.g08.bks.cpg/sg44_11_cif.got.tgz:20790.got - 2010.06.03 19:37:08.
