data_PCOD9374267
_publ_section_title
;
Structure prediction by ZEFSAII (Michael W. Deem and Ramdas Pophale) SiO2 
 PCOD9374267
Probable space group: I M M 2
;
_chemical_formula_sum "Si O2"
_cell_formula_units_Z 48
_cell_length_a 15.110370
_cell_length_b 7.796168
_cell_length_c 20.907223
_cell_angle_alpha 90.000000
_cell_angle_beta 90.000000
_cell_angle_gamma 90.000000
_cell_volume 2462.933237
_symmetry_space_group_name_H-M "I M M 2"
_symmetry_group_IT_number 44
_symmetry_cell_setting 'orthorhombic'
loop_
_space_group_symop_operation_xyz
x,y,z
-x,-y,z
-x,y,z
x,-y,z
1/2+x,1/2+y,1/2+z
1/2-x,1/2-y,1/2+z
1/2-x,1/2+y,1/2+z
1/2+x,1/2-y,1/2+z
loop_
_atom_site_type_symbol
_atom_site_label
_atom_site_fract_x
_atom_site_fract_y
_atom_site_fract_z
Si Si1 0.500000 0.790541 0.278201
Si Si2 0.692754 0.789790 0.315833
Si Si3 0.815968 0.207528 0.431191
Si Si4 0.190391 0.202494 0.574825
Si Si5 0.500000 0.206158 0.129877
Si Si6 0.000000 0.198743 0.219944
Si Si7 0.192765 0.796745 0.194678
Si Si8 0.500000 0.200186 0.865237
O O1 0.591219 0.733974 0.310413
O O2 0.500000 0.737767 0.203876
O O3 0.500000 0.000000 0.278474
O O4 0.743998 0.734479 0.379282
O O5 0.747217 0.730381 0.253299
O O6 0.692470 0.000000 0.315108
O O7 0.798882 0.271513 0.502917
O O8 0.912640 0.257103 0.405505
O O9 0.813691 0.000000 0.432860
O O10 0.255646 0.275372 0.628494
O O11 0.089320 0.232886 0.596229
O O12 0.206683 0.000000 0.573369
O O13 0.500000 0.000000 0.129145
O O14 0.093239 0.276113 0.196721
O O15 0.000000 0.204029 0.297221
O O16 0.000000 0.000000 0.198608
O O17 0.184181 0.000000 0.207103
O O18 0.500000 0.000000 0.849749
#
# Coordination Sequence:
#
# PCOD9374267 Si02
#       8
#     4   8   8   8   4   4   8   4
#     4   9  16  28  53  86 103 120 173 236 270 297
#     4   9  16  31  56  80 102 136 185 229 261 314
#     4  10  21  38  56  76 110 154 189 217 270 347
#     4  11  23  36  53  82 118 150 180 229 290 336
#     4  11  20  34  57  83 110 143 186 227 271 340
#     4  10  20  37  60  83 109 149 195 232 275 340
#     4  10  19  35  60  82 105 146 192 232 271 328
#     4  12  23  33  54  88 116 140 178 241 296 327
#
# _framework density 19.488958
#
# number of rings (size 3 to 8) (size 9 to 14) (size 15 to 20)
#    0.000    1.833    3.333    2.000    0.000    4.000 
#    0.000    0.833    0.000    2.000    0.000    0.000 
#    0.000    0.000    0.000    0.000    0.000    0.000 
#
# Total GULP energy -134027.264973 kJ/mol
# GULP energy per Si atom -5584.469374 kJ/mol
# Density = 1.944460 g / cm^3
# Si number density = 19.488958 Si / 1000 Ang^3
#
#
#
# Elastic Constant Matrix: (Units=GPa)
#
#
# Indices 1 2 3 4 5 6 
#
# 1 202.5613 -1.8064 102.5857 0.0000 0.0000 0.0000
# 2 -1.8064 23.5626 -12.6630 0.0000 0.0000 0.0000
# 3 102.5857 -12.6630 146.1550 0.0000 0.0000 0.0000
# 4 0.0000 0.0000 0.0000 20.3194 0.0000 0.0000
# 5 0.0000 0.0000 0.0000 0.0000 21.8924 0.0000
# 6 0.0000 0.0000 0.0000 0.0000 0.0000 6.2617
#
#
#
# Elastic Compliance Matrix: (Units=1/GPa)
#
#
# Indices 1 2 3 4 5 6 
#
# 1 0.007793 -0.002456 -0.005683 0.000000 0.000000 0.000000
# 2 -0.002456 0.045287 0.005648 0.000000 0.000000 0.000000
# 3 -0.005683 0.005648 0.011320 0.000000 0.000000 0.000000
# 4 0.000000 0.000000 0.000000 0.049214 0.000000 0.000000
# 5 0.000000 0.000000 0.000000 0.000000 0.045678 0.000000
# 6 0.000000 0.000000 0.000000 0.000000 0.000000 0.159702
#
#
# Mechanical properties :
#
#
# Convention : Reuss Voigt Hill
#
# Bulk Modulus (GPa) = 16.83003 60.94574 38.88788
# Shear Modulus (GPa) = 14.54413 28.63888 21.59151
#
# Velocity S-wave (km/s) = 2.73477 3.83756 3.33210
# Velocity P-wave (km/s) = 4.31583 7.13972 5.89924
#
# Compressibility (1/GPa) = 0.05941760
#
# Stress axis : x y z
#
# Youngs Moduli (GPa) = 128.32436 22.08133 88.33963
#
# Poissons Ratio (x) = 0.05424 0.50199
# Poissons Ratio (y) = 0.31523 -0.49894
# Poissons Ratio (z) = 0.72921 -0.12471
#
# Static dielectric constant tensor:
#      x y z
#    x 1.663620 0.000000 0.000000 
#    y 0.000000 1.719760 0.000000 
#    z 0.000000 0.000000 1.660610 
# 
# From -- ./inp_files/20398.got.cif
#   From: 2010.05.17/outbox.cif.g08.bks.cpg/sg44_11_cif.got.tgz:20398.got - 2010.06.03 19:37:08.
