data_PCOD9374265
_publ_section_title
;
Structure prediction by ZEFSAII (Michael W. Deem and Ramdas Pophale) SiO2 
 PCOD9374265
Probable space group: I M M 2
;
_chemical_formula_sum "Si O2"
_cell_formula_units_Z 56
_cell_length_a 13.864794
_cell_length_b 26.571537
_cell_length_c 7.110305
_cell_angle_alpha 90.000000
_cell_angle_beta 90.000000
_cell_angle_gamma 90.000000
_cell_volume 2619.499550
_symmetry_space_group_name_H-M "I M M 2"
_symmetry_group_IT_number 44
_symmetry_cell_setting 'orthorhombic'
loop_
_space_group_symop_operation_xyz
x,y,z
-x,-y,z
-x,y,z
x,-y,z
1/2+x,1/2+y,1/2+z
1/2-x,1/2-y,1/2+z
1/2-x,1/2+y,1/2+z
1/2+x,1/2-y,1/2+z
loop_
_atom_site_type_symbol
_atom_site_label
_atom_site_fract_x
_atom_site_fract_y
_atom_site_fract_z
Si Si1 0.178501 0.060135 0.200390
Si Si2 0.767744 0.792597 0.218083
Si Si3 0.888503 0.141906 0.924936
Si Si4 0.111575 0.710434 0.425258
Si Si5 0.793260 0.122950 0.527568
Si Si6 0.605679 0.899842 0.737781
Si Si7 0.604217 0.942458 0.130492
O O1 0.146384 0.084528 0.397214
O O2 0.291750 0.077048 0.191506
O O3 0.171373 0.000000 0.192693
O O4 0.127422 0.088019 0.027961
O O5 0.824065 0.743121 0.282944
O O6 0.662463 0.785072 0.128481
O O7 0.769085 0.829084 0.398261
O O8 0.827542 0.819585 0.051709
O O9 0.849406 0.139063 0.714195
O O10 0.000000 0.155523 0.928897
O O11 0.113514 0.653103 0.350776
O O12 0.000000 0.726930 0.428703
O O13 0.694654 0.097225 0.599210
O O14 0.500000 0.902031 0.646602
O O15 0.609581 0.940412 0.903797
O O16 0.500000 0.918233 0.179529
O O17 0.600969 0.000000 0.195874
#
# Coordination Sequence:
#
# PCOD9374265 Si02
#       7
#     8   8   8   8   8   8   8
#     4  10  22  39  63  93 127 162 209 266 316 381
#     4  11  24  44  65  94 132 166 217 265 315 395
#     4  11  24  44  67  88 122 169 213 267 327 379
#     4  11  23  41  67  96 130 172 214 267 326 379
#     4  11  22  40  62  92 125 166 209 258 320 386
#     4  10  19  35  59  91 125 161 208 256 309 372
#     4   9  17  33  59  88 124 168 204 243 304 376
#
# _framework density 21.378128
#
# number of rings (size 3 to 8) (size 9 to 14) (size 15 to 20)
#    0.000    1.571    2.857    2.143    0.000    5.429 
#    0.000    0.714    0.000    0.000    0.000    0.000 
#    0.000    0.000    0.000    0.000    0.000    0.000 
#
# Total GULP energy -156408.728322 kJ/mol
# GULP energy per Si atom -5586.026011 kJ/mol
# Density = 2.132947 g / cm^3
# Si number density = 21.378128 Si / 1000 Ang^3
#
#
#
# Elastic Constant Matrix: (Units=GPa)
#
#
# Indices 1 2 3 4 5 6 
#
# 1 68.1764 -12.2054 20.1689 -0.0037 0.0001 0.0003
# 2 -12.2054 58.4509 13.0228 -0.0039 -0.0002 0.0004
# 3 20.1689 13.0228 122.1836 -0.0015 0.0082 0.0002
# 4 -0.0037 -0.0039 -0.0015 14.5004 -0.0003 -0.0005
# 5 0.0001 -0.0002 0.0082 -0.0003 -2.3479 -0.0001
# 6 0.0003 0.0004 0.0002 -0.0005 -0.0001 22.2004
#
#
#
# Elastic Compliance Matrix: (Units=1/GPa)
#
#
# Indices 1 2 3 4 5 6 
#
# 1 0.016330 0.004108 -0.003134 0.000005 -0.000010 0.000000
# 2 0.004108 0.018558 -0.002656 0.000006 -0.000010 0.000000
# 3 -0.003134 -0.002656 0.008985 -0.000001 0.000031 0.000000
# 4 0.000005 0.000006 -0.000001 0.068964 -0.000009 0.000002
# 5 -0.000010 -0.000010 0.000031 -0.000009 -0.425912 -0.000002
# 6 0.000000 0.000000 0.000000 0.000002 -0.000002 0.045044
#
#
# Mechanical properties :
#
#
# Convention : Reuss Voigt Hill
#
# Bulk Modulus (GPa) = 24.68521 32.30928 28.49724
# Shear Modulus (GPa) = -19.90727 22.05889 1.07581
#
# Velocity S-wave (km/s) = -3.05486 3.21572 0.71016
# Velocity P-wave (km/s) = 0.93323 5.37902 3.74586
#
# Compressibility (1/GPa) = 0.04051009
#
# Stress axis : x y z
#
# Youngs Moduli (GPa) = 61.23585 53.88515 111.29970
#
# Poissons Ratio (x) = -0.22137 0.34876
# Poissons Ratio (y) = -0.25157 0.29563
# Poissons Ratio (z) = 0.19188 0.14313
#
# Static dielectric constant tensor:
#      x y z
#    x 1.793430 0.000000 0.000000 
#    y 0.000000 1.788200 0.000000 
#    z 0.000000 0.000000 1.773760 
# 
# From -- ./inp_files/1707.got.cif
#   From: 2010.05.17/outbox.cif.g08.bks.cpg/sg44_1_cif.got.tgz:1707.got - 2010.06.03 19:37:08.
