data_PCOD9374080
_publ_section_title
;
Structure prediction by ZEFSAII (Michael W. Deem and Ramdas Pophale) SiO2 
 PCOD9374080
Probable space group: I M M 2
;
_chemical_formula_sum "Si O2"
_cell_formula_units_Z 64
_cell_length_a 14.953448
_cell_length_b 16.512066
_cell_length_c 12.312210
_cell_angle_alpha 90.000000
_cell_angle_beta 90.000000
_cell_angle_gamma 90.000000
_cell_volume 3040.036339
_symmetry_space_group_name_H-M "I M M 2"
_symmetry_group_IT_number 44
_symmetry_cell_setting 'orthorhombic'
loop_
_space_group_symop_operation_xyz
x,y,z
-x,-y,z
-x,y,z
x,-y,z
1/2+x,1/2+y,1/2+z
1/2-x,1/2-y,1/2+z
1/2-x,1/2+y,1/2+z
1/2+x,1/2-y,1/2+z
loop_
_atom_site_type_symbol
_atom_site_label
_atom_site_fract_x
_atom_site_fract_y
_atom_site_fract_z
Si Si1 0.846794 0.297061 0.157170
Si Si2 0.303244 0.091636 0.241930
Si Si3 0.101062 0.405652 0.958236
Si Si4 0.399915 0.636250 0.004097
Si Si5 0.729137 0.098067 0.851694
Si Si6 0.099486 0.904771 0.735702
Si Si7 0.176791 0.701646 0.557580
Si Si8 0.102510 0.127668 0.252662
O O1 0.824015 0.360099 0.253001
O O2 0.761300 0.254485 0.099326
O O3 0.896236 0.221174 0.214146
O O4 0.892593 0.347003 0.060974
O O5 0.326312 0.115702 0.365726
O O6 0.353484 0.152560 0.162652
O O7 0.197495 0.093804 0.208444
O O8 0.334895 0.000000 0.230004
O O9 0.116710 0.500000 0.989772
O O10 0.000000 0.400671 0.912994
O O11 0.500000 0.605210 0.017665
O O12 0.356714 0.604608 0.115548
O O13 0.391980 0.732739 0.012561
O O14 0.378558 0.615036 0.881128
O O15 0.831458 0.124349 0.825513
O O16 0.721835 0.000000 0.851725
O O17 0.700948 0.138136 0.964278
O O18 0.000000 0.867475 0.741237
O O19 0.090672 0.000000 0.753106
O O20 0.000000 0.097657 0.230384
#
# Coordination Sequence:
#
# PCOD9374080 Si02
#       8
#     8   8   8   8   8   8   8   8
#     4  11  21  36  62  86 119 154 200 246 299 357
#     4  10  23  40  60  84 116 156 199 243 294 356
#     4  10  22  40  62  88 119 155 197 249 300 350
#     4  10  19  33  55  83 116 152 191 244 302 353
#     4  11  22  37  60  87 120 166 203 244 306 365
#     4   9  19  35  56  87 121 153 199 253 303 362
#     4  11  22  38  58  84 121 155 201 246 295 354
#     4  10  21  37  58  86 120 154 191 243 301 356
#
# _framework density 21.052378000000001
#
# number of rings (size 3 to 8) (size 9 to 14) (size 15 to 20)
#    0.000    1.750    2.500    1.875    1.750    1.250 
#    0.000    5.625    0.000    4.875    0.000    0.000 
#    0.000    0.000    0.000    0.000    0.000    0.000 
#
# Total GULP energy -178224.526287 kJ/mol
# GULP energy per Si atom -5569.516446 kJ/mol
# Density = 2.100446 g / cm^3
# Si number density = 21.052378 Si / 1000 Ang^3
#
#
#
# Elastic Constant Matrix: (Units=GPa)
#
#
# Indices 1 2 3 4 5 6 
#
# 1 48.0839 3.6622 4.7554 0.0000 0.0000 0.0000
# 2 3.6622 56.6779 18.4847 0.0000 0.0000 0.0000
# 3 4.7554 18.4847 63.2675 0.0000 0.0000 0.0000
# 4 0.0000 0.0000 0.0000 30.7321 0.0000 0.0000
# 5 0.0000 0.0000 0.0000 0.0000 17.7133 0.0000
# 6 0.0000 0.0000 0.0000 0.0000 0.0000 16.1311
#
#
#
# Elastic Compliance Matrix: (Units=1/GPa)
#
#
# Indices 1 2 3 4 5 6 
#
# 1 0.020997 -0.000931 -0.001306 0.000000 0.000000 0.000000
# 2 -0.000931 0.019543 -0.005640 0.000000 0.000000 0.000000
# 3 -0.001306 -0.005640 0.017552 0.000000 0.000000 0.000000
# 4 0.000000 0.000000 0.000000 0.032539 0.000000 0.000000
# 5 0.000000 0.000000 0.000000 0.000000 0.056455 0.000000
# 6 0.000000 0.000000 0.000000 0.000000 0.000000 0.061992
#
#
# Mechanical properties :
#
#
# Convention : Reuss Voigt Hill
#
# Bulk Modulus (GPa) = 23.61930 24.64822 24.13376
# Shear Modulus (GPa) = 20.92534 22.32375 21.62454
#
# Velocity S-wave (km/s) = 3.15614 3.25990 3.20844
# Velocity P-wave (km/s) = 4.95230 5.08947 5.02135
#
# Compressibility (1/GPa) = 0.04233826
#
# Stress axis : x y z
#
# Youngs Moduli (GPa) = 47.62568 51.16903 56.97396
#
# Poissons Ratio (x) = 0.04762 0.07443
# Poissons Ratio (y) = 0.04432 0.32133
# Poissons Ratio (z) = 0.06221 0.28859
#
# Static dielectric constant tensor:
#      x y z
#    x 1.839990 0.000000 0.000000 
#    y 0.000000 1.753290 0.000000 
#    z 0.000000 0.000000 1.763010 
# 
# From -- ./inp_files/13463.got.cif
#   From: 2010.05.17/outbox.cif.g08.bks.cpg/sg44_7_cif.got.tgz:13463.got - 2010.06.03 19:37:08.
