data_PCOD9374247
_publ_section_title
;
Structure prediction by ZEFSAII (Michael W. Deem and Ramdas Pophale) SiO2 
 PCOD9374247
Probable space group: I M M 2
;
_chemical_formula_sum "Si O2"
_cell_formula_units_Z 56
_cell_length_a 32.533570
_cell_length_b 13.245874
_cell_length_c 5.612652
_cell_angle_alpha 90.000000
_cell_angle_beta 90.000000
_cell_angle_gamma 90.000000
_cell_volume 2418.691383
_symmetry_space_group_name_H-M "I M M 2"
_symmetry_group_IT_number 44
_symmetry_cell_setting 'orthorhombic'
loop_
_space_group_symop_operation_xyz
x,y,z
-x,-y,z
-x,y,z
x,-y,z
1/2+x,1/2+y,1/2+z
1/2-x,1/2-y,1/2+z
1/2-x,1/2+y,1/2+z
1/2+x,1/2-y,1/2+z
loop_
_atom_site_type_symbol
_atom_site_label
_atom_site_fract_x
_atom_site_fract_y
_atom_site_fract_z
Si Si1 0.079766 0.391448 0.059510
Si Si2 0.115253 0.661270 0.557421
Si Si3 0.263866 0.392449 0.959985
Si Si4 0.933321 0.842641 0.099178
Si Si5 0.198765 0.278797 0.724255
Si Si6 0.544840 0.670689 0.095737
Si Si7 0.162875 0.113981 0.080043
O O1 0.056562 0.500000 0.048917
O O2 0.103927 0.392225 0.310701
O O3 0.058554 0.279994 0.072609
O O4 0.106954 0.388645 0.816907
O O5 0.162512 0.692603 0.546163
O O6 0.083707 0.754871 0.573691
O O7 0.262966 0.500000 0.087554
O O8 0.222410 0.376996 0.812166
O O9 0.305022 0.389627 0.798660
O O10 0.266413 0.294356 0.121082
O O11 0.953904 0.882098 0.339269
O O12 0.948069 0.884788 0.845595
O O13 0.884747 0.863103 0.131125
O O14 0.177110 0.206091 0.915771
O O15 0.500000 0.721867 0.110978
O O16 0.164374 0.000000 0.972344
#
# Coordination Sequence:
#
# PCOD9374247 Si02
#       7
#     8   8   8   8   8   8   8
#     4  10  19  35  58  87 124 163 205 262 318 381
#     4  10  22  36  62  89 125 168 220 258 325 384
#     4  11  25  40  64  95 128 174 219 275 341 385
#     4  10  21  39  61  93 123 166 217 261 320 383
#     4  12  22  43  63  89 133 165 219 281 320 396
#     4  10  19  36  65  92 126 166 211 262 327 386
#     4  11  23  43  66  90 122 171 219 261 323 397
#
# _framework density 23.153016000000001
#
# number of rings (size 3 to 8) (size 9 to 14) (size 15 to 20)
#    0.000    1.429    4.286    3.000    0.000    1.143 
#    0.000    0.000    0.000   43.714    0.000    0.000 
#    0.000    0.000    0.000    0.000    0.000    0.000 
#
# Total GULP energy -156033.223247 kJ/mol
# GULP energy per Si atom -5572.615116 kJ/mol
# Density = 2.310032 g / cm^3
# Si number density = 23.153016 Si / 1000 Ang^3
#
#
#
# Elastic Constant Matrix: (Units=GPa)
#
#
# Indices 1 2 3 4 5 6 
#
# 1 117.6316 6.0332 14.4553 0.0004 -0.0001 0.0000
# 2 6.0332 110.3519 18.8506 -0.0010 -0.0002 0.0021
# 3 14.4553 18.8506 159.7365 -0.0019 -0.0005 0.0258
# 4 0.0004 -0.0010 -0.0019 -19.1502 -0.0003 0.0257
# 5 -0.0001 -0.0002 -0.0005 -0.0003 21.0791 0.0031
# 6 0.0000 0.0021 0.0258 0.0257 0.0031 -165.5354
#
#
#
# Elastic Compliance Matrix: (Units=1/GPa)
#
#
# Indices 1 2 3 4 5 6 
#
# 1 0.008610 -0.000345 -0.000738 0.000000 0.000000 0.000000
# 2 -0.000345 0.009262 -0.001062 0.000000 0.000000 0.000000
# 3 -0.000738 -0.001062 0.006452 -0.000001 0.000000 0.000001
# 4 0.000000 0.000000 -0.000001 -0.052219 -0.000001 -0.000008
# 5 0.000000 0.000000 0.000000 -0.000001 0.047440 0.000001
# 6 0.000000 0.000000 0.000001 -0.000008 0.000001 -0.006041
#
#
# Mechanical properties :
#
#
# Convention : Reuss Voigt Hill
#
# Bulk Modulus (GPa) = 49.91415 51.82201 50.86808
# Shear Modulus (GPa) = 204.31043 -9.49591 97.40726
#
# Velocity S-wave (km/s) = 9.40399 -2.02738 6.49326
# Velocity P-wave (km/s) = 11.81180 4.11711 8.84504
#
# Compressibility (1/GPa) = 0.02003440
#
# Stress axis : x y z
#
# Youngs Moduli (GPa) = 116.15028 107.96635 154.97998
#
# Poissons Ratio (x) = 0.03720 0.11445
# Poissons Ratio (y) = 0.04002 0.16457
# Poissons Ratio (z) = 0.08577 0.11464
#
# Static dielectric constant tensor:
#      x y z
#    x 1.826980 0.000000 0.000000 
#    y 0.000000 1.869270 0.000000 
#    z 0.000000 0.000000 1.954750 
# 
# From -- ./inp_files/3295.got.cif
#   From: 2010.05.17/outbox.cif.g08.bks.cpg/sg44_2_cif.got.tgz:3295.got - 2010.06.03 19:37:08.
