data_PCOD9374168
_publ_section_title
;
Structure prediction by ZEFSAII (Michael W. Deem and Ramdas Pophale) SiO2 
 PCOD9374168
Probable space group: I M M 2
;
_chemical_formula_sum "Si O2"
_cell_formula_units_Z 64
_cell_length_a 17.379365
_cell_length_b 18.331026
_cell_length_c 11.802487
_cell_angle_alpha 90.000000
_cell_angle_beta 90.000000
_cell_angle_gamma 90.000000
_cell_volume 3760.055094
_symmetry_space_group_name_H-M "I M M 2"
_symmetry_group_IT_number 44
_symmetry_cell_setting 'orthorhombic'
loop_
_space_group_symop_operation_xyz
x,y,z
-x,-y,z
-x,y,z
x,-y,z
1/2+x,1/2+y,1/2+z
1/2-x,1/2-y,1/2+z
1/2-x,1/2+y,1/2+z
1/2+x,1/2-y,1/2+z
loop_
_atom_site_type_symbol
_atom_site_label
_atom_site_fract_x
_atom_site_fract_y
_atom_site_fract_z
Si Si1 0.090366 0.811834 0.945340
Si Si2 0.784297 0.083748 0.864816
Si Si3 0.692733 0.085006 0.448468
Si Si4 0.178173 0.707684 0.772567
Si Si5 0.589990 0.736776 0.062386
Si Si6 0.658420 0.582628 0.105011
Si Si7 0.831022 0.293456 0.340525
Si Si8 0.089918 0.684806 0.109108
O O1 0.142328 0.882774 0.929446
O O2 0.119252 0.756002 0.848361
O O3 0.000000 0.826697 0.934868
O O4 0.105744 0.765860 0.059281
O O5 0.802221 0.088792 0.729382
O O6 0.712520 0.135796 0.889548
O O7 0.770961 0.000000 0.892748
O O8 0.685362 0.128859 0.330852
O O9 0.776659 0.090244 0.507623
O O10 0.637411 0.126897 0.536084
O O11 0.673846 0.000000 0.437085
O O12 0.143868 0.716703 0.647839
O O13 0.261444 0.745045 0.788733
O O14 0.500000 0.755419 0.072597
O O15 0.602384 0.651291 0.092335
O O16 0.622361 0.751915 0.937205
O O17 0.625921 0.500000 0.098037
O O18 0.885272 0.317267 0.238412
O O19 0.000000 0.671222 0.093854
#
# Coordination Sequence:
#
# PCOD9374168 Si02
#       8
#     8   8   8   8   8   8   8   8
#     4   9  18  32  53  79 109 136 171 226 280 327
#     4  10  20  32  54  81 110 144 181 223 276 336
#     4  10  19  36  59  83 109 142 188 238 285 333
#     4  10  20  33  57  80 110 145 188 226 273 334
#     4  12  23  37  58  86 117 153 186 231 286 337
#     4  10  19  34  56  85 114 145 180 227 285 344
#     4  11  21  36  57  78 112 149 191 225 272 337
#     4  10  20  34  54  81 108 140 183 234 277 321
#
# _framework density 17.021027
#
# number of rings (size 3 to 8) (size 9 to 14) (size 15 to 20)
#    0.000    1.750    5.000    0.750    3.500    1.250 
#    0.000    1.875    0.000    2.625    0.000    1.750 
#    0.000    0.000    0.000    0.000    0.000    0.000 
#
# Total GULP energy -178450.884101 kJ/mol
# GULP energy per Si atom -5576.590128 kJ/mol
# Density = 1.698229 g / cm^3
# Si number density = 17.021027 Si / 1000 Ang^3
#
#
#
# Elastic Constant Matrix: (Units=GPa)
#
#
# Indices 1 2 3 4 5 6 
#
# 1 39.8587 15.4515 22.2983 0.0000 0.0000 0.0000
# 2 15.4515 83.0651 11.7705 0.0000 0.0000 0.0000
# 3 22.2983 11.7705 28.6523 0.0000 0.0000 0.0000
# 4 0.0000 0.0000 0.0000 21.3519 0.0000 0.0000
# 5 0.0000 0.0000 0.0000 0.0000 10.5291 0.0000
# 6 0.0000 0.0000 0.0000 0.0000 0.0000 16.7460
#
#
#
# Elastic Compliance Matrix: (Units=1/GPa)
#
#
# Indices 1 2 3 4 5 6 
#
# 1 0.045456 -0.003656 -0.033874 0.000000 0.000000 0.000000
# 2 -0.003656 0.013077 -0.002527 0.000000 0.000000 0.000000
# 3 -0.033874 -0.002527 0.062301 0.000000 0.000000 0.000000
# 4 0.000000 0.000000 0.000000 0.046834 0.000000 0.000000
# 5 0.000000 0.000000 0.000000 0.000000 0.094975 0.000000
# 6 0.000000 0.000000 0.000000 0.000000 0.000000 0.059716
#
#
# Mechanical properties :
#
#
# Convention : Reuss Voigt Hill
#
# Bulk Modulus (GPa) = 24.55734 27.84629 26.20181
# Shear Modulus (GPa) = 12.01792 16.52911 14.27352
#
# Velocity S-wave (km/s) = 2.66007 3.11963 2.89897
# Velocity P-wave (km/s) = 4.88811 5.41955 5.16068
#
# Compressibility (1/GPa) = 0.04072103
#
# Stress axis : x y z
#
# Youngs Moduli (GPa) = 21.99939 76.47103 16.05109
#
# Poissons Ratio (x) = 0.27954 0.54371
# Poissons Ratio (y) = 0.08042 0.04056
# Poissons Ratio (z) = 0.74520 0.19325
#
# Static dielectric constant tensor:
#      x y z
#    x 1.569370 0.000000 0.000000 
#    y 0.000000 1.575130 0.000000 
#    z 0.000000 0.000000 1.583200 
# 
# From -- ./inp_files/13461.got.cif
#   From: 2010.05.17/outbox.cif.g08.bks.cpg/sg44_7_cif.got.tgz:13461.got - 2010.06.03 19:37:08.
