data_PCOD9374465
_publ_section_title
;
Structure prediction by ZEFSAII (Michael W. Deem and Ramdas Pophale) SiO2 
 PCOD9374465
Probable space group: I M M 2
;
_chemical_formula_sum "Si O2"
_cell_formula_units_Z 48
_cell_length_a 7.683538
_cell_length_b 11.184096
_cell_length_c 25.999234
_cell_angle_alpha 90.000000
_cell_angle_beta 90.000000
_cell_angle_gamma 90.000000
_cell_volume 2234.203267
_symmetry_space_group_name_H-M "I M M 2"
_symmetry_group_IT_number 44
_symmetry_cell_setting 'orthorhombic'
loop_
_space_group_symop_operation_xyz
x,y,z
-x,-y,z
-x,y,z
x,-y,z
1/2+x,1/2+y,1/2+z
1/2-x,1/2-y,1/2+z
1/2-x,1/2+y,1/2+z
1/2+x,1/2-y,1/2+z
loop_
_atom_site_type_symbol
_atom_site_label
_atom_site_fract_x
_atom_site_fract_y
_atom_site_fract_z
Si Si1 0.203735 0.733333 0.847750
Si Si2 0.700413 0.762577 0.231380
Si Si3 0.306399 0.000000 0.856152
Si Si4 0.297532 0.369232 0.951748
Si Si5 0.803328 0.500000 0.232522
Si Si6 0.301250 0.142268 0.127170
Si Si7 0.786065 0.362491 0.512519
O O1 0.274185 0.720993 0.789174
O O2 0.288624 0.651178 0.890543
O O3 0.000000 0.705958 0.846168
O O4 0.222818 0.871616 0.866330
O O5 0.500000 0.805036 0.234315
O O6 0.706516 0.621472 0.219984
O O7 0.784177 0.819985 0.180889
O O8 0.317065 0.000000 0.794309
O O9 0.500000 0.000000 0.879358
O O10 0.500000 0.372804 0.967050
O O11 0.220922 0.500000 0.964602
O O12 0.225659 0.247543 0.977203
O O13 0.000000 0.500000 0.211571
O O14 0.500000 0.191855 0.127433
O O15 0.227703 0.168438 0.070821
O O16 0.312969 0.000000 0.128313
O O17 0.732499 0.500000 0.499296
O O18 0.000000 0.365691 0.512227
#
# Coordination Sequence:
#
# PCOD9374465 Si02
#       7
#     8   8   4   8   4   8   8
#     4  10  20  32  49  75 107 139 174 212 258 318
#     4   9  17  30  49  75 103 132 166 208 253 303
#     4   9  17  31  51  73  99 135 177 217 256 297
#     4  10  21  35  50  74 107 138 174 220 265 312
#     4   9  17  29  45  67 101 139 171 203 242 295
#     4   8  14  27  49  76 101 123 158 213 264 302
#     4   8  15  30  52  76  99 127 170 222 267 305
#
# _framework density 21.484169000000001
#
# number of rings (size 3 to 8) (size 9 to 14) (size 15 to 20)
#    0.000    3.000    0.000    2.000    1.167    3.667 
#    1.500    1.667    0.000    1.500    0.000    2.333 
#    0.000    0.000    0.000    0.000    0.000    0.000 
#
# Total GULP energy -133615.847231 kJ/mol
# GULP energy per Si atom -5567.326968 kJ/mol
# Density = 2.143527 g / cm^3
# Si number density = 21.484169 Si / 1000 Ang^3
#
#
#
# Elastic Constant Matrix: (Units=GPa)
#
#
# Indices 1 2 3 4 5 6 
#
# 1 42.4115 -0.4357 -0.8578 0.0000 0.0000 0.0000
# 2 -0.4357 102.6128 80.3377 0.0000 0.0000 0.0000
# 3 -0.8578 80.3377 132.2953 0.0000 0.0000 0.0000
# 4 0.0000 0.0000 0.0000 25.3985 0.0000 0.0000
# 5 0.0000 0.0000 0.0000 0.0000 4.4556 0.0000
# 6 0.0000 0.0000 0.0000 0.0000 0.0000 2.9631
#
#
#
# Elastic Compliance Matrix: (Units=1/GPa)
#
#
# Indices 1 2 3 4 5 6 
#
# 1 0.023582 -0.000037 0.000176 0.000000 0.000000 0.000000
# 2 -0.000037 0.018578 -0.011282 0.000000 0.000000 0.000000
# 3 0.000176 -0.011282 0.014411 0.000000 0.000000 0.000000
# 4 0.000000 0.000000 0.000000 0.039372 0.000000 0.000000
# 5 0.000000 0.000000 0.000000 0.000000 0.224436 0.000000
# 6 0.000000 0.000000 0.000000 0.000000 0.000000 0.337479
#
#
# Mechanical properties :
#
#
# Convention : Reuss Voigt Hill
#
# Bulk Modulus (GPa) = 29.16865 48.37864 38.77365
# Shear Modulus (GPa) = 7.22988 19.78181 13.50585
#
# Velocity S-wave (km/s) = 1.83644 3.03770 2.50999
# Velocity P-wave (km/s) = 4.25476 5.90514 5.14653
#
# Compressibility (1/GPa) = 0.03428338
#
# Stress axis : x y z
#
# Youngs Moduli (GPa) = 42.40584 53.82672 69.39094
#
# Poissons Ratio (x) = 0.00201 -0.01218
# Poissons Ratio (y) = 0.00158 0.78287
# Poissons Ratio (z) = -0.00745 0.60727
#
# Static dielectric constant tensor:
#      x y z
#    x 1.832580 0.000000 0.000000 
#    y 0.000000 1.777560 0.000000 
#    z 0.000000 0.000000 1.821530 
# 
# From -- ./inp_files/26955.got.cif
#   From: 2010.05.17/outbox.cif.g08.bks.cpg/sg44_14_cif.got.tgz:26955.got - 2010.06.03 19:37:08.
