data_PCOD9374228
_publ_section_title
;
Structure prediction by ZEFSAII (Michael W. Deem and Ramdas Pophale) SiO2 
 PCOD9374228
Probable space group: I M M 2
;
_chemical_formula_sum "Si O2"
_cell_formula_units_Z 40
_cell_length_a 7.879135
_cell_length_b 30.177427
_cell_length_c 8.955098
_cell_angle_alpha 90.000000
_cell_angle_beta 90.000000
_cell_angle_gamma 90.000000
_cell_volume 2129.271752
_symmetry_space_group_name_H-M "I M M 2"
_symmetry_group_IT_number 44
_symmetry_cell_setting 'orthorhombic'
loop_
_space_group_symop_operation_xyz
x,y,z
-x,-y,z
-x,y,z
x,-y,z
1/2+x,1/2+y,1/2+z
1/2-x,1/2-y,1/2+z
1/2-x,1/2+y,1/2+z
1/2+x,1/2-y,1/2+z
loop_
_atom_site_type_symbol
_atom_site_label
_atom_site_fract_x
_atom_site_fract_y
_atom_site_fract_z
Si Si1 0.800544 0.297527 0.792690
Si Si2 0.000000 0.449339 0.655142
Si Si3 0.000000 0.449237 0.290986
Si Si4 0.205231 0.207248 0.635458
Si Si5 0.311878 0.388308 0.652278
Si Si6 0.697566 0.384680 0.293612
O O1 0.737769 0.251939 0.718291
O O2 0.709997 0.340858 0.729310
O O3 0.000000 0.302295 0.757384
O O4 0.776304 0.294479 0.969374
O O5 0.834208 0.421932 0.701773
O O6 0.000000 0.500000 0.706862
O O7 0.000000 0.450211 0.473104
O O8 0.168496 0.422141 0.245938
O O9 0.000000 0.500000 0.239140
O O10 0.248772 0.162562 0.724540
O O11 0.000000 0.208539 0.627912
O O12 0.500000 0.406025 0.682318
O O13 0.295092 0.381612 0.473635
O O14 0.500000 0.393996 0.253618
#
# Coordination Sequence:
#
# PCOD9374228 Si02
#       6
#     8   4   4   8   8   8
#     4  11  22  36  55  81 112 147 188 231 277 334
#     4   9  18  34  55  85 117 145 189 237 278 333
#     4   9  18  32  55  85 113 145 185 231 282 329
#     4  10  22  37  53  79 112 146 188 230 274 334
#     4  10  19  35  57  81 114 150 184 230 282 329
#     4   9  19  35  55  80 112 147 184 228 276 330
#
# _framework density 18.785767
#
# number of rings (size 3 to 8) (size 9 to 14) (size 15 to 20)
#    0.000    2.200    1.000    1.800    1.400    4.000 
#    0.000    4.000    0.000    2.400    0.000    2.800 
#    0.000    0.000    0.000    0.000    0.000    0.000 
#
# Total GULP energy -111653.956449 kJ/mol
# GULP energy per Si atom -5582.697822 kJ/mol
# Density = 1.874301 g / cm^3
# Si number density = 18.785767 Si / 1000 Ang^3
#
#
#
# Elastic Constant Matrix: (Units=GPa)
#
#
# Indices 1 2 3 4 5 6 
#
# 1 108.7823 86.7218 34.0695 0.0001 0.0000 0.0000
# 2 86.7218 168.2037 35.3420 -0.0001 0.0000 0.0000
# 3 34.0695 35.3420 30.5403 0.0002 0.0000 0.0001
# 4 0.0001 -0.0001 0.0002 22.2412 0.0000 0.0000
# 5 0.0000 0.0000 0.0000 0.0000 21.2025 0.0000
# 6 0.0000 0.0000 0.0001 0.0000 0.0000 19.3219
#
#
#
# Elastic Compliance Matrix: (Units=1/GPa)
#
#
# Indices 1 2 3 4 5 6 
#
# 1 0.018795 -0.006983 -0.012887 0.000000 0.000000 0.000000
# 2 -0.006983 0.010449 -0.004303 0.000000 0.000000 0.000000
# 3 -0.012887 -0.004303 0.052098 -0.000001 0.000000 0.000000
# 4 0.000000 0.000000 -0.000001 0.044962 0.000000 0.000000
# 5 0.000000 0.000000 0.000000 0.000000 0.047164 0.000000
# 6 0.000000 0.000000 0.000000 0.000000 0.000000 0.051755
#
#
# Mechanical properties :
#
#
# Convention : Reuss Voigt Hill
#
# Bulk Modulus (GPa) = 30.30381 68.86588 49.58485
# Shear Modulus (GPa) = 17.57053 22.64598 20.10825
#
# Velocity S-wave (km/s) = 3.06160 3.47578 3.27524
# Velocity P-wave (km/s) = 5.35389 7.26954 6.38398
#
# Compressibility (1/GPa) = 0.03299915
#
# Stress axis : x y z
#
# Youngs Moduli (GPa) = 53.20472 95.69966 19.19444
#
# Poissons Ratio (x) = 0.66825 0.24735
# Poissons Ratio (y) = 0.37152 0.08259
# Poissons Ratio (z) = 0.68563 0.41176
#
# Static dielectric constant tensor:
#      x y z
#    x 1.671440 0.000000 0.000000 
#    y 0.000000 1.617810 0.000000 
#    z 0.000000 0.000000 1.622600 
# 
# From -- ./inp_files/4612.got.cif
#   From: 2010.05.17/outbox.cif.g08.bks.cpg/sg44_3_cif.got.tgz:4612.got - 2010.06.03 19:37:08.
