data_PCOD9374484
_publ_section_title
;
Structure prediction by ZEFSAII (Michael W. Deem and Ramdas Pophale) SiO2 
 PCOD9374484
Probable space group: I M M 2
;
_chemical_formula_sum "Si O2"
_cell_formula_units_Z 56
_cell_length_a 8.902028
_cell_length_b 14.457368
_cell_length_c 23.839101
_cell_angle_alpha 90.000000
_cell_angle_beta 90.000000
_cell_angle_gamma 90.000000
_cell_volume 3068.089789
_symmetry_space_group_name_H-M "I M M 2"
_symmetry_group_IT_number 44
_symmetry_cell_setting 'orthorhombic'
loop_
_space_group_symop_operation_xyz
x,y,z
-x,-y,z
-x,y,z
x,-y,z
1/2+x,1/2+y,1/2+z
1/2-x,1/2-y,1/2+z
1/2-x,1/2+y,1/2+z
1/2+x,1/2-y,1/2+z
loop_
_atom_site_type_symbol
_atom_site_label
_atom_site_fract_x
_atom_site_fract_y
_atom_site_fract_z
Si Si1 0.819216 0.605480 0.825850
Si Si2 0.180721 0.708859 0.599336
Si Si3 0.320479 0.291435 0.378646
Si Si4 0.174598 0.889102 0.206082
Si Si5 0.318301 0.892084 0.985605
Si Si6 0.819308 0.894404 0.651952
Si Si7 0.824963 0.611058 0.272192
O O1 0.771954 0.500000 0.838905
O O2 0.778072 0.683422 0.870934
O O3 0.750593 0.632572 0.765669
O O4 0.000000 0.606107 0.820462
O O5 0.245481 0.658217 0.653803
O O6 0.231850 0.659893 0.542301
O O7 0.220319 0.817053 0.606220
O O8 0.000000 0.701412 0.600936
O O9 0.500000 0.298279 0.383023
O O10 0.245665 0.340570 0.431493
O O11 0.265495 0.341214 0.321945
O O12 0.000000 0.862854 0.207676
O O13 0.185164 0.000000 0.199269
O O14 0.500000 0.889316 0.983409
O O15 0.273366 0.000000 0.986510
O O16 0.743399 0.868474 0.711098
O O17 0.000000 0.892537 0.659547
O O18 0.776089 0.000000 0.637904
O O19 0.815776 0.500000 0.279416
O O20 0.000000 0.637818 0.274515
#
# Coordination Sequence:
#
# PCOD9374484 Si02
#       7
#     8   8   8   8   8   8   8
#     4   9  19  36  55  75 103 138 172 206 251 310
#     4  10  20  35  55  76 101 138 178 211 250 304
#     4  11  22  35  54  78 102 133 174 217 258 300
#     4  10  20  32  50  80 112 137 166 210 260 304
#     4  10  22  39  56  75 102 136 172 210 254 306
#     4   9  18  33  53  78 107 136 169 211 255 300
#     4  10  20  33  51  77 109 142 172 206 254 309
#
# _framework density 18.252399
#
# number of rings (size 3 to 8) (size 9 to 14) (size 15 to 20)
#    0.000    2.143    0.000    3.000    0.000   10.000 
#    0.000    0.714    0.000    0.857    0.000    0.000 
#    0.000    0.000    0.000    0.000    0.000    0.000 
#
# Total GULP energy -156328.002970 kJ/mol
# GULP energy per Si atom -5583.142963 kJ/mol
# Density = 1.821086 g / cm^3
# Si number density = 18.252399 Si / 1000 Ang^3
#
#
#
# Elastic Constant Matrix: (Units=GPa)
#
#
# Indices 1 2 3 4 5 6 
#
# 1 16.6910 37.3580 28.1301 0.0000 0.0000 0.0000
# 2 37.3580 128.9357 104.4062 0.0000 0.0000 0.0000
# 3 28.1301 104.4062 113.8659 0.0000 0.0000 0.0000
# 4 0.0000 0.0000 0.0000 33.7876 0.0000 0.0000
# 5 0.0000 0.0000 0.0000 0.0000 26.1321 0.0000
# 6 0.0000 0.0000 0.0000 0.0000 0.0000 21.3188
#
#
#
# Elastic Compliance Matrix: (Units=1/GPa)
#
#
# Indices 1 2 3 4 5 6 
#
# 1 0.175024 -0.060962 0.012658 0.000000 0.000000 0.000000
# 2 -0.060962 0.051351 -0.032024 0.000000 0.000000 0.000000
# 3 0.012658 -0.032024 0.035019 0.000000 0.000000 0.000000
# 4 0.000000 0.000000 0.000000 0.029597 0.000000 0.000000
# 5 0.000000 0.000000 0.000000 0.000000 0.038267 0.000000
# 6 0.000000 0.000000 0.000000 0.000000 0.000000 0.046907
#
#
# Mechanical properties :
#
#
# Convention : Reuss Voigt Hill
#
# Bulk Modulus (GPa) = 9.92676 66.58681 38.25678
# Shear Modulus (GPa) = 8.76581 22.22093 15.49337
#
# Velocity S-wave (km/s) = 2.19385 3.49295 2.91665
# Velocity P-wave (km/s) = 3.44495 7.26828 5.68751
#
# Compressibility (1/GPa) = 0.10073783
#
# Stress axis : x y z
#
# Youngs Moduli (GPa) = 5.71351 19.47398 28.55609
#
# Poissons Ratio (x) = 1.18716 -0.36147
# Poissons Ratio (y) = 0.34830 0.91449
# Poissons Ratio (z) = -0.07232 0.62364
#
# Static dielectric constant tensor:
#      x y z
#    x 1.613080 0.000000 0.000000 
#    y 0.000000 1.669560 0.000000 
#    z 0.000000 0.000000 1.577020 
# 
# From -- ./inp_files/23003.got.cif
#   From: 2010.05.17/outbox.cif.g08.bks.cpg/sg44_12_cif.got.tgz:23003.got - 2010.06.03 19:37:08.
