data_PCOD9374323
_publ_section_title
;
Structure prediction by ZEFSAII (Michael W. Deem and Ramdas Pophale) SiO2 
 PCOD9374323
Probable space group: I M M 2
;
_chemical_formula_sum "Si O2"
_cell_formula_units_Z 64
_cell_length_a 19.825556
_cell_length_b 18.802473
_cell_length_c 9.107348
_cell_angle_alpha 90.000000
_cell_angle_beta 90.000000
_cell_angle_gamma 90.000000
_cell_volume 3394.941391
_symmetry_space_group_name_H-M "I M M 2"
_symmetry_group_IT_number 44
_symmetry_cell_setting 'orthorhombic'
loop_
_space_group_symop_operation_xyz
x,y,z
-x,-y,z
-x,y,z
x,-y,z
1/2+x,1/2+y,1/2+z
1/2-x,1/2-y,1/2+z
1/2-x,1/2+y,1/2+z
1/2+x,1/2-y,1/2+z
loop_
_atom_site_type_symbol
_atom_site_label
_atom_site_fract_x
_atom_site_fract_y
_atom_site_fract_z
Si Si1 0.076531 0.284428 0.232860
Si Si2 0.924002 0.339382 0.716014
Si Si3 0.727257 0.419295 0.383897
Si Si4 0.696132 0.288824 0.559388
Si Si5 0.885910 0.582763 0.418367
Si Si6 0.075644 0.802959 0.537190
Si Si7 0.191335 0.081208 0.549507
Si Si8 0.280750 0.835055 0.342084
O O1 0.130733 0.250039 0.124778
O O2 0.092607 0.364458 0.287203
O O3 0.080712 0.237958 0.382180
O O4 0.000000 0.280949 0.176690
O O5 0.917407 0.387938 0.569733
O O6 0.915770 0.258142 0.659446
O O7 0.859446 0.352375 0.817844
O O8 0.000000 0.348074 0.776220
O O9 0.705205 0.500000 0.416379
O O10 0.683562 0.359734 0.464781
O O11 0.804882 0.411368 0.432910
O O12 0.725824 0.409489 0.208580
O O13 0.729203 0.231458 0.451417
O O14 0.745798 0.311927 0.690409
O O15 0.902801 0.500000 0.393712
O O16 0.130283 0.863854 0.544530
O O17 0.000000 0.831870 0.550684
O O18 0.242211 0.100377 0.418913
O O19 0.168657 0.000000 0.537788
#
# Coordination Sequence:
#
# PCOD9374323 Si02
#       8
#     8   8   8   8   8   8   8   8
#     4  10  21  36  56  87 121 157 204 246 292 364
#     4  10  21  36  57  87 121 156 202 251 300 367
#     4  10  22  39  61  89 119 153 202 255 304 363
#     4  12  22  38  63  86 120 159 201 246 306 358
#     4  10  19  36  60  87 120 159 201 248 299 359
#     4   9  18  37  59  83 118 159 202 251 302 358
#     4  11  23  39  60  91 123 156 204 256 308 366
#     4  12  23  36  60  88 120 158 200 247 310 358
#
# _framework density 18.851578
#
# number of rings (size 3 to 8) (size 9 to 14) (size 15 to 20)
#    0.000    1.500    2.500    4.875    0.000    2.750 
#    0.000    0.625    0.000    1.125    0.000    1.750 
#    0.000    0.000    0.000    0.000    0.000    0.000 
#
# Total GULP energy -178757.576161 kJ/mol
# GULP energy per Si atom -5586.174255 kJ/mol
# Density = 1.880867 g / cm^3
# Si number density = 18.851578 Si / 1000 Ang^3
#
#
#
# Elastic Constant Matrix: (Units=GPa)
#
#
# Indices 1 2 3 4 5 6 
#
# 1 103.8423 49.8487 18.1603 0.0000 0.0000 0.0000
# 2 49.8487 102.2796 19.9477 0.0000 0.0000 0.0000
# 3 18.1603 19.9477 37.9282 0.0000 0.0000 0.0000
# 4 0.0000 0.0000 0.0000 28.6409 0.0000 0.0000
# 5 0.0000 0.0000 0.0000 0.0000 23.6684 0.0000
# 6 0.0000 0.0000 0.0000 0.0000 0.0000 10.3668
#
#
#
# Elastic Compliance Matrix: (Units=1/GPa)
#
#
# Indices 1 2 3 4 5 6 
#
# 1 0.012911 -0.005668 -0.003201 0.000000 0.000000 0.000000
# 2 -0.005668 0.013383 -0.004325 0.000000 0.000000 0.000000
# 3 -0.003201 -0.004325 0.030173 0.000000 0.000000 0.000000
# 4 0.000000 0.000000 0.000000 0.034915 0.000000 0.000000
# 5 0.000000 0.000000 0.000000 0.000000 0.042250 0.000000
# 6 0.000000 0.000000 0.000000 0.000000 0.000000 0.096462
#
#
# Mechanical properties :
#
#
# Convention : Reuss Voigt Hill
#
# Bulk Modulus (GPa) = 33.24530 46.66260 39.95395
# Shear Modulus (GPa) = 18.76124 22.94145 20.85135
#
# Velocity S-wave (km/s) = 3.15811 3.49227 3.32939
# Velocity P-wave (km/s) = 5.56523 6.40840 6.00164
#
# Compressibility (1/GPa) = 0.03007944
#
# Stress axis : x y z
#
# Youngs Moduli (GPa) = 77.45535 74.72127 33.14261
#
# Poissons Ratio (x) = 0.42353 0.10608
# Poissons Ratio (y) = 0.43903 0.14333
# Poissons Ratio (z) = 0.24791 0.32314
#
# Static dielectric constant tensor:
#      x y z
#    x 1.659000 0.000000 0.000000 
#    y 0.000000 1.640480 0.000000 
#    z 0.000000 0.000000 1.664340 
# 
# From -- ./inp_files/9052.got.cif
#   From: 2010.05.17/outbox.cif.g08.bks.cpg/sg44_5_cif.got.tgz:9052.got - 2010.06.03 19:37:08.
