data_PCOD9374201
_publ_section_title
;
Structure prediction by ZEFSAII (Michael W. Deem and Ramdas Pophale) SiO2 
 PCOD9374201
Probable space group: I M M 2
;
_chemical_formula_sum "Si O2"
_cell_formula_units_Z 48
_cell_length_a 8.553878
_cell_length_b 20.955429
_cell_length_c 14.709773
_cell_angle_alpha 90.000000
_cell_angle_beta 90.000000
_cell_angle_gamma 90.000000
_cell_volume 2636.729504
_symmetry_space_group_name_H-M "I M M 2"
_symmetry_group_IT_number 44
_symmetry_cell_setting 'orthorhombic'
loop_
_space_group_symop_operation_xyz
x,y,z
-x,-y,z
-x,y,z
x,-y,z
1/2+x,1/2+y,1/2+z
1/2-x,1/2-y,1/2+z
1/2-x,1/2+y,1/2+z
1/2+x,1/2-y,1/2+z
loop_
_atom_site_type_symbol
_atom_site_label
_atom_site_fract_x
_atom_site_fract_y
_atom_site_fract_z
Si Si1 0.186920 0.688325 0.750000
Si Si2 0.816045 0.305718 0.134009
Si Si3 0.688250 0.879974 0.925183
Si Si4 0.690500 0.071584 0.123859
Si Si5 0.314181 0.729435 0.940380
Si Si6 0.813446 0.072479 0.734702
O O1 0.228607 0.750847 0.691267
O O2 0.241052 0.626382 0.693479
O O3 0.265026 0.694619 0.848118
O O4 0.000000 0.685287 0.760809
O O5 0.765798 0.374286 0.172150
O O6 0.000000 0.296949 0.147915
O O7 0.771625 0.297103 0.028946
O O8 0.500000 0.886824 0.916174
O O9 0.723770 0.804563 0.928386
O O10 0.767469 0.911779 0.838514
O O11 0.736937 0.910517 0.021058
O O12 0.500000 0.072543 0.124296
O O13 0.741505 0.000000 0.147018
O O14 0.500000 0.724715 0.954872
O O15 0.000000 0.077378 0.724918
O O16 0.765266 0.000000 0.713144
#
# Coordination Sequence:
#
# PCOD9374201 Si02
#       6
#     8   8   8   8   8   8
#     4  11  21  37  60  87 119 155 197 245 294 352
#     4  12  24  39  61  87 117 158 201 246 297 354
#     4  10  19  34  59  89 120 155 194 240 294 355
#     4   9  18  34  57  85 117 152 191 236 287 343
#     4  11  22  38  60  90 119 152 198 246 296 351
#     4  11  24  40  59  87 123 159 196 247 306 360
#
# _framework density 18.204370000000001
#
# number of rings (size 3 to 8) (size 9 to 14) (size 15 to 20)
#    0.000    1.333    3.333    3.500    0.000    2.667 
#    0.000    0.833    0.000    6.000    0.000    0.000 
#    0.000    0.000    0.000    0.000    0.000    0.000 
#
# Total GULP energy -134147.996517 kJ/mol
# GULP energy per Si atom -5589.499855 kJ/mol
# Density = 1.816294 g / cm^3
# Si number density = 18.204370 Si / 1000 Ang^3
#
#
#
# Elastic Constant Matrix: (Units=GPa)
#
#
# Indices 1 2 3 4 5 6 
#
# 1 19.1860 10.4950 -11.3755 0.0000 0.0000 0.0000
# 2 10.4950 110.5113 21.5215 0.0000 0.0000 0.0000
# 3 -11.3755 21.5215 64.9522 -0.0001 0.0000 0.0001
# 4 0.0000 0.0000 -0.0001 15.6614 0.0000 0.0002
# 5 0.0000 0.0000 0.0000 0.0000 33.9391 0.0000
# 6 0.0000 0.0000 0.0001 0.0002 0.0000 124.9316
#
#
#
# Elastic Compliance Matrix: (Units=1/GPa)
#
#
# Indices 1 2 3 4 5 6 
#
# 1 0.065679 -0.009062 0.014505 0.000000 0.000000 0.000000
# 2 -0.009062 0.010923 -0.005207 0.000000 0.000000 0.000000
# 3 0.014505 -0.005207 0.019662 0.000000 0.000000 0.000000
# 4 0.000000 0.000000 0.000000 0.063851 0.000000 0.000000
# 5 0.000000 0.000000 0.000000 0.000000 0.029465 0.000000
# 6 0.000000 0.000000 0.000000 0.000000 0.000000 0.008004
#
#
# Mechanical properties :
#
#
# Convention : Reuss Voigt Hill
#
# Bulk Modulus (GPa) = 10.33731 26.21461 18.27596
# Shear Modulus (GPa) = 21.80017 46.50699 34.15358
#
# Velocity S-wave (km/s) = 3.46428 5.05990 4.33612
# Velocity P-wave (km/s) = 4.65752 6.96909 5.92709
#
# Compressibility (1/GPa) = 0.09673701
#
# Stress axis : x y z
#
# Youngs Moduli (GPa) = 15.22564 91.54660 50.86079
#
# Poissons Ratio (x) = 0.82961 -0.73776
# Poissons Ratio (y) = 0.13798 0.26481
# Poissons Ratio (z) = -0.22085 0.47664
#
# Static dielectric constant tensor:
#      x y z
#    x 1.616830 0.000000 0.000000 
#    y 0.000000 1.616920 0.000000 
#    z 0.000000 0.000000 1.593220 
# 
# From -- ./inp_files/16072.got.cif
#   From: 2010.05.17/outbox.cif.g08.bks.cpg/sg44_9_cif.got.tgz:16072.got - 2010.06.03 19:37:08.
