data_PCOD9374897
_publ_section_title
;
Structure prediction by ZEFSAII (Michael W. Deem and Ramdas Pophale) SiO2 
 PCOD9374897
Probable space group: I M M 2
;
_chemical_formula_sum "Si O2"
_cell_formula_units_Z 64
_cell_length_a 8.907664
_cell_length_b 32.436388
_cell_length_c 11.892803
_cell_angle_alpha 90.000000
_cell_angle_beta 90.000000
_cell_angle_gamma 90.000000
_cell_volume 3436.216657
_symmetry_space_group_name_H-M "I M M 2"
_symmetry_group_IT_number 44
_symmetry_cell_setting 'orthorhombic'
loop_
_space_group_symop_operation_xyz
x,y,z
-x,-y,z
-x,y,z
x,-y,z
1/2+x,1/2+y,1/2+z
1/2-x,1/2-y,1/2+z
1/2-x,1/2+y,1/2+z
1/2+x,1/2-y,1/2+z
loop_
_atom_site_type_symbol
_atom_site_label
_atom_site_fract_x
_atom_site_fract_y
_atom_site_fract_z
Si Si1 0.818410 0.548422 0.053090
Si Si2 0.828209 0.817088 0.254171
Si Si3 0.677543 0.856178 0.912187
Si Si4 0.169579 0.900854 0.109793
Si Si5 0.320852 0.375688 0.173729
Si Si6 0.171462 0.549479 0.799324
Si Si7 0.678973 0.227302 0.052703
Si Si8 0.820874 0.685816 0.991318
O O1 0.781773 0.500000 0.069638
O O2 0.741416 0.579282 0.139498
O O3 0.000000 0.552051 0.059135
O O4 0.774283 0.560911 0.924940
O O5 0.833647 0.858941 0.182699
O O6 0.740047 0.785045 0.175633
O O7 0.741905 0.825427 0.368908
O O8 0.000000 0.803424 0.275912
O O9 0.500000 0.858910 0.891289
O O10 0.766221 0.862699 0.797267
O O11 0.728490 0.890439 0.002770
O O12 0.707748 0.811595 0.969854
O O13 0.233134 0.934234 0.195917
O O14 0.000000 0.910536 0.073858
O O15 0.500000 0.374944 0.166878
O O16 0.250586 0.343887 0.084385
O O17 0.167800 0.500000 0.798597
O O18 0.000000 0.564850 0.787259
O O19 0.500000 0.234277 0.055763
O O20 0.765441 0.267688 0.013211
O O21 0.000000 0.682868 0.995057
#
# Coordination Sequence:
#
# PCOD9374897 Si02
#       8
#     8   8   8   8   8   8   8   8
#     4   9  19  38  63  90 122 159 200 246 300 360
#     4  10  21  38  58  83 114 146 186 233 288 347
#     4  10  22  41  63  83 112 155 199 242 296 358
#     4  10  20  35  57  84 114 148 186 234 288 342
#     4  12  25  40  60  88 122 157 201 251 300 359
#     4   9  18  33  56  86 118 152 190 236 289 348
#     4  10  22  40  61  85 113 149 194 243 298 354
#     4  12  25  39  59  85 117 155 197 244 293 347
#
# _framework density 18.625135
#
# number of rings (size 3 to 8) (size 9 to 14) (size 15 to 20)
#    0.000    1.750    0.000    5.250    1.750    6.000 
#    0.000    1.875    0.000    3.750    0.000    0.000 
#    0.000    0.000    0.000    0.000    0.000    0.000 
#
# Total GULP energy -178772.541550 kJ/mol
# GULP energy per Si atom -5586.641923 kJ/mol
# Density = 1.858274 g / cm^3
# Si number density = 18.625135 Si / 1000 Ang^3
#
#
#
# Elastic Constant Matrix: (Units=GPa)
#
#
# Indices 1 2 3 4 5 6 
#
# 1 121.2383 44.5084 65.8138 0.0000 -0.0001 -0.0001
# 2 44.5084 47.1982 35.0216 0.0002 -0.0002 -0.0001
# 3 65.8138 35.0216 117.4829 0.0004 -0.0002 -0.0003
# 4 0.0000 0.0002 0.0004 7.5863 -0.0001 0.0000
# 5 -0.0001 -0.0002 -0.0002 -0.0001 34.0486 0.0000
# 6 -0.0001 -0.0001 -0.0003 0.0000 0.0000 22.1935
#
#
#
# Elastic Compliance Matrix: (Units=1/GPa)
#
#
# Indices 1 2 3 4 5 6 
#
# 1 0.014811 -0.010029 -0.005308 0.000001 0.000000 0.000000
# 2 -0.010029 0.033995 -0.004516 -0.000001 0.000000 0.000000
# 3 -0.005308 -0.004516 0.012831 -0.000001 0.000000 0.000000
# 4 0.000001 -0.000001 -0.000001 0.131817 0.000000 0.000000
# 5 0.000000 0.000000 0.000000 0.000000 0.029370 0.000000
# 6 0.000000 0.000000 0.000000 0.000000 0.000000 0.045058
#
#
# Mechanical properties :
#
#
# Convention : Reuss Voigt Hill
#
# Bulk Modulus (GPa) = 45.59272 64.06746 54.83009
# Shear Modulus (GPa) = 15.87813 22.13737 19.00775
#
# Velocity S-wave (km/s) = 2.92295 3.45131 3.19806
# Velocity P-wave (km/s) = 5.99364 7.09613 6.56806
#
# Compressibility (1/GPa) = 0.02193333
#
# Stress axis : x y z
#
# Youngs Moduli (GPa) = 67.51663 29.41575 77.93381
#
# Poissons Ratio (x) = 0.29500 0.41364
# Poissons Ratio (y) = 0.67711 0.35194
# Poissons Ratio (z) = 0.35835 0.13284
#
# Static dielectric constant tensor:
#      x y z
#    x 1.633960 0.000000 0.000000 
#    y 0.000000 1.647470 0.000000 
#    z 0.000000 0.000000 1.626810 
# 
# From -- ./inp_files/11513.got.cif
#   From: 2010.05.17/outbox.cif.g08.bks.cpg/sg44_6_cif.got.tgz:11513.got - 2010.06.03 19:37:08.
