data_PCOD9374214
_publ_section_title
;
Structure prediction by ZEFSAII (Michael W. Deem and Ramdas Pophale) SiO2 
 PCOD9374214
Probable space group: I M M 2
;
_chemical_formula_sum "Si O2"
_cell_formula_units_Z 64
_cell_length_a 20.285366
_cell_length_b 7.850897
_cell_length_c 21.369057
_cell_angle_alpha 90.000000
_cell_angle_beta 90.000000
_cell_angle_gamma 90.000000
_cell_volume 3403.200098
_symmetry_space_group_name_H-M "I M M 2"
_symmetry_group_IT_number 44
_symmetry_cell_setting 'orthorhombic'
loop_
_space_group_symop_operation_xyz
x,y,z
-x,-y,z
-x,y,z
x,-y,z
1/2+x,1/2+y,1/2+z
1/2-x,1/2-y,1/2+z
1/2-x,1/2+y,1/2+z
1/2+x,1/2-y,1/2+z
loop_
_atom_site_type_symbol
_atom_site_label
_atom_site_fract_x
_atom_site_fract_y
_atom_site_fract_z
Si Si1 0.708356 0.291358 0.307340
Si Si2 0.427149 0.706399 0.251328
Si Si3 0.709792 0.795416 0.685736
Si Si4 0.426601 0.200849 0.105764
Si Si5 0.289130 0.201912 0.925681
Si Si6 0.427388 0.799106 0.883216
Si Si7 0.926194 0.203417 0.239554
Si Si8 0.715855 0.301047 0.063042
O O1 0.708315 0.500000 0.307767
O O2 0.633626 0.237142 0.293723
O O3 0.752322 0.235321 0.248125
O O4 0.740849 0.231008 0.371772
O O5 0.500000 0.757103 0.273530
O O6 0.425204 0.500000 0.247559
O O7 0.419391 0.771695 0.180394
O O8 0.633114 0.754019 0.694307
O O9 0.744928 0.728882 0.623027
O O10 0.717037 0.000000 0.685198
O O11 0.500000 0.266374 0.088341
O O12 0.362352 0.279239 0.074379
O O13 0.425511 0.000000 0.092012
O O14 0.363113 0.274403 0.916850
O O15 0.294726 0.000000 0.913806
O O16 0.266023 0.225053 0.996208
O O17 0.500000 0.724887 0.896881
O O18 0.415799 0.782144 0.808580
O O19 0.431001 0.000000 0.898529
O O20 0.000000 0.253799 0.218697
O O21 0.925097 0.000000 0.247171
O O22 0.730690 0.500000 0.059765
#
# Coordination Sequence:
#
# PCOD9374214 Si02
#       8
#     8   8   8   8   8   8   8   8
#     4   9  16  31  53  77 102 133 175 216 252 299
#     4   9  16  29  52  79 106 136 172 215 258 299
#     4  10  19  35  56  76 100 135 178 216 254 309
#     4  10  20  33  50  75 107 141 176 210 251 307
#     4  10  20  34  51  72 103 139 174 214 257 304
#     4   9  17  31  51  73 100 139 179 207 243 303
#     4  10  20  32  50  80 111 133 163 214 266 306
#     4  11  23  37  53  75 105 138 176 219 260 306
#
# _framework density 18.80583
#
# number of rings (size 3 to 8) (size 9 to 14) (size 15 to 20)
#    0.000    2.250    2.500    1.125    0.000    3.500 
#    0.000    1.875    0.000    0.750    0.000    1.750 
#    0.000    0.000    0.000    0.000    0.000    0.000 
#
# Total GULP energy -178520.551482 kJ/mol
# GULP energy per Si atom -5578.767234 kJ/mol
# Density = 1.876303 g / cm^3
# Si number density = 18.805830 Si / 1000 Ang^3
#
#
#
# Elastic Constant Matrix: (Units=GPa)
#
#
# Indices 1 2 3 4 5 6 
#
# 1 117.9874 -0.9884 64.8325 0.0000 0.0000 0.0000
# 2 -0.9884 15.2194 -4.3234 0.0000 0.0000 0.0000
# 3 64.8325 -4.3234 102.9391 0.0000 0.0000 0.0000
# 4 0.0000 0.0000 0.0000 17.3143 0.0000 0.0000
# 5 0.0000 0.0000 0.0000 0.0000 21.0138 0.0000
# 6 0.0000 0.0000 0.0000 0.0000 0.0000 13.1203
#
#
#
# Elastic Compliance Matrix: (Units=1/GPa)
#
#
# Indices 1 2 3 4 5 6 
#
# 1 0.012995 -0.001499 -0.008247 0.000000 0.000000 0.000000
# 2 -0.001499 0.066672 0.003744 0.000000 0.000000 0.000000
# 3 -0.008247 0.003744 0.015066 0.000000 0.000000 0.000000
# 4 0.000000 0.000000 0.000000 0.057756 0.000000 0.000000
# 5 0.000000 0.000000 0.000000 0.000000 0.047588 0.000000
# 6 0.000000 0.000000 0.000000 0.000000 0.000000 0.076218
#
#
# Mechanical properties :
#
#
# Convention : Reuss Voigt Hill
#
# Bulk Modulus (GPa) = 12.08767 39.46525 25.77646
# Shear Modulus (GPa) = 15.82912 22.06471 18.94692
#
# Velocity S-wave (km/s) = 2.90438 3.42905 3.17756
# Velocity P-wave (km/s) = 4.20580 6.05880 5.21526
#
# Compressibility (1/GPa) = 0.08272895
#
# Stress axis : x y z
#
# Youngs Moduli (GPa) = 76.95494 14.99879 66.37507
#
# Poissons Ratio (x) = 0.02248 0.54740
# Poissons Ratio (y) = 0.11534 -0.24852
# Poissons Ratio (z) = 0.63466 -0.05616
#
# Static dielectric constant tensor:
#      x y z
#    x 1.684540 0.000000 0.000000 
#    y 0.000000 1.682030 0.000000 
#    z 0.000000 0.000000 1.633470 
# 
# From -- ./inp_files/20734.got.cif
#   From: 2010.05.17/outbox.cif.g08.bks.cpg/sg44_11_cif.got.tgz:20734.got - 2010.06.03 19:37:08.
