data_PCOD9374656
_publ_section_title
;
Structure prediction by ZEFSAII (Michael W. Deem and Ramdas Pophale) SiO2 
 PCOD9374656
Probable space group: I M M 2
;
_chemical_formula_sum "Si O2"
_cell_formula_units_Z 64
_cell_length_a 13.817866
_cell_length_b 32.568331
_cell_length_c 7.486825
_cell_angle_alpha 90.000000
_cell_angle_beta 90.000000
_cell_angle_gamma 90.000000
_cell_volume 3369.257175
_symmetry_space_group_name_H-M "I M M 2"
_symmetry_group_IT_number 44
_symmetry_cell_setting 'orthorhombic'
loop_
_space_group_symop_operation_xyz
x,y,z
-x,-y,z
-x,y,z
x,-y,z
1/2+x,1/2+y,1/2+z
1/2-x,1/2-y,1/2+z
1/2-x,1/2+y,1/2+z
1/2+x,1/2-y,1/2+z
loop_
_atom_site_type_symbol
_atom_site_label
_atom_site_fract_x
_atom_site_fract_y
_atom_site_fract_z
Si Si1 0.731477 0.951832 0.513720
Si Si2 0.107983 0.765221 0.725763
Si Si3 0.184649 0.322702 0.730441
Si Si4 0.390610 0.391586 0.169942
Si Si5 0.886964 0.401174 0.282210
Si Si6 0.604599 0.685054 0.893956
Si Si7 0.247609 0.836478 0.842409
Si Si8 0.612870 0.911043 0.209167
O O1 0.826325 0.926112 0.573659
O O2 0.652109 0.937785 0.660218
O O3 0.686705 0.938745 0.322364
O O4 0.749719 0.000000 0.518599
O O5 0.129571 0.718798 0.778608
O O6 0.107621 0.773583 0.512632
O O7 0.192687 0.795259 0.789456
O O8 0.000000 0.777579 0.788299
O O9 0.296100 0.319567 0.790632
O O10 0.194458 0.325852 0.518322
O O11 0.132523 0.364872 0.781728
O O12 0.500000 0.404606 0.208993
O O13 0.335387 0.372115 0.341680
O O14 0.395118 0.352710 0.034821
O O15 0.827329 0.360265 0.224014
O O16 0.869397 0.410507 0.494053
O O17 0.000000 0.394757 0.259407
O O18 0.500000 0.683813 0.797878
O O19 0.500000 0.922103 0.237096
#
# Coordination Sequence:
#
# PCOD9374656 Si02
#       8
#     8   8   8   8   8   8   8   8
#     4  11  22  37  60  88 115 146 190 238 285 348
#     4  10  20  34  50  73 107 149 188 232 286 336
#     4  11  19  33  53  79 108 143 186 235 282 335
#     4   9  18  37  58  77 106 144 180 225 284 340
#     4   9  20  38  58  82 114 152 190 233 288 343
#     4   9  18  32  52  73 101 138 179 222 274 331
#     4   9  19  33  54  78 107 144 188 232 279 341
#     4  10  21  37  57  83 113 150 190 231 284 343
#
# _framework density 18.995286
#
# number of rings (size 3 to 8) (size 9 to 14) (size 15 to 20)
#    0.000    2.250    1.250    2.625    0.000    3.250 
#    0.000    1.875    0.000    0.000    0.000    1.750 
#    0.000    0.000    0.000    0.000    0.000    0.000 
#
# Total GULP energy -178162.938758 kJ/mol
# GULP energy per Si atom -5567.591836 kJ/mol
# Density = 1.895205 g / cm^3
# Si number density = 18.995286 Si / 1000 Ang^3
#
#
#
# Elastic Constant Matrix: (Units=GPa)
#
#
# Indices 1 2 3 4 5 6 
#
# 1 88.2909 19.9365 -1.6043 0.0001 -0.0024 0.0013
# 2 19.9365 86.8333 1.3712 0.0001 -0.0033 0.0027
# 3 -1.6043 1.3712 16.2564 0.0000 0.0036 0.0021
# 4 0.0001 0.0001 0.0000 19.8307 0.0003 -0.0002
# 5 -0.0024 -0.0033 0.0036 0.0003 25.3614 -0.0007
# 6 0.0013 0.0027 0.0021 -0.0002 -0.0007 13.8438
#
#
#
# Elastic Compliance Matrix: (Units=1/GPa)
#
#
# Indices 1 2 3 4 5 6 
#
# 1 0.011978 -0.002772 0.001416 0.000000 0.000001 -0.000001
# 2 -0.002772 0.012173 -0.001300 0.000000 0.000001 -0.000002
# 3 0.001416 -0.001300 0.061764 0.000000 -0.000009 -0.000009
# 4 0.000000 0.000000 0.000000 0.050427 -0.000001 0.000001
# 5 0.000001 0.000001 -0.000009 -0.000001 0.039430 0.000002
# 6 -0.000001 -0.000002 -0.000009 0.000001 0.000002 0.072234
#
#
# Mechanical properties :
#
#
# Convention : Reuss Voigt Hill
#
# Bulk Modulus (GPa) = 12.40678 25.64305 19.02492
# Shear Modulus (GPa) = 17.84522 23.25234 20.54878
#
# Velocity S-wave (km/s) = 3.06838 3.50253 3.29262
# Velocity P-wave (km/s) = 4.37023 5.46680 4.94898
#
# Compressibility (1/GPa) = 0.08060108
#
# Stress axis : x y z
#
# Youngs Moduli (GPa) = 83.48669 82.14636 16.19077
#
# Poissons Ratio (x) = 0.22775 -0.02293
# Poissons Ratio (y) = 0.23146 0.02106
# Poissons Ratio (z) = -0.11821 0.10683
#
# Static dielectric constant tensor:
#      x y z
#    x 1.695230 0.000000 0.000000 
#    y 0.000000 1.665860 0.000000 
#    z 0.000000 0.000000 1.708630 
# 
# From -- ./inp_files/6380.got.cif
#   From: 2010.05.17/outbox.cif.g08.bks.cpg/sg44_4_cif.got.tgz:6380.got - 2010.06.03 19:37:08.
