data_PCOD9374596
_publ_section_title
;
Structure prediction by ZEFSAII (Michael W. Deem and Ramdas Pophale) SiO2 
 PCOD9374596
Probable space group: I M M 2
;
_chemical_formula_sum "Si O2"
_cell_formula_units_Z 48
_cell_length_a 7.494535
_cell_length_b 9.122164
_cell_length_c 35.833538
_cell_angle_alpha 90.000000
_cell_angle_beta 90.000000
_cell_angle_gamma 90.000000
_cell_volume 2449.809182
_symmetry_space_group_name_H-M "I M M 2"
_symmetry_group_IT_number 44
_symmetry_cell_setting 'orthorhombic'
loop_
_space_group_symop_operation_xyz
x,y,z
-x,-y,z
-x,y,z
x,-y,z
1/2+x,1/2+y,1/2+z
1/2-x,1/2-y,1/2+z
1/2-x,1/2+y,1/2+z
1/2+x,1/2-y,1/2+z
loop_
_atom_site_type_symbol
_atom_site_label
_atom_site_fract_x
_atom_site_fract_y
_atom_site_fract_z
Si Si1 0.500000 0.322860 0.907980
Si Si2 0.213328 0.334617 0.203766
Si Si3 0.290778 0.175764 0.553379
Si Si4 0.286214 0.673928 0.355976
Si Si5 0.782064 0.168546 0.129913
Si Si6 0.713686 0.166152 0.280165
Si Si7 0.000000 0.177735 0.494059
O O1 0.500000 0.500000 0.905762
O O2 0.672406 0.257973 0.886995
O O3 0.500000 0.275310 0.951265
O O4 0.283400 0.500000 0.207304
O O5 0.280817 0.254045 0.166648
O O6 0.245327 0.242846 0.241086
O O7 0.000000 0.344277 0.199447
O O8 0.500000 0.207652 0.547414
O O9 0.230360 0.253156 0.591478
O O10 0.171953 0.222243 0.518270
O O11 0.272762 0.000000 0.558138
O O12 0.500000 0.696487 0.360409
O O13 0.252259 0.500000 0.357279
O O14 0.229091 0.738668 0.315749
O O15 0.000000 0.170114 0.130492
O O16 0.725262 0.000000 0.130843
O O17 0.500000 0.158220 0.282670
O O18 0.784034 0.000000 0.281622
O O19 0.000000 0.000000 0.493108
#
# Coordination Sequence:
#
# PCOD9374596 Si02
#       7
#     4   8   8   8   8   8   4
#     4  11  23  39  63  93 123 155 195 249 303 359
#     4  10  20  33  52  79 110 147 190 234 280 337
#     4   9  17  33  57  80 107 146 187 230 282 342
#     4  10  22  41  63  86 117 158 200 243 294 358
#     4   9  17  31  51  76 107 143 186 233 280 333
#     4  10  21  37  56  80 111 146 188 237 288 343
#     4   9  20  37  57  87 117 143 187 237 287 351
#
# _framework density 19.593363
#
# number of rings (size 3 to 8) (size 9 to 14) (size 15 to 20)
#    0.000    2.333    0.000    2.250    1.167    5.667 
#    1.500    3.750    0.000    2.000    0.000    0.000 
#    0.000    0.000    0.000    0.000    0.000    0.000 
#
# Total GULP energy -134037.387836 kJ/mol
# GULP energy per Si atom -5584.891160 kJ/mol
# Density = 1.954877 g / cm^3
# Si number density = 19.593363 Si / 1000 Ang^3
#
#
#
# Elastic Constant Matrix: (Units=GPa)
#
#
# Indices 1 2 3 4 5 6 
#
# 1 74.1191 44.7403 56.2243 0.0000 0.0000 0.0000
# 2 44.7403 128.1765 91.0355 0.0000 0.0000 0.0000
# 3 56.2243 91.0355 215.2246 0.0000 0.0000 0.0000
# 4 0.0000 0.0000 0.0000 30.1710 0.0000 0.0000
# 5 0.0000 0.0000 0.0000 0.0000 39.9643 0.0000
# 6 0.0000 0.0000 0.0000 0.0000 0.0000 14.8996
#
#
#
# Elastic Compliance Matrix: (Units=1/GPa)
#
#
# Indices 1 2 3 4 5 6 
#
# 1 0.018338 -0.004286 -0.002978 0.000000 0.000000 0.000000
# 2 -0.004286 0.012154 -0.004021 0.000000 0.000000 0.000000
# 3 -0.002978 -0.004021 0.007125 0.000000 0.000000 0.000000
# 4 0.000000 0.000000 0.000000 0.033144 0.000000 0.000000
# 5 0.000000 0.000000 0.000000 0.000000 0.025022 0.000000
# 6 0.000000 0.000000 0.000000 0.000000 0.000000 0.067116
#
#
# Mechanical properties :
#
#
# Convention : Reuss Voigt Hill
#
# Bulk Modulus (GPa) = 66.45851 89.05783 77.75817
# Shear Modulus (GPa) = 26.24892 32.04165 29.14528
#
# Velocity S-wave (km/s) = 3.66414 4.04831 3.86101
# Velocity P-wave (km/s) = 7.20373 8.20996 7.72325
#
# Compressibility (1/GPa) = 0.01504698
#
# Stress axis : x y z
#
# Youngs Moduli (GPa) = 54.53270 82.27931 140.35110
#
# Poissons Ratio (x) = 0.35265 0.41790
# Poissons Ratio (y) = 0.23373 0.56437
# Poissons Ratio (z) = 0.16237 0.33085
#
# Static dielectric constant tensor:
#      x y z
#    x 1.723310 0.000000 0.000000 
#    y 0.000000 1.672460 0.000000 
#    z 0.000000 0.000000 1.643200 
# 
# From -- ./inp_files/26945.got.cif
#   From: 2010.05.17/outbox.cif.g08.bks.cpg/sg44_14_cif.got.tgz:26945.got - 2010.06.03 19:37:08.
