data_PCOD9374557
_publ_section_title
;
Structure prediction by ZEFSAII (Michael W. Deem and Ramdas Pophale) SiO2 
 PCOD9374557
Probable space group: I M M 2
;
_chemical_formula_sum "Si O2"
_cell_formula_units_Z 56
_cell_length_a 17.149600
_cell_length_b 8.728469
_cell_length_c 20.085439
_cell_angle_alpha 90.000000
_cell_angle_beta 90.000000
_cell_angle_gamma 90.000000
_cell_volume 3006.584382
_symmetry_space_group_name_H-M "I M M 2"
_symmetry_group_IT_number 44
_symmetry_cell_setting 'orthorhombic'
loop_
_space_group_symop_operation_xyz
x,y,z
-x,-y,z
-x,y,z
x,-y,z
1/2+x,1/2+y,1/2+z
1/2-x,1/2-y,1/2+z
1/2-x,1/2+y,1/2+z
1/2+x,1/2-y,1/2+z
loop_
_atom_site_type_symbol
_atom_site_label
_atom_site_fract_x
_atom_site_fract_y
_atom_site_fract_z
Si Si1 0.912401 0.681279 0.584460
Si Si2 0.000000 0.317366 0.817463
Si Si3 0.260392 0.681771 0.150504
Si Si4 0.157866 0.816421 0.038000
Si Si5 0.662058 0.683620 0.283481
Si Si6 0.740205 0.817030 0.911758
Si Si7 0.000000 0.315623 0.974322
Si Si8 0.914891 0.179788 0.438610
O O1 0.898201 0.500000 0.593231
O O2 0.843242 0.775992 0.617053
O O3 0.912319 0.722604 0.506432
O O4 0.000000 0.716954 0.609476
O O5 0.922527 0.259002 0.780829
O O6 0.000000 0.500000 0.817865
O O7 0.000000 0.265365 0.895910
O O8 0.247511 0.500000 0.147979
O O9 0.191739 0.761189 0.108645
O O10 0.276432 0.730462 0.226631
O O11 0.150437 0.000000 0.037604
O O12 0.223537 0.773390 0.983007
O O13 0.076936 0.745085 0.012281
O O14 0.652587 0.500000 0.278077
O O15 0.697389 0.720104 0.355373
O O16 0.659572 0.732636 0.897952
O O17 0.727488 0.000000 0.911661
O O18 0.000000 0.500000 0.974951
O O19 0.000000 0.204605 0.407128
O O20 0.908713 0.000000 0.455375
#
# Coordination Sequence:
#
# PCOD9374557 Si02
#       8
#     8   4   8   8   8   8   4   8
#     4  10  20  33  50  76 112 148 183 223 269 326
#     4  11  23  37  59  93 127 160 199 248 305 359
#     4  11  23  38  58  83 115 155 197 240 292 353
#     4  11  22  38  63  90 119 154 197 248 301 356
#     4  10  23  41  59  82 118 160 199 241 296 366
#     4  10  20  36  59  84 112 149 194 240 291 352
#     4  11  23  39  63  95 125 154 199 256 309 357
#     4  10  20  33  53  82 112 142 183 233 285 338
#
# _framework density 18.625786999999999
#
# number of rings (size 3 to 8) (size 9 to 14) (size 15 to 20)
#    0.000    1.571    2.857    2.143    1.000    4.571 
#    0.000    0.000    1.571    0.000    0.000    0.000 
#    0.000    0.000    0.000    0.000    0.000    0.000 
#
# Total GULP energy -156307.773268 kJ/mol
# GULP energy per Si atom -5582.420474 kJ/mol
# Density = 1.858339 g / cm^3
# Si number density = 18.625787 Si / 1000 Ang^3
#
#
#
# Elastic Constant Matrix: (Units=GPa)
#
#
# Indices 1 2 3 4 5 6 
#
# 1 97.2650 29.5341 17.1049 0.0000 0.0000 0.0000
# 2 29.5341 30.2666 18.4673 0.0000 0.0000 0.0000
# 3 17.1049 18.4673 64.1118 0.0000 0.0000 0.0000
# 4 0.0000 0.0000 0.0000 20.1007 0.0000 0.0000
# 5 0.0000 0.0000 0.0000 0.0000 25.7665 0.0000
# 6 0.0000 0.0000 0.0000 0.0000 0.0000 35.5386
#
#
#
# Elastic Compliance Matrix: (Units=1/GPa)
#
#
# Indices 1 2 3 4 5 6 
#
# 1 0.014614 -0.014414 0.000253 0.000000 0.000000 0.000000
# 2 -0.014414 0.054303 -0.011796 0.000000 0.000000 0.000000
# 3 0.000253 -0.011796 0.018928 0.000000 0.000000 0.000000
# 4 0.000000 0.000000 0.000000 0.049750 0.000000 0.000000
# 5 0.000000 0.000000 0.000000 0.000000 0.038810 0.000000
# 6 0.000000 0.000000 0.000000 0.000000 0.000000 0.028138
#
#
# Mechanical properties :
#
#
# Convention : Reuss Voigt Hill
#
# Bulk Modulus (GPa) = 27.83211 35.76178 31.79695
# Shear Modulus (GPa) = 18.62658 24.71694 21.67176
#
# Velocity S-wave (km/s) = 3.16578 3.64679 3.41476
# Velocity P-wave (km/s) = 5.32335 6.08062 5.71454
#
# Compressibility (1/GPa) = 0.03592972
#
# Stress axis : x y z
#
# Youngs Moduli (GPa) = 68.42976 18.41529 52.83160
#
# Poissons Ratio (x) = 0.26544 -0.01338
# Poissons Ratio (y) = 0.98637 0.62321
# Poissons Ratio (z) = -0.01732 0.21723
#
# Static dielectric constant tensor:
#      x y z
#    x 1.638820 0.000000 0.000000 
#    y 0.000000 1.623730 0.000000 
#    z 0.000000 0.000000 1.656060 
# 
# From -- ./inp_files/24157.got.cif
#   From: 2010.05.17/outbox.cif.g08.bks.cpg/sg44_13_cif.got.tgz:24157.got - 2010.06.03 19:37:08.
