data_PCOD9374543
_publ_section_title
;
Structure prediction by ZEFSAII (Michael W. Deem and Ramdas Pophale) SiO2 
 PCOD9374543
Probable space group: I M M 2
;
_chemical_formula_sum "Si O2"
_cell_formula_units_Z 64
_cell_length_a 8.971952
_cell_length_b 14.542681
_cell_length_c 28.799946
_cell_angle_alpha 90.000000
_cell_angle_beta 90.000000
_cell_angle_gamma 90.000000
_cell_volume 3757.708548
_symmetry_space_group_name_H-M "I M M 2"
_symmetry_group_IT_number 44
_symmetry_cell_setting 'orthorhombic'
loop_
_space_group_symop_operation_xyz
x,y,z
-x,-y,z
-x,y,z
x,-y,z
1/2+x,1/2+y,1/2+z
1/2-x,1/2-y,1/2+z
1/2-x,1/2+y,1/2+z
1/2+x,1/2-y,1/2+z
loop_
_atom_site_type_symbol
_atom_site_label
_atom_site_fract_x
_atom_site_fract_y
_atom_site_fract_z
Si Si1 0.822059 0.105822 0.390790
Si Si2 0.322728 0.280286 0.708702
Si Si3 0.674024 0.389711 0.357807
Si Si4 0.677271 0.607128 0.525469
Si Si5 0.321112 0.392797 0.250368
Si Si6 0.176670 0.285400 0.441658
Si Si7 0.321907 0.892551 0.125575
Si Si8 0.673530 0.889722 0.292270
O O1 0.787017 0.179158 0.430568
O O2 0.735674 0.130125 0.343556
O O3 0.000000 0.111827 0.381577
O O4 0.787372 0.000000 0.402708
O O5 0.500000 0.281525 0.706023
O O6 0.262054 0.177661 0.717229
O O7 0.252279 0.327403 0.663496
O O8 0.266314 0.338588 0.753006
O O9 0.500000 0.364269 0.364990
O O10 0.684116 0.500000 0.363404
O O11 0.713861 0.369288 0.304306
O O12 0.774909 0.339899 0.395341
O O13 0.500000 0.617230 0.530839
O O14 0.707373 0.500000 0.512946
O O15 0.737679 0.671769 0.484983
O O16 0.757543 0.625393 0.574359
O O17 0.500000 0.383682 0.245369
O O18 0.283446 0.500000 0.242919
O O19 0.000000 0.294400 0.449001
O O20 0.500000 0.881376 0.125926
O O21 0.289069 0.000000 0.136751
O O22 0.500000 0.862951 0.288713
O O23 0.684017 0.000000 0.285620
#
# Coordination Sequence:
#
# PCOD9374543 Si02
#       8
#     8   8   8   8   8   8   8   8
#     4   9  19  35  51  70 101 138 174 214 259 303
#     4  12  23  33  51  78 107 139 173 210 255 309
#     4   9  18  32  49  71 101 136 171 208 252 300
#     4  10  21  37  56  78 105 134 162 199 253 311
#     4   9  19  36  55  74 101 139 180 220 260 301
#     4  11  21  31  49  76 102 133 172 210 250 300
#     4  10  21  38  59  81 105 132 165 208 255 305
#     4  10  20  33  50  74 104 138 177 218 258 304
#
# _framework density 17.031656000000002
#
# number of rings (size 3 to 8) (size 9 to 14) (size 15 to 20)
#    0.000    2.000    0.000    4.875    0.000    9.250 
#    0.000    1.250    0.000    0.750    0.000    1.750 
#    0.000    0.000    0.000    0.000    0.000    0.000 
#
# Total GULP energy -178752.377478 kJ/mol
# GULP energy per Si atom -5586.011796 kJ/mol
# Density = 1.699289 g / cm^3
# Si number density = 17.031656 Si / 1000 Ang^3
#
#
#
# Elastic Constant Matrix: (Units=GPa)
#
#
# Indices 1 2 3 4 5 6 
#
# 1 79.9228 60.4110 65.1166 0.0000 0.0000 0.0000
# 2 60.4110 92.6390 82.1755 0.0000 0.0000 0.0000
# 3 65.1166 82.1755 106.6013 0.0000 0.0000 0.0000
# 4 0.0000 0.0000 0.0000 32.4660 0.0000 0.0000
# 5 0.0000 0.0000 0.0000 0.0000 31.7423 0.0000
# 6 0.0000 0.0000 0.0000 0.0000 0.0000 24.2041
#
#
#
# Elastic Compliance Matrix: (Units=1/GPa)
#
#
# Indices 1 2 3 4 5 6 
#
# 1 0.027334 -0.009532 -0.009349 0.000000 0.000000 0.000000
# 2 -0.009532 0.037462 -0.023056 0.000000 0.000000 0.000000
# 3 -0.009349 -0.023056 0.032865 0.000000 0.000000 0.000000
# 4 0.000000 0.000000 0.000000 0.030801 0.000000 0.000000
# 5 0.000000 0.000000 0.000000 0.000000 0.031504 0.000000
# 6 0.000000 0.000000 0.000000 0.000000 0.000000 0.041315
#
#
# Mechanical properties :
#
#
# Convention : Reuss Voigt Hill
#
# Bulk Modulus (GPa) = 72.53080 77.17437 74.85258
# Shear Modulus (GPa) = 17.25624 22.44647 19.85136
#
# Velocity S-wave (km/s) = 3.18651 3.63426 3.41773
# Velocity P-wave (km/s) = 7.49779 7.93859 7.72133
#
# Compressibility (1/GPa) = 0.01378725
#
# Stress axis : x y z
#
# Youngs Moduli (GPa) = 36.58480 26.69361 30.42779
#
# Poissons Ratio (x) = 0.25443 0.28447
# Poissons Ratio (y) = 0.34871 0.70154
# Poissons Ratio (z) = 0.34203 0.61545
#
# Static dielectric constant tensor:
#      x y z
#    x 1.565020 0.000000 0.000000 
#    y 0.000000 1.592260 0.000000 
#    z 0.000000 0.000000 1.540540 
# 
# From -- ./inp_files/25120.got.cif
#   From: 2010.05.17/outbox.cif.g08.bks.cpg/sg44_13_cif.got.tgz:25120.got - 2010.06.03 19:37:08.
