data_PCOD9374873
_publ_section_title
;
Structure prediction by ZEFSAII (Michael W. Deem and Ramdas Pophale) SiO2 
 PCOD9374873
Probable space group: I M M 2
;
_chemical_formula_sum "Si O2"
_cell_formula_units_Z 40
_cell_length_a 10.631256
_cell_length_b 7.678276
_cell_length_c 23.660105
_cell_angle_alpha 90.000000
_cell_angle_beta 90.000000
_cell_angle_gamma 90.000000
_cell_volume 1931.367694
_symmetry_space_group_name_H-M "I M M 2"
_symmetry_group_IT_number 44
_symmetry_cell_setting 'orthorhombic'
loop_
_space_group_symop_operation_xyz
x,y,z
-x,-y,z
-x,y,z
x,-y,z
1/2+x,1/2+y,1/2+z
1/2-x,1/2-y,1/2+z
1/2-x,1/2+y,1/2+z
1/2+x,1/2-y,1/2+z
loop_
_atom_site_type_symbol
_atom_site_label
_atom_site_fract_x
_atom_site_fract_y
_atom_site_fract_z
Si Si1 0.000000 0.714046 0.136811
Si Si2 0.743003 0.209056 0.436841
Si Si3 0.500000 0.710213 0.992228
Si Si4 0.855931 0.209723 0.814802
Si Si5 0.754576 0.794187 0.695897
Si Si6 0.500000 0.794405 0.124664
Si Si7 0.000000 0.286758 0.006190
O O1 0.873135 0.774754 0.167945
O O2 0.000000 0.500000 0.136523
O O3 0.000000 0.767314 0.071322
O O4 0.719523 0.248358 0.371376
O O5 0.623990 0.273183 0.473074
O O6 0.873891 0.276003 0.461897
O O7 0.744309 0.000000 0.442854
O O8 0.500000 0.500000 0.987465
O O9 0.500000 0.751765 0.058486
O O10 0.792232 0.277515 0.757384
O O11 0.000000 0.274290 0.819607
O O12 0.862705 0.000000 0.810299
O O13 0.874479 0.774856 0.654959
O O14 0.732833 0.000000 0.703543
O O15 0.500000 0.000000 0.132159
O O16 0.000000 0.500000 0.005338
#
# Coordination Sequence:
#
# PCOD9374873 Si02
#       7
#     4   8   4   8   8   4   4
#     4   9  18  33  59  87 109 140 186 239 284 331
#     4  10  20  35  57  82 109 145 186 231 279 334
#     4  10  22  39  58  82 115 151 189 236 289 342
#     4  10  20  35  56  83 113 148 187 231 282 335
#     4  10  20  38  61  85 114 151 196 238 283 345
#     4  12  24  37  58  87 117 154 195 238 291 340
#     4   9  16  29  51  80 105 131 176 223 268 321
#
# _framework density 20.710712000000001
#
# number of rings (size 3 to 8) (size 9 to 14) (size 15 to 20)
#    0.000    2.000    2.000    2.100    0.000    5.600 
#    0.000    1.500    0.000    0.000    0.000    0.000 
#    0.000    0.000    0.000    0.000    0.000    0.000 
#
# Total GULP energy -111749.323855 kJ/mol
# GULP energy per Si atom -5587.466193 kJ/mol
# Density = 2.066357 g / cm^3
# Si number density = 20.710712 Si / 1000 Ang^3
#
#
#
# Elastic Constant Matrix: (Units=GPa)
#
#
# Indices 1 2 3 4 5 6 
#
# 1 182.6041 -6.3391 124.7276 0.0000 0.0000 0.0000
# 2 -6.3391 32.2658 -10.4725 0.0000 0.0000 0.0000
# 3 124.7276 -10.4725 222.4703 0.0000 0.0000 0.0000
# 4 0.0000 0.0000 0.0000 19.6475 0.0000 0.0000
# 5 0.0000 0.0000 0.0000 0.0000 -53.0104 0.0000
# 6 0.0000 0.0000 0.0000 0.0000 0.0000 -16.9025
#
#
#
# Elastic Compliance Matrix: (Units=1/GPa)
#
#
# Indices 1 2 3 4 5 6 
#
# 1 0.008876 0.000131 -0.004970 0.000000 0.000000 0.000000
# 2 0.000131 0.031475 0.001408 0.000000 0.000000 0.000000
# 3 -0.004970 0.001408 0.007348 0.000000 0.000000 0.000000
# 4 0.000000 0.000000 0.000000 0.050897 0.000000 0.000000
# 5 0.000000 0.000000 0.000000 0.000000 -0.018864 0.000000
# 6 0.000000 0.000000 0.000000 0.000000 0.000000 -0.059163
#
#
# Mechanical properties :
#
#
# Convention : Reuss Voigt Hill
#
# Bulk Modulus (GPa) = 24.48765 72.57467 48.53116
# Shear Modulus (GPa) = 121.82451 11.90852 66.86651
#
# Velocity S-wave (km/s) = 7.67787 2.40050 5.68824
# Velocity P-wave (km/s) = 9.51046 6.54228 8.16242
#
# Compressibility (1/GPa) = 0.04083691
#
# Stress axis : x y z
#
# Youngs Moduli (GPa) = 112.66881 31.77086 136.09768
#
# Poissons Ratio (x) = -0.00415 0.67640
# Poissons Ratio (y) = -0.01472 -0.19168
# Poissons Ratio (z) = 0.55996 -0.04475
#
# Static dielectric constant tensor:
#      x y z
#    x 1.734880 0.000000 0.000000 
#    y 0.000000 1.772780 0.000000 
#    z 0.000000 0.000000 1.699480 
# 
# From -- ./inp_files/23635.got.cif
#   From: 2010.05.17/outbox.cif.g08.bks.cpg/sg44_12_cif.got.tgz:23635.got - 2010.06.03 19:37:08.
