data_PCOD9374731
_publ_section_title
;
Structure prediction by ZEFSAII (Michael W. Deem and Ramdas Pophale) SiO2 
 PCOD9374731
Probable space group: I M M 2
;
_chemical_formula_sum "Si O2"
_cell_formula_units_Z 64
_cell_length_a 20.925852
_cell_length_b 8.881505
_cell_length_c 19.920530
_cell_angle_alpha 90.000000
_cell_angle_beta 90.000000
_cell_angle_gamma 90.000000
_cell_volume 3702.291441
_symmetry_space_group_name_H-M "I M M 2"
_symmetry_group_IT_number 44
_symmetry_cell_setting 'orthorhombic'
loop_
_space_group_symop_operation_xyz
x,y,z
-x,-y,z
-x,y,z
x,-y,z
1/2+x,1/2+y,1/2+z
1/2-x,1/2-y,1/2+z
1/2-x,1/2+y,1/2+z
1/2+x,1/2-y,1/2+z
loop_
_atom_site_type_symbol
_atom_site_label
_atom_site_fract_x
_atom_site_fract_y
_atom_site_fract_z
Si Si1 0.617616 0.319205 0.037440
Si Si2 0.427647 0.821040 0.324917
Si Si3 0.691589 0.678236 0.398663
Si Si4 0.884904 0.177802 0.689256
Si Si5 0.572414 0.178713 0.902432
Si Si6 0.231184 0.321506 0.183886
Si Si7 0.758217 0.178891 0.044053
Si Si8 0.811506 0.820307 0.320771
O O1 0.616830 0.500000 0.030663
O O2 0.595391 0.282526 0.113195
O O3 0.690357 0.260277 0.031805
O O4 0.579241 0.242903 0.977675
O O5 0.500000 0.782366 0.344900
O O6 0.374335 0.737970 0.368693
O O7 0.416997 0.771857 0.247827
O O8 0.418947 0.000000 0.330659
O O9 0.697736 0.500000 0.385132
O O10 0.698926 0.702647 0.478275
O O11 0.750246 0.761013 0.362165
O O12 0.807975 0.199314 0.693168
O O13 0.897574 0.000000 0.699603
O O14 0.500000 0.204093 0.878622
O O15 0.625275 0.258792 0.856973
O O16 0.585049 0.000000 0.903477
O O17 0.219428 0.500000 0.182517
O O18 0.214547 0.247026 0.112684
O O19 0.196057 0.245019 0.246050
O O20 0.747265 0.000000 0.051683
O O21 0.811498 0.000000 0.319973
#
# Coordination Sequence:
#
# PCOD9374731 Si02
#       8
#     8   8   8   8   8   8   8   8
#     4  10  20  34  54  80 112 151 192 233 280 336
#     4  11  24  38  54  80 113 150 193 237 282 334
#     4  11  22  37  59  85 114 148 188 234 283 337
#     4   9  19  34  53  78 110 150 190 229 276 334
#     4  11  24  40  57  80 114 154 193 236 287 341
#     4  10  20  35  57  85 117 147 185 232 282 338
#     4  10  20  34  56  85 116 146 185 235 286 336
#     4  12  23  36  60  87 114 148 189 237 285 335
#
# _framework density 17.286593
#
# number of rings (size 3 to 8) (size 9 to 14) (size 15 to 20)
#    0.000    1.500    2.500    4.125    0.000    6.500 
#    0.000    2.500    0.000    0.750    0.000    3.500 
#    0.000    0.000    0.000    0.000    0.000    0.000 
#
# Total GULP energy -178802.203214 kJ/mol
# GULP energy per Si atom -5587.568850 kJ/mol
# Density = 1.724725 g / cm^3
# Si number density = 17.286593 Si / 1000 Ang^3
#
#
#
# Elastic Constant Matrix: (Units=GPa)
#
#
# Indices 1 2 3 4 5 6 
#
# 1 82.9163 55.9152 54.2822 0.0000 0.0000 0.0000
# 2 55.9152 95.6822 60.3099 0.0000 0.0000 0.0000
# 3 54.2822 60.3099 110.2708 0.0000 0.0000 0.0000
# 4 0.0000 0.0000 0.0000 34.3933 0.0000 0.0000
# 5 0.0000 0.0000 0.0000 0.0000 18.3764 0.0000
# 6 0.0000 0.0000 0.0000 0.0000 0.0000 23.9711
#
#
#
# Elastic Compliance Matrix: (Units=1/GPa)
#
#
# Indices 1 2 3 4 5 6 
#
# 1 0.022112 -0.009250 -0.005826 0.000000 0.000000 0.000000
# 2 -0.009250 0.019819 -0.006286 0.000000 0.000000 0.000000
# 3 -0.005826 -0.006286 0.015375 0.000000 0.000000 0.000000
# 4 0.000000 0.000000 0.000000 0.029075 0.000000 0.000000
# 5 0.000000 0.000000 0.000000 0.000000 0.054418 0.000000
# 6 0.000000 0.000000 0.000000 0.000000 0.000000 0.041717
#
#
# Mechanical properties :
#
#
# Convention : Reuss Voigt Hill
#
# Bulk Modulus (GPa) = 68.57905 69.98710 69.28308
# Shear Modulus (GPa) = 21.72969 23.23896 22.48433
#
# Velocity S-wave (km/s) = 3.54930 3.67049 3.61041
# Velocity P-wave (km/s) = 7.52028 7.65099 7.58592
#
# Compressibility (1/GPa) = 0.01458171
#
# Stress axis : x y z
#
# Youngs Moduli (GPa) = 45.22422 50.45673 65.04235
#
# Poissons Ratio (x) = 0.46671 0.37894
# Poissons Ratio (y) = 0.41831 0.40887
# Poissons Ratio (z) = 0.26348 0.31718
#
# Static dielectric constant tensor:
#      x y z
#    x 1.569980 0.000000 0.000000 
#    y 0.000000 1.573890 0.000000 
#    z 0.000000 0.000000 1.588590 
# 
# From -- ./inp_files/22282.got.cif
#   From: 2010.05.17/outbox.cif.g08.bks.cpg/sg44_12_cif.got.tgz:22282.got - 2010.06.03 19:37:08.
