data_PCOD9374600
_publ_section_title
;
Structure prediction by ZEFSAII (Michael W. Deem and Ramdas Pophale) SiO2 
 PCOD9374600
Probable space group: I M M 2
;
_chemical_formula_sum "Si O2"
_cell_formula_units_Z 40
_cell_length_a 9.668240
_cell_length_b 8.766308
_cell_length_c 26.398608
_cell_angle_alpha 90.000000
_cell_angle_beta 90.000000
_cell_angle_gamma 90.000000
_cell_volume 2237.407940
_symmetry_space_group_name_H-M "I M M 2"
_symmetry_group_IT_number 44
_symmetry_cell_setting 'orthorhombic'
loop_
_space_group_symop_operation_xyz
x,y,z
-x,-y,z
-x,y,z
x,-y,z
1/2+x,1/2+y,1/2+z
1/2-x,1/2-y,1/2+z
1/2-x,1/2+y,1/2+z
1/2+x,1/2-y,1/2+z
loop_
_atom_site_type_symbol
_atom_site_label
_atom_site_fract_x
_atom_site_fract_y
_atom_site_fract_z
Si Si1 0.340995 0.314180 0.838890
Si Si2 0.161432 0.181285 0.043876
Si Si3 0.164486 0.818178 0.453104
Si Si4 0.839815 0.684666 0.743398
Si Si5 0.838896 0.682471 0.152287
O O1 0.500000 0.266165 0.829230
O O2 0.341864 0.500000 0.839309
O O3 0.299776 0.267277 0.895780
O O4 0.238989 0.264623 0.794508
O O5 0.203095 0.260992 0.096454
O O6 0.000000 0.219776 0.034879
O O7 0.172754 0.000000 0.050264
O O8 0.251380 0.235624 0.996707
O O9 0.000000 0.794457 0.459177
O O10 0.189912 0.000000 0.456580
O O11 0.835822 0.500000 0.742175
O O12 0.757133 0.746966 0.695296
O O13 0.000000 0.731981 0.743127
O O14 0.832284 0.500000 0.154255
O O15 0.000000 0.729194 0.160092
#
# Coordination Sequence:
#
# PCOD9374600 Si02
#       5
#     8   8   8   8   8
#     4   8  15  30  52  76 103 137 175 211 248 296
#     4  10  21  36  54  77 104 135 172 213 258 307
#     4   9  18  33  54  80 107 136 172 212 254 301
#     4  10  20  33  52  80 109 136 169 210 257 306
#     4  10  21  37  56  76  99 133 176 216 257 307
#
# _framework density 17.877832000000001
#
# number of rings (size 3 to 8) (size 9 to 14) (size 15 to 20)
#    0.000    2.600    0.000    3.000    0.000    5.600 
#    0.000    3.000    0.000    1.200    0.000    0.000 
#    0.000    0.000    0.000    0.000    0.000    0.000 
#
# Total GULP energy -111587.159121 kJ/mol
# GULP energy per Si atom -5579.357956 kJ/mol
# Density = 1.783714 g / cm^3
# Si number density = 17.877832 Si / 1000 Ang^3
#
#
#
# Elastic Constant Matrix: (Units=GPa)
#
#
# Indices 1 2 3 4 5 6 
#
# 1 91.7736 31.5700 101.6749 0.0000 0.0000 0.0000
# 2 31.5700 18.1501 36.6197 0.0000 0.0000 0.0000
# 3 101.6749 36.6197 174.2278 0.0000 0.0000 0.0000
# 4 0.0000 0.0000 0.0000 30.0675 0.0000 0.0000
# 5 0.0000 0.0000 0.0000 0.0000 37.4552 0.0000
# 6 0.0000 0.0000 0.0000 0.0000 0.0000 24.8538
#
#
#
# Elastic Compliance Matrix: (Units=1/GPa)
#
#
# Indices 1 2 3 4 5 6 
#
# 1 0.044471 -0.043393 -0.016832 0.000000 0.000000 0.000000
# 2 -0.043393 0.138005 -0.003683 0.000000 0.000000 0.000000
# 3 -0.016832 -0.003683 0.016336 0.000000 0.000000 0.000000
# 4 0.000000 0.000000 0.000000 0.033259 0.000000 0.000000
# 5 0.000000 0.000000 0.000000 0.000000 0.026699 0.000000
# 6 0.000000 0.000000 0.000000 0.000000 0.000000 0.040235
#
#
# Mechanical properties :
#
#
# Convention : Reuss Voigt Hill
#
# Bulk Modulus (GPa) = 14.08520 69.32007 41.70264
# Shear Modulus (GPa) = 11.09912 26.09440 18.59676
#
# Velocity S-wave (km/s) = 2.49435 3.82461 3.22873
# Velocity P-wave (km/s) = 4.02386 7.63950 6.10547
#
# Compressibility (1/GPa) = 0.07099649
#
# Stress axis : x y z
#
# Youngs Moduli (GPa) = 22.48642 7.24613 61.21277
#
# Poissons Ratio (x) = 0.31443 1.03033
# Poissons Ratio (y) = 0.97575 0.22547
# Poissons Ratio (z) = 0.37849 0.02669
#
# Static dielectric constant tensor:
#      x y z
#    x 1.597460 0.000000 0.000000 
#    y 0.000000 1.606820 0.000000 
#    z 0.000000 0.000000 1.589680 
# 
# From -- ./inp_files/22747.got.cif
#   From: 2010.05.17/outbox.cif.g08.bks.cpg/sg44_12_cif.got.tgz:22747.got - 2010.06.03 19:37:08.
