data_PCOD9374272
_publ_section_title
;
Structure prediction by ZEFSAII (Michael W. Deem and Ramdas Pophale) SiO2 
 PCOD9374272
Probable space group: I M M 2
;
_chemical_formula_sum "Si O2"
_cell_formula_units_Z 64
_cell_length_a 8.652394
_cell_length_b 25.661911
_cell_length_c 15.421223
_cell_angle_alpha 90.000000
_cell_angle_beta 90.000000
_cell_angle_gamma 90.000000
_cell_volume 3424.081548
_symmetry_space_group_name_H-M "I M M 2"
_symmetry_group_IT_number 44
_symmetry_cell_setting 'orthorhombic'
loop_
_space_group_symop_operation_xyz
x,y,z
-x,-y,z
-x,y,z
x,-y,z
1/2+x,1/2+y,1/2+z
1/2-x,1/2-y,1/2+z
1/2-x,1/2+y,1/2+z
1/2+x,1/2-y,1/2+z
loop_
_atom_site_type_symbol
_atom_site_label
_atom_site_fract_x
_atom_site_fract_y
_atom_site_fract_z
Si Si1 0.683897 0.150730 0.405400
Si Si2 0.684549 0.237010 0.936424
Si Si3 0.315475 0.637778 0.529326
Si Si4 0.186364 0.559942 0.386249
Si Si5 0.687757 0.894998 0.697758
Si Si6 0.312453 0.664633 0.715121
Si Si7 0.814151 0.718954 0.234401
Si Si8 0.184950 0.940754 0.523367
O O1 0.500000 0.154220 0.407139
O O2 0.752739 0.204452 0.444205
O O3 0.742914 0.147050 0.306306
O O4 0.740543 0.101657 0.460223
O O5 0.500000 0.236780 0.947301
O O6 0.718477 0.219099 0.837311
O O7 0.761467 0.194724 0.997984
O O8 0.500000 0.635504 0.525219
O O9 0.247121 0.595503 0.463948
O O10 0.268989 0.632180 0.630094
O O11 0.237243 0.500000 0.393623
O O12 0.231003 0.583145 0.292447
O O13 0.000000 0.561201 0.388862
O O14 0.500000 0.896632 0.691348
O O15 0.741267 0.834639 0.692432
O O16 0.759053 0.927861 0.620381
O O17 0.500000 0.664645 0.723440
O O18 0.261184 0.724921 0.700760
O O19 0.000000 0.718353 0.225288
O O20 0.000000 0.936423 0.518915
O O21 0.229113 0.000000 0.500863
#
# Coordination Sequence:
#
# PCOD9374272 Si02
#       8
#     8   8   8   8   8   8   8   8
#     4  11  23  40  63  90 117 149 198 250 299 354
#     4  10  19  36  59  85 121 159 193 234 290 351
#     4  11  22  35  57  89 123 158 199 245 292 349
#     4  10  21  38  59  83 117 161 204 245 294 351
#     4  10  19  35  60  88 117 154 198 243 294 351
#     4   9  20  38  58  84 122 160 193 237 298 356
#     4   8  15  31  55  81 113 153 189 226 281 346
#     4  11  25  43  61  85 118 156 199 246 301 360
#
# _framework density 18.691143
#
# number of rings (size 3 to 8) (size 9 to 14) (size 15 to 20)
#    0.000    2.000    1.250    3.375    1.750    3.250 
#    0.000    1.250    0.000    0.750    0.000    0.000 
#    0.000    0.000    0.000    0.000    0.000    0.000 
#
# Total GULP energy -178688.942952 kJ/mol
# GULP energy per Si atom -5584.029467 kJ/mol
# Density = 1.864860 g / cm^3
# Si number density = 18.691143 Si / 1000 Ang^3
#
#
#
# Elastic Constant Matrix: (Units=GPa)
#
#
# Indices 1 2 3 4 5 6 
#
# 1 17.9793 18.7221 18.3487 0.0000 0.0000 0.0001
# 2 18.7221 109.3715 60.3554 0.0000 0.0000 0.0000
# 3 18.3487 60.3554 97.9083 0.0001 0.0000 0.0002
# 4 0.0000 0.0000 0.0001 28.7569 0.0000 0.0000
# 5 0.0000 0.0000 0.0000 0.0000 27.0370 0.0000
# 6 0.0001 0.0000 0.0002 0.0000 0.0000 3.4091
#
#
#
# Elastic Compliance Matrix: (Units=1/GPa)
#
#
# Indices 1 2 3 4 5 6 
#
# 1 0.072571 -0.007453 -0.009006 0.000000 0.000000 -0.000001
# 2 -0.007453 0.014622 -0.007617 0.000000 0.000000 0.000001
# 3 -0.009006 -0.007617 0.016597 0.000000 0.000000 -0.000001
# 4 0.000000 0.000000 0.000000 0.034774 0.000000 -0.000001
# 5 0.000000 0.000000 0.000000 0.000000 0.036986 0.000000
# 6 -0.000001 0.000001 -0.000001 -0.000001 0.000000 0.293335
#
#
# Mechanical properties :
#
#
# Convention : Reuss Voigt Hill
#
# Bulk Modulus (GPa) = 17.97319 46.67904 32.32611
# Shear Modulus (GPa) = 9.33560 20.36280 14.84920
#
# Velocity S-wave (km/s) = 2.23730 3.30424 2.82166
# Velocity P-wave (km/s) = 4.03866 6.29170 5.28660
#
# Compressibility (1/GPa) = 0.05563843
#
# Stress axis : x y z
#
# Youngs Moduli (GPa) = 13.77959 68.38823 60.25154
#
# Poissons Ratio (x) = 0.50968 0.54263
# Poissons Ratio (y) = 0.10270 0.45895
# Poissons Ratio (z) = 0.12410 0.52093
#
# Static dielectric constant tensor:
#      x y z
#    x 1.630890 0.000000 0.000000 
#    y 0.000000 1.640500 0.000000 
#    z 0.000000 0.000000 1.643470 
# 
# From -- ./inp_files/16816.got.cif
#   From: 2010.05.17/outbox.cif.g08.bks.cpg/sg44_9_cif.got.tgz:16816.got - 2010.06.03 19:37:08.
