data_PCOD9374436
_publ_section_title
;
Structure prediction by ZEFSAII (Michael W. Deem and Ramdas Pophale) SiO2 
 PCOD9374436
Probable space group: I M M 2
;
_chemical_formula_sum "Si O2"
_cell_formula_units_Z 64
_cell_length_a 7.580978
_cell_length_b 33.139818
_cell_length_c 10.716836
_cell_angle_alpha 90.000000
_cell_angle_beta 90.000000
_cell_angle_gamma 90.000000
_cell_volume 2692.414619
_symmetry_space_group_name_H-M "I M M 2"
_symmetry_group_IT_number 44
_symmetry_cell_setting 'orthorhombic'
loop_
_space_group_symop_operation_xyz
x,y,z
-x,-y,z
-x,y,z
x,-y,z
1/2+x,1/2+y,1/2+z
1/2-x,1/2-y,1/2+z
1/2-x,1/2+y,1/2+z
1/2+x,1/2-y,1/2+z
loop_
_atom_site_type_symbol
_atom_site_label
_atom_site_fract_x
_atom_site_fract_y
_atom_site_fract_z
Si Si1 0.709334 0.287190 0.452760
Si Si2 0.714405 0.344332 0.071333
Si Si3 0.298262 0.367551 0.801799
Si Si4 0.715413 0.543696 0.421197
Si Si5 0.795538 0.543716 0.868802
Si Si6 0.713103 0.566235 0.144676
Si Si7 0.783420 0.128872 0.026799
Si Si8 0.201820 0.740571 0.188536
O O1 0.500000 0.289905 0.469843
O O2 0.770255 0.333616 0.439836
O O3 0.732361 0.260574 0.329703
O O4 0.785264 0.267266 0.578407
O O5 0.500000 0.341907 0.071139
O O6 0.759602 0.386363 0.138545
O O7 0.785035 0.305038 0.137862
O O8 0.778550 0.348774 0.928012
O O9 0.500000 0.353383 0.797267
O O10 0.297164 0.416068 0.820347
O O11 0.221728 0.360054 0.666088
O O12 0.500000 0.544181 0.424756
O O13 0.772841 0.500000 0.471056
O O14 0.766699 0.547573 0.275786
O O15 0.777080 0.584391 0.488414
O O16 0.724032 0.500000 0.829227
O O17 0.000000 0.546270 0.831749
O O18 0.785375 0.546415 0.019240
O O19 0.500000 0.563296 0.136305
O O20 0.000000 0.126696 0.027215
O O21 0.000000 0.753053 0.199400
#
# Coordination Sequence:
#
# PCOD9374436 Si02
#       8
#     8   8   8   8   8   8   8   8
#     4  10  23  42  63  87 120 160 196 240 295 353
#     4   9  18  33  56  81 111 148 188 236 296 350
#     4   9  19  34  56  81 102 144 195 236 283 342
#     4   9  16  26  47  80 109 133 172 230 283 326
#     4  10  20  32  47  72 109 148 183 231 294 346
#     4   9  17  31  52  77 104 143 186 228 283 344
#     4   9  18  35  56  78 110 147 186 229 286 345
#     4  11  24  39  61  92 119 153 198 242 293 352
#
# _framework density 23.770484
#
# number of rings (size 3 to 8) (size 9 to 14) (size 15 to 20)
#    0.000    2.500    0.000    2.625    1.750    7.000 
#    0.000    1.875    0.000    0.750    0.000    1.750 
#    0.000    0.000    0.000    0.000    0.000    0.000 
#
# Total GULP energy -178748.984536 kJ/mol
# GULP energy per Si atom -5585.905767 kJ/mol
# Density = 2.371638 g / cm^3
# Si number density = 23.770484 Si / 1000 Ang^3
#
#
#
# Elastic Constant Matrix: (Units=GPa)
#
#
# Indices 1 2 3 4 5 6 
#
# 1 51.1183 6.3497 0.8565 0.0004 0.0000 0.0000
# 2 6.3497 119.7154 46.5765 0.0003 0.0000 0.0000
# 3 0.8565 46.5765 103.9837 0.0011 0.0000 0.0001
# 4 0.0004 0.0003 0.0011 13.0319 -0.0001 0.0001
# 5 0.0000 0.0000 0.0000 -0.0001 4.4622 0.0000
# 6 0.0000 0.0000 0.0001 0.0001 0.0000 6.6686
#
#
#
# Elastic Compliance Matrix: (Units=1/GPa)
#
#
# Indices 1 2 3 4 5 6 
#
# 1 0.019704 -0.001189 0.000370 -0.000001 0.000000 0.000000
# 2 -0.001189 0.010188 -0.004554 0.000000 0.000000 0.000000
# 3 0.000370 -0.004554 0.011653 -0.000001 0.000000 0.000000
# 4 -0.000001 0.000000 -0.000001 0.076735 0.000001 -0.000001
# 5 0.000000 0.000000 0.000000 0.000001 0.224104 -0.000001
# 6 0.000000 0.000000 0.000000 -0.000001 -0.000001 0.149956
#
#
# Mechanical properties :
#
#
# Convention : Reuss Voigt Hill
#
# Bulk Modulus (GPa) = 32.46699 42.48697 37.47698
# Shear Modulus (GPa) = 9.73991 19.56820 14.65406
#
# Velocity S-wave (km/s) = 2.02642 2.87228 2.48560
# Velocity P-wave (km/s) = 4.37760 5.37705 4.90286
#
# Compressibility (1/GPa) = 0.03080052
#
# Stress axis : x y z
#
# Youngs Moduli (GPa) = 50.75120 98.15644 85.81139
#
# Poissons Ratio (x) = 0.11673 -0.03178
# Poissons Ratio (y) = 0.06035 0.39075
# Poissons Ratio (z) = -0.01880 0.44696
#
# Static dielectric constant tensor:
#      x y z
#    x 1.905210 0.000000 0.000000 
#    y 0.000000 1.908720 0.000000 
#    z 0.000000 0.000000 1.896970 
# 
# From -- ./inp_files/11576.got.cif
#   From: 2010.05.17/outbox.cif.g08.bks.cpg/sg44_6_cif.got.tgz:11576.got - 2010.06.03 19:37:08.
