data_PCOD9374905
_publ_section_title
;
Structure prediction by ZEFSAII (Michael W. Deem and Ramdas Pophale) SiO2 
 PCOD9374905
Probable space group: I M M 2
;
_chemical_formula_sum "Si O2"
_cell_formula_units_Z 64
_cell_length_a 28.182984
_cell_length_b 9.005622
_cell_length_c 12.848630
_cell_angle_alpha 90.000000
_cell_angle_beta 90.000000
_cell_angle_gamma 90.000000
_cell_volume 3261.050401
_symmetry_space_group_name_H-M "I M M 2"
_symmetry_group_IT_number 44
_symmetry_cell_setting 'orthorhombic'
loop_
_space_group_symop_operation_xyz
x,y,z
-x,-y,z
-x,y,z
x,-y,z
1/2+x,1/2+y,1/2+z
1/2-x,1/2-y,1/2+z
1/2-x,1/2+y,1/2+z
1/2+x,1/2-y,1/2+z
loop_
_atom_site_type_symbol
_atom_site_label
_atom_site_fract_x
_atom_site_fract_y
_atom_site_fract_z
Si Si1 0.052385 0.671451 0.103980
Si Si2 0.444910 0.678318 0.970801
Si Si3 0.410904 0.176305 0.184394
Si Si4 0.071537 0.167419 0.893283
Si Si5 0.699637 0.824456 0.238029
Si Si6 0.682833 0.668978 0.447440
Si Si7 0.207275 0.677303 0.162629
Si Si8 0.380813 0.178896 0.792789
O O1 0.063539 0.500000 0.077593
O O2 0.089855 0.722056 0.189104
O O3 0.000000 0.676698 0.152173
O O4 0.051694 0.762038 0.998049
O O5 0.500000 0.719326 0.946005
O O6 0.441967 0.500000 0.970565
O O7 0.431385 0.741189 0.084159
O O8 0.406936 0.744021 0.888908
O O9 0.434944 0.235628 0.290150
O O10 0.354086 0.204355 0.198092
O O11 0.417577 0.000000 0.174382
O O12 0.127661 0.161910 0.917205
O O13 0.054922 0.000000 0.876062
O O14 0.704230 0.771923 0.357532
O O15 0.739273 0.731696 0.178270
O O16 0.708291 0.000000 0.228515
O O17 0.701944 0.500000 0.445173
O O18 0.688336 0.741275 0.559904
O O19 0.204553 0.500000 0.148964
O O20 0.173529 0.714677 0.261900
O O21 0.384511 0.000000 0.806091
#
# Coordination Sequence:
#
# PCOD9374905 Si02
#       8
#     8   8   8   8   8   8   8   8
#     4  10  20  35  57  85 117 153 194 240 291 352
#     4  11  25  43  64  91 124 163 208 262 321 377
#     4  10  22  41  65  88 117 159 206 252 303 367
#     4  10  20  35  58  86 117 151 189 242 301 355
#     4  10  22  39  60  89 122 158 203 256 310 367
#     4  10  20  36  58  83 115 154 194 241 300 361
#     4  11  22  37  61  90 121 160 206 254 307 367
#     4  10  22  40  62  87 119 160 207 253 300 364
#
# _framework density 19.625578000000001
#
# number of rings (size 3 to 8) (size 9 to 14) (size 15 to 20)
#    0.000    1.750    1.250    2.625    0.000    7.250 
#    0.000    1.250    0.000    0.000    0.000    0.000 
#    0.000    0.000    0.000    0.000    0.000    0.000 
#
# Total GULP energy -178667.588603 kJ/mol
# GULP energy per Si atom -5583.362144 kJ/mol
# Density = 1.958091 g / cm^3
# Si number density = 19.625578 Si / 1000 Ang^3
#
#
#
# Elastic Constant Matrix: (Units=GPa)
#
#
# Indices 1 2 3 4 5 6 
#
# 1 36.8331 19.8500 3.2908 0.0000 0.0000 0.0000
# 2 19.8500 63.0113 19.6059 0.0000 0.0000 0.0000
# 3 3.2908 19.6059 72.1645 0.0000 0.0000 0.0000
# 4 0.0000 0.0000 0.0000 33.0568 0.0000 0.0000
# 5 0.0000 0.0000 0.0000 0.0000 35.9143 0.0000
# 6 0.0000 0.0000 0.0000 0.0000 0.0000 -23.1752
#
#
#
# Elastic Compliance Matrix: (Units=1/GPa)
#
#
# Indices 1 2 3 4 5 6 
#
# 1 0.032837 -0.010791 0.001434 0.000000 0.000000 0.000000
# 2 -0.010791 0.020882 -0.005181 0.000000 0.000000 0.000000
# 3 0.001434 -0.005181 0.015199 0.000000 0.000000 0.000000
# 4 0.000000 0.000000 0.000000 0.030251 0.000000 0.000000
# 5 0.000000 0.000000 0.000000 0.000000 0.027844 0.000000
# 6 0.000000 0.000000 0.000000 0.000000 0.000000 -0.043150
#
#
# Mechanical properties :
#
#
# Convention : Reuss Voigt Hill
#
# Bulk Modulus (GPa) = 25.09869 28.61137 26.85503
# Shear Modulus (GPa) = 39.61379 17.77665 28.69522
#
# Velocity S-wave (km/s) = 4.49762 3.01290 3.82793
# Velocity P-wave (km/s) = 6.30777 5.16853 5.76635
#
# Compressibility (1/GPa) = 0.03984271
#
# Stress axis : x y z
#
# Youngs Moduli (GPa) = 30.45387 47.88921 65.79188
#
# Poissons Ratio (x) = 0.51675 -0.09436
# Poissons Ratio (y) = 0.32861 0.34088
# Poissons Ratio (z) = -0.04368 0.24812
#
# Static dielectric constant tensor:
#      x y z
#    x 1.598700 0.000000 0.000000 
#    y 0.000000 1.665410 0.000000 
#    z 0.000000 0.000000 1.655530 
# 
# From -- ./inp_files/15040.got.cif
#   From: 2010.05.17/outbox.cif.g08.bks.cpg/sg44_8_cif.got.tgz:15040.got - 2010.06.03 19:37:08.
