data_PCOD9374029
_publ_section_title
;
Structure prediction by ZEFSAII (Michael W. Deem and Ramdas Pophale) SiO2 
 PCOD9374029
Probable space group: I M M 2
;
_chemical_formula_sum "Si O2"
_cell_formula_units_Z 48
_cell_length_a 8.431495
_cell_length_b 8.054020
_cell_length_c 35.728931
_cell_angle_alpha 90.000000
_cell_angle_beta 90.000000
_cell_angle_gamma 90.000000
_cell_volume 2426.259858
_symmetry_space_group_name_H-M "I M M 2"
_symmetry_group_IT_number 44
_symmetry_cell_setting 'orthorhombic'
loop_
_space_group_symop_operation_xyz
x,y,z
-x,-y,z
-x,y,z
x,-y,z
1/2+x,1/2+y,1/2+z
1/2-x,1/2-y,1/2+z
1/2-x,1/2+y,1/2+z
1/2+x,1/2-y,1/2+z
loop_
_atom_site_type_symbol
_atom_site_label
_atom_site_fract_x
_atom_site_fract_y
_atom_site_fract_z
Si Si1 0.307286 0.807269 0.824300
Si Si2 0.817628 0.300550 0.241384
Si Si3 0.812889 0.194551 0.161974
Si Si4 0.805983 0.316826 0.506288
Si Si5 0.817955 0.806796 0.584302
Si Si6 0.811291 0.500000 0.873141
Si Si7 0.692450 0.500000 0.957907
O O1 0.500000 0.807099 0.823386
O O2 0.249037 0.760926 0.782208
O O3 0.251387 0.666493 0.852662
O O4 0.260324 0.000000 0.832379
O O5 0.823923 0.500000 0.239692
O O6 0.742079 0.240949 0.202544
O O7 0.000000 0.236328 0.242012
O O8 0.754584 0.285894 0.125075
O O9 0.000000 0.230153 0.164679
O O10 0.788873 0.000000 0.155761
O O11 0.761275 0.500000 0.492683
O O12 0.747936 0.290641 0.548959
O O13 0.000000 0.309728 0.507671
O O14 0.755356 0.164912 0.480238
O O15 0.000000 0.752563 0.588135
O O16 0.814937 0.000000 0.573458
O O17 0.753791 0.500000 0.915850
O O18 0.000000 0.500000 0.871524
O O19 0.500000 0.500000 0.957246
#
# Coordination Sequence:
#
# PCOD9374029 Si02
#       7
#     8   8   8   8   8   4   4
#     4   9  19  38  65  91 112 147 202 254 293 338
#     4   8  15  30  53  79 105 136 182 238 289 327
#     4  10  20  31  47  77 112 146 184 229 279 332
#     4   9  17  32  57  84 108 137 179 236 290 328
#     4  10  19  33  53  77 107 145 187 230 278 331
#     4  12  26  40  58  88 126 162 188 228 302 376
#     4  10  20  38  60  84 108 140 194 246 280 338
#
# _framework density 19.783536999999999
#
# number of rings (size 3 to 8) (size 9 to 14) (size 15 to 20)
#    0.000    2.500    0.833    2.750    1.167    3.000 
#    0.000    3.333    0.000    2.000    0.000    0.000 
#    0.000    0.000    0.000    0.000    0.000    0.000 
#
# Total GULP energy -133789.674651 kJ/mol
# GULP energy per Si atom -5574.569777 kJ/mol
# Density = 1.973851 g / cm^3
# Si number density = 19.783537 Si / 1000 Ang^3
#
#
#
# Elastic Constant Matrix: (Units=GPa)
#
#
# Indices 1 2 3 4 5 6 
#
# 1 32.3207 8.8962 49.0794 0.0000 0.0000 0.0000
# 2 8.8962 115.1466 66.9195 0.0000 0.0000 0.0000
# 3 49.0794 66.9195 208.8983 0.0000 0.0000 0.0000
# 4 0.0000 0.0000 0.0000 18.6491 0.0000 0.0000
# 5 0.0000 0.0000 0.0000 0.0000 15.6320 0.0000
# 6 0.0000 0.0000 0.0000 0.0000 0.0000 11.5909
#
#
#
# Elastic Compliance Matrix: (Units=1/GPa)
#
#
# Indices 1 2 3 4 5 6 
#
# 1 0.049279 0.003590 -0.012728 0.000000 0.000000 0.000000
# 2 0.003590 0.010933 -0.004346 0.000000 0.000000 0.000000
# 3 -0.012728 -0.004346 0.009169 0.000000 0.000000 0.000000
# 4 0.000000 0.000000 0.000000 0.053622 0.000000 0.000000
# 5 0.000000 0.000000 0.000000 0.000000 0.063972 0.000000
# 6 0.000000 0.000000 0.000000 0.000000 0.000000 0.086275
#
#
# Mechanical properties :
#
#
# Convention : Reuss Voigt Hill
#
# Bulk Modulus (GPa) = 23.57719 67.35065 45.46392
# Shear Modulus (GPa) = 15.90559 24.60575 20.25567
#
# Velocity S-wave (km/s) = 2.83853 3.53051 3.20326
# Velocity P-wave (km/s) = 4.76303 7.12299 6.05902
#
# Compressibility (1/GPa) = 0.04241388
#
# Stress axis : x y z
#
# Youngs Moduli (GPa) = 20.29259 91.46794 109.05807
#
# Poissons Ratio (x) = -0.32834 1.38806
# Poissons Ratio (y) = -0.07284 0.47393
# Poissons Ratio (z) = 0.25828 0.39749
#
# Static dielectric constant tensor:
#      x y z
#    x 1.717260 0.000000 0.000000 
#    y 0.000000 1.698010 0.000000 
#    z 0.000000 0.000000 1.687820 
# 
# From -- ./inp_files/26901.got.cif
#   From: 2010.05.17/outbox.cif.g08.bks.cpg/sg44_14_cif.got.tgz:26901.got - 2010.06.03 19:37:08.
