data_PCOD9374520
_publ_section_title
;
Structure prediction by ZEFSAII (Michael W. Deem and Ramdas Pophale) SiO2 
 PCOD9374520
Probable space group: I M M 2
;
_chemical_formula_sum "Si O2"
_cell_formula_units_Z 64
_cell_length_a 7.931085
_cell_length_b 19.047954
_cell_length_c 21.763607
_cell_angle_alpha 90.000000
_cell_angle_beta 90.000000
_cell_angle_gamma 90.000000
_cell_volume 3287.848616
_symmetry_space_group_name_H-M "I M M 2"
_symmetry_group_IT_number 44
_symmetry_cell_setting 'orthorhombic'
loop_
_space_group_symop_operation_xyz
x,y,z
-x,-y,z
-x,y,z
x,-y,z
1/2+x,1/2+y,1/2+z
1/2-x,1/2-y,1/2+z
1/2-x,1/2+y,1/2+z
1/2+x,1/2-y,1/2+z
loop_
_atom_site_type_symbol
_atom_site_label
_atom_site_fract_x
_atom_site_fract_y
_atom_site_fract_z
Si Si1 0.200919 0.419483 0.560300
Si Si2 0.292982 0.918617 0.693632
Si Si3 0.203131 0.170546 0.308469
Si Si4 0.799684 0.919559 0.927312
Si Si5 0.295810 0.919316 0.426457
Si Si6 0.797790 0.919403 0.193078
Si Si7 0.804332 0.414526 0.059866
Si Si8 0.702135 0.170452 0.809684
O O1 0.268559 0.500000 0.560176
O O2 0.255971 0.389491 0.494765
O O3 0.258514 0.389170 0.625459
O O4 0.000000 0.421547 0.560815
O O5 0.500000 0.917594 0.691988
O O6 0.232169 0.894076 0.626153
O O7 0.234383 0.871849 0.750233
O O8 0.244855 0.000000 0.702741
O O9 0.244276 0.128929 0.370354
O O10 0.266752 0.127656 0.249092
O O11 0.267848 0.250122 0.311283
O O12 0.000000 0.173489 0.303269
O O13 0.737453 0.872171 0.871671
O O14 0.000000 0.923631 0.922985
O O15 0.730963 0.000000 0.923076
O O16 0.500000 0.920553 0.429894
O O17 0.231252 0.894428 0.493591
O O18 0.240005 0.000000 0.416284
O O19 0.000000 0.923148 0.198364
O O20 0.732254 0.000000 0.196699
O O21 0.804552 0.500000 0.059874
O O22 0.000000 0.391667 0.059977
O O23 0.500000 0.174072 0.803302
#
# Coordination Sequence:
#
# PCOD9374520 Si02
#       8
#     8   8   8   8   8   8   8   8
#     4   9  17  30  51  78 102 124 158 206 253 297
#     4   8  13  24  46  72  93 116 150 193 240 287
#     4  10  21  34  47  68 102 139 170 204 246 291
#     4  10  20  34  53  76 101 130 164 204 253 305
#     4   9  17  30  50  74  97 123 160 206 250 294
#     4   9  17  31  50  70  96 132 170 207 250 299
#     4   7  11  22  42  69  95 115 145 196 248 286
#     4  10  20  33  49  71 100 133 169 206 242 287
#
# _framework density 19.465616000000001
#
# number of rings (size 3 to 8) (size 9 to 14) (size 15 to 20)
#    0.000    3.000    0.000    3.000    0.000    4.500 
#    0.000    2.500    0.000    3.750    0.000    1.750 
#    0.000    0.000    0.000    0.000    0.000    0.000 
#
# Total GULP energy -178309.086007 kJ/mol
# GULP energy per Si atom -5572.158938 kJ/mol
# Density = 1.942131 g / cm^3
# Si number density = 19.465616 Si / 1000 Ang^3
#
#
#
# Elastic Constant Matrix: (Units=GPa)
#
#
# Indices 1 2 3 4 5 6 
#
# 1 17.5268 7.7649 4.5278 0.0000 0.0000 0.0000
# 2 7.7649 92.6123 99.0104 0.0000 0.0000 0.0000
# 3 4.5278 99.0104 236.5775 0.0000 0.0000 0.0000
# 4 0.0000 0.0000 0.0000 -9.2032 0.0000 0.0000
# 5 0.0000 0.0000 0.0000 0.0000 17.2867 0.0000
# 6 0.0000 0.0000 0.0000 0.0000 0.0000 12.1427
#
#
#
# Elastic Compliance Matrix: (Units=1/GPa)
#
#
# Indices 1 2 3 4 5 6 
#
# 1 0.059642 -0.006841 0.001722 0.000000 0.000000 0.000000
# 2 -0.006841 0.020325 -0.008375 0.000000 0.000000 0.000000
# 3 0.001722 -0.008375 0.007699 0.000000 0.000000 0.000000
# 4 0.000000 0.000000 0.000000 -0.108658 0.000000 0.000000
# 5 0.000000 0.000000 0.000000 0.000000 0.057848 0.000000
# 6 0.000000 0.000000 0.000000 0.000000 0.000000 0.082354
#
#
# Mechanical properties :
#
#
# Convention : Reuss Voigt Hill
#
# Bulk Modulus (GPa) = 16.48091 63.25810 39.86951
# Shear Modulus (GPa) = 30.04351 19.73949 24.89150
#
# Velocity S-wave (km/s) = 3.93289 3.18790 3.57983
# Velocity P-wave (km/s) = 5.39524 6.79104 6.13298
#
# Compressibility (1/GPa) = 0.06067626
#
# Stress axis : x y z
#
# Youngs Moduli (GPa) = 16.76682 49.19960 129.88324
#
# Poissons Ratio (x) = 0.33658 -0.22361
# Poissons Ratio (y) = 0.11470 1.08783
# Poissons Ratio (z) = -0.02887 0.41207
#
# Static dielectric constant tensor:
#      x y z
#    x 1.706520 0.000000 0.000000 
#    y 0.000000 1.665420 0.000000 
#    z 0.000000 0.000000 1.706990 
# 
# From -- ./inp_files/23318.got.cif
#   From: 2010.05.17/outbox.cif.g08.bks.cpg/sg44_12_cif.got.tgz:23318.got - 2010.06.03 19:37:08.
