data_PCOD9374728
_publ_section_title
;
Structure prediction by ZEFSAII (Michael W. Deem and Ramdas Pophale) SiO2 
 PCOD9374728
Probable space group: I M M 2
;
_chemical_formula_sum "Si O2"
_cell_formula_units_Z 48
_cell_length_a 9.441470
_cell_length_b 7.917800
_cell_length_c 31.625372
_cell_angle_alpha 90.000000
_cell_angle_beta 90.000000
_cell_angle_gamma 90.000000
_cell_volume 2364.175910
_symmetry_space_group_name_H-M "I M M 2"
_symmetry_group_IT_number 44
_symmetry_cell_setting 'orthorhombic'
loop_
_space_group_symop_operation_xyz
x,y,z
-x,-y,z
-x,y,z
x,-y,z
1/2+x,1/2+y,1/2+z
1/2-x,1/2-y,1/2+z
1/2-x,1/2+y,1/2+z
1/2+x,1/2-y,1/2+z
loop_
_atom_site_type_symbol
_atom_site_label
_atom_site_fract_x
_atom_site_fract_y
_atom_site_fract_z
Si Si1 0.159786 0.298736 0.185150
Si Si2 0.336618 0.795698 0.942395
Si Si3 0.660455 0.800870 0.104311
Si Si4 0.162868 0.705927 0.346903
Si Si5 0.337422 0.707183 0.265748
Si Si6 0.338953 0.199972 0.523551
O O1 0.148402 0.500000 0.191176
O O2 0.246855 0.271579 0.142398
O O3 0.246069 0.233713 0.225671
O O4 0.000000 0.229903 0.182297
O O5 0.500000 0.743846 0.950814
O O6 0.299296 0.740903 0.894613
O O7 0.334364 0.000000 0.943191
O O8 0.231617 0.732676 0.978212
O O9 0.500000 0.731333 0.103450
O O10 0.739577 0.773297 0.060063
O O11 0.651426 0.000000 0.111633
O O12 0.164688 0.500000 0.346971
O O13 0.265250 0.762158 0.309551
O O14 0.000000 0.756066 0.338575
O O15 0.500000 0.760765 0.262432
O O16 0.336682 0.500000 0.265591
O O17 0.500000 0.266678 0.525558
O O18 0.344609 0.000000 0.530714
#
# Coordination Sequence:
#
# PCOD9374728 Si02
#       6
#     8   8   8   8   8   8
#     4  10  20  34  54  80 109 141 177 216 259 308
#     4   9  18  33  54  80 108 139 177 219 263 311
#     4  11  24  40  58  80 105 134 171 215 263 315
#     4   8  14  26  45  71 104 138 172 214 261 307
#     4   9  16  26  44  73 107 141 177 216 258 304
#     4  11  24  39  55  78 107 138 174 215 260 312
#
# _framework density 20.303058
#
# number of rings (size 3 to 8) (size 9 to 14) (size 15 to 20)
#    0.000    2.333    0.000    4.000    0.000   10.667 
#    0.000    1.667    0.000    1.000    0.000    4.667 
#    0.000    0.000    0.000    0.000    0.000    0.000 
#
# Total GULP energy -134024.548899 kJ/mol
# GULP energy per Si atom -5584.356204 kJ/mol
# Density = 2.025685 g / cm^3
# Si number density = 20.303058 Si / 1000 Ang^3
#
#
#
# Elastic Constant Matrix: (Units=GPa)
#
#
# Indices 1 2 3 4 5 6 
#
# 1 188.1124 3.8304 107.7070 0.0000 0.0000 0.0000
# 2 3.8304 17.4321 -7.3534 0.0000 0.0000 0.0000
# 3 107.7070 -7.3534 140.6783 0.0000 0.0000 0.0000
# 4 0.0000 0.0000 0.0000 16.8655 0.0000 0.0000
# 5 0.0000 0.0000 0.0000 0.0000 37.7619 0.0000
# 6 0.0000 0.0000 0.0000 0.0000 0.0000 12.4434
#
#
#
# Elastic Compliance Matrix: (Units=1/GPa)
#
#
# Indices 1 2 3 4 5 6 
#
# 1 0.009960 -0.005527 -0.007915 0.000000 0.000000 0.000000
# 2 -0.005527 0.061726 0.007458 0.000000 0.000000 0.000000
# 3 -0.007915 0.007458 0.013558 0.000000 0.000000 0.000000
# 4 0.000000 0.000000 0.000000 0.059293 0.000000 0.000000
# 5 0.000000 0.000000 0.000000 0.000000 0.026482 0.000000
# 6 0.000000 0.000000 0.000000 0.000000 0.000000 0.080364
#
#
# Mechanical properties :
#
#
# Convention : Reuss Voigt Hill
#
# Bulk Modulus (GPa) = 13.64690 61.62122 37.63406
# Shear Modulus (GPa) = 17.37464 29.55006 23.46235
#
# Velocity S-wave (km/s) = 2.92852 3.81917 3.40311
# Velocity P-wave (km/s) = 4.26276 7.06150 5.83249
#
# Compressibility (1/GPa) = 0.07327673
#
# Stress axis : x y z
#
# Youngs Moduli (GPa) = 100.39919 16.20065 73.75721
#
# Poissons Ratio (x) = 0.08955 0.58377
# Poissons Ratio (y) = 0.55493 -0.55010
# Poissons Ratio (z) = 0.79463 -0.12083
#
# Static dielectric constant tensor:
#      x y z
#    x 1.711030 0.000000 0.000000 
#    y 0.000000 1.750650 0.000000 
#    z 0.000000 0.000000 1.682880 
# 
# From -- ./inp_files/26855.got.cif
#   From: 2010.05.17/outbox.cif.g08.bks.cpg/sg44_14_cif.got.tgz:26855.got - 2010.06.03 19:37:08.
