data_PCOD9374159
_publ_section_title
;
Structure prediction by ZEFSAII (Michael W. Deem and Ramdas Pophale) SiO2 
 PCOD9374159
Probable space group: I M M 2
;
_chemical_formula_sum "Si O2"
_cell_formula_units_Z 64
_cell_length_a 28.971738
_cell_length_b 8.818510
_cell_length_c 12.824518
_cell_angle_alpha 90.000000
_cell_angle_beta 90.000000
_cell_angle_gamma 90.000000
_cell_volume 3276.504828
_symmetry_space_group_name_H-M "I M M 2"
_symmetry_group_IT_number 44
_symmetry_cell_setting 'orthorhombic'
loop_
_space_group_symop_operation_xyz
x,y,z
-x,-y,z
-x,y,z
x,-y,z
1/2+x,1/2+y,1/2+z
1/2-x,1/2-y,1/2+z
1/2-x,1/2+y,1/2+z
1/2+x,1/2-y,1/2+z
loop_
_atom_site_type_symbol
_atom_site_label
_atom_site_fract_x
_atom_site_fract_y
_atom_site_fract_z
Si Si1 0.417524 0.676304 0.778240
Si Si2 0.793114 0.820303 0.006896
Si Si3 0.175427 0.325410 0.217105
Si Si4 0.093464 0.179609 0.507242
Si Si5 0.446956 0.183143 0.217001
Si Si6 0.192624 0.681262 0.449613
Si Si7 0.949842 0.822160 0.053250
Si Si8 0.878762 0.680133 0.902256
O O1 0.400441 0.500000 0.779059
O O2 0.376673 0.790393 0.750772
O O3 0.450011 0.688038 0.678539
O O4 0.432638 0.706731 0.896499
O O5 0.740119 0.766945 0.001855
O O6 0.828428 0.749768 0.922957
O O7 0.793083 0.000000 0.991093
O O8 0.811410 0.779552 0.121414
O O9 0.181296 0.500000 0.185768
O O10 0.201180 0.296286 0.325931
O O11 0.069954 0.262187 0.604025
O O12 0.146150 0.236109 0.487598
O O13 0.093617 0.000000 0.527008
O O14 0.500000 0.233864 0.237104
O O15 0.409373 0.234477 0.303547
O O16 0.447131 0.000000 0.219793
O O17 0.185807 0.500000 0.465844
O O18 0.000000 0.775008 0.012609
O O19 0.942143 0.000000 0.028059
O O20 0.909677 0.725492 0.002077
O O21 0.874110 0.500000 0.895264
#
# Coordination Sequence:
#
# PCOD9374159 Si02
#       8
#     8   8   8   8   8   8   8   8
#     4   9  18  34  55  81 114 149 183 229 290 348
#     4  11  22  37  58  85 118 156 197 244 301 362
#     4  10  19  34  56  81 111 147 188 237 288 345
#     4  10  21  37  61  90 119 152 198 250 298 354
#     4  10  23  43  63  84 119 166 209 253 306 363
#     4   9  21  39  58  83 118 159 199 243 299 359
#     4  10  20  34  55  83 115 149 184 229 289 351
#     4  11  23  39  59  84 114 152 201 253 298 351
#
# _framework density 19.533009
#
# number of rings (size 3 to 8) (size 9 to 14) (size 15 to 20)
#    0.000    2.000    1.250    1.875    0.000    5.500 
#    0.000    3.750    0.000    0.000    0.000    0.000 
#    0.000    0.000    0.000    0.000    0.000    0.000 
#
# Total GULP energy -178455.457895 kJ/mol
# GULP energy per Si atom -5576.733059 kJ/mol
# Density = 1.948855 g / cm^3
# Si number density = 19.533009 Si / 1000 Ang^3
#
#
#
# Elastic Constant Matrix: (Units=GPa)
#
#
# Indices 1 2 3 4 5 6 
#
# 1 46.9581 8.4646 8.0063 0.0000 0.0000 0.0000
# 2 8.4646 19.5992 6.9375 0.0000 0.0000 0.0000
# 3 8.0063 6.9375 76.0817 0.0000 0.0000 0.0000
# 4 0.0000 0.0000 0.0000 28.2816 0.0000 0.0000
# 5 0.0000 0.0000 0.0000 0.0000 14.4823 0.0000
# 6 0.0000 0.0000 0.0000 0.0000 0.0000 19.8139
#
#
#
# Elastic Compliance Matrix: (Units=1/GPa)
#
#
# Indices 1 2 3 4 5 6 
#
# 1 0.023277 -0.009492 -0.001584 0.000000 0.000000 0.000000
# 2 -0.009492 0.056595 -0.004162 0.000000 0.000000 0.000000
# 3 -0.001584 -0.004162 0.013690 0.000000 0.000000 0.000000
# 4 0.000000 0.000000 0.000000 0.035359 0.000000 0.000000
# 5 0.000000 0.000000 0.000000 0.000000 0.069050 0.000000
# 6 0.000000 0.000000 0.000000 0.000000 0.000000 0.050470
#
#
# Mechanical properties :
#
#
# Convention : Reuss Voigt Hill
#
# Bulk Modulus (GPa) = 15.85137 21.05066 18.45102
# Shear Modulus (GPa) = 16.66976 20.46425 18.56700
#
# Velocity S-wave (km/s) = 2.92450 3.24029 3.08644
# Velocity P-wave (km/s) = 4.42000 4.97993 4.70829
#
# Compressibility (1/GPa) = 0.06308602
#
# Stress axis : x y z
#
# Youngs Moduli (GPa) = 42.96146 17.66937 73.04632
#
# Poissons Ratio (x) = 0.16772 0.11570
# Poissons Ratio (y) = 0.40780 0.30400
# Poissons Ratio (z) = 0.06805 0.07354
#
# Static dielectric constant tensor:
#      x y z
#    x 1.720080 0.000000 0.000000 
#    y 0.000000 1.659820 0.000000 
#    z 0.000000 0.000000 1.698970 
# 
# From -- ./inp_files/11518.got.cif
#   From: 2010.05.17/outbox.cif.g08.bks.cpg/sg44_6_cif.got.tgz:11518.got - 2010.06.03 19:37:08.
