data_PCOD9374967
_publ_section_title
;
Structure prediction by ZEFSAII (Michael W. Deem and Ramdas Pophale) SiO2 
 PCOD9374967
Probable space group: I M M 2
;
_chemical_formula_sum "Si O2"
_cell_formula_units_Z 58
_cell_length_a 15.463551
_cell_length_b 16.810431
_cell_length_c 12.764405
_cell_angle_alpha 90.000000
_cell_angle_beta 90.000000
_cell_angle_gamma 90.000000
_cell_volume 3318.093768
_symmetry_space_group_name_H-M "I M M 2"
_symmetry_group_IT_number 44
_symmetry_cell_setting 'orthorhombic'
loop_
_space_group_symop_operation_xyz
x,y,z
-x,-y,z
-x,y,z
x,-y,z
1/2+x,1/2+y,1/2+z
1/2-x,1/2-y,1/2+z
1/2-x,1/2+y,1/2+z
1/2+x,1/2-y,1/2+z
loop_
_atom_site_type_symbol
_atom_site_label
_atom_site_fract_x
_atom_site_fract_y
_atom_site_fract_z
Si Si1 0.600251 0.316604 0.136130
Si Si2 0.630520 0.128150 0.125758
Si Si3 0.323082 0.405442 0.699930
Si Si4 0.597544 0.131823 0.882434
Si Si5 0.595084 0.596449 0.488937
Si Si6 0.782381 0.093483 0.801568
Si Si7 0.098459 0.176948 0.393912
Si Si8 0.500000 0.000000 0.204860
O O1 0.500000 0.338400 0.161081
O O2 0.607520 0.220771 0.140809
O O3 0.670083 0.357062 0.211317
O O4 0.617714 0.340353 0.015342
O O5 0.729570 0.113924 0.153562
O O6 0.574263 0.069769 0.195809
O O7 0.611314 0.106846 0.003884
O O8 0.332290 0.500000 0.713567
O O9 0.388157 0.377859 0.607994
O O10 0.340318 0.362671 0.809089
O O11 0.500000 0.106943 0.850752
O O12 0.679394 0.103460 0.815209
O O13 0.600423 0.227709 0.881985
O O14 0.500000 0.622178 0.452322
O O15 0.596355 0.500000 0.490474
O O16 0.670959 0.620395 0.409881
O O17 0.800858 0.000000 0.786289
O O18 0.000000 0.150046 0.372881
#
# Coordination Sequence:
#
# PCOD9374967 Si02
#       8
#     8   8   8   8   8   8   8   2
#     4  10  21  39  57  79 113 152 188 231 274 328
#     4  11  20  34  57  86 115 142 181 233 288 337
#     4  11  20  31  53  82 113 145 181 231 282 332
#     4  10  20  36  56  82 113 147 180 234 285 335
#     4   9  18  31  47  74 113 146 177 221 277 330
#     4  11  22  34  55  83 112 149 189 229 278 333
#     4   9  20  37  55  78 108 148 190 224 275 330
#     4  12  20  32  60  92 112 142 180 240 288 336
#
# _framework density 17.479915999999999
#
# number of rings (size 3 to 8) (size 9 to 14) (size 15 to 20)
#    0.000    1.793    3.448    2.483    0.966    2.483 
#    0.000    1.379    0.000    0.000    1.793    0.000 
#    0.000    0.000    0.000    0.000    0.000    0.000 
#
# Total GULP energy -161489.274103 kJ/mol
# GULP energy per Si atom -5568.595659 kJ/mol
# Density = 1.744013 g / cm^3
# Si number density = 17.479916 Si / 1000 Ang^3
#
#
#
# Elastic Constant Matrix: (Units=GPa)
#
#
# Indices 1 2 3 4 5 6 
#
# 1 92.9935 23.3548 33.4021 0.0000 0.0000 0.0000
# 2 23.3548 44.7731 28.2611 0.0000 0.0000 0.0000
# 3 33.4021 28.2611 68.2922 0.0000 0.0000 0.0000
# 4 0.0000 0.0000 0.0000 12.5407 0.0000 0.0000
# 5 0.0000 0.0000 0.0000 0.0000 32.2752 0.0000
# 6 0.0000 0.0000 0.0000 0.0000 0.0000 27.0375
#
#
#
# Elastic Compliance Matrix: (Units=1/GPa)
#
#
# Indices 1 2 3 4 5 6 
#
# 1 0.013530 -0.003899 -0.005004 0.000000 0.000000 0.000000
# 2 -0.003899 0.031355 -0.011069 0.000000 0.000000 0.000000
# 3 -0.005004 -0.011069 0.021671 0.000000 0.000000 0.000000
# 4 0.000000 0.000000 0.000000 0.079741 0.000000 0.000000
# 5 0.000000 0.000000 0.000000 0.000000 0.030984 0.000000
# 6 0.000000 0.000000 0.000000 0.000000 0.000000 0.036986
#
#
# Mechanical properties :
#
#
# Convention : Reuss Voigt Hill
#
# Bulk Modulus (GPa) = 37.57583 41.78833 39.68208
# Shear Modulus (GPa) = 19.00558 22.44005 20.72281
#
# Velocity S-wave (km/s) = 3.30097 3.58685 3.44688
# Velocity P-wave (km/s) = 6.00598 6.41189 6.21225
#
# Compressibility (1/GPa) = 0.02661285
#
# Stress axis : x y z
#
# Youngs Moduli (GPa) = 73.90943 31.89254 46.14465
#
# Poissons Ratio (x) = 0.12435 0.23091
# Poissons Ratio (y) = 0.28817 0.51076
# Poissons Ratio (z) = 0.36985 0.35301
#
# Static dielectric constant tensor:
#      x y z
#    x 1.556620 0.000000 0.000000 
#    y 0.000000 1.583490 0.000000 
#    z 0.000000 0.000000 1.586520 
# 
# From -- ./inp_files/13378.got.cif
#   From: 2010.05.17/outbox.cif.g08.bks.cpg/sg44_7_cif.got.tgz:13378.got - 2010.06.03 19:37:08.
