data_PCOD9374615
_publ_section_title
;
Structure prediction by ZEFSAII (Michael W. Deem and Ramdas Pophale) SiO2 
 PCOD9374615
Probable space group: I M M 2
;
_chemical_formula_sum "Si O2"
_cell_formula_units_Z 58
_cell_length_a 10.313813
_cell_length_b 22.374906
_cell_length_c 13.975102
_cell_angle_alpha 90.000000
_cell_angle_beta 90.000000
_cell_angle_gamma 90.000000
_cell_volume 3225.042623
_symmetry_space_group_name_H-M "I M M 2"
_symmetry_group_IT_number 44
_symmetry_cell_setting 'orthorhombic'
loop_
_space_group_symop_operation_xyz
x,y,z
-x,-y,z
-x,y,z
x,-y,z
1/2+x,1/2+y,1/2+z
1/2-x,1/2-y,1/2+z
1/2-x,1/2+y,1/2+z
1/2+x,1/2-y,1/2+z
loop_
_atom_site_type_symbol
_atom_site_label
_atom_site_fract_x
_atom_site_fract_y
_atom_site_fract_z
Si Si1 0.353101 0.070290 0.750000
Si Si2 0.852044 0.226938 0.642756
Si Si3 0.850341 0.069562 0.186598
Si Si4 0.226353 0.101452 0.552396
Si Si5 0.850058 0.159545 0.835894
Si Si6 0.649443 0.318150 0.556532
Si Si7 0.000000 0.000000 0.544033
Si Si8 0.350725 0.072008 0.355763
O O1 0.500000 0.089523 0.770881
O O2 0.320888 0.081784 0.638670
O O3 0.248419 0.107057 0.809790
O O4 0.341388 0.000000 0.768740
O O5 0.829643 0.165546 0.583987
O O6 0.833320 0.209490 0.754099
O O7 0.748988 0.275006 0.608668
O O8 0.000000 0.247213 0.629205
O O9 0.835826 0.115113 0.099125
O O10 0.748199 0.085039 0.269492
O O11 0.000000 0.074707 0.222029
O O12 0.830787 0.000000 0.159746
O O13 0.301921 0.102913 0.452406
O O14 0.113236 0.052433 0.544977
O O15 0.000000 0.138577 0.828146
O O16 0.829019 0.181964 0.942972
O O17 0.500000 0.299866 0.574590
O O18 0.500000 0.087449 0.333632
O O19 0.344804 0.000000 0.371464
#
# Coordination Sequence:
#
# PCOD9374615 Si02
#       8
#     8   8   8   8   8   8   2   8
#     4  10  20  33  52  83 120 152 187 233 288 341
#     4  10  22  38  57  84 114 149 191 229 279 346
#     4   9  20  37  60  83 111 146 193 241 288 339
#     4  11  21  33  56  84 119 158 194 234 287 337
#     4   9  21  39  60  81 109 146 194 235 279 339
#     4  10  22  42  62  85 113 149 188 239 289 340
#     4  12  20  32  58  88 120 154 204 240 284 328
#     4  10  20  33  52  82 118 153 191 237 292 343
#
# _framework density 17.984256999999999
#
# number of rings (size 3 to 8) (size 9 to 14) (size 15 to 20)
#    0.000    2.069    2.069    0.414    1.931    6.897 
#    0.000    4.138    0.000    1.655    0.000    0.000 
#    0.000    0.000    0.000    0.000    0.000    0.000 
#
# Total GULP energy -161571.735372 kJ/mol
# GULP energy per Si atom -5571.439151 kJ/mol
# Density = 1.794332 g / cm^3
# Si number density = 17.984257 Si / 1000 Ang^3
#
#
#
# Elastic Constant Matrix: (Units=GPa)
#
#
# Indices 1 2 3 4 5 6 
#
# 1 142.5548 67.8599 80.2070 0.0000 0.0000 0.0000
# 2 67.8599 72.5494 44.1089 0.0001 0.0000 0.0000
# 3 80.2070 44.1089 103.6307 0.0000 0.0000 0.0000
# 4 0.0000 0.0001 0.0000 7.6871 0.0000 0.0000
# 5 0.0000 0.0000 0.0000 0.0000 15.0051 0.0000
# 6 0.0000 0.0000 0.0000 0.0000 0.0000 35.9508
#
#
#
# Elastic Compliance Matrix: (Units=1/GPa)
#
#
# Indices 1 2 3 4 5 6 
#
# 1 0.016854 -0.010569 -0.008546 0.000000 0.000000 0.000000
# 2 -0.010569 0.025224 -0.002556 0.000000 0.000000 0.000000
# 3 -0.008546 -0.002556 0.017352 0.000000 0.000000 0.000000
# 4 0.000000 0.000000 0.000000 0.130088 0.000000 0.000000
# 5 0.000000 0.000000 0.000000 0.000000 0.066644 0.000000
# 6 0.000000 0.000000 0.000000 0.000000 0.000000 0.027816
#
#
# Mechanical properties :
#
#
# Convention : Reuss Voigt Hill
#
# Bulk Modulus (GPa) = 62.15957 78.12073 70.14015
# Shear Modulus (GPa) = 15.02931 20.16585 17.59758
#
# Velocity S-wave (km/s) = 2.89397 3.35222 3.13149
# Velocity P-wave (km/s) = 6.76795 7.64957 7.22222
#
# Compressibility (1/GPa) = 0.01608763
#
# Stress axis : x y z
#
# Youngs Moduli (GPa) = 59.33139 39.64555 57.62974
#
# Poissons Ratio (x) = 0.41901 0.49252
# Poissons Ratio (y) = 0.62707 0.14730
# Poissons Ratio (z) = 0.50707 0.10133
#
# Static dielectric constant tensor:
#      x y z
#    x 1.609550 0.000000 0.000000 
#    y 0.000000 1.597420 0.000000 
#    z 0.000000 0.000000 1.598240 
# 
# From -- ./inp_files/16693.got.cif
#   From: 2010.05.17/outbox.cif.g08.bks.cpg/sg44_9_cif.got.tgz:16693.got - 2010.06.03 19:37:08.
