data_PCOD9374079
_publ_section_title
;
Structure prediction by ZEFSAII (Michael W. Deem and Ramdas Pophale) SiO2 
 PCOD9374079
Probable space group: I M M 2
;
_chemical_formula_sum "Si O2"
_cell_formula_units_Z 64
_cell_length_a 22.754358
_cell_length_b 7.939597
_cell_length_c 16.889109
_cell_angle_alpha 90.000000
_cell_angle_beta 90.000000
_cell_angle_gamma 90.000000
_cell_volume 3051.193737
_symmetry_space_group_name_H-M "I M M 2"
_symmetry_group_IT_number 44
_symmetry_cell_setting 'orthorhombic'
loop_
_space_group_symop_operation_xyz
x,y,z
-x,-y,z
-x,y,z
x,-y,z
1/2+x,1/2+y,1/2+z
1/2-x,1/2-y,1/2+z
1/2-x,1/2+y,1/2+z
1/2+x,1/2-y,1/2+z
loop_
_atom_site_type_symbol
_atom_site_label
_atom_site_fract_x
_atom_site_fract_y
_atom_site_fract_z
Si Si1 0.068888 0.306125 0.431430
Si Si2 0.567880 0.796994 0.390429
Si Si3 0.864914 0.702060 0.586207
Si Si4 0.146914 0.307494 0.028477
Si Si5 0.281607 0.192835 0.677858
Si Si6 0.341133 0.692171 0.252165
Si Si7 0.761506 0.300423 0.469210
Si Si8 0.840401 0.190338 0.321966
O O1 0.091158 0.500000 0.424860
O O2 0.091762 0.244162 0.516230
O O3 0.095476 0.205202 0.359109
O O4 0.000000 0.307133 0.430446
O O5 0.500000 0.740016 0.376020
O O6 0.593852 0.734639 0.475620
O O7 0.615363 0.757849 0.320781
O O8 0.566330 0.000000 0.395790
O O9 0.870021 0.500000 0.598296
O O10 0.875044 0.792434 0.668660
O O11 0.800599 0.735270 0.547747
O O12 0.131569 0.500000 0.050201
O O13 0.180422 0.228322 0.105019
O O14 0.201750 0.301743 0.968250
O O15 0.222627 0.267005 0.722031
O O16 0.328268 0.192411 0.748565
O O17 0.266141 0.000000 0.654316
O O18 0.327658 0.500000 0.274574
O O19 0.750111 0.500000 0.466736
O O20 0.799599 0.247053 0.394576
O O21 0.827337 0.000000 0.298438
#
# Coordination Sequence:
#
# PCOD9374079 Si02
#       8
#     8   8   8   8   8   8   8   8
#     4   9  19  37  58  79 108 149 192 232 283 344
#     4  10  23  42  61  82 113 157 204 242 282 343
#     4   9  18  32  53  83 116 147 182 227 280 345
#     4  10  20  37  61  85 111 145 189 245 296 344
#     4  10  21  37  57  86 120 145 182 239 300 356
#     4  11  22  36  58  87 119 151 187 237 292 341
#     4  10  19  33  55  83 115 148 184 228 291 355
#     4  11  22  34  53  81 114 149 188 231 282 341
#
# _framework density 20.975396
#
# number of rings (size 3 to 8) (size 9 to 14) (size 15 to 20)
#    0.000    2.000    1.250    3.375    0.000    7.000 
#    0.000    1.875    0.000    2.250    0.000    0.000 
#    0.000    0.000    0.000    0.000    0.000    0.000 
#
# Total GULP energy -178238.161196 kJ/mol
# GULP energy per Si atom -5569.942537 kJ/mol
# Density = 2.092765 g / cm^3
# Si number density = 20.975396 Si / 1000 Ang^3
#
#
#
# Elastic Constant Matrix: (Units=GPa)
#
#
# Indices 1 2 3 4 5 6 
#
# 1 94.5530 9.5682 64.3092 0.0000 0.0000 0.0000
# 2 9.5682 49.2446 4.1676 0.0000 0.0000 0.0000
# 3 64.3092 4.1676 103.1987 0.0000 0.0000 0.0000
# 4 0.0000 0.0000 0.0000 16.0337 0.0000 0.0000
# 5 0.0000 0.0000 0.0000 0.0000 21.1443 0.0000
# 6 0.0000 0.0000 0.0000 0.0000 0.0000 19.6009
#
#
#
# Elastic Compliance Matrix: (Units=1/GPa)
#
#
# Indices 1 2 3 4 5 6 
#
# 1 0.018696 -0.002656 -0.011543 0.000000 0.000000 0.000000
# 2 -0.002656 0.020754 0.000817 0.000000 0.000000 0.000000
# 3 -0.011543 0.000817 0.016850 0.000000 0.000000 0.000000
# 4 0.000000 0.000000 0.000000 0.062368 0.000000 0.000000
# 5 0.000000 0.000000 0.000000 0.000000 0.047294 0.000000
# 6 0.000000 0.000000 0.000000 0.000000 0.000000 0.051018
#
#
# Mechanical properties :
#
#
# Convention : Reuss Voigt Hill
#
# Bulk Modulus (GPa) = 33.85747 44.78735 39.32241
# Shear Modulus (GPa) = 19.71690 22.61922 21.16806
#
# Velocity S-wave (km/s) = 3.06927 3.28742 3.18021
# Velocity P-wave (km/s) = 5.36070 5.98399 5.68090
#
# Compressibility (1/GPa) = 0.02953558
#
# Stress axis : x y z
#
# Youngs Moduli (GPa) = 53.48796 48.18431 59.34613
#
# Poissons Ratio (x) = 0.12796 0.68504
# Poissons Ratio (y) = 0.14205 -0.04847
# Poissons Ratio (z) = 0.61742 -0.03936
#
# Static dielectric constant tensor:
#      x y z
#    x 1.789950 0.000000 0.000000 
#    y 0.000000 1.824710 0.000000 
#    z 0.000000 0.000000 1.799540 
# 
# From -- ./inp_files/19491.got.cif
#   From: 2010.05.17/outbox.cif.g08.bks.cpg/sg44_10_cif.got.tgz:19491.got - 2010.06.03 19:37:08.
