data_PCOD9374900
_publ_section_title
;
Structure prediction by ZEFSAII (Michael W. Deem and Ramdas Pophale) SiO2 
 PCOD9374900
Probable space group: I M M 2
;
_chemical_formula_sum "Si O2"
_cell_formula_units_Z 32
_cell_length_a 8.558668
_cell_length_b 10.329988
_cell_length_c 17.897920
_cell_angle_alpha 90.000000
_cell_angle_beta 90.000000
_cell_angle_gamma 90.000000
_cell_volume 1582.371891
_symmetry_space_group_name_H-M "I M M 2"
_symmetry_group_IT_number 44
_symmetry_cell_setting 'orthorhombic'
loop_
_space_group_symop_operation_xyz
x,y,z
-x,-y,z
-x,y,z
x,-y,z
1/2+x,1/2+y,1/2+z
1/2-x,1/2-y,1/2+z
1/2-x,1/2+y,1/2+z
1/2+x,1/2-y,1/2+z
loop_
_atom_site_type_symbol
_atom_site_label
_atom_site_fract_x
_atom_site_fract_y
_atom_site_fract_z
Si Si1 0.186826 0.727723 0.979040
Si Si2 0.188612 0.000000 0.756322
Si Si3 0.185093 0.500000 0.424116
Si Si4 0.190687 0.500000 0.870011
Si Si5 0.809376 0.500000 0.698219
Si Si6 0.811416 0.778165 0.639672
O O1 0.240431 0.627105 0.915451
O O2 0.000000 0.731135 0.977482
O O3 0.250051 0.870378 0.962184
O O4 0.242678 0.681949 0.060233
O O5 0.264715 0.000000 0.837359
O O6 0.231033 0.125115 0.706735
O O7 0.000000 0.000000 0.766380
O O8 0.000000 0.500000 0.431137
O O9 0.242077 0.500000 0.784406
O O10 0.000000 0.500000 0.869067
O O11 0.759780 0.632120 0.658513
O O12 0.000000 0.500000 0.697987
O O13 0.000000 0.780092 0.634238
#
# Coordination Sequence:
#
# PCOD9374900 Si02
#       6
#     8   4   4   4   4   8
#     4  11  22  38  61  87 117 153 194 241 296 357
#     4  10  21  38  60  85 116 156 197 238 291 354
#     4  12  25  40  59  85 119 158 203 252 297 344
#     4   9  19  36  59  85 111 145 190 237 286 344
#     4   9  17  32  54  77 104 141 184 227 272 326
#     4  10  20  35  57  84 115 150 188 233 286 347
#
# _framework density 20.222807
#
# number of rings (size 3 to 8) (size 9 to 14) (size 15 to 20)
#    0.000    1.750    0.000    4.875    0.000    6.000 
#    0.000    1.875    0.000    3.000    0.000    0.000 
#    0.000    0.000    0.000    0.000    0.000    0.000 
#
# Total GULP energy -89463.370862 kJ/mol
# GULP energy per Si atom -5591.460679 kJ/mol
# Density = 2.017678 g / cm^3
# Si number density = 20.222807 Si / 1000 Ang^3
#
#
#
# Elastic Constant Matrix: (Units=GPa)
#
#
# Indices 1 2 3 4 5 6 
#
# 1 26.6799 9.5992 12.7446 0.0000 0.0000 0.0000
# 2 9.5992 71.1270 -11.4399 0.0000 0.0000 0.0000
# 3 12.7446 -11.4399 82.0847 0.0000 0.0000 0.0000
# 4 0.0000 0.0000 0.0000 41.4385 0.0000 0.0000
# 5 0.0000 0.0000 0.0000 0.0000 35.6093 0.0000
# 6 0.0000 0.0000 0.0000 0.0000 0.0000 2.3624
#
#
#
# Elastic Compliance Matrix: (Units=1/GPa)
#
#
# Indices 1 2 3 4 5 6 
#
# 1 0.043783 -0.007163 -0.007796 0.000000 0.000000 0.000000
# 2 -0.007163 0.015554 0.003280 0.000000 0.000000 0.000000
# 3 -0.007796 0.003280 0.013850 0.000000 0.000000 0.000000
# 4 0.000000 0.000000 0.000000 0.024132 0.000000 0.000000
# 5 0.000000 0.000000 0.000000 0.000000 0.028083 0.000000
# 6 0.000000 0.000000 0.000000 0.000000 0.000000 0.423307
#
#
# Mechanical properties :
#
#
# Convention : Reuss Voigt Hill
#
# Bulk Modulus (GPa) = 20.06897 22.41106 21.24002
# Shear Modulus (GPa) = 8.49365 27.14789 17.82077
#
# Velocity S-wave (km/s) = 2.05162 3.66791 2.97176
# Velocity P-wave (km/s) = 3.94432 5.38926 4.72239
#
# Compressibility (1/GPa) = 0.04982816
#
# Stress axis : x y z
#
# Youngs Moduli (GPa) = 22.84018 64.29412 72.20200
#
# Poissons Ratio (x) = 0.46052 0.56289
# Poissons Ratio (y) = 0.16360 -0.23680
# Poissons Ratio (z) = 0.17806 -0.21087
#
# Static dielectric constant tensor:
#      x y z
#    x 1.688710 0.000000 0.000000 
#    y 0.000000 1.702320 0.000000 
#    z 0.000000 0.000000 1.676130 
# 
# From -- ./inp_files/15560.got.cif
#   From: 2010.05.17/outbox.cif.g08.bks.cpg/sg44_8_cif.got.tgz:15560.got - 2010.06.03 19:37:08.
