data_PCOD9374074
_publ_section_title
;
Structure prediction by ZEFSAII (Michael W. Deem and Ramdas Pophale) SiO2 
 PCOD9374074
Probable space group: I M M 2
;
_chemical_formula_sum "Si O2"
_cell_formula_units_Z 56
_cell_length_a 12.490771
_cell_length_b 22.002486
_cell_length_c 11.155410
_cell_angle_alpha 90.000000
_cell_angle_beta 90.000000
_cell_angle_gamma 90.000000
_cell_volume 3065.819176
_symmetry_space_group_name_H-M "I M M 2"
_symmetry_group_IT_number 44
_symmetry_cell_setting 'orthorhombic'
loop_
_space_group_symop_operation_xyz
x,y,z
-x,-y,z
-x,y,z
x,-y,z
1/2+x,1/2+y,1/2+z
1/2-x,1/2-y,1/2+z
1/2-x,1/2+y,1/2+z
1/2+x,1/2-y,1/2+z
loop_
_atom_site_type_symbol
_atom_site_label
_atom_site_fract_x
_atom_site_fract_y
_atom_site_fract_z
Si Si1 0.623431 0.337509 0.370210
Si Si2 0.873904 0.427451 0.946422
Si Si3 0.212221 0.647182 0.722621
Si Si4 0.750825 0.842665 0.621612
Si Si5 0.816417 0.725123 0.501087
Si Si6 0.885441 0.250981 0.255874
Si Si7 0.118532 0.071039 0.081156
O O1 0.500000 0.316735 0.354536
O O2 0.680972 0.351020 0.243657
O O3 0.697179 0.292368 0.450682
O O4 0.622923 0.397242 0.452095
O O5 0.853704 0.500000 0.926133
O O6 0.851988 0.385476 0.828567
O O7 0.000000 0.421593 0.978748
O O8 0.794538 0.399693 0.048084
O O9 0.153583 0.681618 0.612210
O O10 0.292850 0.700640 0.764501
O O11 0.288970 0.597421 0.663240
O O12 0.818203 0.795042 0.541863
O O13 0.649759 0.801495 0.661440
O O14 0.887307 0.717306 0.384611
O O15 0.000000 0.224165 0.224459
O O16 0.000000 0.083966 0.131993
O O17 0.130461 0.000000 0.068217
#
# Coordination Sequence:
#
# PCOD9374074 Si02
#       7
#     8   8   8   8   8   8   8
#     4   9  19  34  55  80 109 141 179 226 277 332
#     4  11  24  40  57  77 109 156 198 229 271 334
#     4  10  19  35  54  78 109 140 180 227 275 330
#     4  10  20  37  52  80 110 145 184 227 276 329
#     4   9  19  34  52  81 109 137 177 224 287 333
#     4  10  19  33  55  81 109 138 174 225 284 336
#     4   9  17  31  53  79 105 138 178 221 273 328
#
# _framework density 18.265917000000002
#
# number of rings (size 3 to 8) (size 9 to 14) (size 15 to 20)
#    0.000    2.286    1.429    1.286    0.000    5.714 
#    0.000    0.000    0.000    1.714    0.000   14.000 
#    0.000    0.000    0.000    0.000    0.000    0.000 
#
# Total GULP energy -155911.804693 kJ/mol
# GULP energy per Si atom -5568.278739 kJ/mol
# Density = 1.822434 g / cm^3
# Si number density = 18.265917 Si / 1000 Ang^3
#
#
#
# Elastic Constant Matrix: (Units=GPa)
#
#
# Indices 1 2 3 4 5 6 
#
# 1 46.7845 15.9849 6.4296 0.0000 0.0000 0.0000
# 2 15.9849 78.5935 10.8433 0.0001 0.0000 0.0000
# 3 6.4296 10.8433 68.0063 0.0003 0.0000 0.0000
# 4 0.0000 0.0001 0.0003 21.8545 0.0000 0.0000
# 5 0.0000 0.0000 0.0000 0.0000 11.6077 0.0000
# 6 0.0000 0.0000 0.0000 0.0000 0.0000 10.7203
#
#
#
# Elastic Compliance Matrix: (Units=1/GPa)
#
#
# Indices 1 2 3 4 5 6 
#
# 1 0.023113 -0.004498 -0.001468 0.000000 0.000000 0.000000
# 2 -0.004498 0.013885 -0.001789 0.000000 0.000000 0.000000
# 3 -0.001468 -0.001789 0.015128 0.000000 0.000000 0.000000
# 4 0.000000 0.000000 0.000000 0.045757 0.000000 0.000000
# 5 0.000000 0.000000 0.000000 0.000000 0.086150 0.000000
# 6 0.000000 0.000000 0.000000 0.000000 0.000000 0.093281
#
#
# Mechanical properties :
#
#
# Convention : Reuss Voigt Hill
#
# Bulk Modulus (GPa) = 27.30966 28.87777 28.09371
# Shear Modulus (GPa) = 16.39178 19.51160 17.95169
#
# Velocity S-wave (km/s) = 2.99891 3.27187 3.13836
# Velocity P-wave (km/s) = 5.19374 5.48794 5.34286
#
# Compressibility (1/GPa) = 0.03661708
#
# Stress axis : x y z
#
# Youngs Moduli (GPa) = 43.26513 72.01809 66.10041
#
# Poissons Ratio (x) = 0.32397 0.09703
# Poissons Ratio (y) = 0.19462 0.11823
# Poissons Ratio (z) = 0.06351 0.12882
#
# Static dielectric constant tensor:
#      x y z
#    x 1.674760 0.000000 0.000000 
#    y 0.000000 1.614850 0.000000 
#    z 0.000000 0.000000 1.656310 
# 
# From -- ./inp_files/12439.got.cif
#   From: 2010.05.17/outbox.cif.g08.bks.cpg/sg44_7_cif.got.tgz:12439.got - 2010.06.03 19:37:08.
