data_PCOD9374870
_publ_section_title
;
Structure prediction by ZEFSAII (Michael W. Deem and Ramdas Pophale) SiO2 
 PCOD9374870
Probable space group: I M M 2
;
_chemical_formula_sum "Si O2"
_cell_formula_units_Z 56
_cell_length_a 8.970347
_cell_length_b 22.355367
_cell_length_c 14.751826
_cell_angle_alpha 90.000000
_cell_angle_beta 90.000000
_cell_angle_gamma 90.000000
_cell_volume 2958.263317
_symmetry_space_group_name_H-M "I M M 2"
_symmetry_group_IT_number 44
_symmetry_cell_setting 'orthorhombic'
loop_
_space_group_symop_operation_xyz
x,y,z
-x,-y,z
-x,y,z
x,-y,z
1/2+x,1/2+y,1/2+z
1/2-x,1/2-y,1/2+z
1/2-x,1/2+y,1/2+z
1/2+x,1/2-y,1/2+z
loop_
_atom_site_type_symbol
_atom_site_label
_atom_site_fract_x
_atom_site_fract_y
_atom_site_fract_z
Si Si1 0.176930 0.775258 0.373540
Si Si2 0.322574 0.142761 0.677610
Si Si3 0.677179 0.353979 0.368815
Si Si4 0.175216 0.215855 0.165448
Si Si5 0.320976 0.388332 0.995316
Si Si6 0.679162 0.000000 0.172142
Si Si7 0.322295 0.113924 0.050729
Si Si8 0.320728 0.500000 0.869783
O O1 0.269922 0.714830 0.383015
O O2 0.198718 0.800052 0.271448
O O3 0.215381 0.825605 0.446232
O O4 0.000000 0.760477 0.381009
O O5 0.500000 0.136329 0.685909
O O6 0.245536 0.126766 0.772441
O O7 0.291294 0.213510 0.659837
O O8 0.258715 0.107992 0.591694
O O9 0.500000 0.357267 0.366711
O O10 0.743674 0.389559 0.453622
O O11 0.272013 0.174831 0.100410
O O12 0.000000 0.207170 0.144167
O O13 0.500000 0.390208 0.007981
O O14 0.278717 0.441667 0.927773
O O15 0.721381 0.058892 0.115355
O O16 0.500000 0.000000 0.181164
O O17 0.750109 0.000000 0.270988
O O18 0.500000 0.113607 0.038599
O O19 0.500000 0.500000 0.860092
#
# Coordination Sequence:
#
# PCOD9374870 Si02
#       8
#     8   8   8   8   8   4   8   4
#     4   9  18  33  54  81 114 148 181 221 270 324
#     4  10  21  37  56  80 112 146 180 223 273 325
#     4  11  22  36  56  82 110 141 181 227 274 327
#     4   9  18  33  54  83 114 144 181 222 269 325
#     4  10  20  35  56  82 111 146 186 225 269 319
#     4  10  24  42  59  82 111 144 183 224 266 320
#     4  11  22  37  56  79 110 146 183 225 273 322
#     4  10  22  40  61  84 113 146 181 226 270 312
#
# _framework density 18.930026000000002
#
# number of rings (size 3 to 8) (size 9 to 14) (size 15 to 20)
#    0.000    2.000    0.000    4.714    0.000    8.571 
#    0.000    0.714    0.000    0.000    0.000    0.000 
#    0.000    0.000    0.000    0.000    0.000    0.000 
#
# Total GULP energy -156460.648298 kJ/mol
# GULP energy per Si atom -5587.880296 kJ/mol
# Density = 1.888694 g / cm^3
# Si number density = 18.930026 Si / 1000 Ang^3
#
#
#
# Elastic Constant Matrix: (Units=GPa)
#
#
# Indices 1 2 3 4 5 6 
#
# 1 61.9774 34.5141 75.4402 0.0000 0.0000 0.0000
# 2 34.5141 40.4896 65.4606 0.0000 0.0000 0.0000
# 3 75.4402 65.4606 188.7120 0.0001 0.0000 0.0000
# 4 0.0000 0.0000 0.0001 29.0951 0.0000 0.0000
# 5 0.0000 0.0000 0.0000 0.0000 38.2321 0.0000
# 6 0.0000 0.0000 0.0000 0.0000 0.0000 17.3422
#
#
#
# Elastic Compliance Matrix: (Units=1/GPa)
#
#
# Indices 1 2 3 4 5 6 
#
# 1 0.035839 -0.016819 -0.008493 0.000000 0.000000 0.000000
# 2 -0.016819 0.064128 -0.015521 0.000000 0.000000 0.000000
# 3 -0.008493 -0.015521 0.014078 0.000000 0.000000 0.000000
# 4 0.000000 0.000000 0.000000 0.034370 0.000000 0.000000
# 5 0.000000 0.000000 0.000000 0.000000 0.026156 0.000000
# 6 0.000000 0.000000 0.000000 0.000000 0.000000 0.057663
#
#
# Mechanical properties :
#
#
# Convention : Reuss Voigt Hill
#
# Bulk Modulus (GPa) = 30.88429 71.33429 51.10929
# Shear Modulus (GPa) = 15.39914 24.65148 20.02531
#
# Velocity S-wave (km/s) = 2.85525 3.61257 3.25600
# Velocity P-wave (km/s) = 5.21731 7.42737 6.41818
#
# Compressibility (1/GPa) = 0.03237892
#
# Stress axis : x y z
#
# Youngs Moduli (GPa) = 27.90267 15.59377 71.03193
#
# Poissons Ratio (x) = 0.26228 0.60326
# Poissons Ratio (y) = 0.46930 1.10250
# Poissons Ratio (z) = 0.23697 0.24203
#
# Static dielectric constant tensor:
#      x y z
#    x 1.630440 0.000000 0.000000 
#    y 0.000000 1.648000 0.000000 
#    z 0.000000 0.000000 1.651410 
# 
# From -- ./inp_files/16553.got.cif
#   From: 2010.05.17/outbox.cif.g08.bks.cpg/sg44_9_cif.got.tgz:16553.got - 2010.06.03 19:37:08.
