data_PCOD9374493
_publ_section_title
;
Structure prediction by ZEFSAII (Michael W. Deem and Ramdas Pophale) SiO2 
 PCOD9374493
Probable space group: I M M 2
;
_chemical_formula_sum "Si O2"
_cell_formula_units_Z 56
_cell_length_a 9.193445
_cell_length_b 16.995285
_cell_length_c 19.660865
_cell_angle_alpha 90.000000
_cell_angle_beta 90.000000
_cell_angle_gamma 90.000000
_cell_volume 3071.916136
_symmetry_space_group_name_H-M "I M M 2"
_symmetry_group_IT_number 44
_symmetry_cell_setting 'orthorhombic'
loop_
_space_group_symop_operation_xyz
x,y,z
-x,-y,z
-x,y,z
x,-y,z
1/2+x,1/2+y,1/2+z
1/2-x,1/2-y,1/2+z
1/2-x,1/2+y,1/2+z
1/2+x,1/2-y,1/2+z
loop_
_atom_site_type_symbol
_atom_site_label
_atom_site_fract_x
_atom_site_fract_y
_atom_site_fract_z
Si Si1 0.670626 0.086502 0.322320
Si Si2 0.324322 0.655074 0.289457
Si Si3 0.672968 0.761157 0.414147
Si Si4 0.826109 0.500000 0.065921
Si Si5 0.674925 0.000000 0.729019
Si Si6 0.831802 0.738133 0.663487
Si Si7 0.669089 0.658873 0.031907
Si Si8 0.673106 0.413750 0.677721
O O1 0.500000 0.091459 0.302895
O O2 0.699611 0.158934 0.371241
O O3 0.766034 0.090172 0.254607
O O4 0.693438 0.000000 0.354265
O O5 0.500000 0.643795 0.285578
O O6 0.289341 0.688470 0.364463
O O7 0.243541 0.576806 0.264938
O O8 0.287095 0.723895 0.235339
O O9 0.500000 0.756776 0.428633
O O10 0.764052 0.775889 0.481740
O O11 0.791965 0.500000 0.147572
O O12 0.758687 0.578048 0.032504
O O13 0.000000 0.500000 0.058376
O O14 0.500000 0.000000 0.735645
O O15 0.821648 0.805840 0.607577
O O16 0.739710 0.662526 0.642816
O O17 0.000000 0.714017 0.669435
O O18 0.500000 0.644439 0.015508
O O19 0.500000 0.409352 0.677947
O O20 0.716324 0.500000 0.650179
#
# Coordination Sequence:
#
# PCOD9374493 Si02
#       8
#     8   8   8   4   4   8   8   8
#     4   9  17  31  51  76 109 147 182 214 256 320
#     4  10  20  38  62  86 116 154 198 242 292 358
#     4  10  21  37  57  83 114 155 196 232 284 351
#     4  11  23  39  59  89 127 164 201 240 299 367
#     4  11  23  37  61  95 121 148 195 258 311 347
#     4  10  20  37  59  82 110 148 192 235 287 354
#     4  11  24  39  58  85 119 155 194 245 300 356
#     4  10  20  32  51  82 113 140 179 233 282 326
#
# _framework density 18.229664
#
# number of rings (size 3 to 8) (size 9 to 14) (size 15 to 20)
#    0.000    1.857    2.857    1.286    1.000    4.286 
#    0.000    0.000    1.571    0.000    0.000    0.000 
#    0.000    0.000    0.000    0.000    0.000    0.000 
#
# Total GULP energy -156229.740559 kJ/mol
# GULP energy per Si atom -5579.633591 kJ/mol
# Density = 1.818817 g / cm^3
# Si number density = 18.229664 Si / 1000 Ang^3
#
#
#
# Elastic Constant Matrix: (Units=GPa)
#
#
# Indices 1 2 3 4 5 6 
#
# 1 50.8119 40.5694 24.3717 0.0000 0.0000 0.0000
# 2 40.5694 93.0549 11.0121 0.0000 0.0000 0.0000
# 3 24.3717 11.0121 58.9092 0.0000 0.0000 0.0000
# 4 0.0000 0.0000 0.0000 18.9667 0.0000 0.0000
# 5 0.0000 0.0000 0.0000 0.0000 20.1418 0.0000
# 6 0.0000 0.0000 0.0000 0.0000 0.0000 30.4352
#
#
#
# Elastic Compliance Matrix: (Units=1/GPa)
#
#
# Indices 1 2 3 4 5 6 
#
# 1 0.037770 -0.014948 -0.012832 0.000000 0.000000 0.000000
# 2 -0.014948 0.016906 0.003024 0.000000 0.000000 0.000000
# 3 -0.012832 0.003024 0.021719 0.000000 0.000000 0.000000
# 4 0.000000 0.000000 0.000000 0.052724 0.000000 0.000000
# 5 0.000000 0.000000 0.000000 0.000000 0.049648 0.000000
# 6 0.000000 0.000000 0.000000 0.000000 0.000000 0.032857
#
#
# Mechanical properties :
#
#
# Convention : Reuss Voigt Hill
#
# Bulk Modulus (GPa) = 37.19892 39.40917 38.30405
# Shear Modulus (GPa) = 18.51195 22.36359 20.43777
#
# Velocity S-wave (km/s) = 3.19012 3.50633 3.35196
# Velocity P-wave (km/s) = 5.83260 6.16908 6.00320
#
# Compressibility (1/GPa) = 0.02688250
#
# Stress axis : x y z
#
# Youngs Moduli (GPa) = 26.47590 59.15232 46.04326
#
# Poissons Ratio (x) = 0.88423 0.59082
# Poissons Ratio (y) = 0.39577 -0.13924
# Poissons Ratio (z) = 0.33973 -0.17889
#
# Static dielectric constant tensor:
#      x y z
#    x 1.614280 0.000000 0.000000 
#    y 0.000000 1.638100 0.000000 
#    z 0.000000 0.000000 1.628390 
# 
# From -- ./inp_files/23132.got.cif
#   From: 2010.05.17/outbox.cif.g08.bks.cpg/sg44_12_cif.got.tgz:23132.got - 2010.06.03 19:37:08.
