data_PCOD9374035
_publ_section_title
;
Structure prediction by ZEFSAII (Michael W. Deem and Ramdas Pophale) SiO2 
 PCOD9374035
Probable space group: I M M 2
;
_chemical_formula_sum "Si O2"
_cell_formula_units_Z 64
_cell_length_a 8.502440
_cell_length_b 21.118766
_cell_length_c 20.112908
_cell_angle_alpha 90.000000
_cell_angle_beta 90.000000
_cell_angle_gamma 90.000000
_cell_volume 3611.494694
_symmetry_space_group_name_H-M "I M M 2"
_symmetry_group_IT_number 44
_symmetry_cell_setting 'orthorhombic'
loop_
_space_group_symop_operation_xyz
x,y,z
-x,-y,z
-x,y,z
x,-y,z
1/2+x,1/2+y,1/2+z
1/2-x,1/2-y,1/2+z
1/2-x,1/2+y,1/2+z
1/2+x,1/2-y,1/2+z
loop_
_atom_site_type_symbol
_atom_site_label
_atom_site_fract_x
_atom_site_fract_y
_atom_site_fract_z
Si Si1 0.184950 0.256118 0.465280
Si Si2 0.187408 0.310869 0.188227
Si Si3 0.812897 0.614457 0.967414
Si Si4 0.312811 0.570842 0.106278
Si Si5 0.187545 0.765687 0.824989
Si Si6 0.311853 0.690674 0.598193
Si Si7 0.190532 0.429223 0.677979
Si Si8 0.690655 0.882051 0.320371
O O1 0.278720 0.189754 0.472070
O O2 0.231140 0.284647 0.393910
O O3 0.233522 0.299752 0.526637
O O4 0.000000 0.242212 0.467431
O O5 0.233594 0.374118 0.149191
O O6 0.263593 0.305072 0.260709
O O7 0.238730 0.250087 0.144367
O O8 0.000000 0.307546 0.195214
O O9 0.757513 0.595052 0.893320
O O10 0.000000 0.603918 0.972642
O O11 0.729779 0.581600 0.029060
O O12 0.500000 0.575973 0.114124
O O13 0.262624 0.500000 0.125862
O O14 0.234491 0.691970 0.812938
O O15 0.000000 0.767258 0.833673
O O16 0.500000 0.693408 0.591233
O O17 0.261473 0.626093 0.633494
O O18 0.233602 0.500000 0.656478
O O19 0.241561 0.418602 0.754694
O O20 0.000000 0.423898 0.676432
O O21 0.500000 0.884567 0.322073
#
# Coordination Sequence:
#
# PCOD9374035 Si02
#       8
#     8   8   8   8   8   8   8   8
#     4  11  21  34  56  84 115 146 184 232 284 333
#     4  11  22  36  58  85 111 145 190 236 283 334
#     4  10  19  33  53  80 111 149 192 230 277 330
#     4  11  24  39  55  79 112 152 193 234 285 340
#     4  10  19  34  57  83 115 147 183 229 281 334
#     4  11  22  36  56  83 113 146 190 236 282 332
#     4  10  20  35  55  80 111 150 193 232 278 335
#     4   8  16  30  50  77 109 145 185 224 265 322
#
# _framework density 17.721194000000001
#
# number of rings (size 3 to 8) (size 9 to 14) (size 15 to 20)
#    0.000    1.750    2.500    3.750    0.000    2.750 
#    0.000    1.875    0.000    0.750    0.000    0.000 
#    0.000    0.000    0.000    0.000    0.000    0.000 
#
# Total GULP energy -178696.275089 kJ/mol
# GULP energy per Si atom -5584.258597 kJ/mol
# Density = 1.768086 g / cm^3
# Si number density = 17.721194 Si / 1000 Ang^3
#
#
#
# Elastic Constant Matrix: (Units=GPa)
#
#
# Indices 1 2 3 4 5 6 
#
# 1 28.5785 8.1640 13.4230 0.0000 0.0000 0.0000
# 2 8.1640 82.3407 40.8179 0.0000 0.0000 0.0000
# 3 13.4230 40.8179 103.8992 0.0000 0.0000 0.0000
# 4 0.0000 0.0000 0.0000 20.9583 0.0000 0.0000
# 5 0.0000 0.0000 0.0000 0.0000 28.3111 0.0000
# 6 0.0000 0.0000 0.0000 0.0000 0.0000 14.4632
#
#
#
# Elastic Compliance Matrix: (Units=1/GPa)
#
#
# Indices 1 2 3 4 5 6 
#
# 1 0.037428 -0.001632 -0.004194 0.000000 0.000000 0.000000
# 2 -0.001632 0.015153 -0.005742 0.000000 0.000000 0.000000
# 3 -0.004194 -0.005742 0.012422 0.000000 0.000000 0.000000
# 4 0.000000 0.000000 0.000000 0.047714 0.000000 0.000000
# 5 0.000000 0.000000 0.000000 0.000000 0.035322 0.000000
# 6 0.000000 0.000000 0.000000 0.000000 0.000000 0.069141
#
#
# Mechanical properties :
#
#
# Convention : Reuss Voigt Hill
#
# Bulk Modulus (GPa) = 23.88543 37.73648 30.81095
# Shear Modulus (GPa) = 19.66402 22.90742 21.28572
#
# Velocity S-wave (km/s) = 3.33473 3.59925 3.46951
# Velocity P-wave (km/s) = 5.32306 6.21399 5.78570
#
# Compressibility (1/GPa) = 0.04186653
#
# Stress axis : x y z
#
# Youngs Moduli (GPa) = 26.71827 65.99365 80.49929
#
# Poissons Ratio (x) = 0.10768 0.33764
# Poissons Ratio (y) = 0.04360 0.46224
# Poissons Ratio (z) = 0.11207 0.37895
#
# Static dielectric constant tensor:
#      x y z
#    x 1.599060 0.000000 0.000000 
#    y 0.000000 1.590790 0.000000 
#    z 0.000000 0.000000 1.606480 
# 
# From -- ./inp_files/20763.got.cif
#   From: 2010.05.17/outbox.cif.g08.bks.cpg/sg44_11_cif.got.tgz:20763.got - 2010.06.03 19:37:08.
