data_PCOD9374965
_publ_section_title
;
Structure prediction by ZEFSAII (Michael W. Deem and Ramdas Pophale) SiO2 
 PCOD9374965
Probable space group: I M M 2
;
_chemical_formula_sum "Si O2"
_cell_formula_units_Z 48
_cell_length_a 8.712090
_cell_length_b 16.928637
_cell_length_c 18.900715
_cell_angle_alpha 90.000000
_cell_angle_beta 90.000000
_cell_angle_gamma 90.000000
_cell_volume 2787.549443
_symmetry_space_group_name_H-M "I M M 2"
_symmetry_group_IT_number 44
_symmetry_cell_setting 'orthorhombic'
loop_
_space_group_symop_operation_xyz
x,y,z
-x,-y,z
-x,y,z
x,-y,z
1/2+x,1/2+y,1/2+z
1/2-x,1/2-y,1/2+z
1/2-x,1/2+y,1/2+z
1/2+x,1/2-y,1/2+z
loop_
_atom_site_type_symbol
_atom_site_label
_atom_site_fract_x
_atom_site_fract_y
_atom_site_fract_z
Si Si1 0.816047 0.660673 0.687660
Si Si2 0.683691 0.333033 0.421922
Si Si3 0.684360 0.000000 0.946183
Si Si4 0.684109 0.239522 0.564896
Si Si5 0.185412 0.590517 0.973957
Si Si6 0.817082 0.815232 0.342859
Si Si7 0.813610 0.500000 0.610063
O O1 0.764431 0.731040 0.635707
O O2 0.744180 0.667006 0.764916
O O3 0.764456 0.579093 0.650251
O O4 0.000000 0.659842 0.693444
O O5 0.500000 0.333326 0.415516
O O6 0.751224 0.419900 0.412907
O O7 0.721837 0.299975 0.500686
O O8 0.753888 0.269501 0.368468
O O9 0.500000 0.000000 0.943846
O O10 0.735985 0.000000 0.028581
O O11 0.500000 0.240690 0.574816
O O12 0.728891 0.153252 0.534999
O O13 0.229077 0.500000 0.987937
O O14 0.254821 0.622306 0.900622
O O15 0.000000 0.594542 0.967707
O O16 0.000000 0.815287 0.343984
O O17 0.000000 0.500000 0.609406
#
# Coordination Sequence:
#
# PCOD9374965 Si02
#       7
#     8   8   4   8   8   8   4
#     4  11  21  36  55  78 110 149 183 219 270 331
#     4  10  20  36  56  81 110 147 186 225 271 326
#     4  11  19  33  57  87 115 142 181 228 271 319
#     4   9  18  33  54  80 107 139 182 226 270 319
#     4   9  19  37  59  81 108 144 182 222 271 330
#     4  11  23  37  54  80 112 145 182 229 276 326
#     4   9  20  33  51  81 113 144 177 212 265 327
#
# _framework density 17.219425999999999
#
# number of rings (size 3 to 8) (size 9 to 14) (size 15 to 20)
#    0.000    2.000    1.667    3.750    1.167    3.000 
#    0.000    1.250    1.833    0.000    0.000    0.000 
#    0.000    0.000    0.000    0.000    0.000    0.000 
#
# Total GULP energy -133979.528361 kJ/mol
# GULP energy per Si atom -5582.480348 kJ/mol
# Density = 1.718023 g / cm^3
# Si number density = 17.219426 Si / 1000 Ang^3
#
#
#
# Elastic Constant Matrix: (Units=GPa)
#
#
# Indices 1 2 3 4 5 6 
#
# 1 42.3539 32.6423 18.7200 0.0000 0.0000 0.0000
# 2 32.6423 143.6862 38.9213 0.0000 0.0000 0.0000
# 3 18.7200 38.9213 73.2377 0.0000 0.0000 0.0000
# 4 0.0000 0.0000 0.0000 17.9130 0.0000 0.0000
# 5 0.0000 0.0000 0.0000 0.0000 28.5113 0.0000
# 6 0.0000 0.0000 0.0000 0.0000 0.0000 25.9577
#
#
#
# Elastic Compliance Matrix: (Units=1/GPa)
#
#
# Indices 1 2 3 4 5 6 
#
# 1 0.029956 -0.005527 -0.004720 0.000000 0.000000 0.000000
# 2 -0.005527 0.009150 -0.003450 0.000000 0.000000 0.000000
# 3 -0.004720 -0.003450 0.016694 0.000000 0.000000 0.000000
# 4 0.000000 0.000000 0.000000 0.055825 0.000000 0.000000
# 5 0.000000 0.000000 0.000000 0.000000 0.035074 0.000000
# 6 0.000000 0.000000 0.000000 0.000000 0.000000 0.038524
#
#
# Mechanical properties :
#
#
# Convention : Reuss Voigt Hill
#
# Bulk Modulus (GPa) = 35.20274 48.87170 42.03722
# Shear Modulus (GPa) = 22.51389 25.74269 24.12829
#
# Velocity S-wave (km/s) = 3.61982 3.87069 3.74736
# Velocity P-wave (km/s) = 6.16107 6.95842 6.57185
#
# Compressibility (1/GPa) = 0.02840688
#
# Stress axis : x y z
#
# Youngs Moduli (GPa) = 33.38198 109.29362 59.90205
#
# Poissons Ratio (x) = 0.60406 0.28273
# Poissons Ratio (y) = 0.18450 0.20665
# Poissons Ratio (z) = 0.15756 0.37704
#
# Static dielectric constant tensor:
#      x y z
#    x 1.575670 0.000000 0.000000 
#    y 0.000000 1.585560 0.000000 
#    z 0.000000 0.000000 1.554050 
# 
# From -- ./inp_files/20333.got.cif
#   From: 2010.05.17/outbox.cif.g08.bks.cpg/sg44_11_cif.got.tgz:20333.got - 2010.06.03 19:37:08.
