data_PCOD9374939
_publ_section_title
;
Structure prediction by ZEFSAII (Michael W. Deem and Ramdas Pophale) SiO2 
 PCOD9374939
Probable space group: I M M 2
;
_chemical_formula_sum "Si O2"
_cell_formula_units_Z 64
_cell_length_a 16.378593
_cell_length_b 21.883685
_cell_length_c 8.546554
_cell_angle_alpha 90.000000
_cell_angle_beta 90.000000
_cell_angle_gamma 90.000000
_cell_volume 3063.289814
_symmetry_space_group_name_H-M "I M M 2"
_symmetry_group_IT_number 44
_symmetry_cell_setting 'orthorhombic'
loop_
_space_group_symop_operation_xyz
x,y,z
-x,-y,z
-x,y,z
x,-y,z
1/2+x,1/2+y,1/2+z
1/2-x,1/2-y,1/2+z
1/2-x,1/2+y,1/2+z
1/2+x,1/2-y,1/2+z
loop_
_atom_site_type_symbol
_atom_site_label
_atom_site_fract_x
_atom_site_fract_y
_atom_site_fract_z
Si Si1 0.590299 0.116587 0.444520
Si Si2 0.409459 0.667165 0.185813
Si Si3 0.652387 0.770556 0.962952
Si Si4 0.407807 0.251378 0.489914
Si Si5 0.254564 0.934068 0.361851
Si Si6 0.909537 0.608613 0.313307
Si Si7 0.268768 0.431219 0.238024
Si Si8 0.221937 0.808748 0.212816
O O1 0.500000 0.121121 0.376536
O O2 0.628122 0.184176 0.459783
O O3 0.648343 0.074792 0.342211
O O4 0.583835 0.098286 0.626092
O O5 0.500000 0.638998 0.164489
O O6 0.414144 0.714820 0.326847
O O7 0.340271 0.619233 0.241050
O O8 0.388932 0.709643 0.035202
O O9 0.599137 0.820981 0.871613
O O10 0.719462 0.744320 0.842930
O O11 0.698645 0.803469 0.104992
O O12 0.500000 0.241446 0.552111
O O13 0.355083 0.291010 0.606828
O O14 0.247564 0.931834 0.550296
O O15 0.213591 0.875733 0.284610
O O16 0.225950 0.000000 0.305668
O O17 0.815604 0.583441 0.333176
O O18 0.000000 0.586836 0.374092
O O19 0.294785 0.500000 0.282134
#
# Coordination Sequence:
#
# PCOD9374939 Si02
#       8
#     8   8   8   8   8   8   8   8
#     4   9  17  33  57  85 115 147 188 243 298 353
#     4  11  23  39  60  91 124 161 208 257 310 366
#     4  12  22  35  60  91 128 162 201 250 317 374
#     4  10  21  37  59  89 122 153 195 255 315 369
#     4  10  21  37  56  81 114 156 204 244 285 358
#     4  10  20  35  59  92 123 154 198 250 305 366
#     4  10  21  40  61  86 120 161 208 254 303 362
#     4  12  22  36  59  86 124 163 204 246 310 367
#
# _framework density 20.892572000000001
#
# number of rings (size 3 to 8) (size 9 to 14) (size 15 to 20)
#    0.000    1.500    2.500    4.125    0.000    1.250 
#    0.000    5.625    0.000    1.125    0.000    0.000 
#    0.000    0.000    0.000    0.000    0.000    0.000 
#
# Total GULP energy -178325.307847 kJ/mol
# GULP energy per Si atom -5572.665870 kJ/mol
# Density = 2.084502 g / cm^3
# Si number density = 20.892572 Si / 1000 Ang^3
#
#
#
# Elastic Constant Matrix: (Units=GPa)
#
#
# Indices 1 2 3 4 5 6 
#
# 1 79.2391 15.9638 0.1538 0.0000 0.0000 0.0000
# 2 15.9638 86.9673 7.5083 0.0000 0.0000 0.0000
# 3 0.1538 7.5083 39.8973 0.0000 0.0000 0.0000
# 4 0.0000 0.0000 0.0000 17.0886 0.0000 0.0000
# 5 0.0000 0.0000 0.0000 0.0000 13.9686 0.0000
# 6 0.0000 0.0000 0.0000 0.0000 0.0000 -14.1401
#
#
#
# Elastic Compliance Matrix: (Units=1/GPa)
#
#
# Indices 1 2 3 4 5 6 
#
# 1 0.013111 -0.002442 0.000409 0.000000 0.000000 0.000000
# 2 -0.002442 0.012143 -0.002276 0.000000 0.000000 0.000000
# 3 0.000409 -0.002276 0.025491 0.000000 0.000000 0.000000
# 4 0.000000 0.000000 0.000000 0.058519 0.000000 0.000000
# 5 0.000000 0.000000 0.000000 0.000000 0.071589 0.000000
# 6 0.000000 0.000000 0.000000 0.000000 0.000000 -0.070721
#
#
# Mechanical properties :
#
#
# Convention : Reuss Voigt Hill
#
# Bulk Modulus (GPa) = 23.73720 28.15059 25.94389
# Shear Modulus (GPa) = 37.65254 15.54859 26.60056
#
# Velocity S-wave (km/s) = 4.24983 2.73099 3.57207
# Velocity P-wave (km/s) = 5.95547 4.84228 5.42749
#
# Compressibility (1/GPa) = 0.04212797
#
# Stress axis : x y z
#
# Youngs Moduli (GPa) = 76.27057 82.34976 39.22939
#
# Poissons Ratio (x) = 0.20110 -0.01605
# Poissons Ratio (y) = 0.18625 0.08928
# Poissons Ratio (z) = -0.03120 0.18741
#
# Static dielectric constant tensor:
#      x y z
#    x 1.836910 0.000000 0.000000 
#    y 0.000000 1.746720 0.000000 
#    z 0.000000 0.000000 1.786550 
# 
# From -- ./inp_files/8452.got.cif
#   From: 2010.05.17/outbox.cif.g08.bks.cpg/sg44_5_cif.got.tgz:8452.got - 2010.06.03 19:37:08.
