data_PCOD9374277
_publ_section_title
;
Structure prediction by ZEFSAII (Michael W. Deem and Ramdas Pophale) SiO2 
 PCOD9374277
Probable space group: I M M 2
;
_chemical_formula_sum "Si O2"
_cell_formula_units_Z 48
_cell_length_a 16.247493
_cell_length_b 16.355127
_cell_length_c 9.062128
_cell_angle_alpha 90.000000
_cell_angle_beta 90.000000
_cell_angle_gamma 90.000000
_cell_volume 2408.077565
_symmetry_space_group_name_H-M "I M M 2"
_symmetry_group_IT_number 44
_symmetry_cell_setting 'orthorhombic'
loop_
_space_group_symop_operation_xyz
x,y,z
-x,-y,z
-x,y,z
x,-y,z
1/2+x,1/2+y,1/2+z
1/2-x,1/2-y,1/2+z
1/2-x,1/2+y,1/2+z
1/2+x,1/2-y,1/2+z
loop_
_atom_site_type_symbol
_atom_site_label
_atom_site_fract_x
_atom_site_fract_y
_atom_site_fract_z
Si Si1 0.819363 0.598262 0.713330
Si Si2 0.404609 0.599334 0.236131
Si Si3 0.213060 0.092672 0.494591
Si Si4 0.830370 0.322049 0.189460
Si Si5 0.282030 0.682766 0.460389
Si Si6 0.000000 0.402181 0.160776
Si Si7 0.500000 0.902062 0.304458
O O1 0.824934 0.500000 0.714014
O O2 0.774052 0.628013 0.567608
O O3 0.912761 0.630201 0.740737
O O4 0.759185 0.621601 0.848547
O O5 0.500000 0.620869 0.244696
O O6 0.397375 0.500000 0.238137
O O7 0.364091 0.631105 0.081754
O O8 0.353835 0.635656 0.372849
O O9 0.282335 0.099907 0.621161
O O10 0.189172 0.000000 0.461549
O O11 0.781480 0.291996 0.331955
O O12 0.920643 0.354589 0.219641
O O13 0.820792 0.253386 0.062714
O O14 0.000000 0.500000 0.192449
O O15 0.000000 0.392645 0.981868
O O16 0.500000 0.000000 0.276915
#
# Coordination Sequence:
#
# PCOD9374277 Si02
#       7
#     8   8   8   8   8   4   4
#     4  10  19  35  60  91 124 159 200 250 306 369
#     4   9  19  37  61  87 116 154 201 249 297 354
#     4   9  17  34  60  86 114 150 195 242 296 360
#     4  11  23  38  60  86 122 163 201 251 307 371
#     4  11  24  39  59  84 124 164 206 247 307 371
#     4  11  22  39  67  97 124 160 209 263 315 371
#     4   9  18  33  61  93 121 156 197 249 306 367
#
# _framework density 19.932912999999999
#
# number of rings (size 3 to 8) (size 9 to 14) (size 15 to 20)
#    0.000    2.000    1.667    2.000    1.167    2.667 
#    0.000    1.667   14.667    3.000    0.000    0.000 
#    0.000    0.000    0.000    0.000    0.000    0.000 
#
# Total GULP energy -133744.790801 kJ/mol
# GULP energy per Si atom -5572.699617 kJ/mol
# Density = 1.988754 g / cm^3
# Si number density = 19.932913 Si / 1000 Ang^3
#
#
#
# Elastic Constant Matrix: (Units=GPa)
#
#
# Indices 1 2 3 4 5 6 
#
# 1 172.5366 48.3641 65.8894 0.0000 0.0000 0.0000
# 2 48.3641 58.8006 34.5722 0.0000 0.0000 0.0000
# 3 65.8894 34.5722 109.7001 0.0000 0.0000 0.0000
# 4 0.0000 0.0000 0.0000 17.5287 0.0000 0.0000
# 5 0.0000 0.0000 0.0000 0.0000 21.6615 0.0000
# 6 0.0000 0.0000 0.0000 0.0000 0.0000 1.1033
#
#
#
# Elastic Compliance Matrix: (Units=1/GPa)
#
#
# Indices 1 2 3 4 5 6 
#
# 1 0.008543 -0.004922 -0.003580 0.000000 0.000000 0.000000
# 2 -0.004922 0.023710 -0.004516 0.000000 0.000000 0.000000
# 3 -0.003580 -0.004516 0.012689 0.000000 0.000000 0.000000
# 4 0.000000 0.000000 0.000000 0.057049 0.000000 0.000000
# 5 0.000000 0.000000 0.000000 0.000000 0.046165 0.000000
# 6 0.000000 0.000000 0.000000 0.000000 0.000000 0.906388
#
#
# Mechanical properties :
#
#
# Convention : Reuss Voigt Hill
#
# Bulk Modulus (GPa) = 52.89187 70.96541 61.92864
# Shear Modulus (GPa) = 4.60032 20.87279 12.73655
#
# Velocity S-wave (km/s) = 1.52083 3.23948 2.53053
# Velocity P-wave (km/s) = 5.44761 7.04782 6.29874
#
# Compressibility (1/GPa) = 0.01890650
#
# Stress axis : x y z
#
# Youngs Moduli (GPa) = 117.06109 42.17636 78.80677
#
# Poissons Ratio (x) = 0.20757 0.28212
# Poissons Ratio (y) = 0.57612 0.35591
# Poissons Ratio (z) = 0.41907 0.19048
#
# Static dielectric constant tensor:
#      x y z
#    x 1.715020 0.000000 0.000000 
#    y 0.000000 1.753570 0.000000 
#    z 0.000000 0.000000 1.703420 
# 
# From -- ./inp_files/7138.got.cif
#   From: 2010.05.17/outbox.cif.g08.bks.cpg/sg44_4_cif.got.tgz:7138.got - 2010.06.03 19:37:08.
