data_PCOD9374311
_publ_section_title
;
Structure prediction by ZEFSAII (Michael W. Deem and Ramdas Pophale) SiO2 
 PCOD9374311
Probable space group: I M M 2
;
_chemical_formula_sum "Si O2"
_cell_formula_units_Z 48
_cell_length_a 8.613545
_cell_length_b 10.584518
_cell_length_c 29.039226
_cell_angle_alpha 90.000000
_cell_angle_beta 90.000000
_cell_angle_gamma 90.000000
_cell_volume 2647.512684
_symmetry_space_group_name_H-M "I M M 2"
_symmetry_group_IT_number 44
_symmetry_cell_setting 'orthorhombic'
loop_
_space_group_symop_operation_xyz
x,y,z
-x,-y,z
-x,y,z
x,-y,z
1/2+x,1/2+y,1/2+z
1/2-x,1/2-y,1/2+z
1/2-x,1/2+y,1/2+z
1/2+x,1/2-y,1/2+z
loop_
_atom_site_type_symbol
_atom_site_label
_atom_site_fract_x
_atom_site_fract_y
_atom_site_fract_z
Si Si1 0.813777 0.000000 0.412730
Si Si2 0.313403 0.351505 0.173550
Si Si3 0.689004 0.500000 0.019005
Si Si4 0.311061 0.500000 0.421860
Si Si5 0.314014 0.748465 0.365744
Si Si6 0.811942 0.248464 0.575389
Si Si7 0.186163 0.000000 0.028231
Si Si8 0.185298 0.647723 0.272501
O O1 0.753815 0.875081 0.387467
O O2 0.760431 0.000000 0.466025
O O3 0.000000 0.000000 0.412472
O O4 0.500000 0.343027 0.177917
O O5 0.275942 0.500000 0.165818
O O6 0.265211 0.274529 0.128399
O O7 0.237736 0.311708 0.221587
O O8 0.500000 0.500000 0.019619
O O9 0.738201 0.373698 0.045721
O O10 0.500000 0.500000 0.421391
O O11 0.260367 0.625974 0.395090
O O12 0.260418 0.500000 0.474888
O O13 0.500000 0.753423 0.367640
O O14 0.260814 0.726463 0.313458
O O15 0.746538 0.375342 0.553624
O O16 0.000000 0.252795 0.574272
O O17 0.000000 0.000000 0.028301
O O18 0.233805 0.500000 0.277710
O O19 0.000000 0.653593 0.276085
#
# Coordination Sequence:
#
# PCOD9374311 Si02
#       8
#     4   8   4   4   8   8   4   8
#     4  11  23  37  54  83 120 151 182 231 286 333
#     4   9  17  32  57  84 109 140 182 229 275 328
#     4   9  18  35  60  85 110 144 190 234 274 323
#     4   9  20  37  58  81 108 146 194 236 270 321
#     4  11  21  38  60  82 110 150 193 231 274 331
#     4  10  19  36  59  84 111 146 189 230 271 326
#     4  11  23  37  52  79 118 153 184 227 280 329
#     4  10  20  34  55  85 116 142 178 230 285 334
#
# _framework density 18.130226
#
# number of rings (size 3 to 8) (size 9 to 14) (size 15 to 20)
#    0.000    2.000    1.667    2.500    0.000    1.333 
#    0.000    4.583    0.000    3.000    0.000    0.000 
#    0.000    0.000    0.000    0.000    0.000    0.000 
#
# Total GULP energy -134027.357927 kJ/mol
# GULP energy per Si atom -5584.473247 kJ/mol
# Density = 1.808896 g / cm^3
# Si number density = 18.130226 Si / 1000 Ang^3
#
#
#
# Elastic Constant Matrix: (Units=GPa)
#
#
# Indices 1 2 3 4 5 6 
#
# 1 34.0070 34.3673 44.0735 0.0000 0.0000 0.0000
# 2 34.3673 151.5205 99.0421 0.0000 0.0000 0.0000
# 3 44.0735 99.0421 188.3567 0.0000 0.0000 0.0000
# 4 0.0000 0.0000 0.0000 -16.6468 0.0000 0.0000
# 5 0.0000 0.0000 0.0000 0.0000 26.0802 0.0000
# 6 0.0000 0.0000 0.0000 0.0000 0.0000 15.6323
#
#
#
# Elastic Compliance Matrix: (Units=1/GPa)
#
#
# Indices 1 2 3 4 5 6 
#
# 1 0.044574 -0.005017 -0.007792 0.000000 0.000000 0.000000
# 2 -0.005017 0.010621 -0.004411 0.000000 0.000000 0.000000
# 3 -0.007792 -0.004411 0.009452 0.000000 0.000000 0.000000
# 4 0.000000 0.000000 0.000000 -0.060071 0.000000 0.000000
# 5 0.000000 0.000000 0.000000 0.000000 0.038343 0.000000
# 6 0.000000 0.000000 0.000000 0.000000 0.000000 0.063970
#
#
# Mechanical properties :
#
#
# Convention : Reuss Voigt Hill
#
# Bulk Modulus (GPa) = 33.10440 80.98335 57.04388
# Shear Modulus (GPa) = 33.02576 18.10655 25.56615
#
# Velocity S-wave (km/s) = 4.27263 3.16364 3.75926
# Velocity P-wave (km/s) = 6.52989 7.62295 7.09749
#
# Compressibility (1/GPa) = 0.03020746
#
# Stress axis : x y z
#
# Youngs Moduli (GPa) = 22.43446 94.15497 105.80277
#
# Poissons Ratio (x) = 0.47237 0.82440
# Poissons Ratio (y) = 0.11255 0.46667
# Poissons Ratio (z) = 0.17481 0.41529
#
# Static dielectric constant tensor:
#      x y z
#    x 1.613610 0.000000 0.000000 
#    y 0.000000 1.588520 0.000000 
#    z 0.000000 0.000000 1.611300 
# 
# From -- ./inp_files/26992.got.cif
#   From: 2010.05.17/outbox.cif.g08.bks.cpg/sg44_14_cif.got.tgz:26992.got - 2010.06.03 19:37:08.
