data_PCOD9374288
_publ_section_title
;
Structure prediction by ZEFSAII (Michael W. Deem and Ramdas Pophale) SiO2 
 PCOD9374288
Probable space group: I M M 2
;
_chemical_formula_sum "Si O2"
_cell_formula_units_Z 34
_cell_length_a 8.098773
_cell_length_b 7.685105
_cell_length_c 28.107279
_cell_angle_alpha 90.000000
_cell_angle_beta 90.000000
_cell_angle_gamma 90.000000
_cell_volume 1749.394821
_symmetry_space_group_name_H-M "I M M 2"
_symmetry_group_IT_number 44
_symmetry_cell_setting 'orthorhombic'
loop_
_space_group_symop_operation_xyz
x,y,z
-x,-y,z
-x,y,z
x,-y,z
1/2+x,1/2+y,1/2+z
1/2-x,1/2-y,1/2+z
1/2-x,1/2+y,1/2+z
1/2+x,1/2-y,1/2+z
loop_
_atom_site_type_symbol
_atom_site_label
_atom_site_fract_x
_atom_site_fract_y
_atom_site_fract_z
Si Si1 0.816183 0.711326 0.935010
Si Si2 0.000000 0.000000 0.296345
Si Si3 0.802437 0.196271 0.640496
Si Si4 0.500000 0.805620 0.871988
Si Si5 0.308734 0.712100 0.036845
Si Si6 0.685566 0.500000 0.703595
O O1 0.808029 0.500000 0.933516
O O2 0.663339 0.778190 0.904102
O O3 0.000000 0.763696 0.919028
O O4 0.788963 0.764977 0.989947
O O5 0.844121 0.000000 0.260162
O O6 0.000000 0.165904 0.330096
O O7 0.743094 0.264228 0.588801
O O8 0.767469 0.328139 0.682737
O O9 0.000000 0.184977 0.634928
O O10 0.739203 0.000000 0.648984
O O11 0.500000 0.000000 0.852724
O O12 0.500000 0.767726 0.031258
O O13 0.309023 0.500000 0.038102
O O14 0.500000 0.500000 0.683530
#
# Coordination Sequence:
#
# PCOD9374288 Si02
#       6
#     8   2   8   4   8   4
#     4  10  19  35  63  94 130 172 210 258 318 385
#     4  10  26  48  66  86 118 170 224 266 340 368
#     4   9  18  35  60  90 127 166 205 255 309 373
#     4  12  24  44  70  90 124 168 216 280 328 381
#     4   8  14  28  54  87 126 175 211 240 304 380
#     4  10  23  39  60  88 115 159 214 264 319 369
#
# _framework density 19.435293000000001
#
# number of rings (size 3 to 8) (size 9 to 14) (size 15 to 20)
#    0.353    2.118    2.353    1.765    0.000    2.824 
#    2.118    4.706    0.000    0.000    0.000    0.000 
#    0.000    0.000    0.000    0.000    0.000    0.000 
#
# Total GULP energy -94783.556386 kJ/mol
# GULP energy per Si atom -5575.503317 kJ/mol
# Density = 1.939106 g / cm^3
# Si number density = 19.435293 Si / 1000 Ang^3
#
#
#
# Elastic Constant Matrix: (Units=GPa)
#
#
# Indices 1 2 3 4 5 6 
#
# 1 85.0750 24.9853 40.9254 0.0000 0.0000 0.0000
# 2 24.9853 98.9971 62.4806 0.0000 0.0000 0.0000
# 3 40.9254 62.4806 140.6729 0.0000 0.0000 0.0000
# 4 0.0000 0.0000 0.0000 0.1184 0.0000 0.0000
# 5 0.0000 0.0000 0.0000 0.0000 2.8639 0.0000
# 6 0.0000 0.0000 0.0000 0.0000 0.0000 29.0979
#
#
#
# Elastic Compliance Matrix: (Units=1/GPa)
#
#
# Indices 1 2 3 4 5 6 
#
# 1 0.013790 -0.001318 -0.003427 0.000000 0.000000 0.000000
# 2 -0.001318 0.014162 -0.005907 0.000000 0.000000 0.000000
# 3 -0.003427 -0.005907 0.010729 0.000000 0.000000 0.000000
# 4 0.000000 0.000000 0.000000 8.443317 0.000002 -0.000003
# 5 0.000000 0.000000 0.000000 0.000002 0.349180 0.000000
# 6 0.000000 0.000000 0.000000 -0.000003 0.000000 0.034367
#
#
# Mechanical properties :
#
#
# Convention : Reuss Voigt Hill
#
# Bulk Modulus (GPa) = 57.54171 64.61418 61.07794
# Shear Modulus (GPa) = 0.56226 19.50629 10.03427
#
# Velocity S-wave (km/s) = 0.53845 3.17148 2.27467
# Velocity P-wave (km/s) = 5.48249 6.83587 6.19624
#
# Compressibility (1/GPa) = 0.01737870
#
# Stress axis : x y z
#
# Youngs Moduli (GPa) = 72.51818 70.61249 93.20502
#
# Poissons Ratio (x) = 0.09305 0.31937
# Poissons Ratio (y) = 0.09556 0.55053
# Poissons Ratio (z) = 0.24848 0.41709
#
# Static dielectric constant tensor:
#      x y z
#    x 1.694640 0.000000 0.000000 
#    y 0.000000 1.662900 0.000000 
#    z 0.000000 0.000000 1.657920 
# 
# From -- ./inp_files/25921.got.cif
#   From: 2010.05.17/outbox.cif.g08.bks.cpg/sg44_13_cif.got.tgz:25921.got - 2010.06.03 19:37:08.
