data_PCOD9374706
_publ_section_title
;
Structure prediction by ZEFSAII (Michael W. Deem and Ramdas Pophale) SiO2 
 PCOD9374706
Probable space group: I M M 2
;
_chemical_formula_sum "Si O2"
_cell_formula_units_Z 58
_cell_length_a 7.763677
_cell_length_b 14.429008
_cell_length_c 24.082220
_cell_angle_alpha 90.000000
_cell_angle_beta 90.000000
_cell_angle_gamma 90.000000
_cell_volume 2697.742243
_symmetry_space_group_name_H-M "I M M 2"
_symmetry_group_IT_number 44
_symmetry_cell_setting 'orthorhombic'
loop_
_space_group_symop_operation_xyz
x,y,z
-x,-y,z
-x,y,z
x,-y,z
1/2+x,1/2+y,1/2+z
1/2-x,1/2-y,1/2+z
1/2-x,1/2+y,1/2+z
1/2+x,1/2-y,1/2+z
loop_
_atom_site_type_symbol
_atom_site_label
_atom_site_fract_x
_atom_site_fract_y
_atom_site_fract_z
Si Si1 0.199642 0.730281 0.794560
Si Si2 0.794505 0.275922 0.991625
Si Si3 0.710739 0.896113 0.391877
Si Si4 0.190765 0.400250 0.420511
Si Si5 0.788277 0.894471 0.721000
Si Si6 0.704152 0.268874 0.119192
Si Si7 0.798401 0.895342 0.193708
Si Si8 0.500000 0.500000 0.371905
O O1 0.275525 0.681017 0.848548
O O2 0.275646 0.823125 0.767743
O O3 0.206747 0.655000 0.744916
O O4 0.000000 0.748658 0.806594
O O5 0.741481 0.362281 0.953209
O O6 0.723177 0.183718 0.962010
O O7 0.000000 0.268472 0.988872
O O8 0.743998 0.285954 0.055323
O O9 0.500000 0.897096 0.388450
O O10 0.769605 0.000000 0.379038
O O11 0.194379 0.500000 0.452382
O O12 0.346919 0.419453 0.378020
O O13 0.000000 0.391011 0.395635
O O14 0.737730 0.849388 0.661863
O O15 0.000000 0.895295 0.723596
O O16 0.732242 0.000000 0.727967
O O17 0.500000 0.262497 0.126107
O O18 0.777880 0.171552 0.140939
O O19 0.000000 0.898346 0.207825
O O20 0.736860 0.000000 0.184574
#
# Coordination Sequence:
#
# PCOD9374706 Si02
#       8
#     8   8   8   8   8   8   8   2
#     4   9  17  33  58  84 109 142 185 232 279 333
#     4  11  20  34  52  74 111 154 196 242 289 346
#     4   9  19  34  54  81 112 150 192 235 285 343
#     4   9  17  31  52  76 105 144 188 237 287 338
#     4   8  15  30  53  79 107 133 169 225 287 344
#     4  10  21  34  51  76 104 142 186 231 282 341
#     4  10  20  34  53  80 110 141 175 223 286 346
#     4   8  14  32  52  78 102 140 194 232 292 330
#
# _framework density 21.499459999999999
#
# number of rings (size 3 to 8) (size 9 to 14) (size 15 to 20)
#    0.414    2.207    0.690    2.483    0.000    2.759 
#    0.000    2.069    0.000   15.310    0.000    0.000 
#    0.000    0.000    0.000    0.000    0.000    0.000 
#
# Total GULP energy -161549.433561 kJ/mol
# GULP energy per Si atom -5570.670123 kJ/mol
# Density = 2.145053 g / cm^3
# Si number density = 21.499460 Si / 1000 Ang^3
#
#
#
# Elastic Constant Matrix: (Units=GPa)
#
#
# Indices 1 2 3 4 5 6 
#
# 1 77.9485 14.6559 4.2225 0.0000 0.0000 0.0000
# 2 14.6559 179.4025 73.0158 0.0000 0.0000 0.0000
# 3 4.2225 73.0158 125.2025 0.0000 0.0000 0.0000
# 4 0.0000 0.0000 0.0000 6.9537 0.0000 0.0000
# 5 0.0000 0.0000 0.0000 0.0000 15.3177 0.0000
# 6 0.0000 0.0000 0.0000 0.0000 0.0000 0.0756
#
#
#
# Elastic Compliance Matrix: (Units=1/GPa)
#
#
# Indices 1 2 3 4 5 6 
#
# 1 0.013035 -0.001162 0.000238 0.000000 0.000000 0.000000
# 2 -0.001162 0.007412 -0.004284 0.000000 0.000000 0.000000
# 3 0.000238 -0.004284 0.010477 0.000000 0.000000 0.000000
# 4 0.000000 0.000000 0.000000 0.143809 0.000000 0.000000
# 5 0.000000 0.000000 0.000000 0.000000 0.065284 0.000000
# 6 0.000000 0.000000 0.000000 0.000000 0.000000 13.228767
#
#
# Mechanical properties :
#
#
# Convention : Reuss Voigt Hill
#
# Bulk Modulus (GPa) = 48.75840 62.92689 55.84265
# Shear Modulus (GPa) = 0.37075 23.84668 12.10872
#
# Velocity S-wave (km/s) = 0.41572 3.33404 2.37578
# Velocity P-wave (km/s) = 4.79151 6.64483 5.79277
#
# Compressibility (1/GPa) = 0.02050928
#
# Stress axis : x y z
#
# Youngs Moduli (GPa) = 76.71944 134.91019 95.44592
#
# Poissons Ratio (x) = 0.15672 -0.02270
# Poissons Ratio (y) = 0.08912 0.40885
# Poissons Ratio (z) = -0.01825 0.57790
#
# Static dielectric constant tensor:
#      x y z
#    x 1.800260 0.000000 0.000000 
#    y 0.000000 1.797720 0.000000 
#    z 0.000000 0.000000 1.778960 
# 
# From -- ./inp_files/25070.got.cif
#   From: 2010.05.17/outbox.cif.g08.bks.cpg/sg44_13_cif.got.tgz:25070.got - 2010.06.03 19:37:08.
