data_PCOD9374794
_publ_section_title
;
Structure prediction by ZEFSAII (Michael W. Deem and Ramdas Pophale) SiO2 
 PCOD9374794
Probable space group: I M M 2
;
_chemical_formula_sum "Si O2"
_cell_formula_units_Z 48
_cell_length_a 8.833055
_cell_length_b 23.225538
_cell_length_c 11.906303
_cell_angle_alpha 90.000000
_cell_angle_beta 90.000000
_cell_angle_gamma 90.000000
_cell_volume 2442.607285
_symmetry_space_group_name_H-M "I M M 2"
_symmetry_group_IT_number 44
_symmetry_cell_setting 'orthorhombic'
loop_
_space_group_symop_operation_xyz
x,y,z
-x,-y,z
-x,y,z
x,-y,z
1/2+x,1/2+y,1/2+z
1/2-x,1/2-y,1/2+z
1/2-x,1/2+y,1/2+z
1/2+x,1/2-y,1/2+z
loop_
_atom_site_type_symbol
_atom_site_label
_atom_site_fract_x
_atom_site_fract_y
_atom_site_fract_z
Si Si1 0.681058 0.433650 0.146940
Si Si2 0.171883 0.931983 0.033533
Si Si3 0.818185 0.264285 0.516817
Si Si4 0.319202 0.857856 0.206480
Si Si5 0.322037 0.860129 0.845332
Si Si6 0.320043 0.855792 0.468625
O O1 0.500000 0.433255 0.148287
O O2 0.730576 0.500000 0.169471
O O3 0.739115 0.387828 0.239262
O O4 0.742255 0.409755 0.028995
O O5 0.224656 0.909979 0.154259
O O6 0.000000 0.911902 0.008438
O O7 0.173931 0.000000 0.025586
O O8 0.288010 0.904828 0.945586
O O9 0.783531 0.303564 0.625671
O O10 0.772570 0.299908 0.403809
O O11 0.738223 0.203309 0.523234
O O12 0.000000 0.256986 0.512633
O O13 0.500000 0.868141 0.195567
O O14 0.283988 0.850527 0.336697
O O15 0.500000 0.856082 0.821240
O O16 0.500000 0.860766 0.481648
#
# Coordination Sequence:
#
# PCOD9374794 Si02
#       6
#     8   8   8   8   8   8
#     4  11  25  43  62  87 123 167 210 253 306 366
#     4  10  20  34  56  87 119 153 195 242 295 353
#     4   9  20  39  61  88 120 153 193 246 306 365
#     4   9  21  40  58  82 116 153 197 246 297 354
#     4  10  21  38  62  92 122 156 200 250 302 357
#     4  11  24  40  61  89 119 158 203 250 304 363
#
# _framework density 19.651135
#
# number of rings (size 3 to 8) (size 9 to 14) (size 15 to 20)
#    0.000    2.000    0.000    3.500    2.333   10.000 
#    0.000    3.333    0.000    0.000    0.000    0.000 
#    0.000    0.000    0.000    0.000    0.000    0.000 
#
# Total GULP energy -133975.790772 kJ/mol
# GULP energy per Si atom -5582.324616 kJ/mol
# Density = 1.960641 g / cm^3
# Si number density = 19.651135 Si / 1000 Ang^3
#
#
#
# Elastic Constant Matrix: (Units=GPa)
#
#
# Indices 1 2 3 4 5 6 
#
# 1 17.4123 14.6229 16.0855 0.0000 0.0000 0.0000
# 2 14.6229 59.9452 13.6210 0.0000 0.0000 0.0000
# 3 16.0855 13.6210 80.9079 0.0001 0.0000 0.0000
# 4 0.0000 0.0000 0.0001 16.2750 0.0000 0.0000
# 5 0.0000 0.0000 0.0000 0.0000 15.0475 0.0000
# 6 0.0000 0.0000 0.0000 0.0000 0.0000 29.4562
#
#
#
# Elastic Compliance Matrix: (Units=1/GPa)
#
#
# Indices 1 2 3 4 5 6 
#
# 1 0.085093 -0.017586 -0.013957 0.000000 0.000000 0.000000
# 2 -0.017586 0.020980 -0.000036 0.000000 0.000000 0.000000
# 3 -0.013957 -0.000036 0.015141 0.000000 0.000000 0.000000
# 4 0.000000 0.000000 0.000000 0.061444 0.000000 0.000000
# 5 0.000000 0.000000 0.000000 0.000000 0.066456 0.000000
# 6 0.000000 0.000000 0.000000 0.000000 0.000000 0.033949
#
#
# Mechanical properties :
#
#
# Convention : Reuss Voigt Hill
#
# Bulk Modulus (GPa) = 17.22474 27.43604 22.33039
# Shear Modulus (GPa) = 13.67723 19.75147 16.71435
#
# Velocity S-wave (km/s) = 2.64105 3.17378 2.91959
# Velocity P-wave (km/s) = 4.25258 5.23664 4.77005
#
# Compressibility (1/GPa) = 0.05805604
#
# Stress axis : x y z
#
# Youngs Moduli (GPa) = 11.75189 47.66468 66.04781
#
# Poissons Ratio (x) = 0.83823 0.92182
# Poissons Ratio (y) = 0.20667 0.00236
# Poissons Ratio (z) = 0.16402 0.00170
#
# Static dielectric constant tensor:
#      x y z
#    x 1.668730 0.000000 0.000000 
#    y 0.000000 1.677580 0.000000 
#    z 0.000000 0.000000 1.715440 
# 
# From -- ./inp_files/11149.got.cif
#   From: 2010.05.17/outbox.cif.g08.bks.cpg/sg44_6_cif.got.tgz:11149.got - 2010.06.03 19:37:08.
