data_PCOD9374403
_publ_section_title
;
Structure prediction by ZEFSAII (Michael W. Deem and Ramdas Pophale) SiO2 
 PCOD9374403
Probable space group: I M M 2
;
_chemical_formula_sum "Si O2"
_cell_formula_units_Z 40
_cell_length_a 11.824572
_cell_length_b 26.815062
_cell_length_c 5.596013
_cell_angle_alpha 90.000000
_cell_angle_beta 90.000000
_cell_angle_gamma 90.000000
_cell_volume 1774.364951
_symmetry_space_group_name_H-M "I M M 2"
_symmetry_group_IT_number 44
_symmetry_cell_setting 'orthorhombic'
loop_
_space_group_symop_operation_xyz
x,y,z
-x,-y,z
-x,y,z
x,-y,z
1/2+x,1/2+y,1/2+z
1/2-x,1/2-y,1/2+z
1/2-x,1/2+y,1/2+z
1/2+x,1/2-y,1/2+z
loop_
_atom_site_type_symbol
_atom_site_label
_atom_site_fract_x
_atom_site_fract_y
_atom_site_fract_z
Si Si1 0.238940 0.686245 0.659340
Si Si2 0.839489 0.941481 0.410787
Si Si3 0.364332 0.297232 0.159334
Si Si4 0.339504 0.441484 0.408019
Si Si5 0.129121 0.582083 0.659375
O O1 0.310745 0.682795 0.410872
O O2 0.174130 0.738935 0.659337
O O3 0.149293 0.641283 0.659335
O O4 0.310737 0.682794 0.907813
O O5 0.880239 0.919831 0.159404
O O6 0.703975 0.938140 0.380046
O O7 0.869345 0.000000 0.412994
O O8 0.875840 0.918790 0.659401
O O9 0.500000 0.301676 0.159317
O O10 0.369377 0.500000 0.405798
O O11 0.203988 0.438152 0.438750
O O12 0.000000 0.568090 0.659375
#
# Coordination Sequence:
#
# PCOD9374403 Si02
#       5
#     8   8   8   8   8
#     4  10  22  35  58  84 102 133 178 208 251 313
#     4   8  16  29  43  63  98 143 175 198 245 305
#     4  10  21  41  58  76 106 138 166 212 263 307
#     4   8  16  29  43  63  98 143 175 198 245 305
#     4  10  20  31  47  75 110 140 171 215 249 292
#
# _framework density 22.543278000000001
#
# number of rings (size 3 to 8) (size 9 to 14) (size 15 to 20)
#    1.200    1.600    0.000    1.200    2.800    2.400 
#    0.000    4.000    0.000    0.000    0.000    0.000 
#    0.000   19.200    0.000    0.000    0.000    0.000 
#
# Total GULP energy -111358.169142 kJ/mol
# GULP energy per Si atom -5567.908457 kJ/mol
# Density = 2.249197 g / cm^3
# Si number density = 22.543278 Si / 1000 Ang^3
#
#
#
# Elastic Constant Matrix: (Units=GPa)
#
#
# Indices 1 2 3 4 5 6 
#
# 1 187.2219 1.1602 40.1087 -0.0008 0.0012 -0.0005
# 2 1.1602 71.9662 16.6814 -0.0013 0.0001 -0.0051
# 3 40.1087 16.6814 240.7002 0.0055 0.0300 -0.0202
# 4 -0.0008 -0.0013 0.0055 28.7468 -0.0015 -0.0185
# 5 0.0012 0.0001 0.0300 -0.0015 9.7535 -0.0005
# 6 -0.0005 -0.0051 -0.0202 -0.0185 -0.0005 124.7546
#
#
#
# Elastic Compliance Matrix: (Units=1/GPa)
#
#
# Indices 1 2 3 4 5 6 
#
# 1 0.005540 0.000127 -0.000932 0.000000 0.000002 0.000000
# 2 0.000127 0.014125 -0.001000 0.000001 0.000003 0.000000
# 3 -0.000932 -0.001000 0.004379 -0.000001 -0.000013 0.000001
# 4 0.000000 0.000001 -0.000001 0.034786 0.000005 0.000005
# 5 0.000002 0.000003 -0.000013 0.000005 0.102527 0.000000
# 6 0.000000 0.000000 0.000001 0.000005 0.000000 0.008016
#
#
# Mechanical properties :
#
#
# Convention : Reuss Voigt Hill
#
# Bulk Modulus (GPa) = 48.93835 68.42100 58.67968
# Shear Modulus (GPa) = 27.80939 62.11352 44.96145
#
# Velocity S-wave (km/s) = 3.51607 5.25479 4.47077
# Velocity P-wave (km/s) = 6.18381 8.19963 7.26200
#
# Compressibility (1/GPa) = 0.02043387
#
# Stress axis : x y z
#
# Youngs Moduli (GPa) = 180.50142 70.79559 228.35492
#
# Poissons Ratio (x) = -0.00897 0.21282
# Poissons Ratio (y) = -0.02287 0.22836
# Poissons Ratio (z) = 0.16822 0.07080
#
# Static dielectric constant tensor:
#      x y z
#    x 1.806550 0.000000 0.000010 
#    y 0.000000 1.843700 0.000000 
#    z 0.000010 0.000000 1.889540 
# 
# From -- ./inp_files/1148.got.cif
#   From: 2010.05.17/outbox.cif.g08.bks.cpg/sg44_1_cif.got.tgz:1148.got - 2010.06.03 19:37:08.
