data_PCOD9374245
_publ_section_title
;
Structure prediction by ZEFSAII (Michael W. Deem and Ramdas Pophale) SiO2 
 PCOD9374245
Probable space group: I M M 2
;
_chemical_formula_sum "Si O2"
_cell_formula_units_Z 58
_cell_length_a 7.928085
_cell_length_b 25.043328
_cell_length_c 13.759500
_cell_angle_alpha 90.000000
_cell_angle_beta 90.000000
_cell_angle_gamma 90.000000
_cell_volume 2731.888638
_symmetry_space_group_name_H-M "I M M 2"
_symmetry_group_IT_number 44
_symmetry_cell_setting 'orthorhombic'
loop_
_space_group_symop_operation_xyz
x,y,z
-x,-y,z
-x,y,z
x,-y,z
1/2+x,1/2+y,1/2+z
1/2-x,1/2-y,1/2+z
1/2-x,1/2+y,1/2+z
1/2+x,1/2-y,1/2+z
loop_
_atom_site_type_symbol
_atom_site_label
_atom_site_fract_x
_atom_site_fract_y
_atom_site_fract_z
Si Si1 0.796513 0.438738 0.201470
Si Si2 0.306438 0.185700 0.159399
Si Si3 0.796470 0.627746 0.386337
Si Si4 0.303652 0.258357 0.480160
Si Si5 0.310073 0.576540 0.581026
Si Si6 0.693868 0.662410 0.864032
Si Si7 0.000000 0.500000 0.630433
Si Si8 0.703014 0.560287 0.978067
O O1 0.739741 0.500000 0.224375
O O2 0.741184 0.395068 0.281276
O O3 0.000000 0.439338 0.204199
O O4 0.744461 0.427391 0.090476
O O5 0.500000 0.178342 0.129412
O O6 0.232818 0.232362 0.093805
O O7 0.200595 0.134344 0.129006
O O8 0.291895 0.188096 0.274170
O O9 0.742768 0.687230 0.420664
O O10 0.725765 0.586728 0.466996
O O11 0.000000 0.626248 0.390042
O O12 0.500000 0.248103 0.465270
O O13 0.200851 0.207433 0.445731
O O14 0.500000 0.556167 0.595273
O O15 0.151840 0.545016 0.623859
O O16 0.500000 0.653558 0.834597
O O17 0.764641 0.606641 0.905825
O O18 0.500000 0.559593 0.969711
O O19 0.765733 0.500000 0.956403
#
# Coordination Sequence:
#
# PCOD9374245 Si02
#       8
#     8   8   8   8   8   8   2   8
#     4   9  19  33  56  84 120 161 200 245 304 364
#     4  11  22  43  65  90 127 162 203 263 320 375
#     4  10  19  35  58  85 126 166 206 260 317 374
#     4  11  23  40  62  91 123 159 203 255 312 375
#     4  11  22  38  60  87 126 173 213 268 321 377
#     4  11  23  41  66  93 120 161 207 250 313 380
#     4  12  22  40  56  90 128 166 230 264 314 378
#     4   9  20  40  61  85 119 154 199 256 303 363
#
# _framework density 21.230733000000001
#
# number of rings (size 3 to 8) (size 9 to 14) (size 15 to 20)
#    0.000    1.655    1.379    5.172    0.966    3.310 
#    1.241    2.759    0.000    0.000    0.000    0.000 
#    0.000    0.000    0.000    0.000    0.000    0.000 
#
# Total GULP energy -161609.137150 kJ/mol
# GULP energy per Si atom -5572.728867 kJ/mol
# Density = 2.118241 g / cm^3
# Si number density = 21.230733 Si / 1000 Ang^3
#
#
#
# Elastic Constant Matrix: (Units=GPa)
#
#
# Indices 1 2 3 4 5 6 
#
# 1 101.4136 -4.9623 -4.1124 0.0000 0.0000 0.0000
# 2 -4.9623 53.3282 31.0775 0.0001 0.0000 0.0000
# 3 -4.1124 31.0775 77.1715 0.0001 0.0001 0.0001
# 4 0.0000 0.0001 0.0001 9.1480 0.0000 0.0000
# 5 0.0000 0.0000 0.0001 0.0000 25.3586 0.0000
# 6 0.0000 0.0000 0.0001 0.0000 0.0000 62.5022
#
#
#
# Elastic Compliance Matrix: (Units=1/GPa)
#
#
# Indices 1 2 3 4 5 6 
#
# 1 0.009908 0.000803 0.000205 0.000000 0.000000 0.000000
# 2 0.000803 0.024567 -0.009851 0.000000 0.000000 0.000000
# 3 0.000205 -0.009851 0.016936 0.000000 0.000000 0.000000
# 4 0.000000 0.000000 0.000000 0.109314 0.000000 0.000000
# 5 0.000000 0.000000 0.000000 0.000000 0.039434 0.000000
# 6 0.000000 0.000000 0.000000 0.000000 0.000000 0.015999
#
#
# Mechanical properties :
#
#
# Convention : Reuss Voigt Hill
#
# Bulk Modulus (GPa) = 29.65170 30.65767 30.15469
# Shear Modulus (GPa) = 20.40093 33.39578 26.89836
#
# Velocity S-wave (km/s) = 3.10323 3.97040 3.56329
# Velocity P-wave (km/s) = 5.18042 5.95738 5.58243
#
# Compressibility (1/GPa) = 0.03372488
#
# Stress axis : x y z
#
# Youngs Moduli (GPa) = 100.92660 40.70500 59.04602
#
# Poissons Ratio (x) = -0.03267 -0.01209
# Poissons Ratio (y) = -0.08101 0.58164
# Poissons Ratio (z) = -0.02067 0.40097
#
# Static dielectric constant tensor:
#      x y z
#    x 1.756180 0.000000 0.000000 
#    y 0.000000 1.763890 0.000000 
#    z 0.000000 0.000000 1.817850 
# 
# From -- ./inp_files/11290.got.cif
#   From: 2010.05.17/outbox.cif.g08.bks.cpg/sg44_6_cif.got.tgz:11290.got - 2010.06.03 19:37:08.
