data_PCOD9374759
_publ_section_title
;
Structure prediction by ZEFSAII (Michael W. Deem and Ramdas Pophale) SiO2 
 PCOD9374759
Probable space group: I M M 2
;
_chemical_formula_sum "Si O2"
_cell_formula_units_Z 56
_cell_length_a 8.435115
_cell_length_b 22.845738
_cell_length_c 14.921559
_cell_angle_alpha 90.000000
_cell_angle_beta 90.000000
_cell_angle_gamma 90.000000
_cell_volume 2875.480324
_symmetry_space_group_name_H-M "I M M 2"
_symmetry_group_IT_number 44
_symmetry_cell_setting 'orthorhombic'
loop_
_space_group_symop_operation_xyz
x,y,z
-x,-y,z
-x,y,z
x,-y,z
1/2+x,1/2+y,1/2+z
1/2-x,1/2-y,1/2+z
1/2-x,1/2+y,1/2+z
1/2+x,1/2-y,1/2+z
loop_
_atom_site_type_symbol
_atom_site_label
_atom_site_fract_x
_atom_site_fract_y
_atom_site_fract_z
Si Si1 0.808719 0.776942 0.372400
Si Si2 0.310880 0.146462 0.667440
Si Si3 0.688704 0.354366 0.363331
Si Si4 0.191647 0.220120 0.167531
Si Si5 0.309083 0.388198 0.983974
Si Si6 0.688235 0.000000 0.165878
Si Si7 0.192339 0.110355 0.053976
Si Si8 0.307913 0.500000 0.869115
O O1 0.732652 0.713337 0.383682
O O2 0.772944 0.796680 0.270368
O O3 0.753798 0.826667 0.440892
O O4 0.000000 0.770471 0.378900
O O5 0.500000 0.147273 0.662189
O O6 0.262978 0.129210 0.767967
O O7 0.250302 0.213584 0.653660
O O8 0.244367 0.108333 0.586500
O O9 0.500000 0.358961 0.355217
O O10 0.741913 0.390876 0.450087
O O11 0.248819 0.171153 0.099076
O O12 0.000000 0.222150 0.160074
O O13 0.500000 0.387551 0.981113
O O14 0.255024 0.442276 0.923027
O O15 0.748670 0.943236 0.112697
O O16 0.500000 0.000000 0.167787
O O17 0.751384 0.000000 0.267260
O O18 0.000000 0.110425 0.055902
O O19 0.500000 0.500000 0.868029
#
# Coordination Sequence:
#
# PCOD9374759 Si02
#       8
#     8   8   8   8   8   4   8   4
#     4   9  17  30  51  81 115 145 174 218 277 328
#     4  10  20  35  55  80 114 148 177 221 277 325
#     4  10  20  34  55  83 111 142 184 226 266 324
#     4   8  15  30  53  80 108 142 180 213 259 325
#     4  10  20  35  57  82 107 143 189 229 266 317
#     4  12  26  40  57  84 113 138 175 226 272 318
#     4  10  20  37  59  78 104 146 189 224 264 319
#     4  10  22  42  63  80 107 146 183 220 264 318
#
# _framework density 19.475007999999999
#
# number of rings (size 3 to 8) (size 9 to 14) (size 15 to 20)
#    0.000    2.286    0.000    4.071    0.000    5.714 
#    0.000    7.143    0.000    1.714    0.000    0.000 
#    0.000    0.000    0.000    0.000    0.000    0.000 
#
# Total GULP energy -156311.134643 kJ/mol
# GULP energy per Si atom -5582.540523 kJ/mol
# Density = 1.943068 g / cm^3
# Si number density = 19.475008 Si / 1000 Ang^3
#
#
#
# Elastic Constant Matrix: (Units=GPa)
#
#
# Indices 1 2 3 4 5 6 
#
# 1 10.4687 10.0929 15.3976 0.0000 0.0000 0.0000
# 2 10.0929 48.1480 70.9887 0.0000 0.0000 0.0000
# 3 15.3976 70.9887 171.1799 0.0000 0.0000 0.0000
# 4 0.0000 0.0000 0.0000 35.7018 0.0000 0.0000
# 5 0.0000 0.0000 0.0000 0.0000 24.1648 0.0000
# 6 0.0000 0.0000 0.0000 0.0000 0.0000 15.4712
#
#
#
# Elastic Compliance Matrix: (Units=1/GPa)
#
#
# Indices 1 2 3 4 5 6 
#
# 1 0.119776 -0.023736 -0.000930 0.000000 0.000000 0.000000
# 2 -0.023736 0.058154 -0.021982 0.000000 0.000000 0.000000
# 3 -0.000930 -0.021982 0.015041 0.000000 0.000000 0.000000
# 4 0.000000 0.000000 0.000000 0.028010 0.000000 0.000000
# 5 0.000000 0.000000 0.000000 0.000000 0.041383 0.000000
# 6 0.000000 0.000000 0.000000 0.000000 0.000000 0.064636
#
#
# Mechanical properties :
#
#
# Convention : Reuss Voigt Hill
#
# Bulk Modulus (GPa) = 10.03258 46.97277 28.50267
# Shear Modulus (GPa) = 11.02484 23.95538 17.49011
#
# Velocity S-wave (km/s) = 2.38187 3.51102 3.00005
# Velocity P-wave (km/s) = 3.56751 6.37246 5.16408
#
# Compressibility (1/GPa) = 0.09967525
#
# Stress axis : x y z
#
# Youngs Moduli (GPa) = 8.34894 17.19558 66.48333
#
# Poissons Ratio (x) = 0.40815 0.06186
# Poissons Ratio (y) = 0.19817 1.46142
# Poissons Ratio (z) = 0.00777 0.37799
#
# Static dielectric constant tensor:
#      x y z
#    x 1.664540 0.000000 0.000000 
#    y 0.000000 1.672840 0.000000 
#    z 0.000000 0.000000 1.684110 
# 
# From -- ./inp_files/16554.got.cif
#   From: 2010.05.17/outbox.cif.g08.bks.cpg/sg44_9_cif.got.tgz:16554.got - 2010.06.03 19:37:08.
