data_PCOD9374309
_publ_section_title
;
Structure prediction by ZEFSAII (Michael W. Deem and Ramdas Pophale) SiO2 
 PCOD9374309
Probable space group: I M M 2
;
_chemical_formula_sum "Si O2"
_cell_formula_units_Z 64
_cell_length_a 15.864925
_cell_length_b 21.717135
_cell_length_c 8.660598
_cell_angle_alpha 90.000000
_cell_angle_beta 90.000000
_cell_angle_gamma 90.000000
_cell_volume 2983.928653
_symmetry_space_group_name_H-M "I M M 2"
_symmetry_group_IT_number 44
_symmetry_cell_setting 'orthorhombic'
loop_
_space_group_symop_operation_xyz
x,y,z
-x,-y,z
-x,y,z
x,-y,z
1/2+x,1/2+y,1/2+z
1/2-x,1/2-y,1/2+z
1/2-x,1/2+y,1/2+z
1/2+x,1/2-y,1/2+z
loop_
_atom_site_type_symbol
_atom_site_label
_atom_site_fract_x
_atom_site_fract_y
_atom_site_fract_z
Si Si1 0.598382 0.430702 0.803550
Si Si2 0.644916 0.572534 0.459915
Si Si3 0.363928 0.071457 0.613087
Si Si4 0.661735 0.427129 0.122674
Si Si5 0.229456 0.656594 0.543059
Si Si6 0.906089 0.229338 0.023719
Si Si7 0.903559 0.349516 0.814293
Si Si8 0.589478 0.815828 0.818977
O O1 0.500000 0.434114 0.835603
O O2 0.635905 0.500000 0.797955
O O3 0.606897 0.408260 0.627188
O O4 0.636135 0.398834 0.956394
O O5 0.628270 0.500000 0.449954
O O6 0.624343 0.597468 0.286371
O O7 0.743175 0.589031 0.483642
O O8 0.262606 0.076421 0.629202
O O9 0.389632 0.099581 0.447527
O O10 0.403388 0.117560 0.737935
O O11 0.387505 0.000000 0.628143
O O12 0.637641 0.500000 0.116544
O O13 0.319168 0.691500 0.530057
O O14 0.175124 0.648410 0.697265
O O15 0.167471 0.691486 0.429465
O O16 0.900004 0.282456 0.894678
O O17 0.000000 0.199836 0.003946
O O18 0.908271 0.265668 0.185072
O O19 0.000000 0.357583 0.753732
O O20 0.500000 0.810679 0.901632
#
# Coordination Sequence:
#
# PCOD9374309 Si02
#       8
#     8   8   8   8   8   8   8   8
#     4   9  18  32  50  73 106 152 201 248 300 354
#     4  10  21  35  53  84 122 156 197 250 301 358
#     4  10  19  36  59  82 116 161 200 234 289 361
#     4   9  17  32  52  77 110 151 200 245 291 351
#     4  12  21  36  62  88 117 156 197 240 306 364
#     4   9  21  41  61  84 113 150 198 248 299 358
#     4  10  22  38  58  88 122 154 196 250 302 360
#     4  10  21  37  59  87 117 149 193 244 291 352
#
# _framework density 21.448232999999998
#
# number of rings (size 3 to 8) (size 9 to 14) (size 15 to 20)
#    0.000    2.125    1.250    3.000    0.000    3.500 
#    0.000    2.500    0.000    2.250    0.000    0.000 
#    0.000    0.000    0.000    0.000    0.000    0.000 
#
# Total GULP energy -178157.999313 kJ/mol
# GULP energy per Si atom -5567.437479 kJ/mol
# Density = 2.139942 g / cm^3
# Si number density = 21.448233 Si / 1000 Ang^3
#
#
#
# Elastic Constant Matrix: (Units=GPa)
#
#
# Indices 1 2 3 4 5 6 
#
# 1 118.4051 29.1497 41.8841 0.0000 0.0000 0.0000
# 2 29.1497 30.8426 14.5657 0.0000 0.0000 0.0000
# 3 41.8841 14.5657 114.1092 0.0000 0.0000 0.0000
# 4 0.0000 0.0000 0.0000 4.3075 0.0000 0.0000
# 5 0.0000 0.0000 0.0000 0.0000 27.1055 0.0000
# 6 0.0000 0.0000 0.0000 0.0000 0.0000 18.6293
#
#
#
# Elastic Compliance Matrix: (Units=1/GPa)
#
#
# Indices 1 2 3 4 5 6 
#
# 1 0.011979 -0.009838 -0.003141 0.000000 0.000000 0.000000
# 2 -0.009838 0.042582 -0.001825 0.000000 0.000000 0.000000
# 3 -0.003141 -0.001825 0.010149 0.000000 0.000000 0.000000
# 4 0.000000 0.000000 0.000000 0.232151 0.000000 0.000000
# 5 0.000000 0.000000 0.000000 0.000000 0.036893 0.000000
# 6 0.000000 0.000000 0.000000 0.000000 0.000000 0.053679
#
#
# Mechanical properties :
#
#
# Convention : Reuss Voigt Hill
#
# Bulk Modulus (GPa) = 28.48723 48.28400 38.38562
# Shear Modulus (GPa) = 11.66207 21.85897 16.76052
#
# Velocity S-wave (km/s) = 2.33433 3.19588 2.79846
# Velocity P-wave (km/s) = 4.53610 6.01489 5.32706
#
# Compressibility (1/GPa) = 0.03510345
#
# Stress axis : x y z
#
# Youngs Moduli (GPa) = 83.48248 23.48412 98.52856
#
# Poissons Ratio (x) = 0.23103 0.30948
# Poissons Ratio (y) = 0.82127 0.17977
# Poissons Ratio (z) = 0.26222 0.04285
#
# Static dielectric constant tensor:
#      x y z
#    x 1.812220 0.000000 0.000000 
#    y 0.000000 1.850680 0.000000 
#    z 0.000000 0.000000 1.827510 
# 
# From -- ./inp_files/7572.got.cif
#   From: 2010.05.17/outbox.cif.g08.bks.cpg/sg44_4_cif.got.tgz:7572.got - 2010.06.03 19:37:08.
