data_PCOD9374305
_publ_section_title
;
Structure prediction by ZEFSAII (Michael W. Deem and Ramdas Pophale) SiO2 
 PCOD9374305
Probable space group: I M M 2
;
_chemical_formula_sum "Si O2"
_cell_formula_units_Z 48
_cell_length_a 18.651768
_cell_length_b 9.339859
_cell_length_c 15.318659
_cell_angle_alpha 90.000000
_cell_angle_beta 90.000000
_cell_angle_gamma 90.000000
_cell_volume 2668.585202
_symmetry_space_group_name_H-M "I M M 2"
_symmetry_group_IT_number 44
_symmetry_cell_setting 'orthorhombic'
loop_
_space_group_symop_operation_xyz
x,y,z
-x,-y,z
-x,y,z
x,-y,z
1/2+x,1/2+y,1/2+z
1/2-x,1/2-y,1/2+z
1/2-x,1/2+y,1/2+z
1/2+x,1/2-y,1/2+z
loop_
_atom_site_type_symbol
_atom_site_label
_atom_site_fract_x
_atom_site_fract_y
_atom_site_fract_z
Si Si1 0.500000 0.671756 0.778780
Si Si2 0.106289 0.837208 0.977622
Si Si3 0.155986 0.827998 0.353944
Si Si4 0.221347 0.327317 0.713581
Si Si5 0.500000 0.169442 0.595023
Si Si6 0.727853 0.168119 0.010435
Si Si7 0.420789 0.332229 0.274173
O O1 0.500000 0.500000 0.763333
O O2 0.425771 0.706918 0.828012
O O3 0.500000 0.754570 0.687985
O O4 0.079088 0.824338 0.879208
O O5 0.091331 0.000000 0.008928
O O6 0.067927 0.726246 0.040387
O O7 0.191176 0.818083 0.976082
O O8 0.212824 0.783484 0.277529
O O9 0.178254 0.756645 0.445122
O O10 0.161250 0.000000 0.361410
O O11 0.217907 0.500000 0.718155
O O12 0.230743 0.287543 0.611901
O O13 0.146316 0.259351 0.742887
O O14 0.500000 0.000000 0.602855
O O15 0.707883 0.000000 0.007284
O O16 0.500000 0.286742 0.242360
O O17 0.410732 0.500000 0.251217
#
# Coordination Sequence:
#
# PCOD9374305 Si02
#       7
#     4   8   8   8   4   8   8
#     4  10  22  42  62  81 116 163 198 233 296 360
#     4  10  19  36  59  81 114 155 190 229 292 363
#     4  10  21  39  63  87 115 154 200 245 287 345
#     4  10  21  37  58  86 117 150 190 238 293 346
#     4  12  24  34  54  91 122 147 190 249 298 342
#     4  10  21  38  61  86 114 154 196 237 294 354
#     4  10  20  36  58  83 110 148 192 232 278 342
#
# _framework density 17.987058999999999
#
# number of rings (size 3 to 8) (size 9 to 14) (size 15 to 20)
#    0.000    1.833    2.500    1.750    0.000    5.667 
#    1.500    1.667    0.000    0.000    0.000    0.000 
#    0.000    0.000    0.000    0.000    0.000    0.000 
#
# Total GULP energy -133920.106956 kJ/mol
# GULP energy per Si atom -5580.004456 kJ/mol
# Density = 1.794612 g / cm^3
# Si number density = 17.987059 Si / 1000 Ang^3
#
#
#
# Elastic Constant Matrix: (Units=GPa)
#
#
# Indices 1 2 3 4 5 6 
#
# 1 129.4077 35.7416 43.2644 0.0000 0.0000 0.0000
# 2 35.7416 28.4952 27.0760 0.0000 0.0000 0.0000
# 3 43.2644 27.0760 77.6568 0.0000 0.0000 0.0000
# 4 0.0000 0.0000 0.0000 32.9225 0.0000 0.0000
# 5 0.0000 0.0000 0.0000 0.0000 159.8968 0.0000
# 6 0.0000 0.0000 0.0000 0.0000 0.0000 27.0231
#
#
#
# Elastic Compliance Matrix: (Units=1/GPa)
#
#
# Indices 1 2 3 4 5 6 
#
# 1 0.012061 -0.013075 -0.002161 0.000000 0.000000 0.000000
# 2 -0.013075 0.066655 -0.015956 0.000000 0.000000 0.000000
# 3 -0.002161 -0.015956 0.019644 0.000000 0.000000 0.000000
# 4 0.000000 0.000000 0.000000 0.030374 0.000000 0.000000
# 5 0.000000 0.000000 0.000000 0.000000 0.006254 0.000000
# 6 0.000000 0.000000 0.000000 0.000000 0.000000 0.037005
#
#
# Mechanical properties :
#
#
# Convention : Reuss Voigt Hill
#
# Bulk Modulus (GPa) = 27.79544 49.74708 38.77126
# Shear Modulus (GPa) = 20.29470 52.60032 36.44751
#
# Velocity S-wave (km/s) = 3.36265 5.41359 4.50635
# Velocity P-wave (km/s) = 5.52840 8.17270 6.97697
#
# Compressibility (1/GPa) = 0.03597713
#
# Stress axis : x y z
#
# Youngs Moduli (GPa) = 82.91022 15.00262 50.90597
#
# Poissons Ratio (x) = 0.19616 0.10999
# Poissons Ratio (y) = 1.08408 0.81223
# Poissons Ratio (z) = 0.17915 0.23937
#
# Static dielectric constant tensor:
#      x y z
#    x 1.605940 0.000000 0.000000 
#    y 0.000000 1.603930 0.000000 
#    z 0.000000 0.000000 1.607970 
# 
# From -- ./inp_files/16136.got.cif
#   From: 2010.05.17/outbox.cif.g08.bks.cpg/sg44_9_cif.got.tgz:16136.got - 2010.06.03 19:37:08.
