data_PCOD9374174
_publ_section_title
;
Structure prediction by ZEFSAII (Michael W. Deem and Ramdas Pophale) SiO2 
 PCOD9374174
Probable space group: I M M 2
;
_chemical_formula_sum "Si O2"
_cell_formula_units_Z 56
_cell_length_a 7.853996
_cell_length_b 24.333929
_cell_length_c 14.356206
_cell_angle_alpha 90.000000
_cell_angle_beta 90.000000
_cell_angle_gamma 90.000000
_cell_volume 2743.737720
_symmetry_space_group_name_H-M "I M M 2"
_symmetry_group_IT_number 44
_symmetry_cell_setting 'orthorhombic'
loop_
_space_group_symop_operation_xyz
x,y,z
-x,-y,z
-x,y,z
x,-y,z
1/2+x,1/2+y,1/2+z
1/2-x,1/2-y,1/2+z
1/2-x,1/2+y,1/2+z
1/2+x,1/2-y,1/2+z
loop_
_atom_site_type_symbol
_atom_site_label
_atom_site_fract_x
_atom_site_fract_y
_atom_site_fract_z
Si Si1 0.800796 0.837153 0.857140
Si Si2 0.705565 0.437308 0.690241
Si Si3 0.696168 0.734860 0.973057
Si Si4 0.794254 0.938841 0.543970
Si Si5 0.708524 0.669939 0.150076
Si Si6 0.208423 0.062434 0.977241
Si Si7 0.803159 0.628765 0.868340
O O1 0.786758 0.786103 0.926473
O O2 0.730766 0.822137 0.755258
O O3 0.000000 0.848976 0.841118
O O4 0.728276 0.891466 0.906292
O O5 0.500000 0.437285 0.692060
O O6 0.760967 0.500000 0.713185
O O7 0.759659 0.425543 0.584070
O O8 0.765845 0.393768 0.765993
O O9 0.500000 0.750748 0.986029
O O10 0.703875 0.682256 0.904195
O O11 0.766831 0.713332 0.071990
O O12 0.740665 0.890596 0.613980
O O13 0.738695 0.919582 0.441535
O O14 0.000000 0.939544 0.544845
O O15 0.733010 0.000000 0.566059
O O16 0.500000 0.672465 0.146822
O O17 0.000000 0.063377 0.976839
O O18 0.259368 0.000000 0.954302
O O19 0.000000 0.643516 0.876067
#
# Coordination Sequence:
#
# PCOD9374174 Si02
#       7
#     8   8   8   8   8   8   8
#     4  10  19  34  57  82 104 129 168 215 257 294
#     4   9  17  31  50  73 105 143 176 205 247 306
#     4  10  21  38  54  71 101 138 173 207 254 314
#     4   9  17  31  51  75 105 141 174 203 247 308
#     4   8  17  33  52  75 103 132 165 209 253 298
#     4   8  16  31  52  79 108 136 168 207 250 300
#     4  11  21  32  49  75 104 134 174 221 262 296
#
# _framework density 20.410114
#
# number of rings (size 3 to 8) (size 9 to 14) (size 15 to 20)
#    0.000    2.714    0.000    3.857    0.000    4.000 
#    0.000   10.000    0.000    1.286    0.000    0.000 
#    0.000    0.000    0.000    0.000    0.000    0.000 
#
# Total GULP energy -156208.255644 kJ/mol
# GULP energy per Si atom -5578.866273 kJ/mol
# Density = 2.036366 g / cm^3
# Si number density = 20.410114 Si / 1000 Ang^3
#
#
#
# Elastic Constant Matrix: (Units=GPa)
#
#
# Indices 1 2 3 4 5 6 
#
# 1 22.2781 -8.2228 -0.1683 0.0000 0.0000 0.0000
# 2 -8.2228 90.1604 81.1565 0.0001 0.0000 0.0000
# 3 -0.1683 81.1565 147.3127 0.0003 0.0001 0.0000
# 4 0.0000 0.0001 0.0003 16.2334 0.0000 0.0000
# 5 0.0000 0.0000 0.0001 0.0000 -3.4776 0.0000
# 6 0.0000 0.0000 0.0000 0.0000 0.0000 14.5646
#
#
#
# Elastic Compliance Matrix: (Units=1/GPa)
#
#
# Indices 1 2 3 4 5 6 
#
# 1 0.048023 0.008590 -0.004678 0.000000 0.000000 0.000000
# 2 0.008590 0.023539 -0.012958 0.000000 0.000000 0.000000
# 3 -0.004678 -0.012958 0.013922 0.000000 0.000000 0.000000
# 4 0.000000 0.000000 0.000000 0.061602 0.000001 0.000000
# 5 0.000000 0.000000 0.000000 0.000001 -0.287552 0.000000
# 6 0.000000 0.000000 0.000000 0.000000 0.000000 0.068660
#
#
# Mechanical properties :
#
#
# Convention : Reuss Voigt Hill
#
# Bulk Modulus (GPa) = 14.83851 45.03133 29.93492
# Shear Modulus (GPa) = -159.98321 17.92978 -71.02672
#
# Velocity S-wave (km/s) = -8.86309 2.96712 -5.90553
# Velocity P-wave (km/s) = 9.87184 5.81804 5.63931
#
# Compressibility (1/GPa) = 0.06739220
#
# Stress axis : x y z
#
# Youngs Moduli (GPa) = 20.82356 42.48318 71.83052
#
# Poissons Ratio (x) = -0.36494 0.33600
# Poissons Ratio (y) = -0.17888 0.93078
# Poissons Ratio (z) = 0.09740 0.55050
#
# Static dielectric constant tensor:
#      x y z
#    x 1.744730 0.000000 0.000000 
#    y 0.000000 1.707420 0.000000 
#    z 0.000000 0.000000 1.724110 
# 
# From -- ./inp_files/16495.got.cif
#   From: 2010.05.17/outbox.cif.g08.bks.cpg/sg44_9_cif.got.tgz:16495.got - 2010.06.03 19:37:08.
