data_PCOD9374263
_publ_section_title
;
Structure prediction by ZEFSAII (Michael W. Deem and Ramdas Pophale) SiO2 
 PCOD9374263
Probable space group: I M M 2
;
_chemical_formula_sum "Si O2"
_cell_formula_units_Z 64
_cell_length_a 24.516175
_cell_length_b 8.327492
_cell_length_c 15.960723
_cell_angle_alpha 90.000000
_cell_angle_beta 90.000000
_cell_angle_gamma 90.000000
_cell_volume 3258.513295
_symmetry_space_group_name_H-M "I M M 2"
_symmetry_group_IT_number 44
_symmetry_cell_setting 'orthorhombic'
loop_
_space_group_symop_operation_xyz
x,y,z
-x,-y,z
-x,y,z
x,-y,z
1/2+x,1/2+y,1/2+z
1/2-x,1/2-y,1/2+z
1/2-x,1/2+y,1/2+z
1/2+x,1/2-y,1/2+z
loop_
_atom_site_type_symbol
_atom_site_label
_atom_site_fract_x
_atom_site_fract_y
_atom_site_fract_z
Si Si1 0.751664 0.805855 0.630270
Si Si2 0.368263 0.193167 0.189226
Si Si3 0.062408 0.192166 0.032799
Si Si4 0.131743 0.305449 0.874825
Si Si5 0.250444 0.695322 0.934640
Si Si6 0.437297 0.805716 0.029727
Si Si7 0.367643 0.307875 0.871959
Si Si8 0.366900 0.191998 0.689603
O O1 0.805551 0.738691 0.673291
O O2 0.751531 0.758129 0.532352
O O3 0.695149 0.750925 0.671852
O O4 0.753582 0.000000 0.633379
O O5 0.385111 0.248903 0.281898
O O6 0.404705 0.253381 0.111912
O O7 0.372175 0.000000 0.189003
O O8 0.095144 0.251800 0.113876
O O9 0.000000 0.250786 0.033846
O O10 0.062040 0.000000 0.034299
O O11 0.093217 0.247932 0.949173
O O12 0.131780 0.500000 0.876224
O O13 0.193893 0.251201 0.893345
O O14 0.250497 0.500000 0.932141
O O15 0.305759 0.751370 0.890197
O O16 0.500000 0.751627 0.030223
O O17 0.437104 0.000000 0.031699
O O18 0.406072 0.752240 0.946384
O O19 0.367001 0.500000 0.874100
O O20 0.385305 0.251826 0.780279
O O21 0.366054 0.000000 0.689396
#
# Coordination Sequence:
#
# PCOD9374263 Si02
#       8
#     8   8   8   8   8   8   8   8
#     4  10  19  35  59  87 120 155 190 233 288 350
#     4  10  21  36  60  91 119 152 196 242 290 344
#     4  11  25  43  61  85 117 152 196 247 292 340
#     4  10  20  38  62  88 119 154 192 236 289 350
#     4   9  17  33  57  86 120 153 186 232 288 345
#     4  10  22  40  58  81 117 157 200 247 290 339
#     4  11  22  38  62  89 119 153 193 240 292 347
#     4  11  23  40  63  89 119 154 193 236 289 351
#
# _framework density 19.64086
#
# number of rings (size 3 to 8) (size 9 to 14) (size 15 to 20)
#    0.000    1.750    2.500    1.875    0.000    4.750 
#    0.000    2.500    0.000    0.000    0.000    0.000 
#    0.000    0.000    0.000    0.000    0.000    0.000 
#
# Total GULP energy -178801.196218 kJ/mol
# GULP energy per Si atom -5587.537382 kJ/mol
# Density = 1.959616 g / cm^3
# Si number density = 19.640860 Si / 1000 Ang^3
#
#
#
# Elastic Constant Matrix: (Units=GPa)
#
#
# Indices 1 2 3 4 5 6 
#
# 1 163.6501 20.4240 96.4899 0.0000 0.0000 0.0000
# 2 20.4240 15.7343 22.5264 0.0000 0.0000 0.0000
# 3 96.4899 22.5264 204.0984 0.0000 0.0000 0.0000
# 4 0.0000 0.0000 0.0000 20.1102 0.0000 0.0000
# 5 0.0000 0.0000 0.0000 0.0000 -2.6824 0.0000
# 6 0.0000 0.0000 0.0000 0.0000 0.0000 -67.9981
#
#
#
# Elastic Compliance Matrix: (Units=1/GPa)
#
#
# Indices 1 2 3 4 5 6 
#
# 1 0.009023 -0.006658 -0.003531 0.000000 0.000000 0.000000
# 2 -0.006658 0.080395 -0.005726 0.000000 0.000000 0.000000
# 3 -0.003531 -0.005726 0.007201 0.000000 0.000000 0.000000
# 4 0.000000 0.000000 0.000000 0.049726 0.000000 0.000000
# 5 0.000000 0.000000 0.000000 0.000000 -0.372794 0.000000
# 6 0.000000 0.000000 0.000000 0.000000 0.000000 -0.014706
#
#
# Mechanical properties :
#
#
# Convention : Reuss Voigt Hill
#
# Bulk Modulus (GPa) = 15.43441 73.59593 44.51517
# Shear Modulus (GPa) = -26.63410 6.15543 -10.23933
#
# Velocity S-wave (km/s) = -3.68646 1.77223 -2.28574
# Velocity P-wave (km/s) = 3.20072 6.46064 3.96833
#
# Compressibility (1/GPa) = 0.06479030
#
# Stress axis : x y z
#
# Youngs Moduli (GPa) = 110.82175 12.43862 138.87057
#
# Poissons Ratio (x) = 0.08281 0.49038
# Poissons Ratio (y) = 0.73780 0.79514
# Poissons Ratio (z) = 0.39133 0.07122
#
# Static dielectric constant tensor:
#      x y z
#    x 1.674040 0.000000 0.000000 
#    y 0.000000 1.675900 0.000000 
#    z 0.000000 0.000000 1.676890 
# 
# From -- ./inp_files/16760.got.cif
#   From: 2010.05.17/outbox.cif.g08.bks.cpg/sg44_9_cif.got.tgz:16760.got - 2010.06.03 19:37:08.
