data_PCOD9374434
_publ_section_title
;
Structure prediction by ZEFSAII (Michael W. Deem and Ramdas Pophale) SiO2 
 PCOD9374434
Probable space group: I M M 2
;
_chemical_formula_sum "Si O2"
_cell_formula_units_Z 64
_cell_length_a 8.170067
_cell_length_b 21.482904
_cell_length_c 20.339243
_cell_angle_alpha 90.000000
_cell_angle_beta 90.000000
_cell_angle_gamma 90.000000
_cell_volume 3569.878135
_symmetry_space_group_name_H-M "I M M 2"
_symmetry_group_IT_number 44
_symmetry_cell_setting 'orthorhombic'
loop_
_space_group_symop_operation_xyz
x,y,z
-x,-y,z
-x,y,z
x,-y,z
1/2+x,1/2+y,1/2+z
1/2-x,1/2-y,1/2+z
1/2-x,1/2+y,1/2+z
1/2+x,1/2-y,1/2+z
loop_
_atom_site_type_symbol
_atom_site_label
_atom_site_fract_x
_atom_site_fract_y
_atom_site_fract_z
Si Si1 0.302366 0.380665 0.889330
Si Si2 0.696312 0.931720 0.105730
Si Si3 0.697931 0.379201 0.742064
Si Si4 0.197019 0.265275 0.242776
Si Si5 0.299042 0.810904 0.027299
Si Si6 0.194024 0.431656 0.026421
Si Si7 0.800948 0.734885 0.388310
Si Si8 0.805863 0.188609 0.606097
O O1 0.500000 0.384258 0.892496
O O2 0.251942 0.399631 0.815526
O O3 0.257498 0.307687 0.897308
O O4 0.232537 0.418458 0.950019
O O5 0.500000 0.932322 0.098393
O O6 0.735394 0.918403 0.181812
O O7 0.758351 0.873627 0.062843
O O8 0.759657 0.000000 0.086840
O O9 0.500000 0.380754 0.740236
O O10 0.749642 0.306849 0.733057
O O11 0.254575 0.285040 0.315595
O O12 0.251178 0.306024 0.181425
O O13 0.000000 0.264644 0.243967
O O14 0.500000 0.810867 0.028263
O O15 0.242404 0.749633 0.067034
O O16 0.246402 0.803496 0.951651
O O17 0.260708 0.500000 0.044499
O O18 0.258715 0.374526 0.069441
O O19 0.000000 0.432562 0.034813
O O20 0.000000 0.733107 0.387884
O O21 0.000000 0.193167 0.604412
#
# Coordination Sequence:
#
# PCOD9374434 Si02
#       8
#     8   8   8   8   8   8   8   8
#     4   9  17  32  52  74  99 133 176 212 247 297
#     4  10  20  32  47  71 104 138 172 213 256 300
#     4   9  18  31  49  73 103 138 175 211 247 300
#     4   9  17  30  51  77 103 130 164 209 261 306
#     4   9  16  29  51  75  97 128 172 214 251 292
#     4  11  24  38  51  73 106 138 169 211 262 312
#     4   8  14  28  51  75  99 129 164 208 256 300
#     4  11  20  33  56  78 100 133 174 215 253 301
#
# _framework density 17.927782000000001
#
# number of rings (size 3 to 8) (size 9 to 14) (size 15 to 20)
#    0.000    2.500    2.500    2.250    0.000    2.250 
#    0.000    4.375    0.000    0.750    0.000    3.500 
#    0.000    0.000    0.000    0.000    0.000    0.000 
#
# Total GULP energy -178444.085628 kJ/mol
# GULP energy per Si atom -5576.377676 kJ/mol
# Density = 1.788698 g / cm^3
# Si number density = 17.927782 Si / 1000 Ang^3
#
#
#
# Elastic Constant Matrix: (Units=GPa)
#
#
# Indices 1 2 3 4 5 6 
#
# 1 6.3587 8.4122 8.1191 0.0000 0.0000 0.0000
# 2 8.4122 116.9305 80.0465 0.0000 0.0000 0.0000
# 3 8.1191 80.0465 134.6767 0.0000 0.0000 0.0000
# 4 0.0000 0.0000 0.0000 17.0842 0.0000 0.0000
# 5 0.0000 0.0000 0.0000 0.0000 23.7409 0.0000
# 6 0.0000 0.0000 0.0000 0.0000 0.0000 7.4667
#
#
#
# Elastic Compliance Matrix: (Units=1/GPa)
#
#
# Indices 1 2 3 4 5 6 
#
# 1 0.175938 -0.009098 -0.005199 0.000000 0.000000 0.000000
# 2 -0.009098 0.014889 -0.008301 0.000000 0.000000 0.000000
# 3 -0.005199 -0.008301 0.012672 0.000000 0.000000 0.000000
# 4 0.000000 0.000000 0.000000 0.058534 0.000000 0.000000
# 5 0.000000 0.000000 0.000000 0.000000 0.042121 0.000000
# 6 0.000000 0.000000 0.000000 0.000000 0.000000 0.133927
#
#
# Mechanical properties :
#
#
# Convention : Reuss Voigt Hill
#
# Bulk Modulus (GPa) = 6.31698 50.12462 28.22080
# Shear Modulus (GPa) = 9.32754 20.41758 14.87256
#
# Velocity S-wave (km/s) = 2.28345 3.37839 2.88337
# Velocity P-wave (km/s) = 3.23781 6.57555 5.18273
#
# Compressibility (1/GPa) = 0.15830339
#
# Stress axis : x y z
#
# Youngs Moduli (GPa) = 5.68381 67.16237 78.91140
#
# Poissons Ratio (x) = 0.61108 0.41025
# Poissons Ratio (y) = 0.05171 0.65505
# Poissons Ratio (z) = 0.02955 0.55752
#
# Static dielectric constant tensor:
#      x y z
#    x 1.636430 0.000000 0.000000 
#    y 0.000000 1.631970 0.000000 
#    z 0.000000 0.000000 1.623870 
# 
# From -- ./inp_files/23301.got.cif
#   From: 2010.05.17/outbox.cif.g08.bks.cpg/sg44_12_cif.got.tgz:23301.got - 2010.06.03 19:37:08.
