data_PCOD9374933
_publ_section_title
;
Structure prediction by ZEFSAII (Michael W. Deem and Ramdas Pophale) SiO2 
 PCOD9374933
Probable space group: I M M 2
;
_chemical_formula_sum "Si O2"
_cell_formula_units_Z 58
_cell_length_a 18.968778
_cell_length_b 7.732615
_cell_length_c 17.395403
_cell_angle_alpha 90.000000
_cell_angle_beta 90.000000
_cell_angle_gamma 90.000000
_cell_volume 2551.527397
_symmetry_space_group_name_H-M "I M M 2"
_symmetry_group_IT_number 44
_symmetry_cell_setting 'orthorhombic'
loop_
_space_group_symop_operation_xyz
x,y,z
-x,-y,z
-x,y,z
x,-y,z
1/2+x,1/2+y,1/2+z
1/2-x,1/2-y,1/2+z
1/2-x,1/2+y,1/2+z
1/2+x,1/2-y,1/2+z
loop_
_atom_site_type_symbol
_atom_site_label
_atom_site_fract_x
_atom_site_fract_y
_atom_site_fract_z
Si Si1 0.922586 0.701212 0.747330
Si Si2 0.328191 0.792315 0.924440
Si Si3 0.421438 0.203065 0.523146
Si Si4 0.670052 0.297032 0.383498
Si Si5 0.109631 0.703128 0.263018
Si Si6 0.000000 0.000000 0.220952
Si Si7 0.796044 0.704530 0.128066
Si Si8 0.357224 0.296129 0.093812
O O1 0.923920 0.500000 0.767224
O O2 0.857705 0.776443 0.796511
O O3 0.909642 0.717777 0.656127
O O4 0.000000 0.776642 0.766640
O O5 0.247900 0.728029 0.907044
O O6 0.376420 0.752852 0.851252
O O7 0.323864 0.000000 0.929081
O O8 0.363529 0.727749 0.002712
O O9 0.500000 0.279341 0.531153
O O10 0.390253 0.217593 0.437868
O O11 0.360320 0.277636 0.577657
O O12 0.427393 0.000000 0.542833
O O13 0.671779 0.500000 0.400231
O O14 0.086720 0.500000 0.255828
O O15 0.182797 0.713584 0.216553
O O16 0.059746 0.845389 0.226770
O O17 0.791315 0.500000 0.107363
O O18 0.720457 0.780390 0.110658
O O19 0.358310 0.500000 0.110490
#
# Coordination Sequence:
#
# PCOD9374933 Si02
#       8
#     8   8   8   8   8   2   8   8
#     4  11  25  44  64  90 128 173 216 260 326 400
#     4  10  22  42  65  93 128 171 213 265 336 388
#     4  10  20  35  58  89 127 172 211 251 316 392
#     4  11  22  39  64  93 127 164 212 270 323 380
#     4  10  23  45  67  91 135 175 216 279 332 392
#     4  12  26  44  64 106 124 172 234 268 328 414
#     4   9  19  39  64  91 125 172 212 257 329 390
#     4  11  22  40  69  98 127 162 215 274 323 387
#
# _framework density 22.731480999999999
#
# number of rings (size 3 to 8) (size 9 to 14) (size 15 to 20)
#    0.000    1.655    1.379    2.690    1.931    5.793 
#    7.448    0.000    0.000    0.000    0.000    0.000 
#    0.000    0.000    0.000    0.000    0.000    0.000 
#
# Total GULP energy -161701.725571 kJ/mol
# GULP energy per Si atom -5575.921571 kJ/mol
# Density = 2.267974 g / cm^3
# Si number density = 22.731481 Si / 1000 Ang^3
#
#
#
# Elastic Constant Matrix: (Units=GPa)
#
#
# Indices 1 2 3 4 5 6 
#
# 1 42.8605 7.0450 -4.1416 0.0000 0.0000 0.0000
# 2 7.0450 53.3888 -8.3830 0.0000 0.0000 0.0000
# 3 -4.1416 -8.3830 91.5534 0.0000 0.0000 0.0000
# 4 0.0000 0.0000 0.0000 -78.5968 0.0000 0.0000
# 5 0.0000 0.0000 0.0000 0.0000 -19.7596 0.0000
# 6 0.0000 0.0000 0.0000 0.0000 0.0000 11.9230
#
#
#
# Elastic Compliance Matrix: (Units=1/GPa)
#
#
# Indices 1 2 3 4 5 6 
#
# 1 0.023907 -0.003028 0.000804 0.000000 0.000000 0.000000
# 2 -0.003028 0.019387 0.001638 0.000000 0.000000 0.000000
# 3 0.000804 0.001638 0.011109 0.000000 0.000000 0.000000
# 4 0.000000 0.000000 0.000000 -0.012723 0.000000 0.000000
# 5 0.000000 0.000000 0.000000 0.000000 -0.050608 0.000000
# 6 0.000000 0.000000 0.000000 0.000000 0.000000 0.083872
#
#
# Mechanical properties :
#
#
# Convention : Reuss Voigt Hill
#
# Bulk Modulus (GPa) = 18.78595 19.64926 19.21760
# Shear Modulus (GPa) = 53.27113 -4.40119 24.43497
#
# Velocity S-wave (km/s) = 4.84622 -1.39297 3.28218
# Velocity P-wave (km/s) = 6.29259 2.46489 4.77872
#
# Compressibility (1/GPa) = 0.05323128
#
# Stress axis : x y z
#
# Youngs Moduli (GPa) = 41.82879 51.57996 90.01733
#
# Poissons Ratio (x) = 0.15621 -0.07239
# Poissons Ratio (y) = 0.12667 -0.14747
# Poissons Ratio (z) = -0.03364 -0.08450
#
# Static dielectric constant tensor:
#      x y z
#    x 1.937080 0.000000 0.000000 
#    y 0.000000 1.844840 0.000000 
#    z 0.000000 0.000000 1.876950 
# 
# From -- ./inp_files/22126.got.cif
#   From: 2010.05.17/outbox.cif.g08.bks.cpg/sg44_12_cif.got.tgz:22126.got - 2010.06.03 19:37:08.
