data_PCOD9374779
_publ_section_title
;
Structure prediction by ZEFSAII (Michael W. Deem and Ramdas Pophale) SiO2 
 PCOD9374779
Probable space group: I M M 2
;
_chemical_formula_sum "Si O2"
_cell_formula_units_Z 40
_cell_length_a 8.585006
_cell_length_b 7.688185
_cell_length_c 31.026777
_cell_angle_alpha 90.000000
_cell_angle_beta 90.000000
_cell_angle_gamma 90.000000
_cell_volume 2047.863910
_symmetry_space_group_name_H-M "I M M 2"
_symmetry_group_IT_number 44
_symmetry_cell_setting 'orthorhombic'
loop_
_space_group_symop_operation_xyz
x,y,z
-x,-y,z
-x,y,z
x,-y,z
1/2+x,1/2+y,1/2+z
1/2-x,1/2-y,1/2+z
1/2-x,1/2+y,1/2+z
1/2+x,1/2-y,1/2+z
loop_
_atom_site_type_symbol
_atom_site_label
_atom_site_fract_x
_atom_site_fract_y
_atom_site_fract_z
Si Si1 0.309377 0.200656 0.107070
Si Si2 0.815327 0.500000 0.945434
Si Si3 0.688458 0.500000 0.041905
Si Si4 0.678010 0.291622 0.293389
Si Si5 0.185721 0.297611 0.384592
Si Si6 0.677788 0.208163 0.200619
O O1 0.500000 0.201647 0.109217
O O2 0.262800 0.330661 0.069365
O O3 0.254804 0.264115 0.154541
O O4 0.262175 0.000000 0.099951
O O5 0.756716 0.669448 0.919674
O O6 0.000000 0.500000 0.945874
O O7 0.752064 0.500000 0.993907
O O8 0.500000 0.500000 0.040026
O O9 0.500000 0.222696 0.294622
O O10 0.671341 0.500000 0.294806
O O11 0.765026 0.236918 0.336643
O O12 0.751136 0.246795 0.246975
O O13 0.235965 0.500000 0.390023
O O14 0.000000 0.292772 0.387880
O O15 0.500000 0.278848 0.203285
O O16 0.668316 0.000000 0.197001
#
# Coordination Sequence:
#
# PCOD9374779 Si02
#       6
#     8   4   4   8   8   8
#     4   8  15  28  47  75 110 143 179 229 277 323
#     4  12  26  42  62  86 114 148 194 246 301 356
#     4  10  20  34  56  82 106 140 190 238 289 338
#     4   9  17  28  47  78 112 146 186 229 277 331
#     4  10  22  41  62  84 115 152 192 239 290 349
#     4   8  14  24  41  71 109 145 182 224 271 320
#
# _framework density 19.532547999999998
#
# number of rings (size 3 to 8) (size 9 to 14) (size 15 to 20)
#    0.000    2.800    0.000    2.700    2.800    2.000 
#    0.000    2.000    0.000    1.200    0.000    2.800 
#    0.000    0.000    0.000    0.000    0.000    0.000 
#
# Total GULP energy -111489.749338 kJ/mol
# GULP energy per Si atom -5574.487467 kJ/mol
# Density = 1.948809 g / cm^3
# Si number density = 19.532548 Si / 1000 Ang^3
#
#
#
# Elastic Constant Matrix: (Units=GPa)
#
#
# Indices 1 2 3 4 5 6 
#
# 1 28.2543 26.4702 41.3443 0.0000 0.0000 0.0000
# 2 26.4702 94.8923 90.7271 0.0000 0.0000 0.0000
# 3 41.3443 90.7271 233.9466 0.0000 0.0000 0.0000
# 4 0.0000 0.0000 0.0000 34.1932 0.0000 0.0000
# 5 0.0000 0.0000 0.0000 0.0000 24.8434 0.0000
# 6 0.0000 0.0000 0.0000 0.0000 0.0000 11.6762
#
#
#
# Elastic Compliance Matrix: (Units=1/GPa)
#
#
# Indices 1 2 3 4 5 6 
#
# 1 0.052292 -0.009140 -0.005697 0.000000 0.000000 0.000000
# 2 -0.009140 0.018346 -0.005499 0.000000 0.000000 0.000000
# 3 -0.005697 -0.005499 0.007414 0.000000 0.000000 0.000000
# 4 0.000000 0.000000 0.000000 0.029246 0.000000 0.000000
# 5 0.000000 0.000000 0.000000 0.000000 0.040252 0.000000
# 6 0.000000 0.000000 0.000000 0.000000 0.000000 0.085644
#
#
# Mechanical properties :
#
#
# Convention : Reuss Voigt Hill
#
# Bulk Modulus (GPa) = 26.75296 74.90849 50.83072
# Shear Modulus (GPa) = 17.46264 27.37934 22.42099
#
# Velocity S-wave (km/s) = 2.99327 3.74803 3.39171
# Velocity P-wave (km/s) = 5.06681 7.56070 6.43571
#
# Compressibility (1/GPa) = 0.03737905
#
# Stress axis : x y z
#
# Youngs Moduli (GPa) = 19.12355 54.50780 134.88048
#
# Poissons Ratio (x) = 0.49821 0.76836
# Poissons Ratio (y) = 0.17479 0.74177
# Poissons Ratio (z) = 0.10894 0.29976
#
# Static dielectric constant tensor:
#      x y z
#    x 1.684010 0.000000 0.000000 
#    y 0.000000 1.691810 0.000000 
#    z 0.000000 0.000000 1.699780 
# 
# From -- ./inp_files/25958.got.cif
#   From: 2010.05.17/outbox.cif.g08.bks.cpg/sg44_13_cif.got.tgz:25958.got - 2010.06.03 19:37:08.
