data_PCOD9374178
_publ_section_title
;
Structure prediction by ZEFSAII (Michael W. Deem and Ramdas Pophale) SiO2 
 PCOD9374178
Probable space group: I M M 2
;
_chemical_formula_sum "Si O2"
_cell_formula_units_Z 40
_cell_length_a 26.455574
_cell_length_b 9.154608
_cell_length_c 9.143487
_cell_angle_alpha 90.000000
_cell_angle_beta 90.000000
_cell_angle_gamma 90.000000
_cell_volume 2214.464860
_symmetry_space_group_name_H-M "I M M 2"
_symmetry_group_IT_number 44
_symmetry_cell_setting 'orthorhombic'
loop_
_space_group_symop_operation_xyz
x,y,z
-x,-y,z
-x,y,z
x,-y,z
1/2+x,1/2+y,1/2+z
1/2-x,1/2-y,1/2+z
1/2-x,1/2+y,1/2+z
1/2+x,1/2-y,1/2+z
loop_
_atom_site_type_symbol
_atom_site_label
_atom_site_fract_x
_atom_site_fract_y
_atom_site_fract_z
Si Si1 0.000000 0.330777 0.437630
Si Si2 0.000000 0.332726 0.081566
Si Si3 0.302857 0.825995 0.096514
Si Si4 0.896227 0.825358 0.435713
Si Si5 0.702279 0.674514 0.407724
Si Si6 0.397724 0.326207 0.588932
O O1 0.000000 0.328837 0.259594
O O2 0.050796 0.247061 0.483101
O O3 0.000000 0.500000 0.483864
O O4 0.051597 0.253632 0.036388
O O5 0.000000 0.500000 0.034123
O O6 0.295857 0.763194 0.258327
O O7 0.311306 0.000000 0.099734
O O8 0.349957 0.745889 0.021179
O O9 0.252055 0.797908 0.003839
O O10 0.890002 0.795680 0.261647
O O11 0.897659 0.000000 0.456043
O O12 0.700121 0.500000 0.377650
O O13 0.652063 0.714259 0.498857
O O14 0.405390 0.500000 0.575731
#
# Coordination Sequence:
#
# PCOD9374178 Si02
#       6
#     4   4   8   8   8   8
#     4   9  17  31  52  81 114 145 182 226 268 315
#     4   9  17  29  50  81 112 141 176 220 268 315
#     4  11  23  38  57  82 110 141 180 227 276 326
#     4  10  19  34  57  83 112 147 184 222 269 324
#     4  10  22  39  57  79 108 142 181 224 272 327
#     4   9  18  34  56  80 108 144 183 220 262 319
#
# _framework density 18.063056
#
# number of rings (size 3 to 8) (size 9 to 14) (size 15 to 20)
#    0.000    2.200    0.000    3.000    0.000    7.200 
#    0.000    1.000    0.000    3.600    0.000    0.000 
#    0.000    0.000    0.000    0.000    0.000    0.000 
#
# Total GULP energy -111672.214328 kJ/mol
# GULP energy per Si atom -5583.610716 kJ/mol
# Density = 1.802194 g / cm^3
# Si number density = 18.063056 Si / 1000 Ang^3
#
#
#
# Elastic Constant Matrix: (Units=GPa)
#
#
# Indices 1 2 3 4 5 6 
#
# 1 192.1231 102.2518 80.8198 0.0000 0.0000 0.0000
# 2 102.2518 96.4108 73.6366 0.0000 0.0000 0.0000
# 3 80.8198 73.6366 87.1071 0.0000 0.0000 0.0000
# 4 0.0000 0.0000 0.0000 27.2144 0.0000 0.0000
# 5 0.0000 0.0000 0.0000 0.0000 31.9013 0.0000
# 6 0.0000 0.0000 0.0000 0.0000 0.0000 16.9884
#
#
#
# Elastic Compliance Matrix: (Units=1/GPa)
#
#
# Indices 1 2 3 4 5 6 
#
# 1 0.011985 -0.011904 -0.001057 0.000000 0.000000 0.000000
# 2 -0.011904 0.041096 -0.023696 0.000000 0.000000 0.000000
# 3 -0.001057 -0.023696 0.032492 0.000000 0.000000 0.000000
# 4 0.000000 0.000000 0.000000 0.036745 0.000000 0.000000
# 5 0.000000 0.000000 0.000000 0.000000 0.031347 0.000000
# 6 0.000000 0.000000 0.000000 0.000000 0.000000 0.058864
#
#
# Mechanical properties :
#
#
# Convention : Reuss Voigt Hill
#
# Bulk Modulus (GPa) = 81.56872 98.78416 90.17644
# Shear Modulus (GPa) = 17.24553 23.14966 20.19759
#
# Velocity S-wave (km/s) = 3.09324 3.58383 3.34753
# Velocity P-wave (km/s) = 7.61665 8.48130 8.06057
#
# Compressibility (1/GPa) = 0.01225960
#
# Stress axis : x y z
#
# Youngs Moduli (GPa) = 83.43636 24.33322 30.77638
#
# Poissons Ratio (x) = 0.28966 0.03253
# Poissons Ratio (y) = 0.99323 0.72928
# Poissons Ratio (z) = 0.08819 0.57660
#
# Static dielectric constant tensor:
#      x y z
#    x 1.594590 0.000000 0.000000 
#    y 0.000000 1.601030 0.000000 
#    z 0.000000 0.000000 1.600940 
# 
# From -- ./inp_files/4480.got.cif
#   From: 2010.05.17/outbox.cif.g08.bks.cpg/sg44_3_cif.got.tgz:4480.got - 2010.06.03 19:37:08.
