data_PCOD9374972
_publ_section_title
;
Structure prediction by ZEFSAII (Michael W. Deem and Ramdas Pophale) SiO2 
 PCOD9374972
Probable space group: I M M 2
;
_chemical_formula_sum "Si O2"
_cell_formula_units_Z 64
_cell_length_a 8.741177
_cell_length_b 33.348968
_cell_length_c 12.025408
_cell_angle_alpha 90.000000
_cell_angle_beta 90.000000
_cell_angle_gamma 90.000000
_cell_volume 3505.517451
_symmetry_space_group_name_H-M "I M M 2"
_symmetry_group_IT_number 44
_symmetry_cell_setting 'orthorhombic'
loop_
_space_group_symop_operation_xyz
x,y,z
-x,-y,z
-x,y,z
x,-y,z
1/2+x,1/2+y,1/2+z
1/2-x,1/2-y,1/2+z
1/2-x,1/2+y,1/2+z
1/2+x,1/2-y,1/2+z
loop_
_atom_site_type_symbol
_atom_site_label
_atom_site_fract_x
_atom_site_fract_y
_atom_site_fract_z
Si Si1 0.817203 0.047486 0.888440
Si Si2 0.813315 0.953882 0.638997
Si Si3 0.174618 0.815321 0.939336
Si Si4 0.816357 0.125786 0.517642
Si Si5 0.675525 0.397112 0.580138
Si Si6 0.182739 0.727695 0.642123
Si Si7 0.318063 0.186260 0.699864
Si Si8 0.817893 0.352134 0.779257
O O1 0.761415 0.058079 0.764304
O O2 0.000000 0.056444 0.888485
O O3 0.798681 0.000000 0.899786
O O4 0.755034 0.070242 0.995982
O O5 0.767664 0.919428 0.552801
O O6 0.000000 0.954632 0.641860
O O7 0.765032 0.000000 0.616451
O O8 0.253029 0.822560 0.821966
O O9 0.000000 0.801032 0.923366
O O10 0.169788 0.856852 0.006418
O O11 0.267332 0.785281 0.018349
O O12 0.753431 0.156170 0.610174
O O13 0.757758 0.139122 0.397283
O O14 0.000000 0.127028 0.519073
O O15 0.500000 0.407885 0.610757
O O16 0.767103 0.385689 0.690157
O O17 0.266396 0.768483 0.672988
O O18 0.226069 0.690993 0.725035
O O19 0.000000 0.732840 0.647522
O O20 0.500000 0.182979 0.697825
O O21 0.000000 0.352070 0.791198
#
# Coordination Sequence:
#
# PCOD9374972 Si02
#       8
#     8   8   8   8   8   8   8   8
#     4   8  13  24  48  82 114 139 172 225 281 330
#     4   8  15  30  54  85 117 147 183 234 291 340
#     4  10  20  36  57  81 108 138 179 227 278 330
#     4  11  22  37  59  85 113 148 193 241 288 341
#     4   9  17  32  55  80 106 140 181 224 274 329
#     4  10  22  40  59  79 106 143 187 234 286 338
#     4  12  25  38  56  82 114 148 185 229 278 338
#     4  10  22  39  57  77 108 148 189 233 284 339
#
# _framework density 18.256934000000001
#
# number of rings (size 3 to 8) (size 9 to 14) (size 15 to 20)
#    0.000    2.250    0.000    4.125    1.750    4.000 
#    0.000    0.625    0.000    5.625    0.000    3.500 
#    0.000    0.000    0.000    0.000    0.000    0.000 
#
# Total GULP energy -178537.144023 kJ/mol
# GULP energy per Si atom -5579.285751 kJ/mol
# Density = 1.821538 g / cm^3
# Si number density = 18.256934 Si / 1000 Ang^3
#
#
#
# Elastic Constant Matrix: (Units=GPa)
#
#
# Indices 1 2 3 4 5 6 
#
# 1 58.1061 28.5156 50.0130 -0.0002 0.0000 -0.0001
# 2 28.5156 61.3213 59.2393 -0.0009 -0.0001 -0.0006
# 3 50.0130 59.2393 154.8808 -0.0005 -0.0001 -0.0007
# 4 -0.0002 -0.0009 -0.0005 12.7079 -0.0001 -0.0005
# 5 0.0000 -0.0001 -0.0001 -0.0001 27.5663 -0.0001
# 6 -0.0001 -0.0006 -0.0007 -0.0005 -0.0001 9.4594
#
#
#
# Elastic Compliance Matrix: (Units=1/GPa)
#
#
# Indices 1 2 3 4 5 6 
#
# 1 0.025203 -0.006119 -0.005798 0.000000 0.000000 -0.000001
# 2 -0.006119 0.027350 -0.008485 0.000002 0.000000 0.000001
# 3 -0.005798 -0.008485 0.011574 0.000000 0.000000 0.000000
# 4 0.000000 0.000002 0.000000 0.078691 0.000000 0.000004
# 5 0.000000 0.000000 0.000000 0.000000 0.036276 0.000000
# 6 -0.000001 0.000001 0.000000 0.000004 0.000000 0.105715
#
#
# Mechanical properties :
#
#
# Convention : Reuss Voigt Hill
#
# Bulk Modulus (GPa) = 42.87512 61.09378 51.98445
# Shear Modulus (GPa) = 14.99754 19.04941 17.02347
#
# Velocity S-wave (km/s) = 2.86924 3.23368 3.05690
# Velocity P-wave (km/s) = 5.87469 6.89045 6.40274
#
# Compressibility (1/GPa) = 0.02332355
#
# Stress axis : x y z
#
# Youngs Moduli (GPa) = 39.67743 36.56329 86.39853
#
# Poissons Ratio (x) = 0.22372 0.50095
# Poissons Ratio (y) = 0.24277 0.73310
# Poissons Ratio (z) = 0.23006 0.31024
#
# Static dielectric constant tensor:
#      x y z
#    x 1.623810 0.000000 0.000000 
#    y 0.000000 1.634600 0.000000 
#    z 0.000000 0.000000 1.617550 
# 
# From -- ./inp_files/11415.got.cif
#   From: 2010.05.17/outbox.cif.g08.bks.cpg/sg44_6_cif.got.tgz:11415.got - 2010.06.03 19:37:08.
