data_PCOD9374673
_publ_section_title
;
Structure prediction by ZEFSAII (Michael W. Deem and Ramdas Pophale) SiO2 
 PCOD9374673
Probable space group: I M M 2
;
_chemical_formula_sum "Si O2"
_cell_formula_units_Z 48
_cell_length_a 7.746708
_cell_length_b 7.571999
_cell_length_c 39.956735
_cell_angle_alpha 90.000000
_cell_angle_beta 90.000000
_cell_angle_gamma 90.000000
_cell_volume 2343.784768
_symmetry_space_group_name_H-M "I M M 2"
_symmetry_group_IT_number 44
_symmetry_cell_setting 'orthorhombic'
loop_
_space_group_symop_operation_xyz
x,y,z
-x,-y,z
-x,y,z
x,-y,z
1/2+x,1/2+y,1/2+z
1/2-x,1/2-y,1/2+z
1/2-x,1/2+y,1/2+z
1/2+x,1/2-y,1/2+z
loop_
_atom_site_type_symbol
_atom_site_label
_atom_site_fract_x
_atom_site_fract_y
_atom_site_fract_z
Si Si1 0.191300 0.784402 0.406330
Si Si2 0.708997 0.797362 0.480892
Si Si3 0.000000 0.287766 0.859984
Si Si4 0.289344 0.798640 0.659502
Si Si5 0.788860 0.000000 0.032126
Si Si6 0.197421 0.284139 0.234207
Si Si7 0.711449 0.500000 0.608666
Si Si8 0.500000 0.288620 0.281752
O O1 0.230424 0.732172 0.444522
O O2 0.333310 0.722111 0.380153
O O3 0.000000 0.729294 0.396716
O O4 0.197264 0.000000 0.406708
O O5 0.500000 0.797307 0.479915
O O6 0.765068 0.670641 0.510783
O O7 0.766068 0.000000 0.485476
O O8 0.000000 0.247532 0.820961
O O9 0.000000 0.500000 0.862913
O O10 0.500000 0.800900 0.659689
O O11 0.242123 0.734721 0.696786
O O12 0.233640 0.670116 0.630018
O O13 0.230737 0.000000 0.654909
O O14 0.730139 0.000000 0.070383
O O15 0.000000 0.000000 0.032689
O O16 0.193968 0.500000 0.234027
O O17 0.329784 0.223324 0.262426
O O18 0.000000 0.225453 0.239469
O O19 0.500000 0.500000 0.608216
O O20 0.500000 0.500000 0.277745
#
# Coordination Sequence:
#
# PCOD9374673 Si02
#       8
#     8   8   4   8   4   8   4   4
#     4   9  17  32  55  76  97 135 181 219 263 320
#     4   9  16  30  50  72 101 138 179 224 270 318
#     4  10  20  36  52  74 110 136 166 224 276 320
#     4   8  14  26  45  68  97 136 178 222 267 313
#     4   9  18  28  43  75 111 142 175 225 278 325
#     4   8  15  30  51  73  99 133 177 221 259 311
#     4   9  16  26  42  72 110 138 174 222 274 324
#     4  10  20  34  52  76 104 140 172 212 276 326
#
# _framework density 20.479696000000001
#
# number of rings (size 3 to 8) (size 9 to 14) (size 15 to 20)
#    0.000    3.167    0.833    1.000    0.000    1.333 
#    3.000    3.750    0.000    0.000    4.333    0.000 
#    0.000    0.000    0.000    0.000    0.000    0.000 
#
# Total GULP energy -133952.247658 kJ/mol
# GULP energy per Si atom -5581.343652 kJ/mol
# Density = 2.043308 g / cm^3
# Si number density = 20.479696 Si / 1000 Ang^3
#
#
#
# Elastic Constant Matrix: (Units=GPa)
#
#
# Indices 1 2 3 4 5 6 
#
# 1 89.4832 26.0425 82.7079 0.0000 0.0000 0.0000
# 2 26.0425 73.7184 60.0365 0.0000 0.0000 0.0000
# 3 82.7079 60.0365 226.6419 0.0000 0.0000 0.0000
# 4 0.0000 0.0000 0.0000 32.8982 0.0000 0.0000
# 5 0.0000 0.0000 0.0000 0.0000 -15.0390 0.0000
# 6 0.0000 0.0000 0.0000 0.0000 0.0000 -3.9964
#
#
#
# Elastic Compliance Matrix: (Units=1/GPa)
#
#
# Indices 1 2 3 4 5 6 
#
# 1 0.016948 -0.001212 -0.005864 0.000000 0.000000 0.000000
# 2 -0.001212 0.017383 -0.004163 0.000000 0.000000 0.000000
# 3 -0.005864 -0.004163 0.007655 0.000000 0.000000 0.000000
# 4 0.000000 0.000000 0.000000 0.030397 0.000000 0.000000
# 5 0.000000 0.000000 0.000000 0.000000 -0.066494 0.000000
# 6 0.000000 0.000000 0.000000 0.000000 0.000000 -0.250225
#
#
# Mechanical properties :
#
#
# Convention : Reuss Voigt Hill
#
# Bulk Modulus (GPa) = 51.25664 80.82414 66.04039
# Shear Modulus (GPa) = -23.21721 17.50966 -2.85378
#
# Velocity S-wave (km/s) = -3.37065 2.92717 -1.18173
# Velocity P-wave (km/s) = 3.15182 7.13972 5.51859
#
# Compressibility (1/GPa) = 0.01950967
#
# Stress axis : x y z
#
# Youngs Moduli (GPa) = 59.00524 57.52688 130.63843
#
# Poissons Ratio (x) = 0.06970 0.76602
# Poissons Ratio (y) = 0.07150 0.54379
# Poissons Ratio (z) = 0.34599 0.23946
#
# Static dielectric constant tensor:
#      x y z
#    x 1.750210 0.000000 0.000000 
#    y 0.000000 1.752910 0.000000 
#    z 0.000000 0.000000 1.679740 
# 
# From -- ./inp_files/27011.got.cif
#   From: 2010.05.17/outbox.cif.g08.bks.cpg/sg44_14_cif.got.tgz:27011.got - 2010.06.03 19:37:08.
