data_PCOD9374822
_publ_section_title
;
Structure prediction by ZEFSAII (Michael W. Deem and Ramdas Pophale) SiO2 
 PCOD9374822
Probable space group: I M M 2
;
_chemical_formula_sum "Si O2"
_cell_formula_units_Z 64
_cell_length_a 32.158333
_cell_length_b 13.378500
_cell_length_c 10.236237
_cell_angle_alpha 90.000000
_cell_angle_beta 90.000000
_cell_angle_gamma 90.000000
_cell_volume 4403.938886
_symmetry_space_group_name_H-M "I M M 2"
_symmetry_group_IT_number 44
_symmetry_cell_setting 'orthorhombic'
loop_
_space_group_symop_operation_xyz
x,y,z
-x,-y,z
-x,y,z
x,-y,z
1/2+x,1/2+y,1/2+z
1/2-x,1/2-y,1/2+z
1/2-x,1/2+y,1/2+z
1/2+x,1/2-y,1/2+z
loop_
_atom_site_type_symbol
_atom_site_label
_atom_site_fract_x
_atom_site_fract_y
_atom_site_fract_z
Si Si1 0.186489 0.193063 0.934020
Si Si2 0.729388 0.883473 0.327584
Si Si3 0.545615 0.379106 0.559711
Si Si4 0.632715 0.621832 0.677504
Si Si5 0.724720 0.115562 0.014940
Si Si6 0.363805 0.619431 0.182964
Si Si7 0.318607 0.691940 0.924610
Si Si8 0.953786 0.878555 0.754174
O O1 0.199166 0.307369 0.903276
O O2 0.158977 0.154893 0.813979
O O3 0.161088 0.169603 0.064609
O O4 0.230204 0.135217 0.950776
O O5 0.728115 0.862161 0.171118
O O6 0.775720 0.861990 0.381436
O O7 0.719263 0.000000 0.345978
O O8 0.500000 0.344046 0.603874
O O9 0.544905 0.500000 0.560635
O O10 0.585173 0.350863 0.644879
O O11 0.551018 0.351116 0.407383
O O12 0.637118 0.500000 0.675628
O O13 0.648471 0.665651 0.813230
O O14 0.713164 0.000000 0.000555
O O15 0.693360 0.192484 0.946867
O O16 0.365030 0.500000 0.185024
O O17 0.411970 0.655381 0.181506
O O18 0.337072 0.653539 0.060202
O O19 0.000000 0.845148 0.710251
O O20 0.954315 0.000000 0.748702
#
# Coordination Sequence:
#
# PCOD9374822 Si02
#       8
#     8   8   8   8   8   8   8   8
#     4  11  20  31  49  71  88 123 166 193 228 284
#     4  10  20  35  50  66  94 125 156 202 247 273
#     4   8  14  25  43  67  92 124 161 189 223 276
#     4  11  19  31  49  69 100 132 155 191 236 279
#     4  10  20  35  51  66  92 126 159 199 243 278
#     4  11  19  29  45  71  98 122 160 197 228 276
#     4  11  22  33  47  71  94 126 160 196 236 285
#     4   8  14  25  42  65  94 126 157 191 229 271
#
# _framework density 14.532444
#
# number of rings (size 3 to 8) (size 9 to 14) (size 15 to 20)
#    0.000    2.000    3.750    3.000    0.000    0.000 
#    0.000    2.500    0.000    3.000    0.000    0.000 
#    0.000    6.000    0.000    0.000    0.000    0.000 
#
# Total GULP energy -178266.425227 kJ/mol
# GULP energy per Si atom -5570.825788 kJ/mol
# Density = 1.449937 g / cm^3
# Si number density = 14.532444 Si / 1000 Ang^3
#
#
#
# Elastic Constant Matrix: (Units=GPa)
#
#
# Indices 1 2 3 4 5 6 
#
# 1 66.2333 25.3195 -2.3750 0.0000 0.0000 0.0000
# 2 25.3195 65.5192 15.0515 0.0000 0.0000 0.0000
# 3 -2.3750 15.0515 33.0045 0.0000 0.0000 0.0000
# 4 0.0000 0.0000 0.0000 22.5317 0.0000 0.0000
# 5 0.0000 0.0000 0.0000 0.0000 12.5015 0.0000
# 6 0.0000 0.0000 0.0000 0.0000 0.0000 8.2715
#
#
#
# Elastic Compliance Matrix: (Units=1/GPa)
#
#
# Indices 1 2 3 4 5 6 
#
# 1 0.018458 -0.008308 0.005117 0.000000 0.000000 0.000000
# 2 -0.008308 0.020789 -0.010078 0.000000 0.000000 0.000000
# 3 0.005117 -0.010078 0.035263 0.000000 0.000000 0.000000
# 4 0.000000 0.000000 0.000000 0.044382 0.000000 0.000000
# 5 0.000000 0.000000 0.000000 0.000000 0.079990 0.000000
# 6 0.000000 0.000000 0.000000 0.000000 0.000000 0.120896
#
#
# Mechanical properties :
#
#
# Convention : Reuss Voigt Hill
#
# Bulk Modulus (GPa) = 20.84615 26.74990 23.79803
# Shear Modulus (GPa) = 13.80042 17.11170 15.45606
#
# Velocity S-wave (km/s) = 3.08495 3.43517 3.26476
# Velocity P-wave (km/s) = 5.20239 5.84644 5.53379
#
# Compressibility (1/GPa) = 0.04797048
#
# Stress axis : x y z
#
# Youngs Moduli (GPa) = 54.17773 48.10297 28.35809
#
# Poissons Ratio (x) = 0.39966 -0.14512
# Poissons Ratio (y) = 0.45013 0.28581
# Poissons Ratio (z) = -0.27724 0.48480
#
# Static dielectric constant tensor:
#      x y z
#    x 1.501370 0.000000 0.000000 
#    y 0.000000 1.464050 0.000000 
#    z 0.000000 0.000000 1.475370 
# 
# From -- ./inp_files/10159.got.cif
#   From: 2010.05.17/outbox.cif.g08.bks.cpg/sg44_6_cif.got.tgz:10159.got - 2010.06.03 19:37:08.
