data_PCOD9374477
_publ_section_title
;
Structure prediction by ZEFSAII (Michael W. Deem and Ramdas Pophale) SiO2 
 PCOD9374477
Probable space group: I M M 2
;
_chemical_formula_sum "Si O2"
_cell_formula_units_Z 40
_cell_length_a 14.062828
_cell_length_b 8.334755
_cell_length_c 19.120332
_cell_angle_alpha 90.000000
_cell_angle_beta 90.000000
_cell_angle_gamma 90.000000
_cell_volume 2241.098435
_symmetry_space_group_name_H-M "I M M 2"
_symmetry_group_IT_number 44
_symmetry_cell_setting 'orthorhombic'
loop_
_space_group_symop_operation_xyz
x,y,z
-x,-y,z
-x,y,z
x,-y,z
1/2+x,1/2+y,1/2+z
1/2-x,1/2-y,1/2+z
1/2-x,1/2+y,1/2+z
1/2+x,1/2-y,1/2+z
loop_
_atom_site_type_symbol
_atom_site_label
_atom_site_fract_x
_atom_site_fract_y
_atom_site_fract_z
Si Si1 0.201702 0.307635 0.040660
Si Si2 0.606615 0.695634 0.970591
Si Si3 0.392893 0.307797 0.398138
Si Si4 0.890511 0.193860 0.184005
Si Si5 0.206091 0.193605 0.326997
O O1 0.200496 0.500000 0.041227
O O2 0.161520 0.245091 0.113342
O O3 0.309725 0.253858 0.023232
O O4 0.138399 0.250543 0.975142
O O5 0.500000 0.751726 0.985861
O O6 0.605142 0.500000 0.971203
O O7 0.640683 0.744352 0.892833
O O8 0.500000 0.252209 0.382406
O O9 0.391954 0.500000 0.398189
O O10 0.312638 0.247811 0.344734
O O11 0.835888 0.250932 0.253528
O O12 0.000000 0.249614 0.184005
O O13 0.892106 0.000000 0.186297
O O14 0.205083 0.000000 0.326571
#
# Coordination Sequence:
#
# PCOD9374477 Si02
#       5
#     8   8   8   8   8
#     4  10  20  32  50  76 102 131 169 208 244 288
#     4   8  14  28  50  72  93 121 160 203 244 288
#     4  10  20  34  52  73  99 132 167 204 248 296
#     4  10  20  34  52  74 102 134 164 199 248 300
#     4   9  18  32  52  76  98 124 163 207 248 295
#
# _framework density 17.848390999999999
#
# number of rings (size 3 to 8) (size 9 to 14) (size 15 to 20)
#    0.000    2.600    0.000    3.600    0.000    7.600 
#    0.000    1.000    0.000   23.400    0.000    0.000 
#    0.000    0.000    0.000    0.000    0.000    0.000 
#
# Total GULP energy -111548.337597 kJ/mol
# GULP energy per Si atom -5577.416880 kJ/mol
# Density = 1.780777 g / cm^3
# Si number density = 17.848391 Si / 1000 Ang^3
#
#
#
# Elastic Constant Matrix: (Units=GPa)
#
#
# Indices 1 2 3 4 5 6 
#
# 1 193.0669 18.1032 104.3852 0.0000 0.0000 0.0000
# 2 18.1032 13.4008 17.0379 0.0000 0.0000 0.0000
# 3 104.3852 17.0379 153.2880 0.0000 0.0000 0.0000
# 4 0.0000 0.0000 0.0000 25.3725 0.0000 0.0000
# 5 0.0000 0.0000 0.0000 0.0000 16.3117 0.0000
# 6 0.0000 0.0000 0.0000 0.0000 0.0000 20.5960
#
#
#
# Elastic Compliance Matrix: (Units=1/GPa)
#
#
# Indices 1 2 3 4 5 6 
#
# 1 0.008452 -0.004775 -0.005225 0.000000 0.000000 0.000000
# 2 -0.004775 0.089601 -0.006707 0.000000 0.000000 0.000000
# 3 -0.005225 -0.006707 0.010827 0.000000 0.000000 0.000000
# 4 0.000000 0.000000 0.000000 0.039413 0.000000 0.000000
# 5 0.000000 0.000000 0.000000 0.000000 0.061306 0.000000
# 6 0.000000 0.000000 0.000000 0.000000 0.000000 0.048553
#
#
# Mechanical properties :
#
#
# Convention : Reuss Voigt Hill
#
# Bulk Modulus (GPa) = 13.25114 70.97871 42.11492
# Shear Modulus (GPa) = 15.78671 27.13799 21.46235
#
# Velocity S-wave (km/s) = 2.97726 3.90355 3.47144
# Velocity P-wave (km/s) = 4.38853 7.75699 6.30199
#
# Compressibility (1/GPa) = 0.07546523
#
# Stress axis : x y z
#
# Youngs Moduli (GPa) = 118.31069 11.16064 92.35893
#
# Poissons Ratio (x) = 0.05329 0.48258
# Poissons Ratio (y) = 0.56494 0.61949
# Poissons Ratio (z) = 0.61818 0.07486
#
# Static dielectric constant tensor:
#      x y z
#    x 1.622200 0.000000 0.000000 
#    y 0.000000 1.622760 0.000000 
#    z 0.000000 0.000000 1.581750 
# 
# From -- ./inp_files/15800.got.cif
#   From: 2010.05.17/outbox.cif.g08.bks.cpg/sg44_8_cif.got.tgz:15800.got - 2010.06.03 19:37:08.
