data_PCOD9374539
_publ_section_title
;
Structure prediction by ZEFSAII (Michael W. Deem and Ramdas Pophale) SiO2 
 PCOD9374539
Probable space group: I M M 2
;
_chemical_formula_sum "Si O2"
_cell_formula_units_Z 64
_cell_length_a 9.540593
_cell_length_b 7.580261
_cell_length_c 43.068237
_cell_angle_alpha 90.000000
_cell_angle_beta 90.000000
_cell_angle_gamma 90.000000
_cell_volume 3114.702869
_symmetry_space_group_name_H-M "I M M 2"
_symmetry_group_IT_number 44
_symmetry_cell_setting 'orthorhombic'
loop_
_space_group_symop_operation_xyz
x,y,z
-x,-y,z
-x,y,z
x,-y,z
1/2+x,1/2+y,1/2+z
1/2-x,1/2-y,1/2+z
1/2-x,1/2+y,1/2+z
1/2+x,1/2-y,1/2+z
loop_
_atom_site_type_symbol
_atom_site_label
_atom_site_fract_x
_atom_site_fract_y
_atom_site_fract_z
Si Si1 0.837049 0.711868 0.591750
Si Si2 0.160841 0.716514 0.965658
Si Si3 0.840226 0.790660 0.524049
Si Si4 0.838868 0.783603 0.778621
Si Si5 0.659908 0.211302 0.837230
Si Si6 0.159728 0.788544 0.407069
Si Si7 0.341613 0.209860 0.720035
Si Si8 0.837986 0.712775 0.659574
O O1 0.834869 0.500000 0.592059
O O2 0.777078 0.765571 0.558503
O O3 0.784060 0.772343 0.625482
O O4 0.000000 0.769953 0.591028
O O5 0.160821 0.500000 0.965742
O O6 0.241101 0.775140 0.934591
O O7 0.000000 0.772920 0.966101
O O8 0.245216 0.776973 0.996104
O O9 0.000000 0.718018 0.523297
O O10 0.851856 0.000000 0.519383
O O11 0.760974 0.725131 0.810001
O O12 0.750950 0.722700 0.748733
O O13 0.000000 0.726881 0.777209
O O14 0.839810 0.000000 0.778473
O O15 0.500000 0.279558 0.834072
O O16 0.709112 0.249519 0.872170
O O17 0.652761 0.000000 0.834104
O O18 0.000000 0.720422 0.410106
O O19 0.152974 0.000000 0.409997
O O20 0.500000 0.281380 0.719359
O O21 0.260179 0.236227 0.687881
O O22 0.352444 0.000000 0.724818
O O23 0.842745 0.500000 0.658879
O O24 0.000000 0.773026 0.663830
#
# Coordination Sequence:
#
# PCOD9374539 Si02
#       8
#     8   8   8   8   8   8   8   8
#     4   8  15  29  48  69  93 121 152 187 229 277
#     4   9  17  29  45  65  90 120 151 185 228 272
#     4   9  16  27  46  70  91 114 150 191 226 266
#     4   9  17  30  49  71  94 123 158 194 234 279
#     4   9  17  30  48  69  93 120 150 186 229 276
#     4   9  17  30  48  68  90 118 152 187 223 268
#     4  10  20  33  50  73  99 127 162 202 241 283
#     4   9  18  33  52  73  98 128 161 197 240 290
#
# _framework density 20.547706000000002
#
# number of rings (size 3 to 8) (size 9 to 14) (size 15 to 20)
#    0.000    3.000    0.000    1.875    0.000    5.000 
#    0.000    3.125    0.000    8.625    0.000    0.000 
#    0.000    0.000    0.000    0.000    0.000    0.000 
#
# Total GULP energy -178464.112562 kJ/mol
# GULP energy per Si atom -5577.003518 kJ/mol
# Density = 2.050094 g / cm^3
# Si number density = 20.547706 Si / 1000 Ang^3
#
#
#
# Elastic Constant Matrix: (Units=GPa)
#
#
# Indices 1 2 3 4 5 6 
#
# 1 133.6147 6.5572 131.2802 0.0000 0.0000 0.0000
# 2 6.5572 42.5880 0.5270 0.0000 0.0000 0.0000
# 3 131.2802 0.5270 243.9088 0.0000 0.0000 0.0000
# 4 0.0000 0.0000 0.0000 21.2857 0.0000 0.0000
# 5 0.0000 0.0000 0.0000 0.0000 27.7806 0.0000
# 6 0.0000 0.0000 0.0000 0.0000 0.0000 5.2992
#
#
#
# Elastic Compliance Matrix: (Units=1/GPa)
#
#
# Indices 1 2 3 4 5 6 
#
# 1 0.016121 -0.002375 -0.008672 0.000000 0.000000 0.000000
# 2 -0.002375 0.023831 0.001227 0.000000 0.000000 0.000000
# 3 -0.008672 0.001227 0.008765 0.000000 0.000000 0.000000
# 4 0.000000 0.000000 0.000000 0.046980 0.000000 0.000000
# 5 0.000000 0.000000 0.000000 0.000000 0.035996 0.000000
# 6 0.000000 0.000000 0.000000 0.000000 0.000000 0.188706
#
#
# Mechanical properties :
#
#
# Convention : Reuss Voigt Hill
#
# Bulk Modulus (GPa) = 34.39116 77.42668 55.90892
# Shear Modulus (GPa) = 14.29668 29.65626 21.97647
#
# Velocity S-wave (km/s) = 2.64063 3.80318 3.27392
# Velocity P-wave (km/s) = 5.10595 7.55307 6.44669
#
# Compressibility (1/GPa) = 0.02907724
#
# Stress axis : x y z
#
# Youngs Moduli (GPa) = 62.03098 41.96171 114.09440
#
# Poissons Ratio (x) = 0.09965 0.98940
# Poissons Ratio (y) = 0.14731 -0.13996
# Poissons Ratio (z) = 0.53792 -0.05148
#
# Static dielectric constant tensor:
#      x y z
#    x 1.707880 0.000000 0.000000 
#    y 0.000000 1.779010 0.000000 
#    z 0.000000 0.000000 1.730560 
# 
# From -- ./inp_files/27193.got.cif
#   From: 2010.05.17/outbox.cif.g08.bks.cpg/sg44_14_cif.got.tgz:27193.got - 2010.06.03 19:37:08.
