data_PCOD9374169
_publ_section_title
;
Structure prediction by ZEFSAII (Michael W. Deem and Ramdas Pophale) SiO2 
 PCOD9374169
Probable space group: I M M 2
;
_chemical_formula_sum "Si O2"
_cell_formula_units_Z 64
_cell_length_a 13.561122
_cell_length_b 19.834238
_cell_length_c 12.451094
_cell_angle_alpha 90.000000
_cell_angle_beta 90.000000
_cell_angle_gamma 90.000000
_cell_volume 3349.027048
_symmetry_space_group_name_H-M "I M M 2"
_symmetry_group_IT_number 44
_symmetry_cell_setting 'orthorhombic'
loop_
_space_group_symop_operation_xyz
x,y,z
-x,-y,z
-x,y,z
x,-y,z
1/2+x,1/2+y,1/2+z
1/2-x,1/2-y,1/2+z
1/2-x,1/2+y,1/2+z
1/2+x,1/2-y,1/2+z
loop_
_atom_site_type_symbol
_atom_site_label
_atom_site_fract_x
_atom_site_fract_y
_atom_site_fract_z
Si Si1 0.203889 0.194346 0.769160
Si Si2 0.816057 0.708917 0.949254
Si Si3 0.888344 0.225312 0.553862
Si Si4 0.118705 0.575849 0.846784
Si Si5 0.115991 0.228016 0.172923
Si Si6 0.884462 0.925131 0.148157
Si Si7 0.222169 0.074427 0.934345
Si Si8 0.886733 0.615601 0.603161
O O1 0.153310 0.251113 0.842738
O O2 0.143410 0.184277 0.660011
O O3 0.311038 0.223960 0.738468
O O4 0.215067 0.129779 0.843436
O O5 0.842370 0.631619 0.929024
O O6 0.698403 0.714890 0.968418
O O7 0.865824 0.746320 0.050545
O O8 0.882940 0.303650 0.589844
O O9 0.000000 0.210792 0.518700
O O10 0.152068 0.500000 0.870965
O O11 0.143823 0.593786 0.722945
O O12 0.000000 0.577758 0.851879
O O13 0.148609 0.149499 0.186899
O O14 0.000000 0.233895 0.198513
O O15 0.000000 0.926708 0.172561
O O16 0.844220 0.000000 0.181306
O O17 0.866758 0.921380 0.019971
O O18 0.226146 0.000000 0.887606
O O19 0.315721 0.086032 0.012591
O O20 0.000000 0.593936 0.587681
#
# Coordination Sequence:
#
# PCOD9374169 Si02
#       8
#     8   8   8   8   8   8   8   8
#     4  11  21  35  55  83 110 145 194 230 269 340
#     4  11  20  36  59  82 113 147 193 227 277 335
#     4  10  21  36  57  84 116 147 186 237 279 323
#     4  10  21  36  58  89 118 145 182 232 288 341
#     4  10  21  36  54  80 112 147 184 235 279 325
#     4   9  18  33  54  80 107 136 172 219 282 338
#     4  11  21  35  55  81 116 148 178 227 284 334
#     4  10  19  34  56  86 116 144 177 225 289 345
#
# _framework density 19.110028
#
# number of rings (size 3 to 8) (size 9 to 14) (size 15 to 20)
#    0.000    1.750    3.750    1.500    0.000    2.750 
#    0.000    2.500    0.000    1.875    0.000    0.000 
#    0.000    0.000    0.000    0.000    0.000    0.000 
#
# Total GULP energy -178550.714635 kJ/mol
# GULP energy per Si atom -5579.709832 kJ/mol
# Density = 1.906653 g / cm^3
# Si number density = 19.110028 Si / 1000 Ang^3
#
#
#
# Elastic Constant Matrix: (Units=GPa)
#
#
# Indices 1 2 3 4 5 6 
#
# 1 59.0408 15.6675 -14.3075 0.0000 0.0000 0.0000
# 2 15.6675 115.7291 -3.4423 0.0000 0.0000 0.0000
# 3 -14.3075 -3.4423 19.2196 0.0000 0.0000 0.0000
# 4 0.0000 0.0000 0.0000 27.8617 0.0000 0.0000
# 5 0.0000 0.0000 0.0000 0.0000 16.2384 0.0000
# 6 0.0000 0.0000 0.0000 0.0000 0.0000 20.7150
#
#
#
# Elastic Compliance Matrix: (Units=1/GPa)
#
#
# Indices 1 2 3 4 5 6 
#
# 1 0.021323 -0.002428 0.015438 0.000000 0.000000 0.000000
# 2 -0.002428 0.008964 -0.000202 0.000000 0.000000 0.000000
# 3 0.015438 -0.000202 0.063487 0.000000 0.000000 0.000000
# 4 0.000000 0.000000 0.000000 0.035892 0.000000 0.000000
# 5 0.000000 0.000000 0.000000 0.000000 0.061582 0.000000
# 6 0.000000 0.000000 0.000000 0.000000 0.000000 0.048274
#
#
# Mechanical properties :
#
#
# Convention : Reuss Voigt Hill
#
# Bulk Modulus (GPa) = 8.37579 21.09167 14.73373
# Shear Modulus (GPa) = 19.70831 26.03448 22.87139
#
# Velocity S-wave (km/s) = 3.21488 3.69500 3.46327
# Velocity P-wave (km/s) = 4.26299 5.40971 4.87022
#
# Compressibility (1/GPa) = 0.11939173
#
# Stress axis : x y z
#
# Youngs Moduli (GPa) = 46.89805 111.56349 15.75128
#
# Poissons Ratio (x) = 0.27082 -0.24318
# Poissons Ratio (y) = 0.11385 0.00318
# Poissons Ratio (z) = -0.72403 0.02250
#
# Static dielectric constant tensor:
#      x y z
#    x 1.706090 0.000000 0.000000 
#    y 0.000000 1.690450 0.000000 
#    z 0.000000 0.000000 1.646380 
# 
# From -- ./inp_files/13419.got.cif
#   From: 2010.05.17/outbox.cif.g08.bks.cpg/sg44_7_cif.got.tgz:13419.got - 2010.06.03 19:37:08.
