data_PCOD9374863
_publ_section_title
;
Structure prediction by ZEFSAII (Michael W. Deem and Ramdas Pophale) SiO2 
 PCOD9374863
Probable space group: I M M 2
;
_chemical_formula_sum "Si O2"
_cell_formula_units_Z 64
_cell_length_a 7.608132
_cell_length_b 25.545694
_cell_length_c 14.039733
_cell_angle_alpha 90.000000
_cell_angle_beta 90.000000
_cell_angle_gamma 90.000000
_cell_volume 2728.692475
_symmetry_space_group_name_H-M "I M M 2"
_symmetry_group_IT_number 44
_symmetry_cell_setting 'orthorhombic'
loop_
_space_group_symop_operation_xyz
x,y,z
-x,-y,z
-x,y,z
x,-y,z
1/2+x,1/2+y,1/2+z
1/2-x,1/2-y,1/2+z
1/2-x,1/2+y,1/2+z
1/2+x,1/2-y,1/2+z
loop_
_atom_site_type_symbol
_atom_site_label
_atom_site_fract_x
_atom_site_fract_y
_atom_site_fract_z
Si Si1 0.200887 0.057252 0.504750
Si Si2 0.297514 0.273919 0.581614
Si Si3 0.294798 0.889537 0.324309
Si Si4 0.797580 0.161444 0.825317
Si Si5 0.715266 0.226166 0.305654
Si Si6 0.787763 0.112017 0.104247
Si Si7 0.706294 0.163332 0.607599
Si Si8 0.214558 0.943225 0.918600
O O1 0.204972 0.068543 0.391812
O O2 0.279101 0.109111 0.552058
O O3 0.000000 0.055910 0.537573
O O4 0.280146 0.000000 0.525026
O O5 0.500000 0.274872 0.548759
O O6 0.285700 0.272897 0.697443
O O7 0.222313 0.331762 0.562839
O O8 0.225196 0.216410 0.556014
O O9 0.500000 0.891650 0.348268
O O10 0.231365 0.830196 0.345585
O O11 0.274966 0.897062 0.211347
O O12 0.726829 0.219121 0.852573
O O13 0.793745 0.159084 0.710822
O O14 0.718071 0.107653 0.863034
O O15 0.000000 0.161467 0.857673
O O16 0.500000 0.226451 0.301614
O O17 0.000000 0.115890 0.109060
O O18 0.742804 0.067489 0.028999
O O19 0.500000 0.172935 0.624604
O O20 0.000000 0.943821 0.910442
O O21 0.277516 0.000000 0.886297
#
# Coordination Sequence:
#
# PCOD9374863 Si02
#       8
#     8   8   8   8   8   8   8   8
#     4  11  25  42  57  75 101 137 182 223 262 322
#     4   8  15  28  49  77 106 136 169 207 256 313
#     4  10  20  35  56  81 108 135 168 217 272 319
#     4   9  17  32  54  78 108 145 180 214 256 309
#     4   8  15  28  49  77 106 136 169 207 256 313
#     4   9  17  32  54  78 108 145 180 214 256 309
#     4  10  20  35  56  81 108 135 168 217 272 319
#     4   9  18  31  49  75 103 135 180 223 250 284
#
# _framework density 23.454457000000001
#
# number of rings (size 3 to 8) (size 9 to 14) (size 15 to 20)
#    0.000    2.750    0.000    1.125    0.000    4.000 
#    0.000    6.875    0.000    0.750    0.000    0.000 
#    0.000    0.000    0.000    0.000    0.000    0.000 
#
# Total GULP energy -178556.407375 kJ/mol
# GULP energy per Si atom -5579.887730 kJ/mol
# Density = 2.340107 g / cm^3
# Si number density = 23.454457 Si / 1000 Ang^3
#
#
#
# Elastic Constant Matrix: (Units=GPa)
#
#
# Indices 1 2 3 4 5 6 
#
# 1 57.8997 8.6274 -2.9516 0.0000 0.0000 0.0000
# 2 8.6274 139.0836 13.6612 0.0001 -0.0001 0.0000
# 3 -2.9516 13.6612 45.0598 -0.0003 0.0001 0.0000
# 4 0.0000 0.0001 -0.0003 28.6089 0.0003 0.0000
# 5 0.0000 -0.0001 0.0001 0.0003 4.1965 0.0000
# 6 0.0000 0.0000 0.0000 0.0000 0.0000 11.6402
#
#
#
# Elastic Compliance Matrix: (Units=1/GPa)
#
#
# Indices 1 2 3 4 5 6 
#
# 1 0.017533 -0.001237 0.001524 0.000000 0.000000 0.000000
# 2 -0.001237 0.007498 -0.002354 0.000000 0.000000 0.000000
# 3 0.001524 -0.002354 0.023006 0.000000 -0.000001 0.000000
# 4 0.000000 0.000000 0.000000 0.034954 -0.000003 0.000000
# 5 0.000000 0.000000 -0.000001 -0.000003 0.238293 0.000001
# 6 0.000000 0.000000 0.000000 0.000000 0.000001 0.085909
#
#
# Mechanical properties :
#
#
# Convention : Reuss Voigt Hill
#
# Bulk Modulus (GPa) = 22.77814 31.19077 26.98445
# Shear Modulus (GPa) = 11.73810 23.73621 17.73715
#
# Velocity S-wave (km/s) = 2.23953 3.18467 2.75296
# Velocity P-wave (km/s) = 4.05217 5.18171 4.65135
#
# Compressibility (1/GPa) = 0.04390174
#
# Stress axis : x y z
#
# Youngs Moduli (GPa) = 57.03439 133.37055 43.46632
#
# Poissons Ratio (x) = 0.16501 -0.06623
# Poissons Ratio (y) = 0.07057 0.10233
# Poissons Ratio (z) = -0.08690 0.31399
#
# Static dielectric constant tensor:
#      x y z
#    x 1.923670 0.000000 0.000000 
#    y 0.000000 1.926770 0.000000 
#    z 0.000000 0.000000 1.881110 
# 
# From -- ./inp_files/16891.got.cif
#   From: 2010.05.17/outbox.cif.g08.bks.cpg/sg44_9_cif.got.tgz:16891.got - 2010.06.03 19:37:08.
