data_PCOD9374788
_publ_section_title
;
Structure prediction by ZEFSAII (Michael W. Deem and Ramdas Pophale) SiO2 
 PCOD9374788
Probable space group: I M M 2
;
_chemical_formula_sum "Si O2"
_cell_formula_units_Z 48
_cell_length_a 10.502117
_cell_length_b 8.747736
_cell_length_c 28.673289
_cell_angle_alpha 90.000000
_cell_angle_beta 90.000000
_cell_angle_gamma 90.000000
_cell_volume 2634.207805
_symmetry_space_group_name_H-M "I M M 2"
_symmetry_group_IT_number 44
_symmetry_cell_setting 'orthorhombic'
loop_
_space_group_symop_operation_xyz
x,y,z
-x,-y,z
-x,y,z
x,-y,z
1/2+x,1/2+y,1/2+z
1/2-x,1/2-y,1/2+z
1/2-x,1/2+y,1/2+z
1/2+x,1/2-y,1/2+z
loop_
_atom_site_type_symbol
_atom_site_label
_atom_site_fract_x
_atom_site_fract_y
_atom_site_fract_z
Si Si1 0.744021 0.683355 0.550480
Si Si2 0.754645 0.317728 0.762155
Si Si3 0.500000 0.182445 0.716836
Si Si4 0.500000 0.684120 0.613403
Si Si5 0.500000 0.183954 0.106325
Si Si6 0.350428 0.818056 0.456057
Si Si7 0.000000 0.817637 0.709434
Si Si8 0.848472 0.818323 0.856317
O O1 0.740156 0.500000 0.543590
O O2 0.624819 0.724328 0.583488
O O3 0.874341 0.721738 0.576769
O O4 0.727135 0.762386 0.500714
O O5 0.753877 0.500000 0.757870
O O6 0.625597 0.249341 0.741252
O O7 0.774188 0.267815 0.815655
O O8 0.874943 0.250422 0.734042
O O9 0.500000 0.234710 0.663040
O O10 0.500000 0.000000 0.719978
O O11 0.500000 0.500000 0.620651
O O12 0.500000 0.268741 0.155542
O O13 0.500000 0.000000 0.114875
O O14 0.500000 0.779367 0.464399
O O15 0.312093 0.737132 0.407927
O O16 0.340977 0.000000 0.450500
O O17 0.000000 0.000000 0.714628
O O18 0.000000 0.785647 0.850700
O O19 0.830987 0.000000 0.851765
#
# Coordination Sequence:
#
# PCOD9374788 Si02
#       8
#     8   8   4   4   4   8   4   8
#     4  10  20  36  58  84 115 152 196 241 293 351
#     4  12  24  41  64  90 123 161 202 248 301 360
#     4  12  26  42  61  88 125 162 202 251 303 359
#     4  10  20  36  59  84 113 154 202 245 293 353
#     4  10  22  38  57  84 119 158 196 243 297 353
#     4  10  20  34  56  86 117 149 192 243 297 353
#     4  12  24  40  63  92 121 158 206 253 301 355
#     4  10  20  36  61  90 120 151 193 246 299 353
#
# _framework density 18.221796000000001
#
# number of rings (size 3 to 8) (size 9 to 14) (size 15 to 20)
#    0.000    1.333    1.667    5.000    0.000    4.000 
#    0.000    0.833    0.000    1.000    0.000    0.000 
#    0.000    0.000    0.000    0.000    0.000    0.000 
#
# Total GULP energy -134202.982618 kJ/mol
# GULP energy per Si atom -5591.790942 kJ/mol
# Density = 1.818032 g / cm^3
# Si number density = 18.221796 Si / 1000 Ang^3
#
#
#
# Elastic Constant Matrix: (Units=GPa)
#
#
# Indices 1 2 3 4 5 6 
#
# 1 142.0873 63.3916 77.9445 0.0000 0.0000 0.0000
# 2 63.3916 105.0189 78.2363 0.0000 0.0000 0.0000
# 3 77.9445 78.2363 155.5957 0.0000 0.0000 0.0000
# 4 0.0000 0.0000 0.0000 41.3559 0.0000 0.0000
# 5 0.0000 0.0000 0.0000 0.0000 36.1409 0.0000
# 6 0.0000 0.0000 0.0000 0.0000 0.0000 22.0777
#
#
#
# Elastic Compliance Matrix: (Units=1/GPa)
#
#
# Indices 1 2 3 4 5 6 
#
# 1 0.010624 -0.003914 -0.003354 0.000000 0.000000 0.000000
# 2 -0.003914 0.016668 -0.006420 0.000000 0.000000 0.000000
# 3 -0.003354 -0.006420 0.011335 0.000000 0.000000 0.000000
# 4 0.000000 0.000000 0.000000 0.024180 0.000000 0.000000
# 5 0.000000 0.000000 0.000000 0.000000 0.027670 0.000000
# 6 0.000000 0.000000 0.000000 0.000000 0.000000 0.045295
#
#
# Mechanical properties :
#
#
# Convention : Reuss Voigt Hill
#
# Bulk Modulus (GPa) = 88.88514 93.53852 91.21183
# Shear Modulus (GPa) = 29.95853 32.12354 31.04103
#
# Velocity S-wave (km/s) = 4.05915 4.20327 4.13184
# Velocity P-wave (km/s) = 8.41751 8.66033 8.53978
#
# Compressibility (1/GPa) = 0.01125047
#
# Stress axis : x y z
#
# Youngs Moduli (GPa) = 94.12533 59.99688 88.22231
#
# Poissons Ratio (x) = 0.23485 0.29588
# Poissons Ratio (y) = 0.36845 0.56637
# Poissons Ratio (z) = 0.31568 0.38517
#
# Static dielectric constant tensor:
#      x y z
#    x 1.598550 0.000000 0.000000 
#    y 0.000000 1.610080 0.000000 
#    z 0.000000 0.000000 1.598340 
# 
# From -- ./inp_files/27067.got.cif
#   From: 2010.05.17/outbox.cif.g08.bks.cpg/sg44_14_cif.got.tgz:27067.got - 2010.06.03 19:37:08.
