data_PCOD9374525
_publ_section_title
;
Structure prediction by ZEFSAII (Michael W. Deem and Ramdas Pophale) SiO2 
 PCOD9374525
Probable space group: I M M 2
;
_chemical_formula_sum "Si O2"
_cell_formula_units_Z 64
_cell_length_a 20.585535
_cell_length_b 21.407268
_cell_length_c 7.743730
_cell_angle_alpha 90.000000
_cell_angle_beta 90.000000
_cell_angle_gamma 90.000000
_cell_volume 3412.507437
_symmetry_space_group_name_H-M "I M M 2"
_symmetry_group_IT_number 44
_symmetry_cell_setting 'orthorhombic'
loop_
_space_group_symop_operation_xyz
x,y,z
-x,-y,z
-x,y,z
x,-y,z
1/2+x,1/2+y,1/2+z
1/2-x,1/2-y,1/2+z
1/2-x,1/2+y,1/2+z
1/2+x,1/2-y,1/2+z
loop_
_atom_site_type_symbol
_atom_site_label
_atom_site_fract_x
_atom_site_fract_y
_atom_site_fract_z
Si Si1 0.291804 0.688638 0.239840
Si Si2 0.207670 0.431695 0.737558
Si Si3 0.928428 0.380010 0.155251
Si Si4 0.071618 0.766522 0.734138
Si Si5 0.428428 0.880010 0.234297
Si Si6 0.571618 0.733479 0.655411
Si Si7 0.792330 0.431695 0.151990
Si Si8 0.208196 0.811362 0.149708
O O1 0.365040 0.697159 0.169972
O O2 0.255106 0.625771 0.188295
O O3 0.250000 0.750000 0.194774
O O4 0.296994 0.687692 0.444774
O O5 0.229021 0.500000 0.674220
O O6 0.135033 0.416064 0.672057
O O7 0.255106 0.374229 0.701254
O O8 0.202886 0.434693 0.944774
O O9 0.921468 0.306780 0.200702
O O10 0.864968 0.416064 0.217492
O O11 0.000000 0.401680 0.212560
O O12 0.928531 0.382990 0.944774
O O13 0.078532 0.693220 0.688846
O O14 0.000000 0.787793 0.676300
O O15 0.071374 0.768800 0.944774
O O16 0.500000 0.901680 0.176988
O O17 0.500000 0.712207 0.713248
O O18 0.634961 0.697159 0.719577
O O19 0.770979 0.500000 0.215328
#
# Coordination Sequence:
#
# PCOD9374525 Si02
#       8
#     8   8   8   8   8   8   8   8
#     4  11  20  32  53  76 100 129 164 205 247 294
#     4  10  20  33  49  72 103 135 167 203 244 290
#     4   8  13  24  44  70  98 127 163 202 237 278
#     4   8  14  26  47  73  96 120 157 206 248 281
#     4   8  13  24  44  70  98 127 163 202 237 278
#     4   8  14  26  47  73  96 120 157 206 248 281
#     4  10  20  33  49  72 103 135 167 203 244 290
#     4  11  20  32  53  76 100 129 164 205 247 294
#
# _framework density 18.754536999999999
#
# number of rings (size 3 to 8) (size 9 to 14) (size 15 to 20)
#    0.000    2.750    2.500    2.250    0.000    1.000 
#    0.000    2.500    0.000    6.000    0.000    7.000 
#    0.000    0.000    0.000    0.000    0.000    0.000 
#
# Total GULP energy -178381.941154 kJ/mol
# GULP energy per Si atom -5574.435661 kJ/mol
# Density = 1.871185 g / cm^3
# Si number density = 18.754537 Si / 1000 Ang^3
#
#
#
# Elastic Constant Matrix: (Units=GPa)
#
#
# Indices 1 2 3 4 5 6 
#
# 1 171.3879 95.0114 10.2804 0.0000 0.0000 0.0000
# 2 95.0114 133.1332 8.5192 0.0000 0.0000 0.0000
# 3 10.2804 8.5192 28.6017 0.0000 0.0000 0.0000
# 4 0.0000 0.0000 0.0000 15.4736 0.0000 0.0000
# 5 0.0000 0.0000 0.0000 0.0000 15.8482 0.0000
# 6 0.0000 0.0000 0.0000 0.0000 0.0000 17.8229
#
#
#
# Elastic Compliance Matrix: (Units=1/GPa)
#
#
# Indices 1 2 3 4 5 6 
#
# 1 0.009713 -0.006839 -0.001454 0.000000 0.000000 0.000000
# 2 -0.006839 0.012472 -0.001257 0.000000 0.000000 0.000000
# 3 -0.001454 -0.001257 0.035860 0.000000 0.000000 0.000000
# 4 0.000000 0.000000 0.000000 0.064626 0.000000 0.000000
# 5 0.000000 0.000000 0.000000 0.000000 0.063099 0.000000
# 6 0.000000 0.000000 0.000000 0.000000 0.000000 0.056108
#
#
# Mechanical properties :
#
#
# Convention : Reuss Voigt Hill
#
# Bulk Modulus (GPa) = 25.67686 62.30500 43.99093
# Shear Modulus (GPa) = 18.25088 24.44973 21.35031
#
# Velocity S-wave (km/s) = 3.12291 3.61455 3.37769
# Velocity P-wave (km/s) = 5.16954 7.12134 6.22244
#
# Compressibility (1/GPa) = 0.03894557
#
# Stress axis : x y z
#
# Youngs Moduli (GPa) = 102.95355 80.17811 27.88625
#
# Poissons Ratio (x) = 0.54832 0.04055
# Poissons Ratio (y) = 0.70408 0.03505
# Poissons Ratio (z) = 0.14972 0.10077
#
# Static dielectric constant tensor:
#      x y z
#    x 1.690560 0.000000 0.000000 
#    y 0.000000 1.609500 0.000000 
#    z 0.000000 0.000000 1.713250 
# 
# From -- ./inp_files/9112.got.cif
#   From: 2010.05.17/outbox.cif.g08.bks.cpg/sg44_5_cif.got.tgz:9112.got - 2010.06.03 19:37:08.
