data_PCOD9374260
_publ_section_title
;
Structure prediction by ZEFSAII (Michael W. Deem and Ramdas Pophale) SiO2 
 PCOD9374260
Probable space group: I M M 2
;
_chemical_formula_sum "Si O2"
_cell_formula_units_Z 48
_cell_length_a 14.461493
_cell_length_b 13.809560
_cell_length_c 12.594283
_cell_angle_alpha 90.000000
_cell_angle_beta 90.000000
_cell_angle_gamma 90.000000
_cell_volume 2515.164652
_symmetry_space_group_name_H-M "I M M 2"
_symmetry_group_IT_number 44
_symmetry_cell_setting 'orthorhombic'
loop_
_space_group_symop_operation_xyz
x,y,z
-x,-y,z
-x,y,z
x,-y,z
1/2+x,1/2+y,1/2+z
1/2-x,1/2-y,1/2+z
1/2-x,1/2+y,1/2+z
1/2+x,1/2-y,1/2+z
loop_
_atom_site_type_symbol
_atom_site_label
_atom_site_fract_x
_atom_site_fract_y
_atom_site_fract_z
Si Si1 0.111234 0.720046 0.980150
Si Si2 0.888404 0.609656 0.767894
Si Si3 0.763697 0.109769 0.901452
Si Si4 0.395209 0.395477 0.042144
Si Si5 0.392990 0.819276 0.040258
Si Si6 0.209302 0.389559 0.170208
O O1 0.140762 0.650276 0.881991
O O2 0.157340 0.821835 0.948979
O O3 0.000000 0.725028 0.984601
O O4 0.152158 0.676763 0.089083
O O5 0.854451 0.500000 0.750415
O O6 0.868303 0.676545 0.665812
O O7 0.000000 0.605925 0.772806
O O8 0.721085 0.145944 0.789999
O O9 0.796396 0.000000 0.884338
O O10 0.678363 0.112836 0.982058
O O11 0.500000 0.392112 0.087091
O O12 0.388548 0.500000 0.983290
O O13 0.383704 0.289225 0.991750
O O14 0.313650 0.396868 0.126438
O O15 0.500000 0.849124 0.030202
O O16 0.170639 0.500000 0.170298
#
# Coordination Sequence:
#
# PCOD9374260 Si02
#       6
#     8   8   8   8   8   8
#     4  11  23  39  61  87 120 161 205 253 306 361
#     4   9  18  33  56  85 111 142 191 246 294 341
#     4  11  24  39  58  87 122 161 204 248 307 375
#     4   9  17  32  57  85 112 144 186 239 292 345
#     4  10  19  35  59  86 117 150 192 246 303 359
#     4  10  21  38  60  89 123 157 199 249 304 368
#
# _framework density 19.084237000000002
#
# number of rings (size 3 to 8) (size 9 to 14) (size 15 to 20)
#    0.000    2.000    1.667    2.000    0.000    5.000 
#    0.000    3.333    0.000    1.000    0.000    2.333 
#    0.000    0.000    0.000    0.000    0.000    0.000 
#
# Total GULP energy -133649.597896 kJ/mol
# GULP energy per Si atom -5568.733246 kJ/mol
# Density = 1.904080 g / cm^3
# Si number density = 19.084237 Si / 1000 Ang^3
#
#
#
# Elastic Constant Matrix: (Units=GPa)
#
#
# Indices 1 2 3 4 5 6 
#
# 1 66.7665 34.1555 39.5578 0.0000 0.0000 0.0000
# 2 34.1555 112.3784 30.6703 0.0000 0.0000 0.0000
# 3 39.5578 30.6703 85.0806 0.0000 0.0000 0.0000
# 4 0.0000 0.0000 0.0000 22.1246 0.0000 0.0000
# 5 0.0000 0.0000 0.0000 0.0000 11.3237 0.0000
# 6 0.0000 0.0000 0.0000 0.0000 0.0000 12.9232
#
#
#
# Elastic Compliance Matrix: (Units=1/GPa)
#
#
# Indices 1 2 3 4 5 6 
#
# 1 0.022488 -0.004416 -0.008864 0.000000 0.000000 0.000000
# 2 -0.004416 0.010737 -0.001817 0.000000 0.000000 0.000000
# 3 -0.008864 -0.001817 0.016530 0.000000 0.000000 0.000000
# 4 0.000000 0.000000 0.000000 0.045199 0.000000 0.000000
# 5 0.000000 0.000000 0.000000 0.000000 0.088310 0.000000
# 6 0.000000 0.000000 0.000000 0.000000 0.000000 0.077380
#
#
# Mechanical properties :
#
#
# Convention : Reuss Voigt Hill
#
# Bulk Modulus (GPa) = 51.12293 52.55473 51.83883
# Shear Modulus (GPa) = 16.81477 19.93044 18.37261
#
# Velocity S-wave (km/s) = 2.97152 3.23513 3.10612
# Velocity P-wave (km/s) = 6.21446 6.44615 6.33136
#
# Compressibility (1/GPa) = 0.01956069
#
# Stress axis : x y z
#
# Youngs Moduli (GPa) = 44.46773 93.13954 60.49633
#
# Poissons Ratio (x) = 0.41128 0.53624
# Poissons Ratio (y) = 0.19636 0.10994
# Poissons Ratio (z) = 0.39416 0.16926
#
# Static dielectric constant tensor:
#      x y z
#    x 1.646020 0.000000 0.000000 
#    y 0.000000 1.746600 0.000000 
#    z 0.000000 0.000000 1.633430 
# 
# From -- ./inp_files/13144.got.cif
#   From: 2010.05.17/outbox.cif.g08.bks.cpg/sg44_7_cif.got.tgz:13144.got - 2010.06.03 19:37:08.
