data_PCOD9374828
_publ_section_title
;
Structure prediction by ZEFSAII (Michael W. Deem and Ramdas Pophale) SiO2 
 PCOD9374828
Probable space group: I M M 2
;
_chemical_formula_sum "Si O2"
_cell_formula_units_Z 48
_cell_length_a 7.527432
_cell_length_b 29.522753
_cell_length_c 10.488205
_cell_angle_alpha 90.000000
_cell_angle_beta 90.000000
_cell_angle_gamma 90.000000
_cell_volume 2330.799206
_symmetry_space_group_name_H-M "I M M 2"
_symmetry_group_IT_number 44
_symmetry_cell_setting 'orthorhombic'
loop_
_space_group_symop_operation_xyz
x,y,z
-x,-y,z
-x,y,z
x,-y,z
1/2+x,1/2+y,1/2+z
1/2-x,1/2-y,1/2+z
1/2-x,1/2+y,1/2+z
1/2+x,1/2-y,1/2+z
loop_
_atom_site_type_symbol
_atom_site_label
_atom_site_fract_x
_atom_site_fract_y
_atom_site_fract_z
Si Si1 0.784339 0.300817 0.145150
Si Si2 0.285016 0.145922 0.391416
Si Si3 0.208468 0.858579 0.895083
Si Si4 0.790178 0.802184 0.131874
Si Si5 0.785097 0.949429 0.772425
Si Si6 0.710984 0.949991 0.472940
O O1 0.723246 0.326909 0.271010
O O2 0.720011 0.248981 0.141366
O O3 0.000000 0.301218 0.148299
O O4 0.727104 0.327182 0.017897
O O5 0.500000 0.145014 0.394215
O O6 0.230913 0.171817 0.264443
O O7 0.219354 0.094136 0.400577
O O8 0.282899 0.907782 0.856830
O O9 0.000000 0.866113 0.922370
O O10 0.285633 0.832120 0.016209
O O11 0.000000 0.796745 0.105441
O O12 0.735211 0.942242 0.624437
O O13 0.000000 0.949143 0.776795
O O14 0.724819 0.000000 0.809317
O O15 0.500000 0.951822 0.449293
O O16 0.785040 0.000000 0.442958
#
# Coordination Sequence:
#
# PCOD9374828 Si02
#       6
#     8   8   8   8   8   8
#     4  10  20  35  54  76 101 132 175 218 253 298
#     4  10  20  35  54  77 105 135 169 211 256 304
#     4  10  20  35  54  76 104 136 170 211 257 305
#     4  10  22  36  50  73 107 140 170 209 255 304
#     4   9  17  30  51  78 103 129 166 211 255 301
#     4   9  17  31  53  78 102 130 166 210 256 300
#
# _framework density 20.593795
#
# number of rings (size 3 to 8) (size 9 to 14) (size 15 to 20)
#    0.000    2.333    1.667    1.000    0.000    4.000 
#    0.000    0.833    0.000    1.000    0.000    0.000 
#    0.000    0.000    0.000    0.000    0.000    0.000 
#
# Total GULP energy -133986.264288 kJ/mol
# GULP energy per Si atom -5582.761012 kJ/mol
# Density = 2.054692 g / cm^3
# Si number density = 20.593795 Si / 1000 Ang^3
#
#
#
# Elastic Constant Matrix: (Units=GPa)
#
#
# Indices 1 2 3 4 5 6 
#
# 1 49.5637 -5.5281 -19.0958 0.0001 0.0000 0.0000
# 2 -5.5281 183.3433 46.6613 0.0039 -0.0003 -0.0002
# 3 -19.0958 46.6613 83.4641 0.0010 0.0000 -0.0001
# 4 0.0001 0.0039 0.0010 -8.1515 -0.0011 -0.0010
# 5 0.0000 -0.0003 0.0000 -0.0011 16.2979 0.0001
# 6 0.0000 -0.0002 -0.0001 -0.0010 0.0001 14.9306
#
#
#
# Elastic Compliance Matrix: (Units=1/GPa)
#
#
# Indices 1 2 3 4 5 6 
#
# 1 0.022209 -0.000727 0.005488 0.000000 0.000000 0.000000
# 2 -0.000727 0.006383 -0.003735 0.000003 0.000000 0.000000
# 3 0.005488 -0.003735 0.015325 0.000000 0.000000 0.000000
# 4 0.000000 0.000003 0.000000 -0.122677 -0.000008 -0.000008
# 5 0.000000 0.000000 0.000000 -0.000008 0.061358 -0.000001
# 6 0.000000 0.000000 0.000000 -0.000008 -0.000001 0.066977
#
#
# Mechanical properties :
#
#
# Convention : Reuss Voigt Hill
#
# Bulk Modulus (GPa) = 21.75388 40.04953 30.90170
# Shear Modulus (GPa) = 79.56058 24.23764 51.89911
#
# Velocity S-wave (km/s) = 6.22231 3.43438 5.02554
# Velocity P-wave (km/s) = 7.88728 5.93432 6.97944
#
# Compressibility (1/GPa) = 0.04596882
#
# Stress axis : x y z
#
# Youngs Moduli (GPa) = 45.02620 156.67056 65.25433
#
# Poissons Ratio (x) = 0.11390 -0.35810
# Poissons Ratio (y) = 0.03273 0.24371
# Poissons Ratio (z) = -0.24709 0.58512
#
# Static dielectric constant tensor:
#      x y z
#    x 1.786930 0.000000 0.000000 
#    y 0.000000 1.768120 0.000000 
#    z 0.000000 0.000000 1.668440 
# 
# From -- ./inp_files/4881.got.cif
#   From: 2010.05.17/outbox.cif.g08.bks.cpg/sg44_3_cif.got.tgz:4881.got - 2010.06.03 19:37:08.
