data_PCOD9374195
_publ_section_title
;
Structure prediction by ZEFSAII (Michael W. Deem and Ramdas Pophale) SiO2 
 PCOD9374195
Probable space group: I M M 2
;
_chemical_formula_sum "Si O2"
_cell_formula_units_Z 56
_cell_length_a 10.439110
_cell_length_b 20.545419
_cell_length_c 13.485211
_cell_angle_alpha 90.000000
_cell_angle_beta 90.000000
_cell_angle_gamma 90.000000
_cell_volume 2892.252617
_symmetry_space_group_name_H-M "I M M 2"
_symmetry_group_IT_number 44
_symmetry_cell_setting 'orthorhombic'
loop_
_space_group_symop_operation_xyz
x,y,z
-x,-y,z
-x,y,z
x,-y,z
1/2+x,1/2+y,1/2+z
1/2-x,1/2-y,1/2+z
1/2-x,1/2+y,1/2+z
1/2+x,1/2-y,1/2+z
loop_
_atom_site_type_symbol
_atom_site_label
_atom_site_fract_x
_atom_site_fract_y
_atom_site_fract_z
Si Si1 0.141203 0.834879 0.329740
Si Si2 0.348321 0.857919 0.815237
Si Si3 0.344893 0.000000 0.078501
Si Si4 0.147239 0.640654 0.668087
Si Si5 0.643499 0.170761 0.597531
Si Si6 0.278610 0.224715 0.982620
Si Si7 0.854061 0.923746 0.508622
Si Si8 0.654286 0.000000 0.849632
O O1 0.255829 0.834209 0.251783
O O2 0.150497 0.778570 0.414002
O O3 0.151414 0.900921 0.394084
O O4 0.000000 0.830587 0.282965
O O5 0.500000 0.855714 0.847042
O O6 0.338750 0.817651 0.714474
O O7 0.259013 0.831185 0.901775
O O8 0.312189 0.932838 0.796705
O O9 0.310959 0.068081 0.131834
O O10 0.500000 0.000000 0.074726
O O11 0.300038 0.000000 0.963930
O O12 0.151413 0.689465 0.573975
O O13 0.000000 0.636905 0.703624
O O14 0.500000 0.145003 0.583975
O O15 0.664410 0.235293 0.532903
O O16 0.749572 0.119222 0.564432
O O17 0.000000 0.909485 0.542566
O O18 0.830268 0.000000 0.518848
O O19 0.500000 0.000000 0.853853
#
# Coordination Sequence:
#
# PCOD9374195 Si02
#       8
#     8   8   4   8   8   8   8   4
#     4  10  22  38  58  83 115 156 199 237 287 350
#     4  10  19  34  58  88 119 153 196 245 294 351
#     4   9  18  34  55  88 119 144 188 247 297 346
#     4  11  22  37  61  89 118 151 195 247 298 347
#     4  10  23  39  59  90 121 151 196 252 301 344
#     4  11  21  37  58  81 119 160 197 237 291 350
#     4   9  20  40  62  84 117 161 202 238 285 355
#     4   9  16  30  56  86 115 148 192 241 293 352
#
# _framework density 19.362069999999999
#
# number of rings (size 3 to 8) (size 9 to 14) (size 15 to 20)
#    0.000    2.000    1.429    2.143    2.000    5.429 
#    0.000    0.714    0.000    0.000    0.000    0.000 
#    0.000    0.000    0.000    0.000    0.000    0.000 
#
# Total GULP energy -156050.669120 kJ/mol
# GULP energy per Si atom -5573.238183 kJ/mol
# Density = 1.931800 g / cm^3
# Si number density = 19.362070 Si / 1000 Ang^3
#
#
#
# Elastic Constant Matrix: (Units=GPa)
#
#
# Indices 1 2 3 4 5 6 
#
# 1 89.9208 33.1642 52.0074 0.0000 0.0000 0.0000
# 2 33.1642 88.5934 29.0380 -0.0001 0.0000 0.0000
# 3 52.0074 29.0380 91.9929 -0.0001 0.0000 0.0000
# 4 0.0000 -0.0001 -0.0001 24.7475 0.0000 0.0000
# 5 0.0000 0.0000 0.0000 0.0000 24.1051 0.0000
# 6 0.0000 0.0000 0.0000 0.0000 0.0000 14.9305
#
#
#
# Elastic Compliance Matrix: (Units=1/GPa)
#
#
# Indices 1 2 3 4 5 6 
#
# 1 0.017548 -0.003700 -0.008753 0.000000 0.000000 0.000000
# 2 -0.003700 0.013370 -0.002129 0.000000 0.000000 0.000000
# 3 -0.008753 -0.002129 0.016490 0.000000 0.000000 0.000000
# 4 0.000000 0.000000 0.000000 0.040408 0.000000 0.000000
# 5 0.000000 0.000000 0.000000 0.000000 0.041485 0.000000
# 6 0.000000 0.000000 0.000000 0.000000 0.000000 0.066977
#
#
# Mechanical properties :
#
#
# Convention : Reuss Voigt Hill
#
# Bulk Modulus (GPa) = 54.80612 55.43625 55.12118
# Shear Modulus (GPa) = 21.59611 23.17644 22.38627
#
# Velocity S-wave (km/s) = 3.34336 3.46353 3.40397
# Velocity P-wave (km/s) = 6.57810 6.68492 6.63173
#
# Compressibility (1/GPa) = 0.01824614
#
# Stress axis : x y z
#
# Youngs Moduli (GPa) = 56.98746 74.79262 60.64109
#
# Poissons Ratio (x) = 0.27674 0.53076
# Poissons Ratio (y) = 0.21086 0.12908
# Poissons Ratio (z) = 0.49878 0.15920
#
# Static dielectric constant tensor:
#      x y z
#    x 1.653220 0.000000 0.000000 
#    y 0.000000 1.733180 0.000000 
#    z 0.000000 0.000000 1.679870 
# 
# From -- ./inp_files/16578.got.cif
#   From: 2010.05.17/outbox.cif.g08.bks.cpg/sg44_9_cif.got.tgz:16578.got - 2010.06.03 19:37:08.
