data_PCOD9374202
_publ_section_title
;
Structure prediction by ZEFSAII (Michael W. Deem and Ramdas Pophale) SiO2 
 PCOD9374202
Probable space group: I M M 2
;
_chemical_formula_sum "Si O2"
_cell_formula_units_Z 48
_cell_length_a 9.074569
_cell_length_b 18.510354
_cell_length_c 15.136356
_cell_angle_alpha 90.000000
_cell_angle_beta 90.000000
_cell_angle_gamma 90.000000
_cell_volume 2542.506461
_symmetry_space_group_name_H-M "I M M 2"
_symmetry_group_IT_number 44
_symmetry_cell_setting 'orthorhombic'
loop_
_space_group_symop_operation_xyz
x,y,z
-x,-y,z
-x,y,z
x,-y,z
1/2+x,1/2+y,1/2+z
1/2-x,1/2-y,1/2+z
1/2-x,1/2+y,1/2+z
1/2+x,1/2-y,1/2+z
loop_
_atom_site_type_symbol
_atom_site_label
_atom_site_fract_x
_atom_site_fract_y
_atom_site_fract_z
Si Si1 0.333332 0.376332 0.424930
Si Si2 0.674397 0.000000 0.598870
Si Si3 0.168284 0.000000 0.780749
Si Si4 0.173097 0.760237 0.372589
Si Si5 0.677689 0.351059 0.041900
Si Si6 0.176302 0.726808 0.683931
Si Si7 0.172171 0.079735 0.123950
O O1 0.500000 0.344976 0.420176
O O2 0.316492 0.430756 0.343632
O O3 0.212513 0.314572 0.420590
O O4 0.323425 0.417385 0.517515
O O5 0.717062 0.000000 0.702246
O O6 0.745707 0.927071 0.560186
O O7 0.500000 0.000000 0.585982
O O8 0.000000 0.000000 0.744601
O O9 0.212714 0.821606 0.443897
O O10 0.262169 0.759427 0.281714
O O11 0.000000 0.765614 0.353614
O O12 0.500000 0.358766 0.048349
O O13 0.721911 0.289987 0.114633
O O14 0.238040 0.648652 0.656238
O O15 0.000000 0.725957 0.684518
O O16 0.000000 0.087899 0.149933
O O17 0.222818 0.000000 0.153585
#
# Coordination Sequence:
#
# PCOD9374202 Si02
#       7
#     8   4   4   8   8   8   8
#     4  10  19  34  59  89 121 157 197 244 295 356
#     4  12  26  40  60  91 120 153 204 259 304 350
#     4  10  20  36  58  87 124 163 196 235 302 372
#     4  11  23  40  62  90 119 158 206 250 301 362
#     4  10  23  44  65  85 121 165 202 245 305 369
#     4  11  23  41  64  92 122 160 205 250 303 362
#     4  10  20  37  61  90 124 161 200 243 296 356
#
# _framework density 18.879007000000001
#
# number of rings (size 3 to 8) (size 9 to 14) (size 15 to 20)
#    0.000    1.500    2.500    2.750    0.000    7.667 
#    1.500    0.000    0.000    0.000    0.000    0.000 
#    0.000    0.000    0.000    0.000    0.000    0.000 
#
# Total GULP energy -134037.750422 kJ/mol
# GULP energy per Si atom -5584.906268 kJ/mol
# Density = 1.883604 g / cm^3
# Si number density = 18.879007 Si / 1000 Ang^3
#
#
#
# Elastic Constant Matrix: (Units=GPa)
#
#
# Indices 1 2 3 4 5 6 
#
# 1 45.0788 42.9244 23.9390 0.0000 0.0000 0.0000
# 2 42.9244 123.9830 22.8067 0.0000 0.0000 0.0000
# 3 23.9390 22.8067 54.7734 0.0000 0.0000 0.0000
# 4 0.0000 0.0000 0.0000 20.5026 0.0000 0.0000
# 5 0.0000 0.0000 0.0000 0.0000 29.4550 0.0000
# 6 0.0000 0.0000 0.0000 0.0000 0.0000 32.1319
#
#
#
# Elastic Compliance Matrix: (Units=1/GPa)
#
#
# Indices 1 2 3 4 5 6 
#
# 1 0.039795 -0.011455 -0.012623 0.000000 0.000000 0.000000
# 2 -0.011455 0.012032 -0.000003 0.000000 0.000000 0.000000
# 3 -0.012623 -0.000003 0.023775 0.000000 0.000000 0.000000
# 4 0.000000 0.000000 0.000000 0.048774 0.000000 0.000000
# 5 0.000000 0.000000 0.000000 0.000000 0.033950 0.000000
# 6 0.000000 0.000000 0.000000 0.000000 0.000000 0.031122
#
#
# Mechanical properties :
#
#
# Convention : Reuss Voigt Hill
#
# Bulk Modulus (GPa) = 36.44412 44.79726 40.62069
# Shear Modulus (GPa) = 20.26283 25.36225 22.81254
#
# Velocity S-wave (km/s) = 3.27968 3.66923 3.47991
# Velocity P-wave (km/s) = 5.80411 6.45996 6.14080
#
# Compressibility (1/GPa) = 0.02743927
#
# Stress axis : x y z
#
# Youngs Moduli (GPa) = 25.12907 83.10996 42.06059
#
# Poissons Ratio (x) = 0.95206 0.53091
# Poissons Ratio (y) = 0.28786 0.00014
# Poissons Ratio (z) = 0.31719 0.00028
#
# Static dielectric constant tensor:
#      x y z
#    x 1.639560 0.000000 0.000000 
#    y 0.000000 1.658740 0.000000 
#    z 0.000000 0.000000 1.656150 
# 
# From -- ./inp_files/16112.got.cif
#   From: 2010.05.17/outbox.cif.g08.bks.cpg/sg44_9_cif.got.tgz:16112.got - 2010.06.03 19:37:08.
