data_PCOD9374459
_publ_section_title
;
Structure prediction by ZEFSAII (Michael W. Deem and Ramdas Pophale) SiO2 
 PCOD9374459
Probable space group: I M M 2
;
_chemical_formula_sum "Si O2"
_cell_formula_units_Z 56
_cell_length_a 17.412377
_cell_length_b 8.266496
_cell_length_c 20.295897
_cell_angle_alpha 90.000000
_cell_angle_beta 90.000000
_cell_angle_gamma 90.000000
_cell_volume 2921.378117
_symmetry_space_group_name_H-M "I M M 2"
_symmetry_group_IT_number 44
_symmetry_cell_setting 'orthorhombic'
loop_
_space_group_symop_operation_xyz
x,y,z
-x,-y,z
-x,y,z
x,-y,z
1/2+x,1/2+y,1/2+z
1/2-x,1/2-y,1/2+z
1/2-x,1/2+y,1/2+z
1/2+x,1/2-y,1/2+z
loop_
_atom_site_type_symbol
_atom_site_label
_atom_site_fract_x
_atom_site_fract_y
_atom_site_fract_z
Si Si1 0.659327 0.695857 0.447440
Si Si2 0.762544 0.310631 0.329597
Si Si3 0.000000 0.693808 0.012353
Si Si4 0.914551 0.808679 0.397590
Si Si5 0.662730 0.308348 0.700370
Si Si6 0.917308 0.695394 0.547362
Si Si7 0.252155 0.803022 0.074881
Si Si8 0.000000 0.691508 0.166126
O O1 0.658970 0.500000 0.445530
O O2 0.694297 0.751995 0.377333
O O3 0.576037 0.750688 0.472852
O O4 0.719545 0.747479 0.504164
O O5 0.749288 0.500000 0.318826
O O6 0.843265 0.285983 0.367616
O O7 0.779815 0.229889 0.259788
O O8 0.000000 0.755162 0.089236
O O9 0.000000 0.500000 0.014871
O O10 0.914369 0.775613 0.475594
O O11 0.000000 0.760263 0.373591
O O12 0.904813 0.000000 0.384383
O O13 0.655888 0.500000 0.695331
O O14 0.698249 0.241451 0.632715
O O15 0.576511 0.243210 0.704564
O O16 0.914456 0.500000 0.538186
O O17 0.840348 0.744702 0.584442
O O18 0.000000 0.734831 0.578029
O O19 0.249254 0.000000 0.076006
O O20 0.000000 0.500000 0.160921
#
# Coordination Sequence:
#
# PCOD9374459 Si02
#       8
#     8   8   4   8   8   8   8   4
#     4  10  20  38  62  85 113 153 198 239 290 359
#     4  11  23  39  58  81 112 152 195 236 285 349
#     4  11  23  37  61  95 123 146 191 258 309 347
#     4  10  20  32  48  76 112 145 178 216 265 322
#     4  11  23  38  58  81 116 155 193 239 294 358
#     4   9  16  30  54  81 107 138 182 228 271 326
#     4   9  17  33  56  83 109 144 189 233 284 346
#     4  11  23  39  57  87 125 156 195 242 301 365
#
# _framework density 19.169034
#
# number of rings (size 3 to 8) (size 9 to 14) (size 15 to 20)
#    0.000    1.857    2.857    1.714    1.000    2.571 
#    0.000    1.429    1.571    0.000    0.000    0.000 
#    0.000    0.000    0.000    0.000    0.000    0.000 
#
# Total GULP energy -156182.664758 kJ/mol
# GULP energy per Si atom -5577.952313 kJ/mol
# Density = 1.912540 g / cm^3
# Si number density = 19.169034 Si / 1000 Ang^3
#
#
#
# Elastic Constant Matrix: (Units=GPa)
#
#
# Indices 1 2 3 4 5 6 
#
# 1 104.1759 7.6343 21.8631 0.0000 0.0000 0.0000
# 2 7.6343 22.6622 7.8502 0.0000 0.0000 0.0000
# 3 21.8631 7.8502 67.9478 0.0000 0.0000 0.0000
# 4 0.0000 0.0000 0.0000 21.4448 0.0000 0.0000
# 5 0.0000 0.0000 0.0000 0.0000 23.6859 0.0000
# 6 0.0000 0.0000 0.0000 0.0000 0.0000 17.3514
#
#
#
# Elastic Compliance Matrix: (Units=1/GPa)
#
#
# Indices 1 2 3 4 5 6 
#
# 1 0.010423 -0.002447 -0.003071 0.000000 0.000000 0.000000
# 2 -0.002447 0.046541 -0.004589 0.000000 0.000000 0.000000
# 3 -0.003071 -0.004589 0.016236 0.000000 0.000000 0.000000
# 4 0.000000 0.000000 0.000000 0.046631 0.000000 0.000000
# 5 0.000000 0.000000 0.000000 0.000000 0.042219 0.000000
# 6 0.000000 0.000000 0.000000 0.000000 0.000000 0.057632
#
#
# Mechanical properties :
#
#
# Convention : Reuss Voigt Hill
#
# Bulk Modulus (GPa) = 18.87384 29.94235 24.40810
# Shear Modulus (GPa) = 19.41302 22.99230 21.20266
#
# Velocity S-wave (km/s) = 3.18579 3.46707 3.32940
# Velocity P-wave (km/s) = 4.83733 5.62863 5.24791
#
# Compressibility (1/GPa) = 0.05298338
#
# Stress axis : x y z
#
# Youngs Moduli (GPa) = 95.94165 21.48657 61.59329
#
# Poissons Ratio (x) = 0.05259 0.18915
# Poissons Ratio (y) = 0.23481 0.28268
# Poissons Ratio (z) = 0.29463 0.09861
#
# Static dielectric constant tensor:
#      x y z
#    x 1.679470 0.000000 0.000000 
#    y 0.000000 1.659570 0.000000 
#    z 0.000000 0.000000 1.674860 
# 
# From -- ./inp_files/24183.got.cif
#   From: 2010.05.17/outbox.cif.g08.bks.cpg/sg44_13_cif.got.tgz:24183.got - 2010.06.03 19:37:08.
