data_PCOD9374659
_publ_section_title
;
Structure prediction by ZEFSAII (Michael W. Deem and Ramdas Pophale) SiO2 
 PCOD9374659
Probable space group: I M M 2
;
_chemical_formula_sum "Si O2"
_cell_formula_units_Z 64
_cell_length_a 29.319299
_cell_length_b 8.319985
_cell_length_c 14.653286
_cell_angle_alpha 90.000000
_cell_angle_beta 90.000000
_cell_angle_gamma 90.000000
_cell_volume 3574.465848
_symmetry_space_group_name_H-M "I M M 2"
_symmetry_group_IT_number 44
_symmetry_cell_setting 'orthorhombic'
loop_
_space_group_symop_operation_xyz
x,y,z
-x,-y,z
-x,y,z
x,-y,z
1/2+x,1/2+y,1/2+z
1/2-x,1/2-y,1/2+z
1/2-x,1/2+y,1/2+z
1/2+x,1/2-y,1/2+z
loop_
_atom_site_type_symbol
_atom_site_label
_atom_site_fract_x
_atom_site_fract_y
_atom_site_fract_z
Si Si1 0.624558 0.310007 0.093930
Si Si2 0.802461 0.307968 0.452106
Si Si3 0.124839 0.696284 0.303831
Si Si4 0.199109 0.306038 0.948980
Si Si5 0.551741 0.193643 0.951001
Si Si6 0.625160 0.803795 0.595682
Si Si7 0.948021 0.303847 0.947674
Si Si8 0.374021 0.805849 0.300670
O O1 0.621494 0.500000 0.088913
O O2 0.625822 0.256461 0.198446
O O3 0.669588 0.254991 0.039221
O O4 0.581467 0.238447 0.039230
O O5 0.804504 0.500000 0.454494
O O6 0.830995 0.254038 0.362668
O O7 0.750412 0.254460 0.450017
O O8 0.124510 0.500000 0.301871
O O9 0.080853 0.747827 0.362781
O O10 0.125047 0.752643 0.199739
O O11 0.199823 0.500000 0.949197
O O12 0.170054 0.254994 0.860049
O O13 0.169471 0.254681 0.037158
O O14 0.500000 0.254731 0.953213
O O15 0.550040 0.000000 0.946992
O O16 0.580918 0.755112 0.536825
O O17 0.625185 0.000000 0.597137
O O18 0.948818 0.500000 0.947786
O O19 0.918330 0.255519 0.859531
O O20 0.000000 0.247196 0.946881
O O21 0.373975 0.000000 0.298165
#
# Coordination Sequence:
#
# PCOD9374659 Si02
#       8
#     8   8   8   8   8   8   8   8
#     4  11  22  35  52  73  98 130 171 215 255 295
#     4  10  20  34  51  72 100 132 167 207 252 301
#     4   8  15  28  46  69  96 125 157 195 241 292
#     4   9  18  32  50  73 102 134 165 201 249 301
#     4   9  18  33  52  74 101 132 164 201 250 305
#     4   8  14  26  45  71 102 129 156 198 244 287
#     4   8  14  25  44  71 100 130 162 195 237 290
#     4   9  18  33  50  71 103 136 166 204 250 299
#
# _framework density 17.904772999999999
#
# number of rings (size 3 to 8) (size 9 to 14) (size 15 to 20)
#    0.000    3.000    0.000    3.750    0.000    2.750 
#    0.000    5.000    0.000    3.000    0.000    0.000 
#    0.000    0.000    0.000    0.000    0.000    0.000 
#
# Total GULP energy -178373.288684 kJ/mol
# GULP energy per Si atom -5574.165271 kJ/mol
# Density = 1.786402 g / cm^3
# Si number density = 17.904773 Si / 1000 Ang^3
#
#
#
# Elastic Constant Matrix: (Units=GPa)
#
#
# Indices 1 2 3 4 5 6 
#
# 1 186.2463 15.3282 102.7244 0.0000 0.0000 0.0000
# 2 15.3282 11.8345 15.0989 0.0000 0.0000 0.0000
# 3 102.7244 15.0989 193.0969 0.0000 0.0000 0.0000
# 4 0.0000 0.0000 0.0000 -0.3437 0.0000 0.0000
# 5 0.0000 0.0000 0.0000 0.0000 6.0095 0.0000
# 6 0.0000 0.0000 0.0000 0.0000 0.0000 21.4210
#
#
#
# Elastic Compliance Matrix: (Units=1/GPa)
#
#
# Indices 1 2 3 4 5 6 
#
# 1 0.007899 -0.005409 -0.003779 0.000000 0.000000 0.000000
# 2 -0.005409 0.097566 -0.004752 0.000000 0.000000 0.000000
# 3 -0.003779 -0.004752 0.007561 0.000000 0.000000 0.000000
# 4 0.000000 0.000000 0.000000 -2.909363 0.000000 0.000000
# 5 0.000000 0.000000 0.000000 0.000000 0.166404 0.000000
# 6 0.000000 0.000000 0.000000 0.000000 0.000000 0.046683
#
#
# Mechanical properties :
#
#
# Convention : Reuss Voigt Hill
#
# Bulk Modulus (GPa) = 11.74446 73.05341 42.39893
# Shear Modulus (GPa) = -1.97864 22.61910 10.32023
#
# Velocity S-wave (km/s) = -1.05237 3.55815 2.40343
# Velocity P-wave (km/s) = 2.25765 7.60067 5.60657
#
# Compressibility (1/GPa) = 0.08514652
#
# Stress axis : x y z
#
# Youngs Moduli (GPa) = 126.60241 10.24943 132.26334
#
# Poissons Ratio (x) = 0.05544 0.49983
# Poissons Ratio (y) = 0.68480 0.62845
# Poissons Ratio (z) = 0.47844 0.04870
#
# Static dielectric constant tensor:
#      x y z
#    x 1.610960 0.000000 0.000000 
#    y 0.000000 1.625390 0.000000 
#    z 0.000000 0.000000 1.598190 
# 
# From -- ./inp_files/19682.got.cif
#   From: 2010.05.17/outbox.cif.g08.bks.cpg/sg44_10_cif.got.tgz:19682.got - 2010.06.03 19:37:08.
