data_PCOD9374339
_publ_section_title
;
Structure prediction by ZEFSAII (Michael W. Deem and Ramdas Pophale) SiO2 
 PCOD9374339
Probable space group: I M M 2
;
_chemical_formula_sum "Si O2"
_cell_formula_units_Z 58
_cell_length_a 18.236641
_cell_length_b 17.939424
_cell_length_c 8.876863
_cell_angle_alpha 90.000000
_cell_angle_beta 90.000000
_cell_angle_gamma 90.000000
_cell_volume 2904.108652
_symmetry_space_group_name_H-M "I M M 2"
_symmetry_group_IT_number 44
_symmetry_cell_setting 'orthorhombic'
loop_
_space_group_symop_operation_xyz
x,y,z
-x,-y,z
-x,y,z
x,-y,z
1/2+x,1/2+y,1/2+z
1/2-x,1/2-y,1/2+z
1/2-x,1/2+y,1/2+z
1/2+x,1/2-y,1/2+z
loop_
_atom_site_type_symbol
_atom_site_label
_atom_site_fract_x
_atom_site_fract_y
_atom_site_fract_z
Si Si1 0.000000 0.000000 0.493570
Si Si2 0.581740 0.088068 0.494800
Si Si3 0.288986 0.343153 0.304982
Si Si4 0.085198 0.739077 0.369988
Si Si5 0.137022 0.583292 0.339008
Si Si6 0.768143 0.412679 0.841422
Si Si7 0.706441 0.284874 0.636216
Si Si8 0.628645 0.617946 0.047882
O O1 0.064418 0.064110 0.497529
O O2 0.500000 0.120237 0.468491
O O3 0.601839 0.091054 0.672036
O O4 0.653088 0.115314 0.403858
O O5 0.577682 0.000000 0.459152
O O6 0.223818 0.402596 0.327315
O O7 0.301646 0.299736 0.460162
O O8 0.259266 0.282629 0.184310
O O9 0.358037 0.381373 0.226863
O O10 0.106928 0.655986 0.423387
O O11 0.131943 0.762339 0.222587
O O12 0.107225 0.799989 0.492131
O O13 0.000000 0.741256 0.337161
O O14 0.120804 0.500000 0.395501
O O15 0.773925 0.500000 0.799488
O O16 0.739388 0.360021 0.708878
O O17 0.705474 0.405919 0.969905
#
# Coordination Sequence:
#
# PCOD9374339 Si02
#       8
#     2   8   8   8   8   8   8   8
#     4  12  24  40  72 102 120 176 220 286 316 408
#     4   9  17  30  54  91 125 159 207 257 307 373
#     4  11  22  41  63  92 125 167 224 276 324 394
#     4  10  21  39  61  93 133 171 213 269 330 393
#     4  10  20  33  60  94 126 168 206 261 316 380
#     4  10  19  36  62  92 126 172 212 263 326 394
#     4  10  23  39  64  91 126 171 222 267 324 398
#     4  11  22  41  68  93 126 172 227 267 333 393
#
# _framework density 19.971705
#
# number of rings (size 3 to 8) (size 9 to 14) (size 15 to 20)
#    0.000    1.793    2.759    2.897    2.897    1.379 
#    1.241    0.000    1.517    7.448    0.000    7.724 
#    0.000    0.000    0.000    0.000    0.000    0.000 
#
# Total GULP energy -161616.440814 kJ/mol
# GULP energy per Si atom -5572.980718 kJ/mol
# Density = 1.992625 g / cm^3
# Si number density = 19.971705 Si / 1000 Ang^3
#
#
#
# Elastic Constant Matrix: (Units=GPa)
#
#
# Indices 1 2 3 4 5 6 
#
# 1 131.5530 44.6629 19.5899 0.0000 0.0000 0.0000
# 2 44.6629 120.8708 12.5161 0.0000 0.0000 0.0000
# 3 19.5899 12.5161 46.1849 0.0000 0.0000 0.0000
# 4 0.0000 0.0000 0.0000 3.3395 0.0000 0.0000
# 5 0.0000 0.0000 0.0000 0.0000 7.0422 0.0000
# 6 0.0000 0.0000 0.0000 0.0000 0.0000 33.0442
#
#
#
# Elastic Compliance Matrix: (Units=1/GPa)
#
#
# Indices 1 2 3 4 5 6 
#
# 1 0.009086 -0.003044 -0.003029 0.000000 0.000000 0.000000
# 2 -0.003044 0.009532 -0.001292 0.000000 0.000000 0.000000
# 3 -0.003029 -0.001292 0.023287 0.000000 0.000000 0.000000
# 4 0.000000 0.000000 0.000000 0.299442 0.000000 0.000000
# 5 0.000000 0.000000 0.000000 0.000000 0.142000 0.000000
# 6 0.000000 0.000000 0.000000 0.000000 0.000000 0.030263
#
#
# Mechanical properties :
#
#
# Convention : Reuss Voigt Hill
#
# Bulk Modulus (GPa) = 36.79844 50.23850 43.51847
# Shear Modulus (GPa) = 9.30409 23.47451 16.38930
#
# Velocity S-wave (km/s) = 2.16073 3.43211 2.86776
# Velocity P-wave (km/s) = 4.96893 6.39651 5.72737
#
# Compressibility (1/GPa) = 0.02717506
#
# Stress axis : x y z
#
# Youngs Moduli (GPa) = 110.06060 104.91246 42.94230
#
# Poissons Ratio (x) = 0.31932 0.13008
# Poissons Ratio (y) = 0.33499 0.05549
# Poissons Ratio (z) = 0.33338 0.13556
#
# Static dielectric constant tensor:
#      x y z
#    x 1.719500 0.000000 0.000000 
#    y 0.000000 1.737450 0.000000 
#    z 0.000000 0.000000 1.733360 
# 
# From -- ./inp_files/8329.got.cif
#   From: 2010.05.17/outbox.cif.g08.bks.cpg/sg44_5_cif.got.tgz:8329.got - 2010.06.03 19:37:08.
