data_PCOD9374212
_publ_section_title
;
Structure prediction by ZEFSAII (Michael W. Deem and Ramdas Pophale) SiO2 
 PCOD9374212
Probable space group: I M M 2
;
_chemical_formula_sum "Si O2"
_cell_formula_units_Z 64
_cell_length_a 29.896692
_cell_length_b 14.260915
_cell_length_c 8.533982
_cell_angle_alpha 90.000000
_cell_angle_beta 90.000000
_cell_angle_gamma 90.000000
_cell_volume 3638.498927
_symmetry_space_group_name_H-M "I M M 2"
_symmetry_group_IT_number 44
_symmetry_cell_setting 'orthorhombic'
loop_
_space_group_symop_operation_xyz
x,y,z
-x,-y,z
-x,y,z
x,-y,z
1/2+x,1/2+y,1/2+z
1/2-x,1/2-y,1/2+z
1/2-x,1/2+y,1/2+z
1/2+x,1/2-y,1/2+z
loop_
_atom_site_type_symbol
_atom_site_label
_atom_site_fract_x
_atom_site_fract_y
_atom_site_fract_z
Si Si1 0.667444 0.110924 0.620110
Si Si2 0.284769 0.716222 0.474258
Si Si3 0.616672 0.891995 0.303484
Si Si4 0.448149 0.770410 0.111497
Si Si5 0.371275 0.752505 0.874690
Si Si6 0.694861 0.219019 0.134980
Si Si7 0.050605 0.889083 0.846562
Si Si8 0.872143 0.111821 0.094501
O O1 0.705669 0.180312 0.550423
O O2 0.629135 0.119092 0.485856
O O3 0.649483 0.160226 0.777340
O O4 0.678678 0.000000 0.635632
O O5 0.287246 0.726268 0.287274
O O6 0.237686 0.681694 0.541280
O O7 0.325309 0.650138 0.527314
O O8 0.574151 0.834770 0.245062
O O9 0.659981 0.855666 0.207072
O O10 0.609661 0.000000 0.269609
O O11 0.500000 0.791008 0.084328
O O12 0.443608 0.666758 0.185346
O O13 0.417103 0.779540 0.960171
O O14 0.378887 0.668115 0.754798
O O15 0.335431 0.725588 0.009412
O O16 0.000000 0.867821 0.903839
O O17 0.053728 0.000000 0.820732
O O18 0.088596 0.863391 0.971588
O O19 0.871615 0.000000 0.115027
#
# Coordination Sequence:
#
# PCOD9374212 Si02
#       8
#     8   8   8   8   8   8   8   8
#     4   9  18  34  55  76 101 136 173 209 255 306
#     4  10  19  35  55  77 103 132 173 219 255 300
#     4   9  19  36  57  78 102 135 173 212 257 310
#     4  10  20  34  54  78 104 136 173 215 258 301
#     4  10  20  34  51  75 107 138 169 207 256 311
#     4  10  20  35  54  74 104 139 170 210 255 300
#     4   9  18  34  55  76 100 135 176 214 257 309
#     4  10  20  34  53  77 105 135 170 216 262 304
#
# _framework density 17.589670999999999
#
# number of rings (size 3 to 8) (size 9 to 14) (size 15 to 20)
#    0.000    2.375    0.000    4.500    0.000    3.750 
#    0.000    6.250    0.000    1.500    0.000    0.000 
#    0.000    0.000    0.000    0.000    0.000    0.000 
#
# Total GULP energy -178332.515759 kJ/mol
# GULP energy per Si atom -5572.891117 kJ/mol
# Density = 1.754964 g / cm^3
# Si number density = 17.589671 Si / 1000 Ang^3
#
#
#
# Elastic Constant Matrix: (Units=GPa)
#
#
# Indices 1 2 3 4 5 6 
#
# 1 95.3605 2.7153 33.3241 0.0000 0.0000 0.0000
# 2 2.7153 50.0398 17.0834 0.0000 0.0000 0.0000
# 3 33.3241 17.0834 87.2730 0.0000 0.0000 0.0000
# 4 0.0000 0.0000 0.0000 15.5295 0.0000 0.0000
# 5 0.0000 0.0000 0.0000 0.0000 19.4683 0.0000
# 6 0.0000 0.0000 0.0000 0.0000 0.0000 12.1720
#
#
#
# Elastic Compliance Matrix: (Units=1/GPa)
#
#
# Indices 1 2 3 4 5 6 
#
# 1 0.012147 0.000991 -0.004832 0.000000 0.000000 0.000000
# 2 0.000991 0.021496 -0.004586 0.000000 0.000000 0.000000
# 3 -0.004832 -0.004586 0.014201 0.000000 0.000000 0.000000
# 4 0.000000 0.000000 0.000000 0.064394 0.000000 0.000000
# 5 0.000000 0.000000 0.000000 0.000000 0.051366 0.000000
# 6 0.000000 0.000000 0.000000 0.000000 0.000000 0.082156
#
#
# Mechanical properties :
#
#
# Convention : Reuss Voigt Hill
#
# Bulk Modulus (GPa) = 32.26958 37.65764 34.96361
# Shear Modulus (GPa) = 18.31882 21.40399 19.86140
#
# Velocity S-wave (km/s) = 3.23066 3.49212 3.36393
# Velocity P-wave (km/s) = 5.68346 6.14128 5.91680
#
# Compressibility (1/GPa) = 0.03098894
#
# Stress axis : x y z
#
# Youngs Moduli (GPa) = 82.32558 46.52029 70.41734
#
# Poissons Ratio (x) = -0.04608 0.34026
# Poissons Ratio (y) = -0.08155 0.32293
# Poissons Ratio (z) = 0.39780 0.21334
#
# Static dielectric constant tensor:
#      x y z
#    x 1.600040 0.000000 0.000000 
#    y 0.000000 1.597300 0.000000 
#    z 0.000000 0.000000 1.611250 
# 
# From -- ./inp_files/7716.got.cif
#   From: 2010.05.17/outbox.cif.g08.bks.cpg/sg44_4_cif.got.tgz:7716.got - 2010.06.03 19:37:08.
