data_PCOD9374229
_publ_section_title
;
Structure prediction by ZEFSAII (Michael W. Deem and Ramdas Pophale) SiO2 
 PCOD9374229
Probable space group: I M M 2
;
_chemical_formula_sum "Si O2"
_cell_formula_units_Z 56
_cell_length_a 19.861222
_cell_length_b 13.709697
_cell_length_c 12.233241
_cell_angle_alpha 90.000000
_cell_angle_beta 90.000000
_cell_angle_gamma 90.000000
_cell_volume 3331.005531
_symmetry_space_group_name_H-M "I M M 2"
_symmetry_group_IT_number 44
_symmetry_cell_setting 'orthorhombic'
loop_
_space_group_symop_operation_xyz
x,y,z
-x,-y,z
-x,y,z
x,-y,z
1/2+x,1/2+y,1/2+z
1/2-x,1/2-y,1/2+z
1/2-x,1/2+y,1/2+z
1/2+x,1/2-y,1/2+z
loop_
_atom_site_type_symbol
_atom_site_label
_atom_site_fract_x
_atom_site_fract_y
_atom_site_fract_z
Si Si1 0.921200 0.111250 0.470100
Si Si2 0.113301 0.889366 0.216378
Si Si3 0.206012 0.384198 0.012466
Si Si4 0.330276 0.295965 0.139557
Si Si5 0.075367 0.256570 0.029795
Si Si6 0.422301 0.386924 0.323940
Si Si7 0.228342 0.612774 0.756102
O O1 0.910783 0.122369 0.340859
O O2 0.879714 0.191014 0.536429
O O3 0.000000 0.116130 0.495685
O O4 0.897110 0.000000 0.498170
O O5 0.082348 0.810404 0.136624
O O6 0.194318 0.880364 0.217249
O O7 0.095617 0.000000 0.181977
O O8 0.204886 0.500000 0.026463
O O9 0.259781 0.338803 0.096173
O O10 0.133354 0.336647 0.029806
O O11 0.226649 0.364390 0.885908
O O12 0.367842 0.357904 0.233316
O O13 0.316201 0.189204 0.188590
O O14 0.000000 0.297629 0.022574
O O15 0.085618 0.184304 0.926855
O O16 0.500000 0.375691 0.283384
O O17 0.414067 0.500000 0.355314
O O18 0.206545 0.500000 0.743005
#
# Coordination Sequence:
#
# PCOD9374229 Si02
#       7
#     8   8   8   8   8   8   8
#     4  10  20  33  55  87 116 143 178 226 281 333
#     4  10  19  35  57  82 112 146 184 227 277 333
#     4  11  22  38  57  80 109 147 189 228 269 328
#     4  12  20  35  61  82 111 143 181 224 286 332
#     4  11  22  36  55  80 112 153 189 226 274 325
#     4  10  21  35  53  84 119 145 177 229 286 333
#     4  10  21  37  57  81 112 144 183 230 273 325
#
# _framework density 16.811741000000001
#
# number of rings (size 3 to 8) (size 9 to 14) (size 15 to 20)
#    0.000    1.429    4.286    2.571    0.000    2.857 
#    0.000    0.000    0.000    2.571    0.000    0.000 
#    0.000    0.000    0.000    0.000    0.000    0.000 
#
# Total GULP energy -156295.596075 kJ/mol
# GULP energy per Si atom -5581.985574 kJ/mol
# Density = 1.677348 g / cm^3
# Si number density = 16.811741 Si / 1000 Ang^3
#
#
#
# Elastic Constant Matrix: (Units=GPa)
#
#
# Indices 1 2 3 4 5 6 
#
# 1 92.3247 38.6193 32.3438 0.0000 0.0000 0.0000
# 2 38.6193 73.4001 37.8595 0.0000 0.0000 0.0000
# 3 32.3438 37.8595 70.7152 0.0000 0.0000 0.0000
# 4 0.0000 0.0000 0.0000 29.9868 0.0000 0.0000
# 5 0.0000 0.0000 0.0000 0.0000 -14.7626 0.0000
# 6 0.0000 0.0000 0.0000 0.0000 0.0000 18.1204
#
#
#
# Elastic Compliance Matrix: (Units=1/GPa)
#
#
# Indices 1 2 3 4 5 6 
#
# 1 0.014495 -0.005812 -0.003518 0.000000 0.000000 0.000000
# 2 -0.005812 0.021152 -0.008666 0.000000 0.000000 0.000000
# 3 -0.003518 -0.008666 0.020390 0.000000 0.000000 0.000000
# 4 0.000000 0.000000 0.000000 0.033348 0.000000 0.000000
# 5 0.000000 0.000000 0.000000 0.000000 -0.067739 0.000000
# 6 0.000000 0.000000 0.000000 0.000000 0.000000 0.055186
#
#
# Mechanical properties :
#
#
# Convention : Reuss Voigt Hill
#
# Bulk Modulus (GPa) = 49.88862 50.45392 50.17127
# Shear Modulus (GPa) = 41.83901 15.17674 28.50788
#
# Velocity S-wave (km/s) = 4.99408 3.00783 4.12237
# Velocity P-wave (km/s) = 7.93686 6.49146 7.25027
#
# Compressibility (1/GPa) = 0.02004465
#
# Stress axis : x y z
#
# Youngs Moduli (GPa) = 68.98961 47.27748 49.04373
#
# Poissons Ratio (x) = 0.27477 0.17254
# Poissons Ratio (y) = 0.40095 0.42501
# Poissons Ratio (z) = 0.24272 0.40971
#
# Static dielectric constant tensor:
#      x y z
#    x 1.584210 0.000000 0.000000 
#    y 0.000000 1.539910 0.000000 
#    z 0.000000 0.000000 1.567000 
# 
# From -- ./inp_files/12429.got.cif
#   From: 2010.05.17/outbox.cif.g08.bks.cpg/sg44_7_cif.got.tgz:12429.got - 2010.06.03 19:37:08.
