data_PCOD9374028
_publ_section_title
;
Structure prediction by ZEFSAII (Michael W. Deem and Ramdas Pophale) SiO2 
 PCOD9374028
Probable space group: I M M 2
;
_chemical_formula_sum "Si O2"
_cell_formula_units_Z 48
_cell_length_a 16.991279
_cell_length_b 8.622811
_cell_length_c 19.005805
_cell_angle_alpha 90.000000
_cell_angle_beta 90.000000
_cell_angle_gamma 90.000000
_cell_volume 2784.589667
_symmetry_space_group_name_H-M "I M M 2"
_symmetry_group_IT_number 44
_symmetry_cell_setting 'orthorhombic'
loop_
_space_group_symop_operation_xyz
x,y,z
-x,-y,z
-x,y,z
x,-y,z
1/2+x,1/2+y,1/2+z
1/2-x,1/2-y,1/2+z
1/2-x,1/2+y,1/2+z
1/2+x,1/2-y,1/2+z
loop_
_atom_site_type_symbol
_atom_site_label
_atom_site_fract_x
_atom_site_fract_y
_atom_site_fract_z
Si Si1 0.911108 0.311488 0.101230
Si Si2 0.500000 0.685736 0.966768
Si Si3 0.832954 0.684601 0.651531
Si Si4 0.157804 0.685787 0.396124
Si Si5 0.000000 0.185977 0.631493
Si Si6 0.740805 0.813671 0.517453
Si Si7 0.689752 0.812451 0.735957
O O1 0.913223 0.500000 0.099855
O O2 0.875401 0.267958 0.177422
O O3 0.000000 0.254993 0.090892
O O4 0.846185 0.264448 0.043388
O O5 0.500000 0.500000 0.964353
O O6 0.422256 0.748328 0.928991
O O7 0.500000 0.732312 0.048815
O O8 0.833312 0.500000 0.645255
O O9 0.920292 0.747369 0.664083
O O10 0.800044 0.757541 0.578781
O O11 0.771382 0.738827 0.710574
O O12 0.155035 0.500000 0.399190
O O13 0.229242 0.745395 0.444373
O O14 0.167200 0.732598 0.314813
O O15 0.000000 0.000000 0.635431
O O16 0.743678 0.000000 0.514872
O O17 0.697183 0.000000 0.733064
#
# Coordination Sequence:
#
# PCOD9374028 Si02
#       7
#     8   4   8   8   4   8   8
#     4   8  15  30  54  78  99 129 175 220 259 312
#     4  11  23  35  53  81 114 147 176 217 276 328
#     4  11  21  34  55  81 108 140 182 226 268 319
#     4  11  22  35  55  81 110 144 183 221 265 323
#     4  11  21  35  57  81 110 143 178 223 274 326
#     4  10  19  33  53  77 107 143 180 219 272 323
#     4   9  20  36  55  78 108 143 177 217 272 326
#
# _framework density 17.237729000000002
#
# number of rings (size 3 to 8) (size 9 to 14) (size 15 to 20)
#    0.000    2.000    1.667    4.000    1.167    2.000 
#    0.000    0.000    1.833    9.000    0.000    0.000 
#    0.000    0.000    0.000    0.000    0.000    0.000 
#
# Total GULP energy -133959.323837 kJ/mol
# GULP energy per Si atom -5581.638493 kJ/mol
# Density = 1.719850 g / cm^3
# Si number density = 17.237729 Si / 1000 Ang^3
#
#
#
# Elastic Constant Matrix: (Units=GPa)
#
#
# Indices 1 2 3 4 5 6 
#
# 1 152.2994 21.0124 47.0222 0.0000 0.0000 0.0000
# 2 21.0124 37.1817 18.9850 0.0000 0.0000 0.0000
# 3 47.0222 18.9850 83.0063 0.0000 0.0000 0.0000
# 4 0.0000 0.0000 0.0000 25.6210 0.0000 0.0000
# 5 0.0000 0.0000 0.0000 0.0000 17.6707 0.0000
# 6 0.0000 0.0000 0.0000 0.0000 0.0000 15.3698
#
#
#
# Elastic Compliance Matrix: (Units=1/GPa)
#
#
# Indices 1 2 3 4 5 6 
#
# 1 0.008166 -0.002551 -0.004043 0.000000 0.000000 0.000000
# 2 -0.002551 0.031248 -0.005702 0.000000 0.000000 0.000000
# 3 -0.004043 -0.005702 0.015642 0.000000 0.000000 0.000000
# 4 0.000000 0.000000 0.000000 0.039031 0.000000 0.000000
# 5 0.000000 0.000000 0.000000 0.000000 0.056591 0.000000
# 6 0.000000 0.000000 0.000000 0.000000 0.000000 0.065063
#
#
# Mechanical properties :
#
#
# Convention : Reuss Voigt Hill
#
# Bulk Modulus (GPa) = 32.82473 49.61409 41.21941
# Shear Modulus (GPa) = 19.96127 24.09681 22.02904
#
# Velocity S-wave (km/s) = 3.40663 3.74292 3.57873
# Velocity P-wave (km/s) = 5.87854 6.89377 6.40630
#
# Compressibility (1/GPa) = 0.03046484
#
# Stress axis : x y z
#
# Youngs Moduli (GPa) = 122.45774 32.00219 63.93242
#
# Poissons Ratio (x) = 0.08163 0.25845
# Poissons Ratio (y) = 0.31236 0.36454
# Poissons Ratio (z) = 0.49505 0.18248
#
# Static dielectric constant tensor:
#      x y z
#    x 1.583940 0.000000 0.000000 
#    y 0.000000 1.578090 0.000000 
#    z 0.000000 0.000000 1.569780 
# 
# From -- ./inp_files/21734.got.cif
#   From: 2010.05.17/outbox.cif.g08.bks.cpg/sg44_11_cif.got.tgz:21734.got - 2010.06.03 19:37:08.
