data_PCOD9374235
_publ_section_title
;
Structure prediction by ZEFSAII (Michael W. Deem and Ramdas Pophale) SiO2 
 PCOD9374235
Probable space group: I M M 2
;
_chemical_formula_sum "Si O2"
_cell_formula_units_Z 48
_cell_length_a 8.246532
_cell_length_b 14.894838
_cell_length_c 21.103340
_cell_angle_alpha 90.000000
_cell_angle_beta 90.000000
_cell_angle_gamma 90.000000
_cell_volume 2592.139253
_symmetry_space_group_name_H-M "I M M 2"
_symmetry_group_IT_number 44
_symmetry_cell_setting 'orthorhombic'
loop_
_space_group_symop_operation_xyz
x,y,z
-x,-y,z
-x,y,z
x,-y,z
1/2+x,1/2+y,1/2+z
1/2-x,1/2-y,1/2+z
1/2-x,1/2+y,1/2+z
1/2+x,1/2-y,1/2+z
loop_
_atom_site_type_symbol
_atom_site_label
_atom_site_fract_x
_atom_site_fract_y
_atom_site_fract_z
Si Si1 0.805475 0.688920 0.279370
Si Si2 0.304195 0.308819 0.896987
Si Si3 0.305243 0.691267 0.038743
Si Si4 0.302505 0.000000 0.198388
Si Si5 0.697028 0.804660 0.158314
Si Si6 0.305456 0.000000 0.345293
Si Si7 0.809780 0.000000 0.731687
Si Si8 0.690231 0.000000 0.588325
O O1 0.747417 0.740179 0.342624
O O2 0.755930 0.748325 0.218733
O O3 0.735245 0.589869 0.269374
O O4 0.000000 0.682489 0.281356
O O5 0.500000 0.304777 0.897356
O O6 0.255459 0.409632 0.878212
O O7 0.244452 0.288943 0.967980
O O8 0.500000 0.699649 0.037408
O O9 0.245141 0.757162 0.094038
O O10 0.264601 0.589806 0.058677
O O11 0.249938 0.907678 0.165824
O O12 0.251041 0.000000 0.271865
O O13 0.500000 0.000000 0.198210
O O14 0.500000 0.802560 0.159093
O O15 0.500000 0.000000 0.346253
O O16 0.720126 0.000000 0.663859
O O17 0.000000 0.000000 0.717278
O O18 0.500000 0.000000 0.575636
#
# Coordination Sequence:
#
# PCOD9374235 Si02
#       8
#     8   8   8   4   8   4   4   4
#     4  11  22  37  58  84 115 147 189 239 284 332
#     4  10  22  38  55  82 119 155 188 232 287 342
#     4  10  21  37  57  81 114 156 193 226 281 345
#     4   9  18  32  53  84 111 134 185 242 276 324
#     4  10  19  35  58  81 110 148 192 235 277 332
#     4  11  20  32  55  85 114 147 188 233 279 338
#     4  12  24  39  60  85 113 149 191 236 289 347
#     4  12  23  35  56  88 120 148 186 239 292 337
#
# _framework density 18.517524000000002
#
# number of rings (size 3 to 8) (size 9 to 14) (size 15 to 20)
#    0.000    1.500    3.333    2.750    0.000    3.333 
#    0.000    1.250    0.000    4.000    0.000    0.000 
#    0.000    0.000    0.000    0.000    0.000    0.000 
#
# Total GULP energy -134082.183244 kJ/mol
# GULP energy per Si atom -5586.757635 kJ/mol
# Density = 1.847538 g / cm^3
# Si number density = 18.517524 Si / 1000 Ang^3
#
#
#
# Elastic Constant Matrix: (Units=GPa)
#
#
# Indices 1 2 3 4 5 6 
#
# 1 8.6443 -0.2721 1.7682 0.0000 0.0000 0.0000
# 2 -0.2721 154.2906 85.3594 0.0000 0.0000 0.0000
# 3 1.7682 85.3594 173.4985 0.0000 0.0000 0.0000
# 4 0.0000 0.0000 0.0000 6.6320 0.0000 0.0000
# 5 0.0000 0.0000 0.0000 0.0000 21.1785 0.0000
# 6 0.0000 0.0000 0.0000 0.0000 0.0000 3.2162
#
#
#
# Elastic Compliance Matrix: (Units=1/GPa)
#
#
# Indices 1 2 3 4 5 6 
#
# 1 0.116081 0.001181 -0.001764 0.000000 0.000000 0.000000
# 2 0.001181 0.008917 -0.004399 0.000000 0.000000 0.000000
# 3 -0.001764 -0.004399 0.007946 0.000000 0.000000 0.000000
# 4 0.000000 0.000000 0.000000 0.150784 0.000000 0.000000
# 5 0.000000 0.000000 0.000000 0.000000 0.047218 0.000000
# 6 0.000000 0.000000 0.000000 0.000000 0.000000 0.310927
#
#
# Mechanical properties :
#
#
# Convention : Reuss Voigt Hill
#
# Bulk Modulus (GPa) = 8.13144 56.68270 32.40707
# Shear Modulus (GPa) = 7.21677 22.84388 15.03033
#
# Velocity S-wave (km/s) = 1.97629 3.51613 2.85209
# Velocity P-wave (km/s) = 3.09974 6.86738 5.32773
#
# Compressibility (1/GPa) = 0.12297943
#
# Stress axis : x y z
#
# Youngs Moduli (GPa) = 8.61466 112.14350 125.84857
#
# Poissons Ratio (x) = -0.13239 0.22197
# Poissons Ratio (y) = -0.01017 0.55363
# Poissons Ratio (z) = 0.01519 0.49334
#
# Static dielectric constant tensor:
#      x y z
#    x 1.644740 0.000000 0.000000 
#    y 0.000000 1.611240 0.000000 
#    z 0.000000 0.000000 1.643610 
# 
# From -- ./inp_files/20362.got.cif
#   From: 2010.05.17/outbox.cif.g08.bks.cpg/sg44_11_cif.got.tgz:20362.got - 2010.06.03 19:37:08.
