data_PCOD9374088
_publ_section_title
;
Structure prediction by ZEFSAII (Michael W. Deem and Ramdas Pophale) SiO2 
 PCOD9374088
Probable space group: I M M 2
;
_chemical_formula_sum "Si O2"
_cell_formula_units_Z 64
_cell_length_a 9.144623
_cell_length_b 17.448619
_cell_length_c 20.867867
_cell_angle_alpha 90.000000
_cell_angle_beta 90.000000
_cell_angle_gamma 90.000000
_cell_volume 3329.698616
_symmetry_space_group_name_H-M "I M M 2"
_symmetry_group_IT_number 44
_symmetry_cell_setting 'orthorhombic'
loop_
_space_group_symop_operation_xyz
x,y,z
-x,-y,z
-x,y,z
x,-y,z
1/2+x,1/2+y,1/2+z
1/2-x,1/2-y,1/2+z
1/2-x,1/2+y,1/2+z
1/2+x,1/2-y,1/2+z
loop_
_atom_site_type_symbol
_atom_site_label
_atom_site_fract_x
_atom_site_fract_y
_atom_site_fract_z
Si Si1 0.824325 0.301970 0.760250
Si Si2 0.171183 0.087577 0.360829
Si Si3 0.671825 0.878067 0.492077
Si Si4 0.330820 0.621506 0.122608
Si Si5 0.174571 0.583996 0.393317
Si Si6 0.825178 0.636035 0.251611
Si Si7 0.669176 0.693188 0.490272
Si Si8 0.333504 0.191771 0.117263
O O1 0.760844 0.356307 0.814805
O O2 0.743542 0.220305 0.762282
O O3 0.795748 0.335059 0.688811
O O4 0.000000 0.291690 0.766399
O O5 0.240470 0.090788 0.431484
O O6 0.000000 0.109786 0.363200
O O7 0.180708 0.000000 0.337498
O O8 0.500000 0.897805 0.489863
O O9 0.744230 0.902901 0.559120
O O10 0.684098 0.785305 0.487473
O O11 0.500000 0.597273 0.121577
O O12 0.250575 0.600913 0.188694
O O13 0.330001 0.715093 0.121119
O O14 0.224797 0.500000 0.415624
O O15 0.203201 0.592013 0.317632
O O16 0.245803 0.651638 0.433573
O O17 0.000000 0.588599 0.401357
O O18 0.000000 0.641295 0.241396
O O19 0.500000 0.674239 0.484773
O O20 0.730825 0.668029 0.559303
O O21 0.500000 0.169410 0.102319
#
# Coordination Sequence:
#
# PCOD9374088 Si02
#       8
#     8   8   8   8   8   8   8   8
#     4  10  20  35  57  83 108 137 176 219 266 322
#     4  11  24  39  54  76 108 144 181 222 268 318
#     4  10  20  35  57  83 109 139 177 219 264 318
#     4   9  17  31  53  81 111 139 172 217 266 316
#     4  10  22  38  53  72 103 143 182 217 257 310
#     4  10  19  33  56  82 107 138 178 223 269 316
#     4  10  20  33  54  83 108 133 171 218 264 311
#     4   8  16  31  52  78 106 136 169 209 258 311
#
# _framework density 19.220959000000001
#
# number of rings (size 3 to 8) (size 9 to 14) (size 15 to 20)
#    0.000    2.250    0.000    3.750    0.000    9.250 
#    0.000    1.250    0.000    3.000    0.000    0.000 
#    0.000    0.000    0.000    0.000    0.000    0.000 
#
# Total GULP energy -178676.950016 kJ/mol
# GULP energy per Si atom -5583.654688 kJ/mol
# Density = 1.917721 g / cm^3
# Si number density = 19.220959 Si / 1000 Ang^3
#
#
#
# Elastic Constant Matrix: (Units=GPa)
#
#
# Indices 1 2 3 4 5 6 
#
# 1 90.0770 29.8237 51.4826 0.0000 0.0000 0.0000
# 2 29.8237 40.1068 30.0429 0.0000 0.0000 0.0000
# 3 51.4826 30.0429 102.8152 0.0000 0.0000 0.0000
# 4 0.0000 0.0000 0.0000 -22.9792 0.0000 0.0000
# 5 0.0000 0.0000 0.0000 0.0000 39.0502 0.0000
# 6 0.0000 0.0000 0.0000 0.0000 0.0000 -3.2024
#
#
#
# Elastic Compliance Matrix: (Units=1/GPa)
#
#
# Indices 1 2 3 4 5 6 
#
# 1 0.017444 -0.008230 -0.006330 0.000000 0.000000 0.000000
# 2 -0.008230 0.035803 -0.006341 0.000000 0.000000 0.000000
# 3 -0.006330 -0.006341 0.014749 0.000000 0.000000 0.000000
# 4 0.000000 0.000000 0.000000 -0.043518 0.000000 0.000000
# 5 0.000000 0.000000 0.000000 0.000000 0.025608 0.000000
# 6 0.000000 0.000000 0.000000 0.000000 0.000000 -0.312262
#
#
# Mechanical properties :
#
#
# Convention : Reuss Voigt Hill
#
# Bulk Modulus (GPa) = 38.17622 50.63304 44.40463
# Shear Modulus (GPa) = -23.62471 10.68371 -6.47050
#
# Velocity S-wave (km/s) = -3.50967 2.36018 -1.83676
# Velocity P-wave (km/s) = 1.86578 5.81610 4.31904
#
# Compressibility (1/GPa) = 0.02619432
#
# Stress axis : x y z
#
# Youngs Moduli (GPa) = 57.32488 27.93061 67.80305
#
# Poissons Ratio (x) = 0.22987 0.42920
# Poissons Ratio (y) = 0.47179 0.42992
# Poissons Ratio (z) = 0.36287 0.17710
#
# Static dielectric constant tensor:
#      x y z
#    x 1.641540 0.000000 0.000000 
#    y 0.000000 1.663830 0.000000 
#    z 0.000000 0.000000 1.659360 
# 
# From -- ./inp_files/23295.got.cif
#   From: 2010.05.17/outbox.cif.g08.bks.cpg/sg44_12_cif.got.tgz:23295.got - 2010.06.03 19:37:08.
