data_PCOD9374274
_publ_section_title
;
Structure prediction by ZEFSAII (Michael W. Deem and Ramdas Pophale) SiO2 
 PCOD9374274
Probable space group: I M M 2
;
_chemical_formula_sum "Si O2"
_cell_formula_units_Z 64
_cell_length_a 14.989732
_cell_length_b 17.833596
_cell_length_c 12.065330
_cell_angle_alpha 90.000000
_cell_angle_beta 90.000000
_cell_angle_gamma 90.000000
_cell_volume 3225.313965
_symmetry_space_group_name_H-M "I M M 2"
_symmetry_group_IT_number 44
_symmetry_cell_setting 'orthorhombic'
loop_
_space_group_symop_operation_xyz
x,y,z
-x,-y,z
-x,y,z
x,-y,z
1/2+x,1/2+y,1/2+z
1/2-x,1/2-y,1/2+z
1/2-x,1/2+y,1/2+z
1/2+x,1/2-y,1/2+z
loop_
_atom_site_type_symbol
_atom_site_label
_atom_site_fract_x
_atom_site_fract_y
_atom_site_fract_z
Si Si1 0.393144 0.916157 0.897480
Si Si2 0.392761 0.414307 0.391526
Si Si3 0.727626 0.328169 0.815279
Si Si4 0.396616 0.590308 0.640203
Si Si5 0.677154 0.691712 0.198033
Si Si6 0.401840 0.089925 0.410982
Si Si7 0.330566 0.912513 0.645548
Si Si8 0.103209 0.257681 0.485996
O O1 0.500000 0.920103 0.906165
O O2 0.369057 0.900701 0.768882
O O3 0.358356 0.000000 0.927048
O O4 0.364957 0.844050 0.968928
O O5 0.500000 0.417448 0.393534
O O6 0.360634 0.500000 0.370449
O O7 0.365779 0.389386 0.515298
O O8 0.363376 0.357373 0.297155
O O9 0.667428 0.377525 0.733379
O O10 0.762811 0.256598 0.748993
O O11 0.815752 0.371515 0.857329
O O12 0.665032 0.295894 0.912252
O O13 0.500000 0.615170 0.655173
O O14 0.396783 0.500000 0.643635
O O15 0.742662 0.636199 0.132900
O O16 0.610459 0.729919 0.111952
O O17 0.500000 0.115382 0.370581
O O18 0.395447 0.104194 0.543326
O O19 0.396625 0.000000 0.394224
O O20 0.308150 0.000000 0.637537
O O21 0.000000 0.253763 0.449136
#
# Coordination Sequence:
#
# PCOD9374274 Si02
#       8
#     8   8   8   8   8   8   8   8
#     4   9  18  36  62  90 120 160 209 258 310 369
#     4   9  20  41  67  92 120 161 213 262 310 368
#     4  12  24  39  64  92 130 167 209 253 324 382
#     4   9  20  41  68  96 125 162 211 265 316 374
#     4  12  24  38  59  91 131 168 205 255 315 374
#     4  10  22  41  63  89 125 168 214 261 310 372
#     4  10  19  35  60  89 122 161 208 256 304 366
#     4  11  24  42  61  93 135 169 204 259 319 381
#
# _framework density 19.843029000000001
#
# number of rings (size 3 to 8) (size 9 to 14) (size 15 to 20)
#    0.000    1.750    2.500    2.625    1.750    2.500 
#    0.000    2.500    0.000    4.500    0.000    0.000 
#    0.000    0.000    0.000    0.000    0.000    0.000 
#
# Total GULP energy -178644.987281 kJ/mol
# GULP energy per Si atom -5582.655853 kJ/mol
# Density = 1.979787 g / cm^3
# Si number density = 19.843029 Si / 1000 Ang^3
#
#
#
# Elastic Constant Matrix: (Units=GPa)
#
#
# Indices 1 2 3 4 5 6 
#
# 1 108.5758 50.4555 48.3538 0.0000 0.0000 0.0000
# 2 50.4555 75.4871 62.7496 0.0000 0.0000 0.0000
# 3 48.3538 62.7496 100.8969 0.0000 0.0000 0.0000
# 4 0.0000 0.0000 0.0000 -283.9217 0.0000 0.0000
# 5 0.0000 0.0000 0.0000 0.0000 19.4642 0.0000
# 6 0.0000 0.0000 0.0000 0.0000 0.0000 24.7753
#
#
#
# Elastic Compliance Matrix: (Units=1/GPa)
#
#
# Indices 1 2 3 4 5 6 
#
# 1 0.013512 -0.007554 -0.001778 0.000000 0.000000 0.000000
# 2 -0.007554 0.031649 -0.016063 0.000000 0.000000 0.000000
# 3 -0.001778 -0.016063 0.020753 0.000000 0.000000 0.000000
# 4 0.000000 0.000000 0.000000 -0.003522 0.000000 0.000000
# 5 0.000000 0.000000 0.000000 0.000000 0.051376 0.000000
# 6 0.000000 0.000000 0.000000 0.000000 0.000000 0.040363
#
#
# Mechanical properties :
#
#
# Convention : Reuss Voigt Hill
#
# Bulk Modulus (GPa) = 66.11561 67.56415 66.83988
# Shear Modulus (GPa) = 23.81399 -39.70972 -7.94787
#
# Velocity S-wave (km/s) = 3.46803 -4.47832 -2.00351
# Velocity P-wave (km/s) = 7.03050 2.71712 5.32967
#
# Compressibility (1/GPa) = 0.01512502
#
# Stress axis : x y z
#
# Youngs Moduli (GPa) = 74.00778 31.59701 48.18623
#
# Poissons Ratio (x) = 0.23867 0.08566
# Poissons Ratio (y) = 0.55903 0.77400
# Poissons Ratio (z) = 0.13157 0.50754
#
# Static dielectric constant tensor:
#      x y z
#    x 1.712700 0.000000 0.000000 
#    y 0.000000 1.691890 0.000000 
#    z 0.000000 0.000000 1.707000 
# 
# From -- ./inp_files/13455.got.cif
#   From: 2010.05.17/outbox.cif.g08.bks.cpg/sg44_7_cif.got.tgz:13455.got - 2010.06.03 19:37:08.
