data_PCOD9374562
_publ_section_title
;
Structure prediction by ZEFSAII (Michael W. Deem and Ramdas Pophale) SiO2 
 PCOD9374562
Probable space group: I M M 2
;
_chemical_formula_sum "Si O2"
_cell_formula_units_Z 56
_cell_length_a 20.546810
_cell_length_b 8.654604
_cell_length_c 15.740556
_cell_angle_alpha 90.000000
_cell_angle_beta 90.000000
_cell_angle_gamma 90.000000
_cell_volume 2799.056564
_symmetry_space_group_name_H-M "I M M 2"
_symmetry_group_IT_number 44
_symmetry_cell_setting 'orthorhombic'
loop_
_space_group_symop_operation_xyz
x,y,z
-x,-y,z
-x,y,z
x,-y,z
1/2+x,1/2+y,1/2+z
1/2-x,1/2-y,1/2+z
1/2-x,1/2+y,1/2+z
1/2+x,1/2-y,1/2+z
loop_
_atom_site_type_symbol
_atom_site_label
_atom_site_fract_x
_atom_site_fract_y
_atom_site_fract_z
Si Si1 0.193228 0.820449 0.476130
Si Si2 0.925372 0.166682 0.715612
Si Si3 0.573044 0.812388 0.579119
Si Si4 0.577815 0.828116 0.053741
Si Si5 0.392511 0.818081 0.385455
Si Si6 0.784766 0.312114 0.135725
Si Si7 0.258574 0.683462 0.325243
O O1 0.119185 0.798838 0.505509
O O2 0.240573 0.766190 0.554157
O O3 0.201597 0.722517 0.390728
O O4 0.208055 0.000000 0.460649
O O5 0.902391 0.298595 0.652157
O O6 0.924836 0.218405 0.811990
O O7 0.000000 0.148428 0.691002
O O8 0.891823 0.000000 0.703528
O O9 0.500000 0.758869 0.604650
O O10 0.584748 0.776000 0.479588
O O11 0.639716 0.760058 0.625384
O O12 0.572339 0.000000 0.585746
O O13 0.500000 0.818198 0.042532
O O14 0.598071 0.000000 0.028281
O O15 0.317438 0.779016 0.367403
O O16 0.405264 0.000000 0.373944
O O17 0.785352 0.500000 0.134052
O O18 0.755820 0.269172 0.227963
O O19 0.272258 0.500000 0.326754
#
# Coordination Sequence:
#
# PCOD9374562 Si02
#       7
#     8   8   8   8   8   8   8
#     4  11  21  38  61  85 118 155 193 243 299 361
#     4  10  20  33  50  77 115 154 188 227 288 359
#     4   9  17  32  56  83 111 147 194 249 304 354
#     4  10  21  37  57  83 114 149 195 246 293 349
#     4  11  20  33  54  82 113 146 194 249 302 359
#     4   9  19  36  56  82 116 153 197 246 296 354
#     4  11  22  36  57  84 115 152 197 250 303 359
#
# _framework density 20.006740000000001
#
# number of rings (size 3 to 8) (size 9 to 14) (size 15 to 20)
#    0.000    1.857    1.429    3.429    0.000    3.429 
#    0.000    2.857    0.000    2.571    0.000    0.000 
#    0.000    0.000    0.000    0.000    0.000    0.000 
#
# Total GULP energy -156042.910297 kJ/mol
# GULP energy per Si atom -5572.961082 kJ/mol
# Density = 1.996120 g / cm^3
# Si number density = 20.006740 Si / 1000 Ang^3
#
#
#
# Elastic Constant Matrix: (Units=GPa)
#
#
# Indices 1 2 3 4 5 6 
#
# 1 75.5331 11.8461 11.0717 0.0000 0.0000 0.0000
# 2 11.8461 38.4978 11.9364 0.0000 0.0000 0.0000
# 3 11.0717 11.9364 64.6682 0.0000 0.0000 0.0000
# 4 0.0000 0.0000 0.0000 19.4442 0.0000 0.0000
# 5 0.0000 0.0000 0.0000 0.0000 33.5649 0.0000
# 6 0.0000 0.0000 0.0000 0.0000 0.0000 15.0832
#
#
#
# Elastic Compliance Matrix: (Units=1/GPa)
#
#
# Indices 1 2 3 4 5 6 
#
# 1 0.014086 -0.003804 -0.001709 0.000000 0.000000 0.000000
# 2 -0.003804 0.028580 -0.004624 0.000000 0.000000 0.000000
# 3 -0.001709 -0.004624 0.016610 0.000000 0.000000 0.000000
# 4 0.000000 0.000000 0.000000 0.051429 0.000000 0.000000
# 5 0.000000 0.000000 0.000000 0.000000 0.029793 0.000000
# 6 0.000000 0.000000 0.000000 0.000000 0.000000 0.066299
#
#
# Mechanical properties :
#
#
# Convention : Reuss Voigt Hill
#
# Bulk Modulus (GPa) = 25.64083 27.60083 26.62083
# Shear Modulus (GPa) = 20.82702 23.20813 22.01758
#
# Velocity S-wave (km/s) = 3.22995 3.40960 3.32099
# Velocity P-wave (km/s) = 5.17243 5.41536 5.29529
#
# Compressibility (1/GPa) = 0.03900029
#
# Stress axis : x y z
#
# Youngs Moduli (GPa) = 70.99011 34.98967 60.20578
#
# Poissons Ratio (x) = 0.13312 0.10292
# Poissons Ratio (y) = 0.27008 0.27839
# Poissons Ratio (z) = 0.12136 0.16179
#
# Static dielectric constant tensor:
#      x y z
#    x 1.630310 0.000000 0.000000 
#    y 0.000000 1.711720 0.000000 
#    z 0.000000 0.000000 1.705230 
# 
# From -- ./inp_files/16456.got.cif
#   From: 2010.05.17/outbox.cif.g08.bks.cpg/sg44_9_cif.got.tgz:16456.got - 2010.06.03 19:37:08.
