data_PCOD9374499
_publ_section_title
;
Structure prediction by ZEFSAII (Michael W. Deem and Ramdas Pophale) SiO2 
 PCOD9374499
Probable space group: I M M 2
;
_chemical_formula_sum "Si O2"
_cell_formula_units_Z 58
_cell_length_a 25.983022
_cell_length_b 8.618109
_cell_length_c 12.224416
_cell_angle_alpha 90.000000
_cell_angle_beta 90.000000
_cell_angle_gamma 90.000000
_cell_volume 2737.346433
_symmetry_space_group_name_H-M "I M M 2"
_symmetry_group_IT_number 44
_symmetry_cell_setting 'orthorhombic'
loop_
_space_group_symop_operation_xyz
x,y,z
-x,-y,z
-x,y,z
x,-y,z
1/2+x,1/2+y,1/2+z
1/2-x,1/2-y,1/2+z
1/2-x,1/2+y,1/2+z
1/2+x,1/2-y,1/2+z
loop_
_atom_site_type_symbol
_atom_site_label
_atom_site_fract_x
_atom_site_fract_y
_atom_site_fract_z
Si Si1 0.147118 0.179779 0.565870
Si Si2 0.556381 0.315195 0.438518
Si Si3 0.558503 0.178796 0.195403
Si Si4 0.818736 0.178769 0.195219
Si Si5 0.781206 0.814903 0.768081
Si Si6 0.338687 0.181323 0.476477
Si Si7 0.608254 0.167986 0.847634
Si Si8 0.500000 0.000000 0.867980
O O1 0.094368 0.202411 0.633232
O O2 0.190208 0.228468 0.654117
O O3 0.136525 0.281134 0.458957
O O4 0.155589 0.000000 0.536233
O O5 0.500000 0.287199 0.488379
O O6 0.562342 0.500000 0.422845
O O7 0.557386 0.229218 0.321485
O O8 0.604237 0.245074 0.500940
O O9 0.500000 0.182003 0.153284
O O10 0.576918 0.000000 0.184253
O O11 0.772261 0.224015 0.275755
O O12 0.872570 0.215229 0.254924
O O13 0.816361 0.000000 0.163998
O O14 0.809095 0.281082 0.087444
O O15 0.816556 0.768587 0.870892
O O16 0.773985 0.000000 0.768289
O O17 0.339653 0.000000 0.453168
O O18 0.629543 0.000000 0.811712
O O19 0.547371 0.133562 0.865487
#
# Coordination Sequence:
#
# PCOD9374499 Si02
#       8
#     8   8   8   8   8   8   8   2
#     4  11  23  38  63  98 140 182 232 290 350 418
#     4  10  20  37  59  90 130 173 222 277 338 402
#     4  10  20  32  53  84 126 174 220 272 337 407
#     4  12  27  48  73 101 137 184 236 294 353 424
#     4  11  25  45  69 101 141 186 235 292 354 423
#     4  12  25  44  70 100 138 181 230 287 348 422
#     4  10  23  46  72 100 137 182 236 294 352 427
#     4   8  24  48  78 104 138 196 238 308 358 434
#
# _framework density 21.188403000000001
#
# number of rings (size 3 to 8) (size 9 to 14) (size 15 to 20)
#    0.414    0.828    1.379    4.552    2.897    3.310 
#    1.241    1.034    0.000    0.000    0.000    0.000 
#    0.000    0.000    0.000    0.000    0.000    0.000 
#
# Total GULP energy -161662.258086 kJ/mol
# GULP energy per Si atom -5574.560624 kJ/mol
# Density = 2.114018 g / cm^3
# Si number density = 21.188403 Si / 1000 Ang^3
#
#
#
# Elastic Constant Matrix: (Units=GPa)
#
#
# Indices 1 2 3 4 5 6 
#
# 1 83.2988 13.3584 22.7427 0.0000 0.0000 0.0000
# 2 13.3584 64.4081 -1.9249 0.0000 0.0000 0.0000
# 3 22.7427 -1.9249 51.9978 0.0000 0.0000 0.0000
# 4 0.0000 0.0000 0.0000 29.0831 0.0000 0.0000
# 5 0.0000 0.0000 0.0000 0.0000 18.8084 0.0000
# 6 0.0000 0.0000 0.0000 0.0000 0.0000 31.3689
#
#
#
# Elastic Compliance Matrix: (Units=1/GPa)
#
#
# Indices 1 2 3 4 5 6 
#
# 1 0.014241 -0.003143 -0.006345 0.000000 0.000000 0.000000
# 2 -0.003143 0.016237 0.001976 0.000000 0.000000 0.000000
# 3 -0.006345 0.001976 0.022080 0.000000 0.000000 0.000000
# 4 0.000000 0.000000 0.000000 0.034384 0.000000 0.000000
# 5 0.000000 0.000000 0.000000 0.000000 0.053168 0.000000
# 6 0.000000 0.000000 0.000000 0.000000 0.000000 0.031879
#
#
# Mechanical properties :
#
#
# Convention : Reuss Voigt Hill
#
# Bulk Modulus (GPa) = 26.64318 29.78413 28.21365
# Shear Modulus (GPa) = 25.05945 26.88732 25.97338
#
# Velocity S-wave (km/s) = 3.44277 3.56612 3.50498
# Velocity P-wave (km/s) = 5.32966 5.57168 5.45201
#
# Compressibility (1/GPa) = 0.03753306
#
# Stress axis : x y z
#
# Youngs Moduli (GPa) = 70.21736 61.58772 45.28982
#
# Poissons Ratio (x) = 0.19359 0.28738
# Poissons Ratio (y) = 0.22072 -0.08949
# Poissons Ratio (z) = 0.44555 -0.12169
#
# Static dielectric constant tensor:
#      x y z
#    x 1.847210 0.000000 0.000000 
#    y 0.000000 1.709540 0.000000 
#    z 0.000000 0.000000 1.776600 
# 
# From -- ./inp_files/14856.got.cif
#   From: 2010.05.17/outbox.cif.g08.bks.cpg/sg44_8_cif.got.tgz:14856.got - 2010.06.03 19:37:08.
