data_PCOD9374775
_publ_section_title
;
Structure prediction by ZEFSAII (Michael W. Deem and Ramdas Pophale) SiO2 
 PCOD9374775
Probable space group: I M M 2
;
_chemical_formula_sum "Si O2"
_cell_formula_units_Z 48
_cell_length_a 9.829993
_cell_length_b 7.632364
_cell_length_c 35.526261
_cell_angle_alpha 90.000000
_cell_angle_beta 90.000000
_cell_angle_gamma 90.000000
_cell_volume 2665.396267
_symmetry_space_group_name_H-M "I M M 2"
_symmetry_group_IT_number 44
_symmetry_cell_setting 'orthorhombic'
loop_
_space_group_symop_operation_xyz
x,y,z
-x,-y,z
-x,y,z
x,-y,z
1/2+x,1/2+y,1/2+z
1/2-x,1/2-y,1/2+z
1/2-x,1/2+y,1/2+z
1/2+x,1/2-y,1/2+z
loop_
_atom_site_type_symbol
_atom_site_label
_atom_site_fract_x
_atom_site_fract_y
_atom_site_fract_z
Si Si1 0.165211 0.299870 0.034040
Si Si2 0.664563 0.500000 0.475347
Si Si3 0.343632 0.214106 0.617418
Si Si4 0.843033 0.786138 0.685927
Si Si5 0.342152 0.288084 0.270167
Si Si6 0.842373 0.801163 0.340470
Si Si7 0.662983 0.000000 0.899542
O O1 0.211380 0.500000 0.027928
O O2 0.200918 0.168708 0.000773
O O3 0.207828 0.236895 0.075731
O O4 0.000000 0.303487 0.035879
O O5 0.500000 0.500000 0.469309
O O6 0.747381 0.500000 0.436847
O O7 0.500000 0.271040 0.621958
O O8 0.251615 0.273984 0.651973
O O9 0.344445 0.000000 0.617370
O O10 0.799643 0.732200 0.728029
O O11 0.000000 0.733820 0.680588
O O12 0.840743 0.000000 0.685687
O O13 0.500000 0.236855 0.275303
O O14 0.337074 0.500000 0.271132
O O15 0.249360 0.220911 0.303674
O O16 0.805025 0.666916 0.373299
O O17 0.000000 0.765092 0.330299
O O18 0.832235 0.000000 0.354111
O O19 0.500000 0.000000 0.907584
#
# Coordination Sequence:
#
# PCOD9374775 Si02
#       7
#     8   4   8   8   8   8   4
#     4   8  15  29  49  74 103 131 164 210 256 295
#     4  10  20  34  56  80 100 130 170 210 254 310
#     4   8  13  23  41  65  93 129 171 208 246 294
#     4   8  14  24  40  67 101 134 168 208 250 295
#     4   9  17  30  50  76 106 139 176 216 260 308
#     4  10  21  37  57  78 101 135 175 212 259 316
#     4  10  22  40  56  76 108 136 160 210 270 314
#
# _framework density 18.008579000000001
#
# number of rings (size 3 to 8) (size 9 to 14) (size 15 to 20)
#    0.000    3.167    0.833    2.000    0.000    2.333 
#    0.000    2.500    1.833    1.000    0.000    0.000 
#    0.000    0.000    0.000    0.000    0.000    0.000 
#
# Total GULP energy -133780.672806 kJ/mol
# GULP energy per Si atom -5574.194700 kJ/mol
# Density = 1.796759 g / cm^3
# Si number density = 18.008579 Si / 1000 Ang^3
#
#
#
# Elastic Constant Matrix: (Units=GPa)
#
#
# Indices 1 2 3 4 5 6 
#
# 1 56.4344 33.0000 87.3535 0.0000 0.0000 0.0000
# 2 33.0000 72.0938 67.0732 0.0000 0.0000 0.0000
# 3 87.3535 67.0732 198.1128 0.0000 0.0000 0.0000
# 4 0.0000 0.0000 0.0000 -33.3798 0.0000 0.0000
# 5 0.0000 0.0000 0.0000 0.0000 39.6110 0.0000
# 6 0.0000 0.0000 0.0000 0.0000 0.0000 8.6898
#
#
#
# Elastic Compliance Matrix: (Units=1/GPa)
#
#
# Indices 1 2 3 4 5 6 
#
# 1 0.056561 -0.003923 -0.023611 0.000000 0.000000 0.000000
# 2 -0.003923 0.020521 -0.005218 0.000000 0.000000 0.000000
# 3 -0.023611 -0.005218 0.017225 0.000000 0.000000 0.000000
# 4 0.000000 0.000000 0.000000 -0.029958 0.000000 0.000000
# 5 0.000000 0.000000 0.000000 0.000000 0.025246 0.000000
# 6 0.000000 0.000000 0.000000 0.000000 0.000000 0.115077
#
#
# Mechanical properties :
#
#
# Convention : Reuss Voigt Hill
#
# Bulk Modulus (GPa) = 34.71896 77.94382 56.33139
# Shear Modulus (GPa) = 17.87147 12.26515 15.06831
#
# Velocity S-wave (km/s) = 3.15363 2.61257 2.89577
# Velocity P-wave (km/s) = 5.70802 7.24404 6.52141
#
# Compressibility (1/GPa) = 0.02880270
#
# Stress axis : x y z
#
# Youngs Moduli (GPa) = 17.68015 48.73055 58.05555
#
# Poissons Ratio (x) = 0.19118 1.37075
# Poissons Ratio (y) = 0.06936 0.30292
# Poissons Ratio (z) = 0.41744 0.25426
#
# Static dielectric constant tensor:
#      x y z
#    x 1.594770 0.000000 0.000000 
#    y 0.000000 1.668210 0.000000 
#    z 0.000000 0.000000 1.594300 
# 
# From -- ./inp_files/26909.got.cif
#   From: 2010.05.17/outbox.cif.g08.bks.cpg/sg44_14_cif.got.tgz:26909.got - 2010.06.03 19:37:08.
