data_PCOD9374167
_publ_section_title
;
Structure prediction by ZEFSAII (Michael W. Deem and Ramdas Pophale) SiO2 
 PCOD9374167
Probable space group: I M M 2
;
_chemical_formula_sum "Si O2"
_cell_formula_units_Z 64
_cell_length_a 25.644991
_cell_length_b 8.310175
_cell_length_c 15.235838
_cell_angle_alpha 90.000000
_cell_angle_beta 90.000000
_cell_angle_gamma 90.000000
_cell_volume 3246.975911
_symmetry_space_group_name_H-M "I M M 2"
_symmetry_group_IT_number 44
_symmetry_cell_setting 'orthorhombic'
loop_
_space_group_symop_operation_xyz
x,y,z
-x,-y,z
-x,y,z
x,-y,z
1/2+x,1/2+y,1/2+z
1/2-x,1/2-y,1/2+z
1/2-x,1/2+y,1/2+z
1/2+x,1/2-y,1/2+z
loop_
_atom_site_type_symbol
_atom_site_label
_atom_site_fract_x
_atom_site_fract_y
_atom_site_fract_z
Si Si1 0.366850 0.694990 0.083460
Si Si2 0.235578 0.805348 0.484403
Si Si3 0.850977 0.690199 0.965166
Si Si4 0.228442 0.189362 0.279171
Si Si5 0.559038 0.309772 0.587142
Si Si6 0.660331 0.311314 0.270171
Si Si7 0.382137 0.189917 0.753945
Si Si8 0.440149 0.805607 0.929674
O O1 0.365631 0.500000 0.082647
O O2 0.371287 0.744972 0.184801
O O3 0.311398 0.754506 0.044363
O O4 0.411659 0.751584 0.018115
O O5 0.294680 0.748330 0.500564
O O6 0.222741 0.769092 0.382736
O O7 0.236886 0.000000 0.491817
O O8 0.853810 0.500000 0.982660
O O9 0.850027 0.719408 0.860602
O O10 0.899661 0.772153 0.011222
O O11 0.278546 0.286638 0.246905
O O12 0.173483 0.228928 0.235741
O O13 0.240038 0.000000 0.272526
O O14 0.500000 0.261116 0.564504
O O15 0.559470 0.500000 0.604473
O O16 0.578692 0.222160 0.674655
O O17 0.650652 0.500000 0.285409
O O18 0.407435 0.251260 0.844831
O O19 0.372786 0.000000 0.762557
O O20 0.500000 0.750053 0.925225
O O21 0.440446 0.000000 0.926593
#
# Coordination Sequence:
#
# PCOD9374167 Si02
#       8
#     8   8   8   8   8   8   8   8
#     4  10  20  36  58  85 118 156 197 240 289 346
#     4   8  16  32  54  82 116 150 185 232 285 340
#     4  10  21  39  63  87 117 155 196 247 301 353
#     4  10  19  34  56  84 120 158 198 241 290 348
#     4  11  25  43  62  87 118 152 197 251 300 354
#     4  10  21  36  58  87 122 159 198 244 298 356
#     4  11  22  37  59  87 120 158 197 238 294 359
#     4  10  22  39  58  84 119 155 195 244 291 341
#
# _framework density 19.710647000000002
#
# number of rings (size 3 to 8) (size 9 to 14) (size 15 to 20)
#    0.000    2.000    1.250    3.000    1.750    3.250 
#    0.000    1.250    0.000    0.750    0.000    0.000 
#    0.000    0.000    0.000    0.000    0.000    0.000 
#
# Total GULP energy -178717.285877 kJ/mol
# GULP energy per Si atom -5584.915184 kJ/mol
# Density = 1.966578 g / cm^3
# Si number density = 19.710647 Si / 1000 Ang^3
#
#
#
# Elastic Constant Matrix: (Units=GPa)
#
#
# Indices 1 2 3 4 5 6 
#
# 1 89.0392 -6.9041 25.0271 0.0000 0.0000 0.0000
# 2 -6.9041 13.9314 -5.8074 0.0000 0.0000 0.0000
# 3 25.0271 -5.8074 53.2017 0.0000 0.0000 0.0000
# 4 0.0000 0.0000 0.0000 25.6035 0.0000 0.0000
# 5 0.0000 0.0000 0.0000 0.0000 29.6422 0.0000
# 6 0.0000 0.0000 0.0000 0.0000 0.0000 25.6077
#
#
#
# Elastic Compliance Matrix: (Units=1/GPa)
#
#
# Indices 1 2 3 4 5 6 
#
# 1 0.013165 0.004131 -0.005742 0.000000 0.000000 0.000000
# 2 0.004131 0.076498 0.006407 0.000000 0.000000 0.000000
# 3 -0.005742 0.006407 0.022197 0.000000 0.000000 0.000000
# 4 0.000000 0.000000 0.000000 0.039057 0.000000 0.000000
# 5 0.000000 0.000000 0.000000 0.000000 0.033736 0.000000
# 6 0.000000 0.000000 0.000000 0.000000 0.000000 0.039051
#
#
# Mechanical properties :
#
#
# Convention : Reuss Voigt Hill
#
# Bulk Modulus (GPa) = 8.23371 20.08928 14.16150
# Shear Modulus (GPa) = 19.63889 25.76113 22.70001
#
# Velocity S-wave (km/s) = 3.15994 3.61912 3.39730
# Velocity P-wave (km/s) = 4.18330 5.26101 4.75280
#
# Compressibility (1/GPa) = 0.12145188
#
# Stress axis : x y z
#
# Youngs Moduli (GPa) = 75.95684 13.07222 45.05093
#
# Poissons Ratio (x) = -0.05400 0.25870
# Poissons Ratio (y) = -0.31376 -0.28865
# Poissons Ratio (z) = 0.43617 -0.08376
#
# Static dielectric constant tensor:
#      x y z
#    x 1.679010 0.000000 0.000000 
#    y 0.000000 1.682120 0.000000 
#    z 0.000000 0.000000 1.692440 
# 
# From -- ./inp_files/16853.got.cif
#   From: 2010.05.17/outbox.cif.g08.bks.cpg/sg44_9_cif.got.tgz:16853.got - 2010.06.03 19:37:08.
