data_PCOD9374595
_publ_section_title
;
Structure prediction by ZEFSAII (Michael W. Deem and Ramdas Pophale) SiO2 
 PCOD9374595
Probable space group: I M M 2
;
_chemical_formula_sum "Si O2"
_cell_formula_units_Z 48
_cell_length_a 9.130220
_cell_length_b 7.493071
_cell_length_c 35.803183
_cell_angle_alpha 90.000000
_cell_angle_beta 90.000000
_cell_angle_gamma 90.000000
_cell_volume 2449.417004
_symmetry_space_group_name_H-M "I M M 2"
_symmetry_group_IT_number 44
_symmetry_cell_setting 'orthorhombic'
loop_
_space_group_symop_operation_xyz
x,y,z
-x,-y,z
-x,y,z
x,-y,z
1/2+x,1/2+y,1/2+z
1/2-x,1/2-y,1/2+z
1/2-x,1/2+y,1/2+z
1/2+x,1/2-y,1/2+z
loop_
_atom_site_type_symbol
_atom_site_label
_atom_site_fract_x
_atom_site_fract_y
_atom_site_fract_z
Si Si1 0.324585 0.710095 0.467630
Si Si2 0.323059 0.000000 0.613317
Si Si3 0.832306 0.217426 0.242030
Si Si4 0.673739 0.213130 0.165166
Si Si5 0.666027 0.214352 0.892024
Si Si6 0.334562 0.786876 0.315566
Si Si7 0.677540 0.000000 0.527197
O O1 0.500000 0.729482 0.462687
O O2 0.294207 0.500000 0.473319
O O3 0.246106 0.773933 0.429826
O O4 0.278255 0.827639 0.503008
O O5 0.258160 0.171925 0.634428
O O6 0.500000 0.000000 0.615424
O O7 0.275267 0.000000 0.570009
O O8 0.738274 0.264709 0.205686
O O9 0.758207 0.281055 0.280345
O O10 0.000000 0.277801 0.238739
O O11 0.835139 0.000000 0.243178
O O12 0.500000 0.247693 0.163880
O O13 0.696425 0.000000 0.160244
O O14 0.500000 0.282126 0.889576
O O15 0.755133 0.256637 0.854763
O O16 0.660455 0.000000 0.894413
O O17 0.500000 0.715845 0.316009
O O18 0.344019 0.000000 0.310630
O O19 0.500000 0.000000 0.528183
#
# Coordination Sequence:
#
# PCOD9374595 Si02
#       7
#     8   4   8   8   8   8   4
#     4   9  18  35  58  81 109 147 188 233 285 344
#     4  11  23  39  61  93 125 153 195 251 301 359
#     4   9  17  32  55  82 112 147 190 238 288 343
#     4  10  21  39  62  86 118 160 200 242 295 357
#     4  10  21  36  52  75 109 145 185 233 283 337
#     4  10  20  33  52  79 110 146 188 234 281 336
#     4   9  20  37  59  87 115 145 189 239 291 353
#
# _framework density 19.596498
#
# number of rings (size 3 to 8) (size 9 to 14) (size 15 to 20)
#    0.000    2.333    0.000    2.250    1.167    5.667 
#    1.500    3.333    0.000    2.000    0.000    0.000 
#    0.000    0.000    0.000    0.000    0.000    0.000 
#
# Total GULP energy -134039.350700 kJ/mol
# GULP energy per Si atom -5584.972946 kJ/mol
# Density = 1.955190 g / cm^3
# Si number density = 19.596498 Si / 1000 Ang^3
#
#
#
# Elastic Constant Matrix: (Units=GPa)
#
#
# Indices 1 2 3 4 5 6 
#
# 1 129.9194 43.9636 90.6978 0.0000 0.0000 0.0000
# 2 43.9636 73.3543 53.6682 0.0000 0.0000 0.0000
# 3 90.6978 53.6682 209.2223 0.0000 0.0000 0.0000
# 4 0.0000 0.0000 0.0000 40.9981 0.0000 0.0000
# 5 0.0000 0.0000 0.0000 0.0000 32.1288 0.0000
# 6 0.0000 0.0000 0.0000 0.0000 0.0000 16.5427
#
#
#
# Elastic Compliance Matrix: (Units=1/GPa)
#
#
# Indices 1 2 3 4 5 6 
#
# 1 0.011989 -0.004164 -0.004129 0.000000 0.000000 0.000000
# 2 -0.004164 0.018229 -0.002871 0.000000 0.000000 0.000000
# 3 -0.004129 -0.002871 0.007306 0.000000 0.000000 0.000000
# 4 0.000000 0.000000 0.000000 0.024391 0.000000 0.000000
# 5 0.000000 0.000000 0.000000 0.000000 0.031125 0.000000
# 6 0.000000 0.000000 0.000000 0.000000 0.000000 0.060450
#
#
# Mechanical properties :
#
#
# Convention : Reuss Voigt Hill
#
# Bulk Modulus (GPa) = 65.80979 87.68394 76.74687
# Shear Modulus (GPa) = 27.64241 32.87834 30.26038
#
# Velocity S-wave (km/s) = 3.75984 4.10050 3.93386
# Velocity P-wave (km/s) = 7.24596 8.20126 7.73836
#
# Compressibility (1/GPa) = 0.01519531
#
# Stress axis : x y z
#
# Youngs Moduli (GPa) = 83.41207 54.85907 136.87738
#
# Poissons Ratio (x) = 0.22846 0.56515
# Poissons Ratio (y) = 0.34736 0.39292
# Poissons Ratio (z) = 0.34440 0.15748
#
# Static dielectric constant tensor:
#      x y z
#    x 1.672370 0.000000 0.000000 
#    y 0.000000 1.725010 0.000000 
#    z 0.000000 0.000000 1.642920 
# 
# From -- ./inp_files/26971.got.cif
#   From: 2010.05.17/outbox.cif.g08.bks.cpg/sg44_14_cif.got.tgz:26971.got - 2010.06.03 19:37:08.
