data_PCOD9374341
_publ_section_title
;
Structure prediction by ZEFSAII (Michael W. Deem and Ramdas Pophale) SiO2 
 PCOD9374341
Probable space group: I M M 2
;
_chemical_formula_sum "Si O2"
_cell_formula_units_Z 36
_cell_length_a 11.716195
_cell_length_b 18.263294
_cell_length_c 7.399644
_cell_angle_alpha 90.000000
_cell_angle_beta 90.000000
_cell_angle_gamma 90.000000
_cell_volume 1583.348547
_symmetry_space_group_name_H-M "I M M 2"
_symmetry_group_IT_number 44
_symmetry_cell_setting 'orthorhombic'
loop_
_space_group_symop_operation_xyz
x,y,z
-x,-y,z
-x,y,z
x,-y,z
1/2+x,1/2+y,1/2+z
1/2-x,1/2-y,1/2+z
1/2-x,1/2+y,1/2+z
1/2+x,1/2-y,1/2+z
loop_
_atom_site_type_symbol
_atom_site_label
_atom_site_fract_x
_atom_site_fract_y
_atom_site_fract_z
Si Si1 0.665313 0.917433 0.512210
Si Si2 0.000000 0.709750 0.126579
Si Si3 0.302050 0.298167 0.449216
Si Si4 0.625800 0.913947 0.084450
Si Si5 0.630521 0.325849 0.043707
O O1 0.598957 0.856191 0.624558
O O2 0.629421 0.907690 0.302723
O O3 0.799724 0.900563 0.520314
O O4 0.639342 0.000000 0.568149
O O5 0.100471 0.770528 0.083233
O O6 0.232461 0.369981 0.507192
O O7 0.360653 0.305664 0.254991
O O8 0.204813 0.235725 0.444324
O O9 0.500000 0.884373 0.028021
O O10 0.631559 0.000000 0.040448
O O11 0.500000 0.325908 0.985311
#
# Coordination Sequence:
#
# PCOD9374341 Si02
#       5
#     8   4   8   8   8
#     4  10  21  41  68  92 122 167 211 254 313 368
#     4  10  19  36  63  90 118 162 202 252 299 366
#     4  11  22  40  64  91 127 166 209 251 320 368
#     4  10  21  41  67  92 124 165 210 263 309 365
#     4  11  24  41  61  91 129 166 206 261 311 371
#
# _framework density 22.736623000000002
#
# number of rings (size 3 to 8) (size 9 to 14) (size 15 to 20)
#    0.000    1.556    2.222    3.667    0.000    1.333 
#   26.000    0.556    0.000    0.000    0.000    0.000 
#    0.000    0.000    0.000    0.000    0.000    0.000 
#
# Total GULP energy -100239.610883 kJ/mol
# GULP energy per Si atom -5568.867271 kJ/mol
# Density = 2.268487 g / cm^3
# Si number density = 22.736623 Si / 1000 Ang^3
#
#
#
# Elastic Constant Matrix: (Units=GPa)
#
#
# Indices 1 2 3 4 5 6 
#
# 1 219.8517 54.9726 17.9267 0.0000 0.0000 0.0000
# 2 54.9726 96.7871 3.8250 0.0000 0.0000 0.0000
# 3 17.9267 3.8250 74.1250 0.0001 0.0000 0.0000
# 4 0.0000 0.0000 0.0001 16.9289 0.0000 0.0000
# 5 0.0000 0.0000 0.0000 0.0000 22.0257 0.0000
# 6 0.0000 0.0000 0.0000 0.0000 0.0000 38.6714
#
#
#
# Elastic Compliance Matrix: (Units=1/GPa)
#
#
# Indices 1 2 3 4 5 6 
#
# 1 0.005397 -0.003020 -0.001149 0.000000 0.000000 0.000000
# 2 -0.003020 0.012043 0.000109 0.000000 0.000000 0.000000
# 3 -0.001149 0.000109 0.013763 0.000000 0.000000 0.000000
# 4 0.000000 0.000000 0.000000 0.059071 0.000000 0.000000
# 5 0.000000 0.000000 0.000000 0.000000 0.045401 0.000000
# 6 0.000000 0.000000 0.000000 0.000000 0.000000 0.025859
#
#
# Mechanical properties :
#
#
# Convention : Reuss Voigt Hill
#
# Bulk Modulus (GPa) = 43.32350 60.46806 51.89578
# Shear Modulus (GPa) = 28.19284 36.46117 32.32701
#
# Velocity S-wave (km/s) = 3.52515 4.00888 3.77477
# Velocity P-wave (km/s) = 5.97200 6.93404 6.47092
#
# Compressibility (1/GPa) = 0.02308216
#
# Stress axis : x y z
#
# Youngs Moduli (GPa) = 185.27349 83.03560 72.65800
#
# Poissons Ratio (x) = 0.25078 0.08352
# Poissons Ratio (y) = 0.55956 -0.00792
# Poissons Ratio (z) = 0.21297 -0.00905
#
# Static dielectric constant tensor:
#      x y z
#    x 1.841800 0.000000 0.000000 
#    y 0.000000 1.842060 0.000000 
#    z 0.000000 0.000000 1.947890 
# 
# From -- ./inp_files/5627.got.cif
#   From: 2010.05.17/outbox.cif.g08.bks.cpg/sg44_3_cif.got.tgz:5627.got - 2010.06.03 19:37:08.
