data_PCOD9374606
_publ_section_title
;
Structure prediction by ZEFSAII (Michael W. Deem and Ramdas Pophale) SiO2 
 PCOD9374606
Probable space group: I M M 2
;
_chemical_formula_sum "Si O2"
_cell_formula_units_Z 48
_cell_length_a 12.519822
_cell_length_b 27.634694
_cell_length_c 7.398596
_cell_angle_alpha 90.000000
_cell_angle_beta 90.000000
_cell_angle_gamma 90.000000
_cell_volume 2559.776971
_symmetry_space_group_name_H-M "I M M 2"
_symmetry_group_IT_number 44
_symmetry_cell_setting 'orthorhombic'
loop_
_space_group_symop_operation_xyz
x,y,z
-x,-y,z
-x,y,z
x,-y,z
1/2+x,1/2+y,1/2+z
1/2-x,1/2-y,1/2+z
1/2-x,1/2+y,1/2+z
1/2+x,1/2-y,1/2+z
loop_
_atom_site_type_symbol
_atom_site_label
_atom_site_fract_x
_atom_site_fract_y
_atom_site_fract_z
Si Si1 0.879215 0.346526 0.116960
Si Si2 0.282790 0.054971 0.528870
Si Si3 0.277661 0.302695 0.826263
Si Si4 0.874222 0.705027 0.476501
Si Si5 0.622551 0.596881 0.744611
Si Si6 0.879618 0.944083 0.859395
O O1 0.866958 0.402113 0.055082
O O2 0.858022 0.337742 0.329515
O O3 0.000000 0.329593 0.083426
O O4 0.795772 0.316652 0.997503
O O5 0.208607 0.066022 0.356015
O O6 0.203934 0.060740 0.699891
O O7 0.323647 0.000000 0.523490
O O8 0.200342 0.299237 0.652032
O O9 0.357183 0.347493 0.795123
O O10 0.340069 0.253735 0.870806
O O11 0.000000 0.706416 0.525077
O O12 0.500000 0.582502 0.784052
O O13 0.640457 0.588946 0.532051
O O14 0.000000 0.934520 0.791491
O O15 0.876540 0.000000 0.922546
#
# Coordination Sequence:
#
# PCOD9374606 Si02
#       6
#     8   8   8   8   8   8
#     4  10  22  39  58  81 112 149 188 232 286 339
#     4  10  20  34  55  80 109 146 188 233 277 330
#     4  11  21  38  58  82 113 147 189 236 283 342
#     4  11  22  38  60  84 112 151 190 234 288 344
#     4  10  20  33  52  80 112 146 184 229 280 336
#     4   9  17  30  49  75 108 144 178 217 273 332
#
# _framework density 18.751633000000002
#
# number of rings (size 3 to 8) (size 9 to 14) (size 15 to 20)
#    0.000    1.833    1.667    3.000    0.000    2.000 
#    0.000    0.000    0.000    0.000    0.000    4.667 
#    0.000    0.000    0.000    0.000    0.000    0.000 
#
# Total GULP energy -133943.628656 kJ/mol
# GULP energy per Si atom -5580.984527 kJ/mol
# Density = 1.870895 g / cm^3
# Si number density = 18.751633 Si / 1000 Ang^3
#
#
#
# Elastic Constant Matrix: (Units=GPa)
#
#
# Indices 1 2 3 4 5 6 
#
# 1 42.8737 -5.2799 6.4827 0.0000 0.0004 0.0007
# 2 -5.2799 48.2114 -11.4728 -0.0001 0.0016 -0.0060
# 3 6.4827 -11.4728 45.1965 -0.0022 0.0010 0.0039
# 4 0.0000 -0.0001 -0.0022 25.8978 0.0013 0.0031
# 5 0.0004 0.0016 0.0010 0.0013 40.0645 -0.0019
# 6 0.0007 -0.0060 0.0039 0.0031 -0.0019 74.0515
#
#
#
# Elastic Compliance Matrix: (Units=1/GPa)
#
#
# Indices 1 2 3 4 5 6 
#
# 1 0.024008 0.001926 -0.002955 0.000000 0.000000 0.000000
# 2 0.001926 0.022230 0.005367 0.000000 -0.000001 0.000002
# 3 -0.002955 0.005367 0.023912 0.000002 -0.000001 -0.000001
# 4 0.000000 0.000000 0.000002 0.038613 -0.000001 -0.000002
# 5 0.000000 -0.000001 -0.000001 -0.000001 0.024960 0.000001
# 6 0.000000 0.000002 -0.000001 -0.000002 0.000001 0.013504
#
#
# Mechanical properties :
#
#
# Convention : Reuss Voigt Hill
#
# Bulk Modulus (GPa) = 12.68612 12.86018 12.77315
# Shear Modulus (GPa) = 30.33498 37.77288 34.05393
#
# Velocity S-wave (km/s) = 4.02646 4.49305 4.26614
# Velocity P-wave (km/s) = 5.32884 5.81289 5.57612
#
# Compressibility (1/GPa) = 0.07882628
#
# Stress axis : x y z
#
# Youngs Moduli (GPa) = 41.65230 44.98423 41.82058
#
# Poissons Ratio (x) = -0.08665 0.12356
# Poissons Ratio (y) = -0.08023 -0.22444
# Poissons Ratio (z) = 0.12307 -0.24141
#
# Static dielectric constant tensor:
#      x y z
#    x 1.601510 0.000000 0.000000 
#    y 0.000000 1.673110 0.000000 
#    z 0.000000 0.000000 1.634160 
# 
# From -- ./inp_files/1580.got.cif
#   From: 2010.05.17/outbox.cif.g08.bks.cpg/sg44_1_cif.got.tgz:1580.got - 2010.06.03 19:37:08.
