data_PCOD9374857
_publ_section_title
;
Structure prediction by ZEFSAII (Michael W. Deem and Ramdas Pophale) SiO2 
 PCOD9374857
Probable space group: I M M 2
;
_chemical_formula_sum "Si O2"
_cell_formula_units_Z 56
_cell_length_a 14.767110
_cell_length_b 8.236976
_cell_length_c 23.377721
_cell_angle_alpha 90.000000
_cell_angle_beta 90.000000
_cell_angle_gamma 90.000000
_cell_volume 2843.580202
_symmetry_space_group_name_H-M "I M M 2"
_symmetry_group_IT_number 44
_symmetry_cell_setting 'orthorhombic'
loop_
_space_group_symop_operation_xyz
x,y,z
-x,-y,z
-x,y,z
x,-y,z
1/2+x,1/2+y,1/2+z
1/2-x,1/2-y,1/2+z
1/2-x,1/2+y,1/2+z
1/2+x,1/2-y,1/2+z
loop_
_atom_site_type_symbol
_atom_site_label
_atom_site_fract_x
_atom_site_fract_y
_atom_site_fract_z
Si Si1 0.603721 0.807233 0.197480
Si Si2 0.596992 0.801699 0.552402
Si Si3 0.797118 0.192412 0.810579
Si Si4 0.701529 0.307002 0.084009
Si Si5 0.596751 0.804879 0.844857
Si Si6 0.355301 0.185314 0.429128
Si Si7 0.332399 0.810226 0.965903
O O1 0.500000 0.746659 0.199565
O O2 0.654589 0.769796 0.256494
O O3 0.657664 0.732529 0.144415
O O4 0.601496 0.000000 0.189241
O O5 0.500000 0.752639 0.578690
O O6 0.692853 0.749842 0.579586
O O7 0.596638 0.748558 0.485792
O O8 0.599035 0.000000 0.552068
O O9 0.693350 0.254287 0.820352
O O10 0.853568 0.225452 0.868686
O O11 0.792221 0.000000 0.801949
O O12 0.700901 0.500000 0.075343
O O13 0.646072 0.226541 0.031534
O O14 0.500000 0.740678 0.822873
O O15 0.599999 0.782317 0.913634
O O16 0.597074 0.000000 0.835428
O O17 0.251685 0.195598 0.450561
O O18 0.383762 0.000000 0.419707
O O19 0.304404 0.000000 0.961262
#
# Coordination Sequence:
#
# PCOD9374857 Si02
#       7
#     8   8   8   8   8   8   8
#     4  11  25  43  60  75  96 134 179 221 270 329
#     4   8  15  29  51  80 111 142 175 208 250 311
#     4  10  20  35  56  80 107 139 176 224 273 314
#     4  10  20  35  56  80 107 139 176 224 273 314
#     4   8  15  29  51  80 111 142 175 208 250 311
#     4   9  16  28  49  76 108 145 181 217 257 303
#     4   9  16  28  49  76 108 145 181 217 257 303
#
# _framework density 19.693483000000001
#
# number of rings (size 3 to 8) (size 9 to 14) (size 15 to 20)
#    0.000    2.714    0.000    3.857    0.000    2.286 
#    0.000    3.571    0.000   34.286    0.000    0.000 
#    0.000    0.000    0.000    0.000    0.000    0.000 
#
# Total GULP energy -155914.363823 kJ/mol
# GULP energy per Si atom -5568.370137 kJ/mol
# Density = 1.964866 g / cm^3
# Si number density = 19.693483 Si / 1000 Ang^3
#
#
#
# Elastic Constant Matrix: (Units=GPa)
#
#
# Indices 1 2 3 4 5 6 
#
# 1 138.1855 15.2405 51.7441 0.0000 0.0000 0.0000
# 2 15.2405 31.0183 5.6889 0.0000 0.0000 0.0000
# 3 51.7441 5.6889 100.3240 0.0000 0.0000 0.0000
# 4 0.0000 0.0000 0.0000 30.8774 0.0000 0.0000
# 5 0.0000 0.0000 0.0000 0.0000 11.8222 0.0000
# 6 0.0000 0.0000 0.0000 0.0000 0.0000 13.6121
#
#
#
# Elastic Compliance Matrix: (Units=1/GPa)
#
#
# Indices 1 2 3 4 5 6 
#
# 1 0.009384 -0.003762 -0.004627 0.000000 0.000000 0.000000
# 2 -0.003762 0.034086 0.000008 0.000000 0.000000 0.000000
# 3 -0.004627 0.000008 0.012354 0.000000 0.000000 0.000000
# 4 0.000000 0.000000 0.000000 0.032386 0.000000 0.000000
# 5 0.000000 0.000000 0.000000 0.000000 0.084587 0.000000
# 6 0.000000 0.000000 0.000000 0.000000 0.000000 0.073464
#
#
# Mechanical properties :
#
#
# Convention : Reuss Voigt Hill
#
# Bulk Modulus (GPa) = 25.60088 46.09720 35.84904
# Shear Modulus (GPa) = 18.11308 24.38596 21.24952
#
# Velocity S-wave (km/s) = 3.03603 3.52273 3.28840
# Velocity P-wave (km/s) = 5.03168 6.32490 5.71499
#
# Compressibility (1/GPa) = 0.03906116
#
# Stress axis : x y z
#
# Youngs Moduli (GPa) = 106.56367 29.33742 80.94819
#
# Poissons Ratio (x) = 0.11037 0.37452
# Poissons Ratio (y) = 0.40091 -0.00061
# Poissons Ratio (z) = 0.49304 -0.00022
#
# Static dielectric constant tensor:
#      x y z
#    x 1.740400 0.000000 0.000000 
#    y 0.000000 1.686120 0.000000 
#    z 0.000000 0.000000 1.679400 
# 
# From -- ./inp_files/23096.got.cif
#   From: 2010.05.17/outbox.cif.g08.bks.cpg/sg44_12_cif.got.tgz:23096.got - 2010.06.03 19:37:08.
