data_PCOD9374572
_publ_section_title
;
Structure prediction by ZEFSAII (Michael W. Deem and Ramdas Pophale) SiO2 
 PCOD9374572
Probable space group: I M M 2
;
_chemical_formula_sum "Si O2"
_cell_formula_units_Z 64
_cell_length_a 15.079426
_cell_length_b 14.460174
_cell_length_c 15.539321
_cell_angle_alpha 90.000000
_cell_angle_beta 90.000000
_cell_angle_gamma 90.000000
_cell_volume 3388.366407
_symmetry_space_group_name_H-M "I M M 2"
_symmetry_group_IT_number 44
_symmetry_cell_setting 'orthorhombic'
loop_
_space_group_symop_operation_xyz
x,y,z
-x,-y,z
-x,y,z
x,-y,z
1/2+x,1/2+y,1/2+z
1/2-x,1/2-y,1/2+z
1/2-x,1/2+y,1/2+z
1/2+x,1/2-y,1/2+z
loop_
_atom_site_type_symbol
_atom_site_label
_atom_site_fract_x
_atom_site_fract_y
_atom_site_fract_z
Si Si1 0.398931 0.892383 0.357430
Si Si2 0.210340 0.700044 0.197509
Si Si3 0.138599 0.104716 0.933408
Si Si4 0.094712 0.387658 0.547215
Si Si5 0.770506 0.392933 0.694273
Si Si6 0.395716 0.786402 0.527838
Si Si7 0.099543 0.888263 0.737060
Si Si8 0.658185 0.894069 0.871348
O O1 0.500000 0.864050 0.337268
O O2 0.339083 0.885707 0.273418
O O3 0.366528 0.834292 0.438546
O O4 0.400279 0.000000 0.382716
O O5 0.202753 0.810686 0.208519
O O6 0.162502 0.679543 0.107568
O O7 0.313712 0.664955 0.200622
O O8 0.163918 0.654623 0.280064
O O9 0.098339 0.129927 0.840057
O O10 0.243172 0.104812 0.912373
O O11 0.112525 0.000000 0.955600
O O12 0.115318 0.177762 0.006456
O O13 0.095970 0.500000 0.542610
O O14 0.176170 0.365359 0.608156
O O15 0.102403 0.352571 0.449854
O O16 0.000000 0.360295 0.585662
O O17 0.741086 0.500000 0.687797
O O18 0.500000 0.806898 0.541158
O O19 0.000000 0.866062 0.703541
O O20 0.113551 0.000000 0.727587
O O21 0.630334 0.000000 0.856723
#
# Coordination Sequence:
#
# PCOD9374572 Si02
#       8
#     8   8   8   8   8   8   8   8
#     4   9  18  33  52  74 102 134 166 206 258 313
#     4  11  22  34  51  74 107 146 179 211 252 302
#     4   9  17  32  54  77 101 129 166 220 281 324
#     4   9  17  30  50  76 103 129 161 208 266 321
#     4  10  20  33  51  76 104 133 169 216 269 318
#     4  11  23  35  49  74 107 144 183 214 246 301
#     4   9  18  34  58  85 107 129 164 215 274 324
#     4   9  18  33  53  76 101 131 168 212 263 315
#
# _framework density 18.888157
#
# number of rings (size 3 to 8) (size 9 to 14) (size 15 to 20)
#    0.000    2.375    0.000    4.125    0.000    7.250 
#    0.000    0.000    0.000    0.000    0.000    0.000 
#    0.000    2.000    0.000    0.000    0.000    0.125 
#
# Total GULP energy -178414.767858 kJ/mol
# GULP energy per Si atom -5575.461496 kJ/mol
# Density = 1.884517 g / cm^3
# Si number density = 18.888157 Si / 1000 Ang^3
#
#
#
# Elastic Constant Matrix: (Units=GPa)
#
#
# Indices 1 2 3 4 5 6 
#
# 1 39.1182 8.2454 19.3115 0.0000 0.0000 0.0000
# 2 8.2454 59.8582 39.4634 0.0000 0.0000 0.0000
# 3 19.3115 39.4634 98.5261 0.0000 0.0000 0.0000
# 4 0.0000 0.0000 0.0000 23.2815 0.0000 0.0000
# 5 0.0000 0.0000 0.0000 0.0000 12.2116 0.0000
# 6 0.0000 0.0000 0.0000 0.0000 0.0000 -2.5045
#
#
#
# Elastic Compliance Matrix: (Units=1/GPa)
#
#
# Indices 1 2 3 4 5 6 
#
# 1 0.028307 -0.000328 -0.005417 0.000000 0.000000 0.000000
# 2 -0.000328 0.022704 -0.009030 0.000000 0.000000 0.000000
# 3 -0.005417 -0.009030 0.014828 0.000000 0.000000 0.000000
# 4 0.000000 0.000000 0.000000 0.042952 0.000000 0.000000
# 5 0.000000 0.000000 0.000000 0.000000 0.081889 0.000000
# 6 0.000000 0.000000 0.000000 0.000000 0.000000 -0.399283
#
#
# Mechanical properties :
#
#
# Convention : Reuss Voigt Hill
#
# Bulk Modulus (GPa) = 27.55563 36.83811 32.19687
# Shear Modulus (GPa) = -29.94794 15.29656 -7.32569
#
# Velocity S-wave (km/s) = -3.98620 2.84887 -1.97152
# Velocity P-wave (km/s) = 2.56240 5.51063 3.44972
#
# Compressibility (1/GPa) = 0.03629022
#
# Stress axis : x y z
#
# Youngs Moduli (GPa) = 35.32720 44.04427 67.43977
#
# Poissons Ratio (x) = 0.01445 0.36531
# Poissons Ratio (y) = 0.01159 0.60896
# Poissons Ratio (z) = 0.19136 0.39771
#
# Static dielectric constant tensor:
#      x y z
#    x 1.694690 0.000000 0.000000 
#    y 0.000000 1.685170 0.000000 
#    z 0.000000 0.000000 1.647560 
# 
# From -- ./inp_files/19022.got.cif
#   From: 2010.05.17/outbox.cif.g08.bks.cpg/sg44_10_cif.got.tgz:19022.got - 2010.06.03 19:37:08.
