data_PCOD9374890
_publ_section_title
;
Structure prediction by ZEFSAII (Michael W. Deem and Ramdas Pophale) SiO2 
 PCOD9374890
Probable space group: I M M 2
;
_chemical_formula_sum "Si O2"
_cell_formula_units_Z 32
_cell_length_a 9.063640
_cell_length_b 8.142291
_cell_length_c 24.265664
_cell_angle_alpha 90.000000
_cell_angle_beta 90.000000
_cell_angle_gamma 90.000000
_cell_volume 1790.776748
_symmetry_space_group_name_H-M "I M M 2"
_symmetry_group_IT_number 44
_symmetry_cell_setting 'orthorhombic'
loop_
_space_group_symop_operation_xyz
x,y,z
-x,-y,z
-x,y,z
x,-y,z
1/2+x,1/2+y,1/2+z
1/2-x,1/2-y,1/2+z
1/2-x,1/2+y,1/2+z
1/2+x,1/2-y,1/2+z
loop_
_atom_site_type_symbol
_atom_site_label
_atom_site_fract_x
_atom_site_fract_y
_atom_site_fract_z
Si Si1 0.177801 0.683338 0.829850
Si Si2 0.822938 0.000000 0.632045
Si Si3 0.667938 0.187461 0.542014
Si Si4 0.320555 0.500000 0.259697
Si Si5 0.669727 0.808508 0.937488
O O1 0.216205 0.500000 0.809606
O O2 0.245443 0.710903 0.890145
O O3 0.000000 0.692426 0.833923
O O4 0.227445 0.834180 0.791080
O O5 0.755278 0.155936 0.598961
O O6 0.777970 0.000000 0.695649
O O7 0.000000 0.000000 0.627471
O O8 0.500000 0.243231 0.550752
O O9 0.753340 0.289492 0.496594
O O10 0.661852 0.000000 0.519033
O O11 0.500000 0.500000 0.260730
O O12 0.500000 0.754255 0.941329
O O13 0.673426 0.000000 0.921745
#
# Coordination Sequence:
#
# PCOD9374890 Si02
#       5
#     8   4   8   4   8
#     4  10  20  35  57  83 112 150 190 229 279 340
#     4   9  17  33  57  79 107 149 188 233 284 329
#     4   9  19  34  53  78 104 142 186 224 279 338
#     4   9  18  35  57  83 115 151 192 233 278 333
#     4  11  22  34  51  80 115 149 187 235 290 340
#
# _framework density 17.869342
#
# number of rings (size 3 to 8) (size 9 to 14) (size 15 to 20)
#    0.750    1.500    1.250    2.250    0.000    5.000 
#    0.000    3.750    0.000    4.500    0.000    0.000 
#    0.000    0.000    0.000    0.000    0.000    0.000 
#
# Total GULP energy -89103.873455 kJ/mol
# GULP energy per Si atom -5568.992091 kJ/mol
# Density = 1.782867 g / cm^3
# Si number density = 17.869342 Si / 1000 Ang^3
#
#
#
# Elastic Constant Matrix: (Units=GPa)
#
#
# Indices 1 2 3 4 5 6 
#
# 1 63.1470 31.1444 42.5211 0.0000 0.0000 0.0000
# 2 31.1444 91.4799 51.9902 0.0000 0.0000 0.0000
# 3 42.5211 51.9902 136.8695 0.0000 0.0000 0.0000
# 4 0.0000 0.0000 0.0000 27.7268 0.0000 0.0000
# 5 0.0000 0.0000 0.0000 0.0000 25.6723 0.0000
# 6 0.0000 0.0000 0.0000 0.0000 0.0000 14.8886
#
#
#
# Elastic Compliance Matrix: (Units=1/GPa)
#
#
# Indices 1 2 3 4 5 6 
#
# 1 0.021366 -0.004466 -0.004941 0.000000 0.000000 0.000000
# 2 -0.004466 0.014874 -0.004263 0.000000 0.000000 0.000000
# 3 -0.004941 -0.004263 0.010461 0.000000 0.000000 0.000000
# 4 0.000000 0.000000 0.000000 0.036066 0.000000 0.000000
# 5 0.000000 0.000000 0.000000 0.000000 0.038953 0.000000
# 6 0.000000 0.000000 0.000000 0.000000 0.000000 0.067165
#
#
# Mechanical properties :
#
#
# Convention : Reuss Voigt Hill
#
# Bulk Modulus (GPa) = 51.64975 60.31198 55.98087
# Shear Modulus (GPa) = 22.45390 24.71358 23.58374
#
# Velocity S-wave (km/s) = 3.54864 3.72293 3.63683
# Velocity P-wave (km/s) = 6.76442 7.23223 7.00223
#
# Compressibility (1/GPa) = 0.01936118
#
# Stress axis : x y z
#
# Youngs Moduli (GPa) = 46.80333 67.23006 95.59715
#
# Poissons Ratio (x) = 0.30023 0.47239
# Poissons Ratio (y) = 0.20901 0.40750
# Poissons Ratio (z) = 0.23128 0.28658
#
# Static dielectric constant tensor:
#      x y z
#    x 1.609570 0.000000 0.000000 
#    y 0.000000 1.631720 0.000000 
#    z 0.000000 0.000000 1.578010 
# 
# From -- ./inp_files/24551.got.cif
#   From: 2010.05.17/outbox.cif.g08.bks.cpg/sg44_13_cif.got.tgz:24551.got - 2010.06.03 19:37:08.
