data_PCOD9374303
_publ_section_title
;
Structure prediction by ZEFSAII (Michael W. Deem and Ramdas Pophale) SiO2 
 PCOD9374303
Probable space group: I M M 2
;
_chemical_formula_sum "Si O2"
_cell_formula_units_Z 56
_cell_length_a 14.443365
_cell_length_b 20.423440
_cell_length_c 10.124341
_cell_angle_alpha 90.000000
_cell_angle_beta 90.000000
_cell_angle_gamma 90.000000
_cell_volume 2986.510491
_symmetry_space_group_name_H-M "I M M 2"
_symmetry_group_IT_number 44
_symmetry_cell_setting 'orthorhombic'
loop_
_space_group_symop_operation_xyz
x,y,z
-x,-y,z
-x,y,z
x,-y,z
1/2+x,1/2+y,1/2+z
1/2-x,1/2-y,1/2+z
1/2-x,1/2+y,1/2+z
1/2+x,1/2-y,1/2+z
loop_
_atom_site_type_symbol
_atom_site_label
_atom_site_fract_x
_atom_site_fract_y
_atom_site_fract_z
Si Si1 0.393508 0.928470 0.514930
Si Si2 0.108120 0.870622 0.644586
Si Si3 0.704634 0.425309 0.886331
Si Si4 0.391445 0.423718 0.431016
Si Si5 0.212653 0.161899 0.139995
Si Si6 0.608306 0.785807 0.552456
Si Si7 0.891534 0.279092 0.737370
O O1 0.500000 0.924081 0.466868
O O2 0.316174 0.927600 0.401892
O O3 0.377952 0.861390 0.594442
O O4 0.383581 0.000000 0.581918
O O5 0.167503 0.895282 0.522350
O O6 0.126025 0.912530 0.776133
O O7 0.122020 0.794846 0.684265
O O8 0.000000 0.878680 0.609934
O O9 0.671786 0.500000 0.869595
O O10 0.678524 0.379055 0.766033
O O11 0.500000 0.404782 0.454399
O O12 0.380912 0.500000 0.465211
O O13 0.323268 0.378274 0.514335
O O14 0.321724 0.174143 0.158998
O O15 0.167705 0.233595 0.130758
O O16 0.500000 0.769640 0.566395
O O17 0.630033 0.781136 0.394959
O O18 0.000000 0.295729 0.722989
#
# Coordination Sequence:
#
# PCOD9374303 Si02
#       7
#     8   8   8   8   8   8   8
#     4   9  18  35  58  83 112 149 193 239 291 354
#     4  10  21  39  60  83 116 160 201 237 289 356
#     4  11  23  36  55  90 124 152 195 248 297 346
#     4  10  21  39  62  87 119 162 203 237 287 359
#     4  12  22  35  61  89 119 153 196 248 303 342
#     4  10  19  36  58  85 117 155 194 239 294 355
#     4  10  21  37  59  84 116 154 199 246 291 352
#
# _framework density 18.750979999999998
#
# number of rings (size 3 to 8) (size 9 to 14) (size 15 to 20)
#    0.000    1.714    2.857    2.143    0.000    2.000 
#    0.000    0.000    0.000    2.143    0.000    0.000 
#    0.000    0.000    0.000    0.000    0.000    0.000 
#
# Total GULP energy -156194.572333 kJ/mol
# GULP energy per Si atom -5578.377583 kJ/mol
# Density = 1.870830 g / cm^3
# Si number density = 18.750980 Si / 1000 Ang^3
#
#
#
# Elastic Constant Matrix: (Units=GPa)
#
#
# Indices 1 2 3 4 5 6 
#
# 1 67.0710 45.6166 43.5922 0.0000 0.0000 0.0000
# 2 45.6166 134.7873 47.4271 0.0000 0.0000 0.0000
# 3 43.5922 47.4271 62.6443 0.0000 0.0000 0.0000
# 4 0.0000 0.0000 0.0000 19.6007 0.0000 0.0000
# 5 0.0000 0.0000 0.0000 0.0000 11.1155 0.0000
# 6 0.0000 0.0000 0.0000 0.0000 0.0000 26.1910
#
#
#
# Elastic Compliance Matrix: (Units=1/GPa)
#
#
# Indices 1 2 3 4 5 6 
#
# 1 0.028468 -0.003631 -0.017060 0.000000 0.000000 0.000000
# 2 -0.003631 0.010576 -0.005480 0.000000 0.000000 0.000000
# 3 -0.017060 -0.005480 0.031984 0.000000 0.000000 0.000000
# 4 0.000000 0.000000 0.000000 0.051019 0.000000 0.000000
# 5 0.000000 0.000000 0.000000 0.000000 0.089964 0.000000
# 6 0.000000 0.000000 0.000000 0.000000 0.000000 0.038181
#
#
# Mechanical properties :
#
#
# Convention : Reuss Voigt Hill
#
# Bulk Modulus (GPa) = 53.52225 59.75270 56.63748
# Shear Modulus (GPa) = 16.19360 19.90591 18.04975
#
# Velocity S-wave (km/s) = 2.94192 3.26174 3.10595
# Velocity P-wave (km/s) = 6.33605 6.79124 6.56759
#
# Compressibility (1/GPa) = 0.01868382
#
# Stress axis : x y z
#
# Youngs Moduli (GPa) = 35.12754 94.55008 31.26564
#
# Poissons Ratio (x) = 0.34335 0.53341
# Poissons Ratio (y) = 0.12756 0.17134
# Poissons Ratio (z) = 0.59929 0.51816
#
# Static dielectric constant tensor:
#      x y z
#    x 1.672400 0.000000 0.000000 
#    y 0.000000 1.692470 0.000000 
#    z 0.000000 0.000000 1.608280 
# 
# From -- ./inp_files/7397.got.cif
#   From: 2010.05.17/outbox.cif.g08.bks.cpg/sg44_4_cif.got.tgz:7397.got - 2010.06.03 19:37:08.
