data_PCOD9374049
_publ_section_title
;
Structure prediction by ZEFSAII (Michael W. Deem and Ramdas Pophale) SiO2 
 PCOD9374049
Probable space group: I M M 2
;
_chemical_formula_sum "Si O2"
_cell_formula_units_Z 48
_cell_length_a 7.498332
_cell_length_b 28.411250
_cell_length_c 10.053791
_cell_angle_alpha 90.000000
_cell_angle_beta 90.000000
_cell_angle_gamma 90.000000
_cell_volume 2141.829323
_symmetry_space_group_name_H-M "I M M 2"
_symmetry_group_IT_number 44
_symmetry_cell_setting 'orthorhombic'
loop_
_space_group_symop_operation_xyz
x,y,z
-x,-y,z
-x,y,z
x,-y,z
1/2+x,1/2+y,1/2+z
1/2-x,1/2-y,1/2+z
1/2-x,1/2+y,1/2+z
1/2+x,1/2-y,1/2+z
loop_
_atom_site_type_symbol
_atom_site_label
_atom_site_fract_x
_atom_site_fract_y
_atom_site_fract_z
Si Si1 0.282094 0.409157 0.305990
Si Si2 0.711793 0.696301 0.370637
Si Si3 0.205519 0.724134 0.674278
Si Si4 0.717968 0.446255 0.019359
Si Si5 0.782823 0.949526 0.079038
Si Si6 0.216039 0.874620 0.290816
O O1 0.500000 0.408508 0.303815
O O2 0.220689 0.356300 0.340555
O O3 0.225373 0.429845 0.165467
O O4 0.229344 0.442272 0.427672
O O5 0.500000 0.693998 0.349071
O O6 0.729213 0.711997 0.525164
O O7 0.785545 0.733438 0.262365
O O8 0.219397 0.677961 0.767142
O O9 0.000000 0.735752 0.652442
O O10 0.500000 0.447029 0.015358
O O11 0.774616 0.500000 0.989769
O O12 0.773355 0.405697 0.916452
O O13 0.725054 0.905475 0.164899
O O14 0.000000 0.949239 0.084379
O O15 0.724152 0.000000 0.132345
O O16 0.000000 0.872077 0.292884
#
# Coordination Sequence:
#
# PCOD9374049 Si02
#       6
#     8   8   8   8   8   8
#     4   9  16  29  49  76 109 139 171 223 281 327
#     4  10  22  40  59  83 112 145 186 231 284 338
#     4  11  24  39  59  85 113 145 188 234 279 338
#     4   9  17  28  48  82 115 143 182 231 278 323
#     4   9  15  25  47  77 105 137 178 224 271 319
#     4  10  19  33  54  79 114 148 180 225 277 332
#
# _framework density 22.410748000000002
#
# number of rings (size 3 to 8) (size 9 to 14) (size 15 to 20)
#    0.000    2.333    1.667    1.500    2.333    5.333 
#    0.000    0.000    0.000    2.000    0.000    0.000 
#    0.000    0.000    0.000    0.000    0.000    0.000 
#
# Total GULP energy -133982.645032 kJ/mol
# GULP energy per Si atom -5582.610210 kJ/mol
# Density = 2.235974 g / cm^3
# Si number density = 22.410748 Si / 1000 Ang^3
#
#
#
# Elastic Constant Matrix: (Units=GPa)
#
#
# Indices 1 2 3 4 5 6 
#
# 1 56.8739 -6.7501 -6.6237 -0.0002 0.0000 0.0000
# 2 -6.7501 102.0886 -1.3590 -0.0013 0.0001 0.0000
# 3 -6.6237 -1.3590 75.1907 -0.0022 0.0001 -0.0001
# 4 -0.0002 -0.0013 -0.0022 22.8802 0.0003 0.0000
# 5 0.0000 0.0001 0.0001 0.0003 5.8032 -0.0001
# 6 0.0000 0.0000 -0.0001 0.0000 -0.0001 7.8606
#
#
#
# Elastic Compliance Matrix: (Units=1/GPa)
#
#
# Indices 1 2 3 4 5 6 
#
# 1 0.017912 0.001206 0.001600 0.000000 0.000000 0.000000
# 2 0.001206 0.009879 0.000285 0.000001 0.000000 0.000000
# 3 0.001600 0.000285 0.013446 0.000001 0.000000 0.000000
# 4 0.000000 0.000001 0.000001 0.043706 -0.000002 0.000000
# 5 0.000000 0.000000 0.000000 -0.000002 0.172317 0.000002
# 6 0.000000 0.000000 0.000000 0.000000 0.000002 0.127217
#
#
# Mechanical properties :
#
#
# Convention : Reuss Voigt Hill
#
# Bulk Modulus (GPa) = 21.08951 22.74305 21.91628
# Shear Modulus (GPa) = 12.68708 23.90122 18.29415
#
# Velocity S-wave (km/s) = 2.38190 3.26928 2.86022
# Velocity P-wave (km/s) = 4.12256 4.94179 4.55065
#
# Compressibility (1/GPa) = 0.04741694
#
# Stress axis : x y z
#
# Youngs Moduli (GPa) = 55.82797 101.22560 74.37388
#
# Poissons Ratio (x) = -0.12204 -0.11898
# Poissons Ratio (y) = -0.06731 -0.02118
# Poissons Ratio (z) = -0.08931 -0.02883
#
# Static dielectric constant tensor:
#      x y z
#    x 1.883570 0.000000 0.000000 
#    y 0.000000 1.991330 0.000000 
#    z 0.000000 0.000000 1.801180 
# 
# From -- ./inp_files/4886.got.cif
#   From: 2010.05.17/outbox.cif.g08.bks.cpg/sg44_3_cif.got.tgz:4886.got - 2010.06.03 19:37:08.
