data_PCOD9374633
_publ_section_title
;
Structure prediction by ZEFSAII (Michael W. Deem and Ramdas Pophale) SiO2 
 PCOD9374633
Probable space group: I M M 2
;
_chemical_formula_sum "Si O2"
_cell_formula_units_Z 48
_cell_length_a 14.005191
_cell_length_b 8.856391
_cell_length_c 18.989647
_cell_angle_alpha 90.000000
_cell_angle_beta 90.000000
_cell_angle_gamma 90.000000
_cell_volume 2355.389364
_symmetry_space_group_name_H-M "I M M 2"
_symmetry_group_IT_number 44
_symmetry_cell_setting 'orthorhombic'
loop_
_space_group_symop_operation_xyz
x,y,z
-x,-y,z
-x,y,z
x,-y,z
1/2+x,1/2+y,1/2+z
1/2-x,1/2-y,1/2+z
1/2-x,1/2+y,1/2+z
1/2+x,1/2-y,1/2+z
loop_
_atom_site_type_symbol
_atom_site_label
_atom_site_fract_x
_atom_site_fract_y
_atom_site_fract_z
Si Si1 0.612041 0.319902 0.783160
Si Si2 0.804772 0.679299 0.140219
Si Si3 0.741533 0.827289 0.893457
Si Si4 0.106882 0.323510 0.629042
Si Si5 0.396526 0.333327 0.271678
Si Si6 0.393440 0.818425 0.496247
O O1 0.500000 0.282557 0.776277
O O2 0.623998 0.500000 0.782513
O O3 0.667070 0.253630 0.714709
O O4 0.652598 0.256821 0.857326
O O5 0.803542 0.500000 0.150664
O O6 0.702020 0.732993 0.109812
O O7 0.879752 0.716238 0.078878
O O8 0.815714 0.827362 0.828555
O O9 0.804108 0.751217 0.954496
O O10 0.717159 0.000000 0.912112
O O11 0.117363 0.500000 0.612758
O O12 0.107167 0.294832 0.713278
O O13 0.000000 0.274356 0.604818
O O14 0.500000 0.324806 0.306616
O O15 0.391098 0.500000 0.236103
O O16 0.500000 0.768122 0.473809
O O17 0.389210 0.000000 0.487753
#
# Coordination Sequence:
#
# PCOD9374633 Si02
#       6
#     8   8   8   8   8   8
#     4  11  24  41  63  91 122 159 204 254 307 364
#     4  11  22  39  63  91 124 163 207 254 305 363
#     4  11  22  37  60  90 121 156 199 249 302 360
#     4  10  20  33  53  84 119 155 196 244 299 355
#     4   9  17  30  50  79 114 149 186 232 288 348
#     4  10  23  42  63  89 124 165 205 249 305 367
#
# _framework density 20.378795
#
# number of rings (size 3 to 8) (size 9 to 14) (size 15 to 20)
#    0.000    1.667    1.667    3.000    0.000    6.000 
#    0.000    2.500    0.000    1.000    0.000    0.000 
#    0.000    0.000    0.000    0.000    0.000    0.000 
#
# Total GULP energy -133811.094340 kJ/mol
# GULP energy per Si atom -5575.462264 kJ/mol
# Density = 2.033241 g / cm^3
# Si number density = 20.378795 Si / 1000 Ang^3
#
#
#
# Elastic Constant Matrix: (Units=GPa)
#
#
# Indices 1 2 3 4 5 6 
#
# 1 119.9916 39.6678 34.8501 0.0000 0.0000 0.0000
# 2 39.6678 59.3727 28.7846 0.0000 0.0000 0.0000
# 3 34.8501 28.7846 75.1288 0.0000 0.0000 0.0000
# 4 0.0000 0.0000 0.0000 23.3938 0.0000 0.0000
# 5 0.0000 0.0000 0.0000 0.0000 27.1520 0.0000
# 6 0.0000 0.0000 0.0000 0.0000 0.0000 25.2321
#
#
#
# Elastic Compliance Matrix: (Units=1/GPa)
#
#
# Indices 1 2 3 4 5 6 
#
# 1 0.011173 -0.006082 -0.002853 0.000000 0.000000 0.000000
# 2 -0.006082 0.023996 -0.006372 0.000000 0.000000 0.000000
# 3 -0.002853 -0.006372 0.017075 0.000000 0.000000 0.000000
# 4 0.000000 0.000000 0.000000 0.042746 0.000000 0.000000
# 5 0.000000 0.000000 0.000000 0.000000 0.036830 0.000000
# 6 0.000000 0.000000 0.000000 0.000000 0.000000 0.039632
#
#
# Mechanical properties :
#
#
# Convention : Reuss Voigt Hill
#
# Bulk Modulus (GPa) = 46.23207 51.23313 48.73260
# Shear Modulus (GPa) = 23.89193 25.23495 24.56344
#
# Velocity S-wave (km/s) = 3.42773 3.52276 3.47557
# Velocity P-wave (km/s) = 6.19689 6.46076 6.33020
#
# Compressibility (1/GPa) = 0.02163001
#
# Stress axis : x y z
#
# Youngs Moduli (GPa) = 89.50128 41.67445 58.56439
#
# Poissons Ratio (x) = 0.25346 0.16706
# Poissons Ratio (y) = 0.54433 0.37319
# Poissons Ratio (z) = 0.25532 0.26556
#
# Static dielectric constant tensor:
#      x y z
#    x 1.776060 0.000000 0.000000 
#    y 0.000000 1.727910 0.000000 
#    z 0.000000 0.000000 1.712070 
# 
# From -- ./inp_files/20323.got.cif
#   From: 2010.05.17/outbox.cif.g08.bks.cpg/sg44_11_cif.got.tgz:20323.got - 2010.06.03 19:37:08.
