data_PCOD9374072
_publ_section_title
;
Structure prediction by ZEFSAII (Michael W. Deem and Ramdas Pophale) SiO2 
 PCOD9374072
Probable space group: I M M 2
;
_chemical_formula_sum "Si O2"
_cell_formula_units_Z 64
_cell_length_a 32.433189
_cell_length_b 9.093837
_cell_length_c 12.069960
_cell_angle_alpha 90.000000
_cell_angle_beta 90.000000
_cell_angle_gamma 90.000000
_cell_volume 3559.939762
_symmetry_space_group_name_H-M "I M M 2"
_symmetry_group_IT_number 44
_symmetry_cell_setting 'orthorhombic'
loop_
_space_group_symop_operation_xyz
x,y,z
-x,-y,z
-x,y,z
x,-y,z
1/2+x,1/2+y,1/2+z
1/2-x,1/2-y,1/2+z
1/2-x,1/2+y,1/2+z
1/2+x,1/2-y,1/2+z
loop_
_atom_site_type_symbol
_atom_site_label
_atom_site_fract_x
_atom_site_fract_y
_atom_site_fract_z
Si Si1 0.185152 0.177917 0.928350
Si Si2 0.320126 0.332036 0.176874
Si Si3 0.360876 0.823102 0.849680
Si Si4 0.549079 0.675117 0.463681
Si Si5 0.278933 0.824030 0.979661
Si Si6 0.906091 0.168523 0.544208
Si Si7 0.450605 0.166929 0.235387
Si Si8 0.379518 0.176448 0.594377
O O1 0.174517 0.219164 0.802204
O O2 0.232924 0.219292 0.946464
O O3 0.180829 0.000000 0.939757
O O4 0.155408 0.256813 0.014623
O O5 0.304439 0.500000 0.181550
O O6 0.363852 0.332198 0.115384
O O7 0.290267 0.237883 0.100031
O O8 0.315368 0.777681 0.894618
O O9 0.368574 0.787324 0.721672
O O10 0.363918 0.000000 0.862478
O O11 0.394087 0.746108 0.929506
O O12 0.500000 0.702461 0.478918
O O13 0.555753 0.500000 0.465024
O O14 0.561808 0.739085 0.343286
O O15 0.577327 0.753750 0.554602
O O16 0.280003 0.000000 0.982750
O O17 0.937001 0.258290 0.621443
O O18 0.919313 0.000000 0.527890
O O19 0.500000 0.161335 0.238060
O O20 0.434411 0.000000 0.243136
O O21 0.381113 0.000000 0.583571
#
# Coordination Sequence:
#
# PCOD9374072 Si02
#       8
#     8   8   8   8   8   8   8   8
#     4  10  21  35  54  79 110 145 180 228 283 335
#     4   9  19  34  52  74 102 136 174 219 270 321
#     4   9  20  38  56  76 108 150 192 234 283 335
#     4  10  21  38  60  85 116 151 186 231 286 341
#     4   9  19  35  54  76 104 142 184 227 277 328
#     4  10  19  33  55  81 107 143 185 225 275 329
#     4  10  20  34  56  86 117 146 179 225 278 333
#     4  11  23  37  58  85 112 148 191 238 288 343
#
# _framework density 17.977834000000001
#
# number of rings (size 3 to 8) (size 9 to 14) (size 15 to 20)
#    0.000    2.250    0.000    2.250    1.750    5.000 
#    0.000    0.625    0.000    0.750    0.000    0.000 
#    0.000    0.000    0.000    0.000    0.000    0.000 
#
# Total GULP energy -178565.271614 kJ/mol
# GULP energy per Si atom -5580.164738 kJ/mol
# Density = 1.793692 g / cm^3
# Si number density = 17.977834 Si / 1000 Ang^3
#
#
#
# Elastic Constant Matrix: (Units=GPa)
#
#
# Indices 1 2 3 4 5 6 
#
# 1 58.1391 41.2149 53.7609 0.0000 0.0000 0.0000
# 2 41.2149 65.5327 61.5499 0.0000 0.0000 0.0000
# 3 53.7609 61.5499 165.0647 0.0000 0.0000 0.0000
# 4 0.0000 0.0000 0.0000 29.4262 0.0000 0.0000
# 5 0.0000 0.0000 0.0000 0.0000 20.2321 0.0000
# 6 0.0000 0.0000 0.0000 0.0000 0.0000 23.9542
#
#
#
# Elastic Compliance Matrix: (Units=1/GPa)
#
#
# Indices 1 2 3 4 5 6 
#
# 1 0.033216 -0.016512 -0.004661 0.000000 0.000000 0.000000
# 2 -0.016512 0.031693 -0.006440 0.000000 0.000000 0.000000
# 3 -0.004661 -0.006440 0.009978 0.000000 0.000000 0.000000
# 4 0.000000 0.000000 0.000000 0.033983 0.000000 0.000000
# 5 0.000000 0.000000 0.000000 0.000000 0.049426 0.000000
# 6 0.000000 0.000000 0.000000 0.000000 0.000000 0.041746
#
#
# Mechanical properties :
#
#
# Convention : Reuss Voigt Hill
#
# Bulk Modulus (GPa) = 50.86476 66.86530 58.86503
# Shear Modulus (GPa) = 19.09698 23.53657 21.31678
#
# Velocity S-wave (km/s) = 3.26276 3.62221 3.44717
# Velocity P-wave (km/s) = 6.52293 7.40053 6.97554
#
# Compressibility (1/GPa) = 0.01965998
#
# Stress axis : x y z
#
# Youngs Moduli (GPa) = 30.10623 31.55292 100.22451
#
# Poissons Ratio (x) = 0.52101 0.46715
# Poissons Ratio (y) = 0.49712 0.64542
# Poissons Ratio (z) = 0.14033 0.20319
#
# Static dielectric constant tensor:
#      x y z
#    x 1.621070 0.000000 0.000000 
#    y 0.000000 1.620030 0.000000 
#    z 0.000000 0.000000 1.590210 
# 
# From -- ./inp_files/15036.got.cif
#   From: 2010.05.17/outbox.cif.g08.bks.cpg/sg44_8_cif.got.tgz:15036.got - 2010.06.03 19:37:08.
