data_PCOD9374490
_publ_section_title
;
Structure prediction by ZEFSAII (Michael W. Deem and Ramdas Pophale) SiO2 
 PCOD9374490
Probable space group: I M M 2
;
_chemical_formula_sum "Si O2"
_cell_formula_units_Z 58
_cell_length_a 8.892989
_cell_length_b 26.057209
_cell_length_c 14.096314
_cell_angle_alpha 90.000000
_cell_angle_beta 90.000000
_cell_angle_gamma 90.000000
_cell_volume 3266.489126
_symmetry_space_group_name_H-M "I M M 2"
_symmetry_group_IT_number 44
_symmetry_cell_setting 'orthorhombic'
loop_
_space_group_symop_operation_xyz
x,y,z
-x,-y,z
-x,y,z
x,-y,z
1/2+x,1/2+y,1/2+z
1/2-x,1/2-y,1/2+z
1/2-x,1/2+y,1/2+z
1/2+x,1/2-y,1/2+z
loop_
_atom_site_type_symbol
_atom_site_label
_atom_site_fract_x
_atom_site_fract_y
_atom_site_fract_z
Si Si1 0.000000 0.000000 0.031690
Si Si2 0.181852 0.686217 0.462674
Si Si3 0.320138 0.401189 0.972233
Si Si4 0.680455 0.707963 0.061409
Si Si5 0.681199 0.164408 0.749086
Si Si6 0.681181 0.943212 0.662560
Si Si7 0.333885 0.399637 0.589304
Si Si8 0.820140 0.560184 0.776779
O O1 0.128794 0.954160 0.040113
O O2 0.228709 0.739665 0.511096
O O3 0.230204 0.681977 0.353075
O O4 0.247020 0.638932 0.521615
O O5 0.000000 0.684102 0.464312
O O6 0.500000 0.407167 0.968592
O O7 0.248209 0.418312 0.873881
O O8 0.284151 0.342001 0.997672
O O9 0.253903 0.433706 0.059796
O O10 0.500000 0.709254 0.072646
O O11 0.753040 0.698109 0.163786
O O12 0.500000 0.166928 0.745063
O O13 0.725647 0.105094 0.727730
O O14 0.500000 0.941615 0.652675
O O15 0.722875 0.000000 0.698271
O O16 0.500000 0.377766 0.612751
O O17 0.246134 0.410651 0.686219
O O18 0.778458 0.500000 0.768561
O O19 0.000000 0.564146 0.778949
#
# Coordination Sequence:
#
# PCOD9374490 Si02
#       8
#     2   8   8   8   8   8   8   8
#     4   8  20  40  58  76 116 142 178 224 270 316
#     4  10  21  38  59  84 110 142 183 226 271 327
#     4  10  20  32  51  76 109 147 186 229 281 328
#     4   9  20  38  56  78 112 146 182 231 276 319
#     4   9  19  36  57  80 109 141 182 226 275 328
#     4   9  17  32  50  73 104 140 181 230 277 329
#     4  10  20  38  57  78 110 144 177 221 269 320
#     4  11  21  34  53  80 112 149 186 227 274 326
#
# _framework density 17.756067000000002
#
# number of rings (size 3 to 8) (size 9 to 14) (size 15 to 20)
#    0.414    1.931    0.690    1.655    0.000    5.517 
#    1.241    1.379    0.000    0.000    0.000    0.000 
#    0.000    0.000    0.000    0.000    0.000    0.000 
#
# Total GULP energy -161437.579454 kJ/mol
# GULP energy per Si atom -5566.813085 kJ/mol
# Density = 1.771565 g / cm^3
# Si number density = 17.756067 Si / 1000 Ang^3
#
#
#
# Elastic Constant Matrix: (Units=GPa)
#
#
# Indices 1 2 3 4 5 6 
#
# 1 24.6347 31.2746 37.6916 0.0000 0.0000 0.0000
# 2 31.2746 124.3762 84.4222 0.0000 0.0000 0.0000
# 3 37.6916 84.4222 145.6749 -0.0002 0.0000 0.0000
# 4 0.0000 0.0000 -0.0002 13.8150 0.0000 0.0000
# 5 0.0000 0.0000 0.0000 0.0000 25.5186 0.0000
# 6 0.0000 0.0000 0.0000 0.0000 0.0000 29.8813
#
#
#
# Elastic Compliance Matrix: (Units=1/GPa)
#
#
# Indices 1 2 3 4 5 6 
#
# 1 0.072974 -0.009122 -0.013595 0.000000 0.000000 0.000000
# 2 -0.009122 0.014394 -0.005981 0.000000 0.000000 0.000000
# 3 -0.013595 -0.005981 0.013848 0.000000 0.000000 0.000000
# 4 0.000000 0.000000 0.000000 0.072385 0.000000 0.000000
# 5 0.000000 0.000000 0.000000 0.000000 0.039187 0.000000
# 6 0.000000 0.000000 0.000000 0.000000 0.000000 0.033466
#
#
# Mechanical properties :
#
#
# Convention : Reuss Voigt Hill
#
# Bulk Modulus (GPa) = 22.82053 66.82916 44.82485
# Shear Modulus (GPa) = 15.71059 23.26281 19.48670
#
# Velocity S-wave (km/s) = 2.97779 3.62350 3.31640
# Velocity P-wave (km/s) = 4.97022 7.43138 6.32173
#
# Compressibility (1/GPa) = 0.04382019
#
# Stress axis : x y z
#
# Youngs Moduli (GPa) = 13.70355 69.47458 72.21024
#
# Poissons Ratio (x) = 0.63373 0.98168
# Poissons Ratio (y) = 0.12500 0.43192
# Poissons Ratio (z) = 0.18630 0.41556
#
# Static dielectric constant tensor:
#      x y z
#    x 1.604010 0.000000 0.000000 
#    y 0.000000 1.608140 0.000000 
#    z 0.000000 0.000000 1.570770 
# 
# From -- ./inp_files/11315.got.cif
#   From: 2010.05.17/outbox.cif.g08.bks.cpg/sg44_6_cif.got.tgz:11315.got - 2010.06.03 19:37:08.
