data_PCOD9374329
_publ_section_title
;
Structure prediction by ZEFSAII (Michael W. Deem and Ramdas Pophale) SiO2 
 PCOD9374329
Probable space group: I M M 2
;
_chemical_formula_sum "Si O2"
_cell_formula_units_Z 48
_cell_length_a 14.851270
_cell_length_b 8.704974
_cell_length_c 20.828560
_cell_angle_alpha 90.000000
_cell_angle_beta 90.000000
_cell_angle_gamma 90.000000
_cell_volume 2692.714554
_symmetry_space_group_name_H-M "I M M 2"
_symmetry_group_IT_number 44
_symmetry_cell_setting 'orthorhombic'
loop_
_space_group_symop_operation_xyz
x,y,z
-x,-y,z
-x,y,z
x,-y,z
1/2+x,1/2+y,1/2+z
1/2-x,1/2-y,1/2+z
1/2-x,1/2+y,1/2+z
1/2+x,1/2-y,1/2+z
loop_
_atom_site_type_symbol
_atom_site_label
_atom_site_fract_x
_atom_site_fract_y
_atom_site_fract_z
Si Si1 0.804586 0.684935 0.650090
Si Si2 0.804909 0.185373 0.280303
Si Si3 0.187515 0.317472 0.035332
Si Si4 0.000000 0.185164 0.840320
Si Si5 0.500000 0.315143 0.584846
Si Si6 0.000000 0.314647 0.696368
Si Si7 0.692221 0.684018 0.397394
Si Si8 0.000000 0.813339 0.234545
O O1 0.799973 0.500000 0.641975
O O2 0.750897 0.721909 0.715641
O O3 0.756266 0.762207 0.590113
O O4 0.908285 0.730840 0.660565
O O5 0.758501 0.262335 0.341125
O O6 0.907876 0.234900 0.268597
O O7 0.802447 0.000000 0.287940
O O8 0.181134 0.500000 0.035459
O O9 0.090066 0.246253 0.051966
O O10 0.215595 0.257621 0.965457
O O11 0.000000 0.249722 0.768353
O O12 0.909027 0.232808 0.876681
O O13 0.000000 0.000000 0.836875
O O14 0.500000 0.500000 0.582083
O O15 0.500000 0.266940 0.659798
O O16 0.000000 0.500000 0.701240
O O17 0.693303 0.500000 0.402906
O O18 0.000000 0.000000 0.234037
#
# Coordination Sequence:
#
# PCOD9374329 Si02
#       8
#     8   8   8   4   4   4   8   4
#     4  10  20  37  61  87 118 156 195 242 298 355
#     4  10  19  36  61  87 116 152 196 241 289 352
#     4  12  25  39  58  88 121 158 201 247 293 351
#     4  10  21  35  56  86 118 150 185 234 295 353
#     4  11  20  38  63  89 122 158 191 237 301 359
#     4  10  20  35  60  91 118 150 194 241 291 350
#     4  11  23  39  58  84 119 159 196 240 299 354
#     4   9  18  34  59  88 116 152 190 230 291 356
#
# _framework density 17.825877999999999
#
# number of rings (size 3 to 8) (size 9 to 14) (size 15 to 20)
#    0.000    1.500    3.333    2.750    0.000    2.667 
#    0.000    1.250    0.000    0.000    0.000    0.000 
#    0.000    0.000    0.000    0.000    0.000    0.000 
#
# Total GULP energy -134114.107738 kJ/mol
# GULP energy per Si atom -5588.087822 kJ/mol
# Density = 1.778531 g / cm^3
# Si number density = 17.825878 Si / 1000 Ang^3
#
#
#
# Elastic Constant Matrix: (Units=GPa)
#
#
# Indices 1 2 3 4 5 6 
#
# 1 142.7753 43.7526 75.1427 0.0000 0.0000 0.0000
# 2 43.7526 54.9856 57.4649 0.0000 0.0000 0.0000
# 3 75.1427 57.4649 159.2242 0.0000 0.0000 0.0000
# 4 0.0000 0.0000 0.0000 33.6988 0.0000 0.0000
# 5 0.0000 0.0000 0.0000 0.0000 14.4435 0.0000
# 6 0.0000 0.0000 0.0000 0.0000 0.0000 22.0623
#
#
#
# Elastic Compliance Matrix: (Units=1/GPa)
#
#
# Indices 1 2 3 4 5 6 
#
# 1 0.010077 -0.004894 -0.002989 0.000000 0.000000 0.000000
# 2 -0.004894 0.031577 -0.009087 0.000000 0.000000 0.000000
# 3 -0.002989 -0.009087 0.010971 0.000000 0.000000 0.000000
# 4 0.000000 0.000000 0.000000 0.029675 0.000000 0.000000
# 5 0.000000 0.000000 0.000000 0.000000 0.069235 0.000000
# 6 0.000000 0.000000 0.000000 0.000000 0.000000 0.045326
#
#
# Mechanical properties :
#
#
# Convention : Reuss Voigt Hill
#
# Bulk Modulus (GPa) = 53.52029 78.85616 66.18823
# Shear Modulus (GPa) = 21.09436 26.08258 23.58847
#
# Velocity S-wave (km/s) = 3.44373 3.82931 3.64163
# Velocity P-wave (km/s) = 6.77506 7.99277 7.40898
#
# Compressibility (1/GPa) = 0.01868450
#
# Stress axis : x y z
#
# Youngs Moduli (GPa) = 99.23453 31.66817 91.15264
#
# Poissons Ratio (x) = 0.15500 0.27248
# Poissons Ratio (y) = 0.48569 0.82827
# Poissons Ratio (z) = 0.29664 0.28776
#
# Static dielectric constant tensor:
#      x y z
#    x 1.603970 0.000000 0.000000 
#    y 0.000000 1.599640 0.000000 
#    z 0.000000 0.000000 1.573680 
# 
# From -- ./inp_files/20355.got.cif
#   From: 2010.05.17/outbox.cif.g08.bks.cpg/sg44_11_cif.got.tgz:20355.got - 2010.06.03 19:37:08.
