data_PCOD9374951
_publ_section_title
;
Structure prediction by ZEFSAII (Michael W. Deem and Ramdas Pophale) SiO2 
 PCOD9374951
Probable space group: I M M 2
;
_chemical_formula_sum "Si O2"
_cell_formula_units_Z 52
_cell_length_a 14.977367
_cell_length_b 23.035589
_cell_length_c 7.586632
_cell_angle_alpha 90.000000
_cell_angle_beta 90.000000
_cell_angle_gamma 90.000000
_cell_volume 2617.482649
_symmetry_space_group_name_H-M "I M M 2"
_symmetry_group_IT_number 44
_symmetry_cell_setting 'orthorhombic'
loop_
_space_group_symop_operation_xyz
x,y,z
-x,-y,z
-x,y,z
x,-y,z
1/2+x,1/2+y,1/2+z
1/2-x,1/2-y,1/2+z
1/2-x,1/2+y,1/2+z
1/2+x,1/2-y,1/2+z
loop_
_atom_site_type_symbol
_atom_site_label
_atom_site_fract_x
_atom_site_fract_y
_atom_site_fract_z
Si Si1 0.500000 0.826423 0.463771
Si Si2 0.399151 0.568323 0.999534
Si Si3 0.000000 0.754632 0.272656
Si Si4 0.315108 0.831647 0.315326
Si Si5 0.000000 0.802915 0.901357
Si Si6 0.311842 0.765932 0.946537
Si Si7 0.816419 0.136854 0.800532
Si Si8 0.198460 0.067257 0.155260
O O1 0.500000 0.806692 0.666449
O O2 0.405959 0.851868 0.408183
O O3 0.500000 0.765020 0.359693
O O4 0.500000 0.586535 0.044791
O O5 0.389486 0.500000 0.043011
O O6 0.328718 0.604788 0.114364
O O7 0.384608 0.573223 0.789811
O O8 0.906983 0.756168 0.374978
O O9 0.000000 0.802013 0.115785
O O10 0.326060 0.792408 0.139337
O O11 0.256723 0.788166 0.437229
O O12 0.267167 0.888868 0.245443
O O13 0.091042 0.829254 0.832356
O O14 0.264821 0.818279 0.835104
O O15 0.814983 0.089420 0.957454
O O16 0.225381 0.000000 0.156537
#
# Coordination Sequence:
#
# PCOD9374951 Si02
#       8
#     4   8   4   8   4   8   8   8
#     4  10  21  37  57  86 120 151 189 242 299 363
#     4  10  22  37  57  86 117 160 205 241 291 352
#     4  10  21  37  54  83 126 149 198 231 290 378
#     4  11  22  39  61  86 121 155 197 247 309 357
#     4  10  20  36  53  89 124 156 193 235 299 371
#     4  11  22  37  57  89 118 155 193 243 304 364
#     4  11  21  39  61  85 123 158 196 247 302 358
#     4  10  24  41  59  85 118 161 208 250 297 359
#
# _framework density 19.866417999999999
#
# number of rings (size 3 to 8) (size 9 to 14) (size 15 to 20)
#    0.462    1.077    2.308    3.692    5.385    0.000 
#    1.385    0.385    0.000    0.000    0.000    1.615 
#    0.000    0.000    0.000    0.000    0.000    0.000 
#
# Total GULP energy -145093.565000 kJ/mol
# GULP energy per Si atom -5580.521731 kJ/mol
# Density = 1.982120 g / cm^3
# Si number density = 19.866418 Si / 1000 Ang^3
#
#
#
# Elastic Constant Matrix: (Units=GPa)
#
#
# Indices 1 2 3 4 5 6 
#
# 1 82.9484 5.6964 5.4422 0.0000 0.0000 0.0000
# 2 5.6964 76.0577 13.0789 0.0000 0.0000 0.0000
# 3 5.4422 13.0789 75.2370 0.0000 -0.0001 0.0000
# 4 0.0000 0.0000 0.0000 30.8816 0.0000 0.0000
# 5 0.0000 0.0000 -0.0001 0.0000 15.1365 0.0000
# 6 0.0000 0.0000 0.0000 0.0000 0.0000 19.1140
#
#
#
# Elastic Compliance Matrix: (Units=1/GPa)
#
#
# Indices 1 2 3 4 5 6 
#
# 1 0.012158 -0.000783 -0.000743 0.000000 0.000000 0.000000
# 2 -0.000783 0.013603 -0.002308 0.000000 0.000000 0.000000
# 3 -0.000743 -0.002308 0.013746 0.000000 0.000000 0.000000
# 4 0.000000 0.000000 0.000000 0.032382 0.000000 0.000000
# 5 0.000000 0.000000 0.000000 0.000000 0.066066 0.000000
# 6 0.000000 0.000000 0.000000 0.000000 0.000000 0.052318
#
#
# Mechanical properties :
#
#
# Convention : Reuss Voigt Hill
#
# Bulk Modulus (GPa) = 31.40762 31.40868 31.40815
# Shear Modulus (GPa) = 23.97450 27.02810 25.50130
#
# Velocity S-wave (km/s) = 3.47765 3.69249 3.58668
# Velocity P-wave (km/s) = 5.65412 5.83297 5.74424
#
# Compressibility (1/GPa) = 0.03183941
#
# Stress axis : x y z
#
# Youngs Moduli (GPa) = 82.24887 73.51077 72.74663
#
# Poissons Ratio (x) = 0.05754 0.05408
# Poissons Ratio (y) = 0.06438 0.16791
# Poissons Ratio (z) = 0.06114 0.16967
#
# Static dielectric constant tensor:
#      x y z
#    x 1.735020 0.000000 0.000000 
#    y 0.000000 1.694820 0.000000 
#    z 0.000000 0.000000 1.753120 
# 
# From -- ./inp_files/7349.got.cif
#   From: 2010.05.17/outbox.cif.g08.bks.cpg/sg44_4_cif.got.tgz:7349.got - 2010.06.03 19:37:08.
