data_PCOD9374375
_publ_section_title
;
Structure prediction by ZEFSAII (Michael W. Deem and Ramdas Pophale) SiO2 
 PCOD9374375
Probable space group: I M M 2
;
_chemical_formula_sum "Si O2"
_cell_formula_units_Z 56
_cell_length_a 29.910916
_cell_length_b 16.325315
_cell_length_c 5.278105
_cell_angle_alpha 90.000000
_cell_angle_beta 90.000000
_cell_angle_gamma 90.000000
_cell_volume 2577.325725
_symmetry_space_group_name_H-M "I M M 2"
_symmetry_group_IT_number 44
_symmetry_cell_setting 'orthorhombic'
loop_
_space_group_symop_operation_xyz
x,y,z
-x,-y,z
-x,y,z
x,-y,z
1/2+x,1/2+y,1/2+z
1/2-x,1/2-y,1/2+z
1/2-x,1/2+y,1/2+z
1/2+x,1/2-y,1/2+z
loop_
_atom_site_type_symbol
_atom_site_label
_atom_site_fract_x
_atom_site_fract_y
_atom_site_fract_z
Si Si1 0.151543 0.648317 0.973680
Si Si2 0.124337 0.183274 0.841260
Si Si3 0.579750 0.411185 0.719103
Si Si4 0.822751 0.092197 0.479380
Si Si5 0.247100 0.697308 0.775099
Si Si6 0.550222 0.750185 0.964988
Si Si7 0.896202 0.592870 0.453781
O O1 0.137373 0.743455 0.029882
O O2 0.202033 0.653640 0.874272
O O3 0.123456 0.612984 0.734130
O O4 0.141428 0.602104 0.234399
O O5 0.169651 0.153326 0.712420
O O6 0.088468 0.226171 0.662127
O O7 0.098410 0.103717 0.938976
O O8 0.558223 0.500000 0.754395
O O9 0.626900 0.410080 0.868480
O O10 0.552496 0.328856 0.779470
O O11 0.787526 0.132447 0.291617
O O12 0.809884 0.000000 0.548870
O O13 0.242703 0.734543 0.493753
O O14 0.500000 0.755163 0.066733
O O15 0.566237 0.839851 0.876923
O O16 0.912983 0.500000 0.453410
#
# Coordination Sequence:
#
# PCOD9374375 Si02
#       7
#     8   8   8   8   8   8   8
#     4  11  22  41  67  94 127 172 218 262 320 379
#     4  10  19  39  62  86 124 165 211 256 320 387
#     4  10  20  38  64  90 124 166 210 257 319 389
#     4  10  22  37  58  91 124 165 213 263 312 372
#     4  12  24  39  64  93 129 172 219 264 315 372
#     4  10  23  40  62  92 125 162 208 265 326 387
#     4  11  24  44  68  94 129 173 218 266 322 384
#
# _framework density 21.727947
#
# number of rings (size 3 to 8) (size 9 to 14) (size 15 to 20)
#    0.000    1.429    2.857    2.571    2.000    2.857 
#    0.000    0.000    0.000    1.714    0.000    0.000 
#    0.000    0.000    0.000    0.000    0.000    0.000 
#
# Total GULP energy -156090.306937 kJ/mol
# GULP energy per Si atom -5574.653819 kJ/mol
# Density = 2.167849 g / cm^3
# Si number density = 21.727947 Si / 1000 Ang^3
#
#
#
# Elastic Constant Matrix: (Units=GPa)
#
#
# Indices 1 2 3 4 5 6 
#
# 1 62.2598 33.2337 -8.5038 0.0000 0.0000 0.0000
# 2 33.2337 154.0842 17.5547 0.0000 0.0000 0.0000
# 3 -8.5038 17.5547 56.0227 0.0000 0.0000 0.0000
# 4 0.0000 0.0000 0.0000 24.3231 0.0000 0.0000
# 5 0.0000 0.0000 0.0000 0.0000 2.4010 0.0000
# 6 0.0000 0.0000 0.0000 0.0000 0.0000 3.7206
#
#
#
# Elastic Compliance Matrix: (Units=1/GPa)
#
#
# Indices 1 2 3 4 5 6 
#
# 1 0.019122 -0.004620 0.004350 0.000000 0.000000 0.000000
# 2 -0.004620 0.007846 -0.003160 0.000000 0.000000 0.000000
# 3 0.004350 -0.003160 0.019500 0.000000 0.000000 0.000000
# 4 0.000000 0.000000 0.000000 0.041113 0.000000 0.000000
# 5 0.000000 0.000000 0.000000 0.000000 0.416485 -0.000001
# 6 0.000000 0.000000 0.000000 0.000000 -0.000001 0.268771
#
#
# Mechanical properties :
#
#
# Convention : Reuss Voigt Hill
#
# Bulk Modulus (GPa) = 25.24645 39.65954 32.45299
# Shear Modulus (GPa) = 6.30596 21.42777 13.86687
#
# Velocity S-wave (km/s) = 1.70544 3.14376 2.52901
# Velocity P-wave (km/s) = 3.93988 5.60982 4.84730
#
# Compressibility (1/GPa) = 0.03960953
#
# Stress axis : x y z
#
# Youngs Moduli (GPa) = 52.29577 127.44658 51.28093
#
# Poissons Ratio (x) = 0.58880 -0.22308
# Poissons Ratio (y) = 0.24160 0.16205
# Poissons Ratio (z) = -0.22750 0.40272
#
# Static dielectric constant tensor:
#      x y z
#    x 1.782800 0.000000 0.000000 
#    y 0.000000 1.825470 0.000000 
#    z 0.000000 0.000000 1.896500 
# 
# From -- ./inp_files/1686.got.cif
#   From: 2010.05.17/outbox.cif.g08.bks.cpg/sg44_1_cif.got.tgz:1686.got - 2010.06.03 19:37:08.
