data_PCOD9374929
_publ_section_title
;
Structure prediction by ZEFSAII (Michael W. Deem and Ramdas Pophale) SiO2 
 PCOD9374929
Probable space group: I M M 2
;
_chemical_formula_sum "Si O2"
_cell_formula_units_Z 48
_cell_length_a 11.475989
_cell_length_b 25.036712
_cell_length_c 8.041799
_cell_angle_alpha 90.000000
_cell_angle_beta 90.000000
_cell_angle_gamma 90.000000
_cell_volume 2310.577984
_symmetry_space_group_name_H-M "I M M 2"
_symmetry_group_IT_number 44
_symmetry_cell_setting 'orthorhombic'
loop_
_space_group_symop_operation_xyz
x,y,z
-x,-y,z
-x,y,z
x,-y,z
1/2+x,1/2+y,1/2+z
1/2-x,1/2-y,1/2+z
1/2-x,1/2+y,1/2+z
1/2+x,1/2-y,1/2+z
loop_
_atom_site_type_symbol
_atom_site_label
_atom_site_fract_x
_atom_site_fract_y
_atom_site_fract_z
Si Si1 0.128760 0.619134 0.105210
Si Si2 0.696841 0.313814 0.902812
Si Si3 0.128202 0.000000 0.333914
Si Si4 0.124380 0.744633 0.699988
Si Si5 0.133849 0.500000 0.045239
Si Si6 0.626177 0.391464 0.622464
Si Si7 0.870250 0.638282 0.475979
O O1 0.141251 0.556060 0.141730
O O2 0.137331 0.649426 0.279532
O O3 0.000000 0.627614 0.035006
O O4 0.217573 0.640274 0.970616
O O5 0.772159 0.264763 0.828908
O O6 0.629137 0.342117 0.753538
O O7 0.634856 0.291935 0.066935
O O8 0.127675 0.946705 0.223509
O O9 0.250519 0.000000 0.432044
O O10 0.000000 0.000000 0.425097
O O11 0.125800 0.690924 0.588754
O O12 0.000000 0.748906 0.788594
O O13 0.000000 0.500000 0.970652
O O14 0.500000 0.388659 0.531624
O O15 0.748036 0.389420 0.523128
O O16 0.000000 0.611817 0.499977
#
# Coordination Sequence:
#
# PCOD9374929 Si02
#       7
#     8   8   4   8   4   8   8
#     4  10  20  36  58  84 114 147 185 237 286 331
#     4  11  20  36  58  80 113 146 187 231 285 337
#     4  10  20  37  56  84 118 150 186 229 278 334
#     4  10  21  36  55  82 110 145 190 232 278 335
#     4  10  20  35  58  88 114 144 190 233 278 338
#     4  10  21  37  58  83 115 151 188 231 279 334
#     4   9  20  38  58  83 116 148 186 233 283 333
#
# _framework density 20.774021999999999
#
# number of rings (size 3 to 8) (size 9 to 14) (size 15 to 20)
#    0.000    2.000    1.667    2.000    0.000    2.000 
#    0.000   14.167    0.000    0.000    0.000    0.000 
#    0.000    0.000    0.000    0.000    0.000    0.000 
#
# Total GULP energy -133660.239692 kJ/mol
# GULP energy per Si atom -5569.176654 kJ/mol
# Density = 2.072674 g / cm^3
# Si number density = 20.774022 Si / 1000 Ang^3
#
#
#
# Elastic Constant Matrix: (Units=GPa)
#
#
# Indices 1 2 3 4 5 6 
#
# 1 161.8890 19.6864 27.2383 0.0012 -0.0004 -0.0006
# 2 19.6864 46.9078 -8.7129 -0.0006 0.0003 -0.0006
# 3 27.2383 -8.7129 25.3490 -0.0044 0.0020 -0.0031
# 4 0.0012 -0.0006 -0.0044 20.7664 0.0004 -0.0012
# 5 -0.0004 0.0003 0.0020 0.0004 20.0405 0.0004
# 6 -0.0006 -0.0006 -0.0031 -0.0012 0.0004 70.9801
#
#
#
# Elastic Compliance Matrix: (Units=1/GPa)
#
#
# Indices 1 2 3 4 5 6 
#
# 1 0.008818 -0.005833 -0.011480 -0.000003 0.000001 0.000000
# 2 -0.005833 0.026631 0.015421 0.000004 -0.000002 0.000001
# 3 -0.011480 0.015421 0.057086 0.000013 -0.000006 0.000003
# 4 -0.000003 0.000004 0.000013 0.048155 -0.000001 0.000001
# 5 0.000001 -0.000002 -0.000006 -0.000001 0.049899 0.000000
# 6 0.000000 0.000001 0.000003 0.000001 0.000000 0.014088
#
#
# Mechanical properties :
#
#
# Convention : Reuss Voigt Hill
#
# Bulk Modulus (GPa) = 11.26748 34.50771 22.88759
# Shear Modulus (GPa) = 21.00450 35.41966 28.21208
#
# Velocity S-wave (km/s) = 3.18322 4.13364 3.68917
# Velocity P-wave (km/s) = 4.35272 6.27931 5.40258
#
# Compressibility (1/GPa) = 0.08875103
#
# Stress axis : x y z
#
# Youngs Moduli (GPa) = 113.40465 37.55030 17.51749
#
# Poissons Ratio (x) = 0.21904 0.20110
# Poissons Ratio (y) = 0.66151 -0.27015
# Poissons Ratio (z) = 1.30190 -0.57908
#
# Static dielectric constant tensor:
#      x y z
#    x 1.836210 0.000000 0.000000 
#    y 0.000000 1.736690 0.000000 
#    z 0.000000 0.000000 1.711700 
# 
# From -- ./inp_files/4959.got.cif
#   From: 2010.05.17/outbox.cif.g08.bks.cpg/sg44_3_cif.got.tgz:4959.got - 2010.06.03 19:37:08.
