data_PCOD9374947
_publ_section_title
;
Structure prediction by ZEFSAII (Michael W. Deem and Ramdas Pophale) SiO2 
 PCOD9374947
Probable space group: I M M 2
;
_chemical_formula_sum "Si O2"
_cell_formula_units_Z 64
_cell_length_a 8.830345
_cell_length_b 30.824979
_cell_length_c 14.959970
_cell_angle_alpha 90.000000
_cell_angle_beta 90.000000
_cell_angle_gamma 90.000000
_cell_volume 4072.032014
_symmetry_space_group_name_H-M "I M M 2"
_symmetry_group_IT_number 44
_symmetry_cell_setting 'orthorhombic'
loop_
_space_group_symop_operation_xyz
x,y,z
-x,-y,z
-x,y,z
x,-y,z
1/2+x,1/2+y,1/2+z
1/2-x,1/2-y,1/2+z
1/2-x,1/2+y,1/2+z
1/2+x,1/2-y,1/2+z
loop_
_atom_site_type_symbol
_atom_site_label
_atom_site_fract_x
_atom_site_fract_y
_atom_site_fract_z
Si Si1 0.824625 0.277231 0.358780
Si Si2 0.815770 0.707016 0.556791
Si Si3 0.681319 0.706868 0.167859
Si Si4 0.179282 0.633793 0.047588
Si Si5 0.182266 0.049905 0.471900
Si Si6 0.825683 0.826516 0.372874
Si Si7 0.818620 0.633875 0.695372
Si Si8 0.818109 0.050143 0.263132
O O1 0.763983 0.294064 0.454111
O O2 0.733175 0.288667 0.270090
O O3 0.825282 0.225263 0.369138
O O4 0.000000 0.291298 0.347298
O O5 0.767006 0.750435 0.610833
O O6 0.774520 0.663962 0.611656
O O7 0.000000 0.709380 0.553568
O O8 0.500000 0.705666 0.162111
O O9 0.748212 0.663465 0.124307
O O10 0.000000 0.632782 0.057099
O O11 0.243882 0.585308 0.035970
O O12 0.228402 0.657195 0.955675
O O13 0.223416 0.058883 0.367523
O O14 0.000000 0.052815 0.477293
O O15 0.225113 0.000000 0.490900
O O16 0.757278 0.844318 0.281709
O O17 0.000000 0.841388 0.384155
O O18 0.761233 0.584586 0.699008
O O19 0.000000 0.635104 0.703374
O O20 0.000000 0.054665 0.257059
O O21 0.779945 0.000000 0.244557
#
# Coordination Sequence:
#
# PCOD9374947 Si02
#       8
#     8   8   8   8   8   8   8   8
#     4  10  20  36  52  70  98 136 174 212 251 293
#     4   9  19  34  50  70 101 135 168 206 255 301
#     4  11  21  36  53  73 102 136 171 210 253 300
#     4  12  23  33  49  76 104 136 176 211 248 300
#     4   9  18  33  52  73 100 135 169 204 255 310
#     4  11  20  31  49  71 101 139 173 209 253 297
#     4  11  20  31  49  75 102 134 172 211 252 299
#     4   9  18  32  49  70 100 136 168 203 252 307
#
# _framework density 15.716968
#
# number of rings (size 3 to 8) (size 9 to 14) (size 15 to 20)
#    0.000    1.750    3.750    3.000    0.000    1.000 
#    0.000    2.500    0.000    0.000    0.000    0.875 
#    0.000    5.000    0.000    0.000    0.000    0.000 
#
# Total GULP energy -178550.719500 kJ/mol
# GULP energy per Si atom -5579.709984 kJ/mol
# Density = 1.568120 g / cm^3
# Si number density = 15.716968 Si / 1000 Ang^3
#
#
#
# Elastic Constant Matrix: (Units=GPa)
#
#
# Indices 1 2 3 4 5 6 
#
# 1 48.3199 33.6965 23.6409 0.0000 0.0000 0.0000
# 2 33.6965 109.4985 48.5551 -0.0001 0.0000 0.0000
# 3 23.6409 48.5551 94.4586 -0.0001 0.0000 0.0000
# 4 0.0000 -0.0001 -0.0001 20.0204 0.0000 0.0000
# 5 0.0000 0.0000 0.0000 0.0000 22.2492 0.0000
# 6 0.0000 0.0000 0.0000 0.0000 0.0000 24.4432
#
#
#
# Elastic Compliance Matrix: (Units=1/GPa)
#
#
# Indices 1 2 3 4 5 6 
#
# 1 0.027091 -0.006904 -0.003231 0.000000 0.000000 0.000000
# 2 -0.006904 0.013588 -0.005257 0.000000 0.000000 0.000000
# 3 -0.003231 -0.005257 0.014098 0.000000 0.000000 0.000000
# 4 0.000000 0.000000 0.000000 0.049949 0.000000 0.000000
# 5 0.000000 0.000000 0.000000 0.000000 0.044945 0.000000
# 6 0.000000 0.000000 0.000000 0.000000 0.000000 0.040911
#
#
# Mechanical properties :
#
#
# Convention : Reuss Voigt Hill
#
# Bulk Modulus (GPa) = 41.68007 51.56244 46.62125
# Shear Modulus (GPa) = 21.79937 23.10152 22.45044
#
# Velocity S-wave (km/s) = 3.72828 3.83802 3.78355
# Velocity P-wave (km/s) = 6.71641 7.24697 6.98673
#
# Compressibility (1/GPa) = 0.02399228
#
# Stress axis : x y z
#
# Youngs Moduli (GPa) = 36.91274 73.59317 70.93382
#
# Poissons Ratio (x) = 0.50808 0.22921
# Poissons Ratio (y) = 0.25484 0.37289
# Poissons Ratio (z) = 0.11928 0.38687
#
# Static dielectric constant tensor:
#      x y z
#    x 1.531340 0.000000 0.000000 
#    y 0.000000 1.541870 0.000000 
#    z 0.000000 0.000000 1.511990 
# 
# From -- ./inp_files/17126.got.cif
#   From: 2010.05.17/outbox.cif.g08.bks.cpg/sg44_9_cif.got.tgz:17126.got - 2010.06.03 19:37:08.
