data_PCOD9374426
_publ_section_title
;
Structure prediction by ZEFSAII (Michael W. Deem and Ramdas Pophale) SiO2 
 PCOD9374426
Probable space group: I M M 2
;
_chemical_formula_sum "Si O2"
_cell_formula_units_Z 56
_cell_length_a 14.816369
_cell_length_b 13.762280
_cell_length_c 16.047879
_cell_angle_alpha 90.000000
_cell_angle_beta 90.000000
_cell_angle_gamma 90.000000
_cell_volume 3272.275164
_symmetry_space_group_name_H-M "I M M 2"
_symmetry_group_IT_number 44
_symmetry_cell_setting 'orthorhombic'
loop_
_space_group_symop_operation_xyz
x,y,z
-x,-y,z
-x,y,z
x,-y,z
1/2+x,1/2+y,1/2+z
1/2-x,1/2-y,1/2+z
1/2-x,1/2+y,1/2+z
1/2+x,1/2-y,1/2+z
loop_
_atom_site_type_symbol
_atom_site_label
_atom_site_fract_x
_atom_site_fract_y
_atom_site_fract_z
Si Si1 0.392999 0.384968 0.715730
Si Si2 0.102188 0.882693 0.709586
Si Si3 0.717904 0.613268 0.045219
Si Si4 0.604155 0.885709 0.993117
Si Si5 0.789371 0.811556 0.054089
Si Si6 0.605763 0.302670 0.892343
Si Si7 0.394389 0.383156 0.392900
O O1 0.500000 0.367645 0.702636
O O2 0.380753 0.500000 0.729163
O O3 0.339358 0.352043 0.634539
O O4 0.364373 0.328977 0.799505
O O5 0.159533 0.863944 0.627895
O O6 0.136051 0.849313 0.800509
O O7 0.000000 0.846458 0.698477
O O8 0.097549 0.000000 0.715067
O O9 0.743113 0.500000 0.045603
O O10 0.794187 0.694855 0.050046
O O11 0.660197 0.638647 0.962741
O O12 0.500000 0.873949 0.023974
O O13 0.685273 0.849283 0.052326
O O14 0.616714 0.000000 0.974046
O O15 0.612795 0.811429 0.915358
O O16 0.834950 0.847966 0.969099
O O17 0.500000 0.329857 0.898982
O O18 0.500000 0.355732 0.402705
O O19 0.391059 0.500000 0.394108
#
# Coordination Sequence:
#
# PCOD9374426 Si02
#       7
#     8   8   8   8   8   8   8
#     4  10  20  34  53  77 102 128 164 209 252 296
#     4   8  15  29  50  74  96 118 150 198 254 300
#     4  10  20  32  47  69  99 133 167 204 246 295
#     4   9  18  33  52  74 101 133 168 205 247 297
#     4  11  21  32  50  73 101 135 169 203 247 295
#     4   9  18  32  51  75 101 131 167 206 250 298
#     4   9  17  31  53  79 100 118 150 202 259 304
#
# _framework density 17.113475000000001
#
# number of rings (size 3 to 8) (size 9 to 14) (size 15 to 20)
#    0.000    2.571    0.000    3.429    0.000    5.429 
#    0.000    2.143    0.000    2.571    0.000    0.000 
#    0.000    6.857    0.000    0.000    0.000    0.714 
#
# Total GULP energy -155948.276463 kJ/mol
# GULP energy per Si atom -5569.581302 kJ/mol
# Density = 1.707452 g / cm^3
# Si number density = 17.113475 Si / 1000 Ang^3
#
#
#
# Elastic Constant Matrix: (Units=GPa)
#
#
# Indices 1 2 3 4 5 6 
#
# 1 49.5673 32.3257 44.9940 0.0000 0.0000 0.0000
# 2 32.3257 87.3929 33.6752 0.0000 0.0000 0.0000
# 3 44.9940 33.6752 121.7100 0.0000 0.0000 0.0000
# 4 0.0000 0.0000 0.0000 23.4128 0.0000 0.0000
# 5 0.0000 0.0000 0.0000 0.0000 -34.6973 0.0000
# 6 0.0000 0.0000 0.0000 0.0000 0.0000 14.3371
#
#
#
# Elastic Compliance Matrix: (Units=1/GPa)
#
#
# Indices 1 2 3 4 5 6 
#
# 1 0.035876 -0.009133 -0.010736 0.000000 0.000000 0.000000
# 2 -0.009133 0.015133 -0.000811 0.000000 0.000000 0.000000
# 3 -0.010736 -0.000811 0.012409 0.000000 0.000000 0.000000
# 4 0.000000 0.000000 0.000000 0.042712 0.000000 0.000000
# 5 0.000000 0.000000 0.000000 0.000000 -0.028821 0.000000
# 6 0.000000 0.000000 0.000000 0.000000 0.000000 0.069749
#
#
# Mechanical properties :
#
#
# Convention : Reuss Voigt Hill
#
# Bulk Modulus (GPa) = 45.33250 53.40669 49.36959
# Shear Modulus (GPa) = 25.53998 10.45556 17.99777
#
# Velocity S-wave (km/s) = 3.86734 2.47443 3.24647
# Velocity P-wave (km/s) = 6.81825 6.28004 6.55467
#
# Compressibility (1/GPa) = 0.02205923
#
# Stress axis : x y z
#
# Youngs Moduli (GPa) = 27.87361 66.07936 80.58432
#
# Poissons Ratio (x) = 0.60353 0.86513
# Poissons Ratio (y) = 0.25458 0.06533
# Poissons Ratio (z) = 0.29924 0.05357
#
# Static dielectric constant tensor:
#      x y z
#    x 1.609200 0.000000 0.000000 
#    y 0.000000 1.587270 0.000000 
#    z 0.000000 0.000000 1.581780 
# 
# From -- ./inp_files/18476.got.cif
#   From: 2010.05.17/outbox.cif.g08.bks.cpg/sg44_10_cif.got.tgz:18476.got - 2010.06.03 19:37:08.
