data_PCOD9374268
_publ_section_title
;
Structure prediction by ZEFSAII (Michael W. Deem and Ramdas Pophale) SiO2 
 PCOD9374268
Probable space group: I M M 2
;
_chemical_formula_sum "Si O2"
_cell_formula_units_Z 56
_cell_length_a 8.461978
_cell_length_b 19.225329
_cell_length_c 17.419861
_cell_angle_alpha 90.000000
_cell_angle_beta 90.000000
_cell_angle_gamma 90.000000
_cell_volume 2833.938085
_symmetry_space_group_name_H-M "I M M 2"
_symmetry_group_IT_number 44
_symmetry_cell_setting 'orthorhombic'
loop_
_space_group_symop_operation_xyz
x,y,z
-x,-y,z
-x,y,z
x,-y,z
1/2+x,1/2+y,1/2+z
1/2-x,1/2-y,1/2+z
1/2-x,1/2+y,1/2+z
1/2+x,1/2-y,1/2+z
loop_
_atom_site_type_symbol
_atom_site_label
_atom_site_fract_x
_atom_site_fract_y
_atom_site_fract_z
Si Si1 0.307035 0.579581 0.159470
Si Si2 0.690772 0.920453 0.265944
Si Si3 0.314535 0.339474 0.617931
Si Si4 0.191359 0.153292 0.817007
Si Si5 0.685694 0.917229 0.971214
Si Si6 0.309505 0.198877 0.376903
Si Si7 0.311125 0.699693 0.049696
O O1 0.500000 0.578647 0.159903
O O2 0.252838 0.500000 0.155768
O O3 0.257163 0.617221 0.238218
O O4 0.257397 0.627640 0.088480
O O5 0.500000 0.922770 0.268610
O O6 0.738231 0.881386 0.188002
O O7 0.746052 0.871937 0.336327
O O8 0.749132 0.000000 0.267999
O O9 0.500000 0.333291 0.631134
O O10 0.280863 0.381618 0.539747
O O11 0.242547 0.263440 0.603164
O O12 0.257697 0.112350 0.890043
O O13 0.239138 0.233819 0.826989
O O14 0.000000 0.150613 0.819457
O O15 0.500000 0.901202 0.982107
O O16 0.706214 0.000000 0.973287
O O17 0.500000 0.198036 0.378055
O O18 0.252427 0.207764 0.463732
O O19 0.500000 0.700334 0.046664
#
# Coordination Sequence:
#
# PCOD9374268 Si02
#       7
#     8   8   8   8   8   8   8
#     4   9  19  36  59  88 119 154 197 242 292 349
#     4  10  22  41  64  89 121 161 202 248 304 363
#     4  12  24  39  60  87 119 156 201 251 300 357
#     4  10  19  35  60  85 114 153 197 243 288 346
#     4  11  23  37  56  85 121 156 191 239 300 362
#     4  10  21  38  60  89 121 156 199 245 295 355
#     4  11  22  38  62  89 119 160 202 246 298 353
#
# _framework density 19.760490000000001
#
# number of rings (size 3 to 8) (size 9 to 14) (size 15 to 20)
#    0.000    1.571    1.429    3.857    0.000    7.143 
#    0.000    2.857    0.000    3.000    0.000    0.000 
#    0.000    0.000    0.000    0.000    0.000    0.000 
#
# Total GULP energy -156498.986413 kJ/mol
# GULP energy per Si atom -5589.249515 kJ/mol
# Density = 1.971551 g / cm^3
# Si number density = 19.760490 Si / 1000 Ang^3
#
#
#
# Elastic Constant Matrix: (Units=GPa)
#
#
# Indices 1 2 3 4 5 6 
#
# 1 9.8528 21.6228 2.6792 0.0000 0.0000 0.0000
# 2 21.6228 157.2313 42.2817 0.0000 0.0000 0.0000
# 3 2.6792 42.2817 33.3496 0.0000 0.0000 0.0000
# 4 0.0000 0.0000 0.0000 14.3632 0.0000 0.0000
# 5 0.0000 0.0000 0.0000 0.0000 28.1333 0.0000
# 6 0.0000 0.0000 0.0000 0.0000 0.0000 18.0822
#
#
#
# Elastic Compliance Matrix: (Units=1/GPa)
#
#
# Indices 1 2 3 4 5 6 
#
# 1 0.155475 -0.027345 0.022179 0.000000 0.000000 0.000000
# 2 -0.027345 0.014460 -0.016136 0.000000 0.000000 0.000000
# 3 0.022179 -0.016136 0.048661 0.000000 0.000000 0.000000
# 4 0.000000 0.000000 0.000000 0.069623 0.000000 0.000000
# 5 0.000000 0.000000 0.000000 0.000000 0.035545 0.000000
# 6 0.000000 0.000000 0.000000 0.000000 0.000000 0.055303
#
#
# Mechanical properties :
#
#
# Convention : Reuss Voigt Hill
#
# Bulk Modulus (GPa) = 5.68210 37.06679 21.37444
# Shear Modulus (GPa) = 10.40941 21.03906 15.72424
#
# Velocity S-wave (km/s) = 2.29766 3.26652 2.82395
# Velocity P-wave (km/s) = 3.14971 5.74679 4.63391
#
# Compressibility (1/GPa) = 0.17599141
#
# Stress axis : x y z
#
# Youngs Moduli (GPa) = 6.43191 69.15726 20.55030
#
# Poissons Ratio (x) = 1.89114 -0.45579
# Poissons Ratio (y) = 0.17588 0.33160
# Poissons Ratio (z) = -0.14265 1.11591
#
# Static dielectric constant tensor:
#      x y z
#    x 1.682330 0.000000 0.000000 
#    y 0.000000 1.702800 0.000000 
#    z 0.000000 0.000000 1.659150 
# 
# From -- ./inp_files/16468.got.cif
#   From: 2010.05.17/outbox.cif.g08.bks.cpg/sg44_9_cif.got.tgz:16468.got - 2010.06.03 19:37:08.
