data_PCOD9374148
_publ_section_title
;
Structure prediction by ZEFSAII (Michael W. Deem and Ramdas Pophale) SiO2 
 PCOD9374148
Probable space group: I M M 2
;
_chemical_formula_sum "Si O2"
_cell_formula_units_Z 64
_cell_length_a 8.317227
_cell_length_b 21.389577
_cell_length_c 20.168379
_cell_angle_alpha 90.000000
_cell_angle_beta 90.000000
_cell_angle_gamma 90.000000
_cell_volume 3587.994302
_symmetry_space_group_name_H-M "I M M 2"
_symmetry_group_IT_number 44
_symmetry_cell_setting 'orthorhombic'
loop_
_space_group_symop_operation_xyz
x,y,z
-x,-y,z
-x,y,z
x,-y,z
1/2+x,1/2+y,1/2+z
1/2-x,1/2-y,1/2+z
1/2-x,1/2+y,1/2+z
1/2+x,1/2-y,1/2+z
loop_
_atom_site_type_symbol
_atom_site_label
_atom_site_fract_x
_atom_site_fract_y
_atom_site_fract_z
Si Si1 0.693715 0.117081 0.574440
Si Si2 0.689784 0.114688 0.722079
Si Si3 0.811856 0.255385 0.722326
Si Si4 0.692859 0.689618 0.855552
Si Si5 0.806844 0.931304 0.435648
Si Si6 0.693575 0.736196 0.580336
Si Si7 0.192153 0.068550 0.860716
Si Si8 0.304863 0.690266 0.438737
O O1 0.500000 0.112243 0.572419
O O2 0.746650 0.096489 0.648096
O O3 0.764083 0.081124 0.512217
O O4 0.735075 0.190742 0.567965
O O5 0.500000 0.102257 0.726028
O O6 0.718434 0.189355 0.728164
O O7 0.773508 0.081927 0.783631
O O8 0.760626 0.299785 0.782179
O O9 0.771858 0.282160 0.649872
O O10 0.000000 0.241037 0.727717
O O11 0.500000 0.687763 0.852281
O O12 0.753104 0.626690 0.891594
O O13 0.743821 0.749647 0.898692
O O14 0.000000 0.931333 0.430011
O O15 0.746678 0.000000 0.415732
O O16 0.500000 0.733081 0.587517
O O17 0.741952 0.697552 0.515573
O O18 0.253833 0.126903 0.903756
O O19 0.000000 0.067591 0.869853
O O20 0.256446 0.000000 0.878810
O O21 0.500000 0.691705 0.435899
#
# Coordination Sequence:
#
# PCOD9374148 Si02
#       8
#     8   8   8   8   8   8   8   8
#     4   9  18  32  50  74 104 137 176 217 256 307
#     4  10  20  34  51  75 106 143 183 219 261 312
#     4  11  21  33  53  80 108 137 174 221 272 318
#     4  11  21  34  55  80 106 138 177 221 265 314
#     4  10  22  37  52  75 107 141 177 217 263 314
#     4   9  18  33  53  78 107 137 174 220 267 313
#     4  10  21  35  52  78 110 145 181 218 262 313
#     4  10  19  34  56  79 106 140 177 220 263 311
#
# _framework density 17.837263
#
# number of rings (size 3 to 8) (size 9 to 14) (size 15 to 20)
#    0.000    2.000    2.500    2.625    0.000    4.500 
#    0.000    2.500    0.000    0.750    0.000    3.500 
#    0.000    0.000    0.000    0.000    0.000    0.000 
#
# Total GULP energy -178601.190566 kJ/mol
# GULP energy per Si atom -5581.287205 kJ/mol
# Density = 1.779666 g / cm^3
# Si number density = 17.837263 Si / 1000 Ang^3
#
#
#
# Elastic Constant Matrix: (Units=GPa)
#
#
# Indices 1 2 3 4 5 6 
#
# 1 6.3699 4.7812 7.8769 0.0000 0.0000 0.0000
# 2 4.7812 112.2021 62.2404 0.0000 0.0000 0.0000
# 3 7.8769 62.2404 114.5465 0.0000 0.0000 0.0000
# 4 0.0000 0.0000 0.0000 18.2056 0.0000 0.0000
# 5 0.0000 0.0000 0.0000 0.0000 27.1090 0.0000
# 6 0.0000 0.0000 0.0000 0.0000 0.0000 15.5544
#
#
#
# Elastic Compliance Matrix: (Units=1/GPa)
#
#
# Indices 1 2 3 4 5 6 
#
# 1 0.171674 -0.001098 -0.011209 0.000000 0.000000 0.000000
# 2 -0.001098 0.012765 -0.006860 0.000000 0.000000 0.000000
# 3 -0.011209 -0.006860 0.013229 0.000000 0.000000 0.000000
# 4 0.000000 0.000000 0.000000 0.054928 0.000000 0.000000
# 5 0.000000 0.000000 0.000000 0.000000 0.036888 0.000000
# 6 0.000000 0.000000 0.000000 0.000000 0.000000 0.064291
#
#
# Mechanical properties :
#
#
# Convention : Reuss Voigt Hill
#
# Bulk Modulus (GPa) = 6.27614 42.54616 24.41115
# Shear Modulus (GPa) = 11.23040 22.72179 16.97610
#
# Velocity S-wave (km/s) = 2.51191 3.57296 3.08834
# Velocity P-wave (km/s) = 3.45530 6.39731 5.14124
#
# Compressibility (1/GPa) = 0.15933366
#
# Stress axis : x y z
#
# Youngs Moduli (GPa) = 5.82498 78.33982 75.59371
#
# Poissons Ratio (x) = 0.08599 0.84732
# Poissons Ratio (y) = 0.00639 0.51861
# Poissons Ratio (z) = 0.06529 0.53745
#
# Static dielectric constant tensor:
#      x y z
#    x 1.619290 0.000000 0.000000 
#    y 0.000000 1.617350 0.000000 
#    z 0.000000 0.000000 1.610150 
# 
# From -- ./inp_files/23336.got.cif
#   From: 2010.05.17/outbox.cif.g08.bks.cpg/sg44_12_cif.got.tgz:23336.got - 2010.06.03 19:37:08.
