data_PCOD9374896
_publ_section_title
;
Structure prediction by ZEFSAII (Michael W. Deem and Ramdas Pophale) SiO2 
 PCOD9374896
Probable space group: I M M 2
;
_chemical_formula_sum "Si O2"
_cell_formula_units_Z 48
_cell_length_a 7.486030
_cell_length_b 28.235261
_cell_length_c 9.747419
_cell_angle_alpha 90.000000
_cell_angle_beta 90.000000
_cell_angle_gamma 90.000000
_cell_volume 2060.312060
_symmetry_space_group_name_H-M "I M M 2"
_symmetry_group_IT_number 44
_symmetry_cell_setting 'orthorhombic'
loop_
_space_group_symop_operation_xyz
x,y,z
-x,-y,z
-x,y,z
x,-y,z
1/2+x,1/2+y,1/2+z
1/2-x,1/2-y,1/2+z
1/2-x,1/2+y,1/2+z
1/2+x,1/2-y,1/2+z
loop_
_atom_site_type_symbol
_atom_site_label
_atom_site_fract_x
_atom_site_fract_y
_atom_site_fract_z
Si Si1 0.283854 0.586022 0.764870
Si Si2 0.212714 0.806390 0.230654
Si Si3 0.202287 0.630631 0.257250
Si Si4 0.708752 0.052061 0.563100
Si Si5 0.283975 0.221348 0.916100
Si Si6 0.216343 0.948062 0.969399
O O1 0.500000 0.586308 0.771160
O O2 0.219224 0.640216 0.749623
O O3 0.218512 0.561488 0.902062
O O4 0.234692 0.558352 0.627566
O O5 0.279743 0.769939 0.346208
O O6 0.000000 0.809206 0.249037
O O7 0.240282 0.787560 0.075423
O O8 0.283350 0.678443 0.318877
O O9 0.201152 0.594109 0.383485
O O10 0.000000 0.642849 0.212774
O O11 0.288187 0.598183 0.138927
O O12 0.500000 0.050757 0.604134
O O13 0.786094 0.000000 0.594426
O O14 0.500000 0.220395 0.909798
O O15 0.000000 0.944203 0.958631
O O16 0.269534 0.000000 0.919559
#
# Coordination Sequence:
#
# PCOD9374896 Si02
#       6
#     8   8   8   8   8   8
#     4  10  21  38  58  82 115 150 188 233 281 336
#     4  10  22  40  61  87 117 149 187 234 285 338
#     4  10  21  38  58  82 115 149 187 234 282 336
#     4  10  22  38  56  83 117 152 192 235 281 334
#     4  10  22  39  60  88 116 147 189 234 283 340
#     4  10  20  35  57  84 112 145 187 232 280 336
#
# _framework density 23.297440999999999
#
# number of rings (size 3 to 8) (size 9 to 14) (size 15 to 20)
#    0.000    2.000    1.667    1.000    2.333    4.667 
#    0.000    0.000    0.000    0.000    0.000    0.000 
#    0.000    0.000    0.000    0.000    0.000    0.000 
#
# Total GULP energy -134114.934414 kJ/mol
# GULP energy per Si atom -5588.122267 kJ/mol
# Density = 2.324441 g / cm^3
# Si number density = 23.297441 Si / 1000 Ang^3
#
#
#
# Elastic Constant Matrix: (Units=GPa)
#
#
# Indices 1 2 3 4 5 6 
#
# 1 65.5735 1.4904 -11.8146 0.0000 -0.0001 -0.0001
# 2 1.4904 107.7062 4.2220 -0.0002 -0.0003 -0.0003
# 3 -11.8146 4.2220 88.3867 0.0001 -0.0005 -0.0005
# 4 0.0000 -0.0002 0.0001 47.7681 -0.0003 -0.0004
# 5 -0.0001 -0.0003 -0.0005 -0.0003 35.7189 0.0000
# 6 -0.0001 -0.0003 -0.0005 -0.0004 0.0000 17.2541
#
#
#
# Elastic Compliance Matrix: (Units=1/GPa)
#
#
# Indices 1 2 3 4 5 6 
#
# 1 0.015636 -0.000299 0.002104 0.000000 0.000000 0.000000
# 2 -0.000299 0.009308 -0.000485 0.000000 0.000000 0.000000
# 3 0.002104 -0.000485 0.011618 0.000000 0.000000 0.000000
# 4 0.000000 0.000000 0.000000 0.020934 0.000000 0.000001
# 5 0.000000 0.000000 0.000000 0.000000 0.027996 0.000000
# 6 0.000000 0.000000 0.000000 0.000001 0.000000 0.057957
#
#
# Mechanical properties :
#
#
# Convention : Reuss Voigt Hill
#
# Bulk Modulus (GPa) = 25.50770 27.71800 26.61285
# Shear Modulus (GPa) = 32.49366 37.99945 35.24656
#
# Velocity S-wave (km/s) = 3.73866 4.04302 3.89381
# Velocity P-wave (km/s) = 5.44144 5.80671 5.62704
#
# Compressibility (1/GPa) = 0.03920386
#
# Stress axis : x y z
#
# Youngs Moduli (GPa) = 63.95497 107.43855 86.07074
#
# Poissons Ratio (x) = 0.03211 -0.18112
# Poissons Ratio (y) = 0.01911 0.04171
# Poissons Ratio (z) = -0.13458 0.05206
#
# Static dielectric constant tensor:
#      x y z
#    x 1.879490 0.000000 0.000000 
#    y 0.000000 1.838640 0.000000 
#    z 0.000000 0.000000 1.833630 
# 
# From -- ./inp_files/4869.got.cif
#   From: 2010.05.17/outbox.cif.g08.bks.cpg/sg44_3_cif.got.tgz:4869.got - 2010.06.03 19:37:08.
