data_PCOD9374183
_publ_section_title
;
Structure prediction by ZEFSAII (Michael W. Deem and Ramdas Pophale) SiO2 
 PCOD9374183
Probable space group: I M M 2
;
_chemical_formula_sum "Si O2"
_cell_formula_units_Z 64
_cell_length_a 25.696282
_cell_length_b 8.944303
_cell_length_c 15.205846
_cell_angle_alpha 90.000000
_cell_angle_beta 90.000000
_cell_angle_gamma 90.000000
_cell_volume 3494.840667
_symmetry_space_group_name_H-M "I M M 2"
_symmetry_group_IT_number 44
_symmetry_cell_setting 'orthorhombic'
loop_
_space_group_symop_operation_xyz
x,y,z
-x,-y,z
-x,y,z
x,-y,z
1/2+x,1/2+y,1/2+z
1/2-x,1/2-y,1/2+z
1/2-x,1/2+y,1/2+z
1/2+x,1/2-y,1/2+z
loop_
_atom_site_type_symbol
_atom_site_label
_atom_site_fract_x
_atom_site_fract_y
_atom_site_fract_z
Si Si1 0.152105 0.178439 0.036080
Si Si2 0.940567 0.317930 0.560837
Si Si3 0.738714 0.324869 0.006701
Si Si4 0.140815 0.320980 0.412650
Si Si5 0.613594 0.179152 0.243088
Si Si6 0.277314 0.325461 0.216577
Si Si7 0.668219 0.322477 0.740102
Si Si8 0.559799 0.179268 0.426982
O O1 0.151515 0.214048 0.140384
O O2 0.156363 0.000000 0.026573
O O3 0.204054 0.254664 0.997119
O O4 0.100915 0.239587 0.989257
O O5 0.941435 0.500000 0.561376
O O6 0.904755 0.272065 0.479167
O O7 0.914019 0.272600 0.652591
O O8 0.000000 0.266082 0.554746
O O9 0.739697 0.500000 0.983775
O O10 0.694923 0.240379 0.951751
O O11 0.723672 0.311270 0.110124
O O12 0.142288 0.500000 0.410601
O O13 0.134864 0.256826 0.315113
O O14 0.668837 0.259844 0.251428
O O15 0.577199 0.208791 0.326579
O O16 0.622404 0.000000 0.238272
O O17 0.271823 0.500000 0.238813
O O18 0.227378 0.235317 0.249722
O O19 0.666523 0.500000 0.751287
O O20 0.500000 0.224259 0.441204
O O21 0.563498 0.000000 0.440288
#
# Coordination Sequence:
#
# PCOD9374183 Si02
#       8
#     8   8   8   8   8   8   8   8
#     4  10  22  40  61  83 111 150 196 245 295 346
#     4   9  18  34  57  84 115 152 193 234 278 337
#     4  10  20  35  56  82 116 153 188 231 284 344
#     4  11  21  34  57  87 117 151 193 239 286 338
#     4  10  19  34  57  84 116 153 191 231 281 341
#     4  10  20  34  54  83 117 151 189 232 281 337
#     4  10  22  39  58  80 113 153 193 238 293 349
#     4  10  22  39  60  86 115 151 196 243 292 346
#
# _framework density 18.312709000000002
#
# number of rings (size 3 to 8) (size 9 to 14) (size 15 to 20)
#    0.000    2.000    1.250    2.250    1.750    4.750 
#    0.000    0.625    0.000    6.375    0.000    0.000 
#    0.000    0.000    0.000    0.000    0.000    0.000 
#
# Total GULP energy -178769.006630 kJ/mol
# GULP energy per Si atom -5586.531457 kJ/mol
# Density = 1.827103 g / cm^3
# Si number density = 18.312709 Si / 1000 Ang^3
#
#
#
# Elastic Constant Matrix: (Units=GPa)
#
#
# Indices 1 2 3 4 5 6 
#
# 1 120.5716 36.6579 53.3219 0.0000 0.0000 0.0000
# 2 36.6579 48.1685 39.4805 0.0000 0.0000 0.0000
# 3 53.3219 39.4805 79.7750 0.0000 0.0000 0.0000
# 4 0.0000 0.0000 0.0000 29.2100 0.0000 0.0000
# 5 0.0000 0.0000 0.0000 0.0000 25.5272 0.0000
# 6 0.0000 0.0000 0.0000 0.0000 0.0000 23.0053
#
#
#
# Elastic Compliance Matrix: (Units=1/GPa)
#
#
# Indices 1 2 3 4 5 6 
#
# 1 0.012308 -0.004415 -0.006042 0.000000 0.000000 0.000000
# 2 -0.004415 0.036512 -0.015119 0.000000 0.000000 0.000000
# 3 -0.006042 -0.015119 0.024056 0.000000 0.000000 0.000000
# 4 0.000000 0.000000 0.000000 0.034235 0.000000 0.000000
# 5 0.000000 0.000000 0.000000 0.000000 0.039174 0.000000
# 6 0.000000 0.000000 0.000000 0.000000 0.000000 0.043468
#
#
# Mechanical properties :
#
#
# Convention : Reuss Voigt Hill
#
# Bulk Modulus (GPa) = 46.02977 56.38175 51.20576
# Shear Modulus (GPa) = 20.14940 23.48548 21.81744
#
# Velocity S-wave (km/s) = 3.32067 3.58504 3.45539
# Velocity P-wave (km/s) = 6.31605 6.92762 6.62889
#
# Compressibility (1/GPa) = 0.02172507
#
# Stress axis : x y z
#
# Youngs Moduli (GPa) = 81.24773 27.38807 41.56959
#
# Poissons Ratio (x) = 0.12091 0.25116
# Poissons Ratio (y) = 0.35869 0.62849
# Poissons Ratio (z) = 0.49089 0.41408
#
# Static dielectric constant tensor:
#      x y z
#    x 1.591630 0.000000 0.000000 
#    y 0.000000 1.613310 0.000000 
#    z 0.000000 0.000000 1.648980 
# 
# From -- ./inp_files/16836.got.cif
#   From: 2010.05.17/outbox.cif.g08.bks.cpg/sg44_9_cif.got.tgz:16836.got - 2010.06.03 19:37:08.
