data_PCOD9374266
_publ_section_title
;
Structure prediction by ZEFSAII (Michael W. Deem and Ramdas Pophale) SiO2 
 PCOD9374266
Probable space group: I M M 2
;
_chemical_formula_sum "Si O2"
_cell_formula_units_Z 52
_cell_length_a 26.348329
_cell_length_b 7.755640
_cell_length_c 12.153433
_cell_angle_alpha 90.000000
_cell_angle_beta 90.000000
_cell_angle_gamma 90.000000
_cell_volume 2483.531602
_symmetry_space_group_name_H-M "I M M 2"
_symmetry_group_IT_number 44
_symmetry_cell_setting 'orthorhombic'
loop_
_space_group_symop_operation_xyz
x,y,z
-x,-y,z
-x,y,z
x,-y,z
1/2+x,1/2+y,1/2+z
1/2-x,1/2-y,1/2+z
1/2-x,1/2+y,1/2+z
1/2+x,1/2-y,1/2+z
loop_
_atom_site_type_symbol
_atom_site_label
_atom_site_fract_x
_atom_site_fract_y
_atom_site_fract_z
Si Si1 0.164869 0.313596 0.494880
Si Si2 0.161419 0.000000 0.337289
Si Si3 0.442564 0.792768 0.308082
Si Si4 0.442371 0.298089 0.052570
Si Si5 0.831790 0.694291 0.184166
Si Si6 0.656408 0.299490 0.436943
Si Si7 0.212173 0.795673 0.721856
O O1 0.183247 0.500000 0.455493
O O2 0.181186 0.152346 0.422670
O O3 0.103587 0.303103 0.498356
O O4 0.183611 0.290271 0.619932
O O5 0.142189 0.153616 0.251968
O O6 0.500000 0.753442 0.344477
O O7 0.435600 0.500000 0.022677
O O8 0.437090 0.720960 0.184268
O O9 0.399687 0.718171 0.386244
O O10 0.500000 0.245316 0.024846
O O11 0.437009 0.000000 0.302076
O O12 0.845365 0.500000 0.218091
O O13 0.771848 0.726788 0.205395
O O14 0.839736 0.709302 0.053720
O O15 0.669234 0.500000 0.455245
O O16 0.692898 0.230561 0.339883
O O17 0.200307 0.000000 0.717681
#
# Coordination Sequence:
#
# PCOD9374266 Si02
#       7
#     8   4   8   8   8   8   8
#     4  12  24  39  67  95 130 175 212 260 326 388
#     4  12  26  48  61  90 128 170 223 280 310 394
#     4  10  20  34  57  94 133 167 208 259 322 394
#     4  10  19  35  59  94 134 167 205 262 329 390
#     4  11  26  45  67  92 125 175 220 273 327 378
#     4  11  22  40  65  93 133 167 213 266 322 390
#     4  10  23  41  64  98 131 170 216 258 323 392
#
# _framework density 20.937926000000001
#
# number of rings (size 3 to 8) (size 9 to 14) (size 15 to 20)
#    0.000    1.231    3.846    1.846    3.231    2.462 
#    0.000    0.000    0.000    1.846    0.000    0.000 
#    0.000    0.000    0.000    0.000    0.000    0.000 
#
# Total GULP energy -144866.906724 kJ/mol
# GULP energy per Si atom -5571.804105 kJ/mol
# Density = 2.089027 g / cm^3
# Si number density = 20.937926 Si / 1000 Ang^3
#
#
#
# Elastic Constant Matrix: (Units=GPa)
#
#
# Indices 1 2 3 4 5 6 
#
# 1 48.0997 20.4843 -9.3964 0.0000 0.0000 0.0000
# 2 20.4843 104.4368 10.1322 0.0000 0.0000 0.0000
# 3 -9.3964 10.1322 62.0820 0.0000 0.0000 0.0000
# 4 0.0000 0.0000 0.0000 1.7470 0.0000 0.0000
# 5 0.0000 0.0000 0.0000 0.0000 0.0195 0.0000
# 6 0.0000 0.0000 0.0000 0.0000 0.0000 6.3592
#
#
#
# Elastic Compliance Matrix: (Units=1/GPa)
#
#
# Indices 1 2 3 4 5 6 
#
# 1 0.023832 -0.005105 0.004440 0.000000 0.000000 0.000000
# 2 -0.005105 0.010823 -0.002539 0.000000 0.000000 0.000000
# 3 0.004440 -0.002539 0.017194 0.000000 0.000000 0.000000
# 4 0.000000 0.000000 0.000000 0.572425 0.000000 0.000000
# 5 0.000000 0.000000 0.000000 0.000000 51.241235 0.000000
# 6 0.000000 0.000000 0.000000 0.000000 0.000000 0.157252
#
#
# Mechanical properties :
#
#
# Convention : Reuss Voigt Hill
#
# Bulk Modulus (GPa) = 22.00665 28.56208 25.28437
# Shear Modulus (GPa) = 0.09607 14.51836 7.30722
#
# Velocity S-wave (km/s) = 0.21444 2.63611 1.87017
# Velocity P-wave (km/s) = 3.25493 4.78919 4.09456
#
# Compressibility (1/GPa) = 0.04544080
#
# Stress axis : x y z
#
# Youngs Moduli (GPa) = 41.96090 92.39732 58.15925
#
# Poissons Ratio (x) = 0.47170 -0.25824
# Poissons Ratio (y) = 0.21422 0.14767
# Poissons Ratio (z) = -0.18632 0.23460
#
# Static dielectric constant tensor:
#      x y z
#    x 1.771530 0.000000 0.000000 
#    y 0.000000 1.755800 0.000000 
#    z 0.000000 0.000000 1.756690 
# 
# From -- ./inp_files/11237.got.cif
#   From: 2010.05.17/outbox.cif.g08.bks.cpg/sg44_6_cif.got.tgz:11237.got - 2010.06.03 19:37:08.
