data_PCOD9374457
_publ_section_title
;
Structure prediction by ZEFSAII (Michael W. Deem and Ramdas Pophale) SiO2 
 PCOD9374457
Probable space group: I M M 2
;
_chemical_formula_sum "Si O2"
_cell_formula_units_Z 64
_cell_length_a 8.350051
_cell_length_b 14.159495
_cell_length_c 25.070089
_cell_angle_alpha 90.000000
_cell_angle_beta 90.000000
_cell_angle_gamma 90.000000
_cell_volume 2964.099433
_symmetry_space_group_name_H-M "I M M 2"
_symmetry_group_IT_number 44
_symmetry_cell_setting 'orthorhombic'
loop_
_space_group_symop_operation_xyz
x,y,z
-x,-y,z
-x,y,z
x,-y,z
1/2+x,1/2+y,1/2+z
1/2-x,1/2-y,1/2+z
1/2-x,1/2+y,1/2+z
1/2+x,1/2-y,1/2+z
loop_
_atom_site_type_symbol
_atom_site_label
_atom_site_fract_x
_atom_site_fract_y
_atom_site_fract_z
Si Si1 0.313620 0.192779 0.123110
Si Si2 0.806640 0.609620 0.395427
Si Si3 0.308995 0.396056 0.725024
Si Si4 0.319576 0.611882 0.006880
Si Si5 0.818027 0.613255 0.895702
Si Si6 0.816442 0.759313 0.311657
Si Si7 0.691220 0.389598 0.514286
Si Si8 0.187164 0.393575 0.122903
O O1 0.500000 0.173986 0.127977
O O2 0.220508 0.124198 0.163114
O O3 0.262348 0.172620 0.062137
O O4 0.276510 0.300015 0.141903
O O5 0.765641 0.500000 0.386937
O O6 0.745683 0.673157 0.346165
O O7 0.745326 0.635898 0.454381
O O8 0.000000 0.618961 0.396704
O O9 0.500000 0.397519 0.734603
O O10 0.244703 0.500000 0.739867
O O11 0.241806 0.308376 0.759547
O O12 0.500000 0.650871 0.015244
O O13 0.338923 0.500000 0.997559
O O14 0.232602 0.647522 0.954335
O O15 0.212141 0.616009 0.059280
O O16 0.815003 0.500000 0.894126
O O17 0.693951 0.655679 0.854176
O O18 0.000000 0.643348 0.883400
O O19 0.000000 0.732832 0.298828
O O20 0.500000 0.383309 0.517086
O O21 0.738706 0.500000 0.522561
O O22 0.244691 0.500000 0.137541
O O23 0.000000 0.387485 0.136514
#
# Coordination Sequence:
#
# PCOD9374457 Si02
#       8
#     8   8   8   8   8   8   8   8
#     4  12  25  39  61  90 122 162 206 254 310 370
#     4   9  19  37  60  88 123 158 196 247 304 366
#     4  10  22  42  65  89 121 159 202 256 313 370
#     4   9  17  30  49  74 108 149 190 233 284 343
#     4  10  20  32  48  75 112 152 193 238 290 351
#     4  10  21  37  60  86 115 154 200 249 305 363
#     4  10  21  38  61  89 122 161 205 255 310 368
#     4  10  21  38  59  83 115 155 199 247 297 353
#
# _framework density 21.591718
#
# number of rings (size 3 to 8) (size 9 to 14) (size 15 to 20)
#    0.000    2.000    0.000    3.375    1.750    7.000 
#    0.000    0.625    0.000    2.250    0.000    0.000 
#    0.000    0.000    0.000    0.000    0.000    0.000 
#
# Total GULP energy -178557.463005 kJ/mol
# GULP energy per Si atom -5579.920719 kJ/mol
# Density = 2.154257 g / cm^3
# Si number density = 21.591718 Si / 1000 Ang^3
#
#
#
# Elastic Constant Matrix: (Units=GPa)
#
#
# Indices 1 2 3 4 5 6 
#
# 1 26.0873 9.9568 -4.4085 0.0000 0.0000 0.0000
# 2 9.9568 121.8390 35.3929 0.0000 0.0000 0.0000
# 3 -4.4085 35.3929 73.4997 0.0000 0.0000 0.0000
# 4 0.0000 0.0000 0.0000 -10.8035 0.0000 0.0000
# 5 0.0000 0.0000 0.0000 0.0000 19.4646 0.0000
# 6 0.0000 0.0000 0.0000 0.0000 0.0000 16.9783
#
#
#
# Elastic Compliance Matrix: (Units=1/GPa)
#
#
# Indices 1 2 3 4 5 6 
#
# 1 0.040933 -0.004718 0.004727 0.000000 0.000000 0.000000
# 2 -0.004718 0.010086 -0.005140 0.000000 0.000000 0.000000
# 3 0.004727 -0.005140 0.016364 0.000000 0.000000 0.000000
# 4 0.000000 0.000000 0.000000 -0.092562 0.000000 0.000000
# 5 0.000000 0.000000 0.000000 0.000000 0.051375 0.000000
# 6 0.000000 0.000000 0.000000 0.000000 0.000000 0.058899
#
#
# Mechanical properties :
#
#
# Convention : Reuss Voigt Hill
#
# Bulk Modulus (GPa) = 17.50673 33.70092 25.60383
# Shear Modulus (GPa) = 43.70755 17.16020 30.43388
#
# Velocity S-wave (km/s) = 4.50407 2.82220 3.75843
# Velocity P-wave (km/s) = 5.93082 5.12464 5.54241
#
# Compressibility (1/GPa) = 0.05712089
#
# Stress axis : x y z
#
# Youngs Moduli (GPa) = 24.43044 99.14525 61.10944
#
# Poissons Ratio (x) = 0.46779 -0.28887
# Poissons Ratio (y) = 0.11527 0.31410
# Poissons Ratio (z) = -0.11549 0.50960
#
# Static dielectric constant tensor:
#      x y z
#    x 1.773880 0.000000 0.000000 
#    y 0.000000 1.887970 0.000000 
#    z 0.000000 0.000000 1.763620 
# 
# From -- ./inp_files/25175.got.cif
#   From: 2010.05.17/outbox.cif.g08.bks.cpg/sg44_13_cif.got.tgz:25175.got - 2010.06.03 19:37:08.
