data_PCOD9374710
_publ_section_title
;
Structure prediction by ZEFSAII (Michael W. Deem and Ramdas Pophale) SiO2 
 PCOD9374710
Probable space group: I M M 2
;
_chemical_formula_sum "Si O2"
_cell_formula_units_Z 56
_cell_length_a 8.657207
_cell_length_b 20.313726
_cell_length_c 15.594589
_cell_angle_alpha 90.000000
_cell_angle_beta 90.000000
_cell_angle_gamma 90.000000
_cell_volume 2742.466463
_symmetry_space_group_name_H-M "I M M 2"
_symmetry_group_IT_number 44
_symmetry_cell_setting 'orthorhombic'
loop_
_space_group_symop_operation_xyz
x,y,z
-x,-y,z
-x,y,z
x,-y,z
1/2+x,1/2+y,1/2+z
1/2-x,1/2-y,1/2+z
1/2-x,1/2+y,1/2+z
1/2+x,1/2-y,1/2+z
loop_
_atom_site_type_symbol
_atom_site_label
_atom_site_fract_x
_atom_site_fract_y
_atom_site_fract_z
Si Si1 0.316411 0.243879 0.678000
Si Si2 0.818031 0.108153 0.743927
Si Si3 0.670678 0.578688 0.910408
Si Si4 0.678793 0.194611 0.333718
Si Si5 0.686143 0.781047 0.992157
Si Si6 0.332422 0.924987 0.572613
Si Si7 0.314206 0.074216 0.929113
O O1 0.500000 0.233430 0.679211
O O2 0.227819 0.183113 0.722980
O O3 0.269527 0.300509 0.744256
O O4 0.258119 0.255069 0.581280
O O5 0.721528 0.073614 0.669422
O O6 0.763189 0.085267 0.836637
O O7 0.000000 0.097494 0.734453
O O8 0.500000 0.601043 0.884272
O O9 0.676399 0.500000 0.899036
O O10 0.801244 0.619351 0.863154
O O11 0.699154 0.599188 0.009779
O O12 0.500000 0.212106 0.323073
O O13 0.750275 0.241078 0.409114
O O14 0.500000 0.774394 0.994189
O O15 0.724611 0.859337 0.982005
O O16 0.500000 0.891596 0.562929
O O17 0.350913 0.000000 0.545012
O O18 0.500000 0.075267 0.918539
O O19 0.272995 0.000000 0.960849
#
# Coordination Sequence:
#
# PCOD9374710 Si02
#       7
#     8   8   8   8   8   8   8
#     4  12  25  42  64  90 123 164 214 269 321 383
#     4  12  23  36  57  88 123 159 206 261 321 384
#     4  10  21  38  60  87 121 161 205 254 313 378
#     4  12  24  41  65  94 127 163 209 263 320 386
#     4  11  23  42  67  95 130 171 216 269 326 391
#     4  10  20  34  53  80 117 159 201 245 301 369
#     4  10  22  41  65  92 127 172 217 265 327 395
#
# _framework density 20.419575999999999
#
# number of rings (size 3 to 8) (size 9 to 14) (size 15 to 20)
#    0.000    1.000    1.429    6.429    0.000    4.286 
#    0.000    0.714    0.000    2.571    0.000    0.000 
#    0.000    0.000    0.000    0.000    0.000    0.000 
#
# Total GULP energy -156254.951854 kJ/mol
# GULP energy per Si atom -5580.533995 kJ/mol
# Density = 2.037310 g / cm^3
# Si number density = 20.419576 Si / 1000 Ang^3
#
#
#
# Elastic Constant Matrix: (Units=GPa)
#
#
# Indices 1 2 3 4 5 6 
#
# 1 84.7714 18.2988 15.9271 0.0000 0.0000 0.0000
# 2 18.2988 75.3579 7.3767 0.0000 0.0000 0.0000
# 3 15.9271 7.3767 69.2075 0.0000 0.0000 0.0000
# 4 0.0000 0.0000 0.0000 31.3168 0.0000 0.0000
# 5 0.0000 0.0000 0.0000 0.0000 33.2219 0.0000
# 6 0.0000 0.0000 0.0000 0.0000 0.0000 23.1937
#
#
#
# Elastic Compliance Matrix: (Units=1/GPa)
#
#
# Indices 1 2 3 4 5 6 
#
# 1 0.012918 -0.002876 -0.002666 0.000000 0.000000 0.000000
# 2 -0.002876 0.014050 -0.000836 0.000000 0.000000 0.000000
# 3 -0.002666 -0.000836 0.015152 0.000000 0.000000 0.000000
# 4 0.000000 0.000000 0.000000 0.031932 0.000000 0.000000
# 5 0.000000 0.000000 0.000000 0.000000 0.030101 0.000000
# 6 0.000000 0.000000 0.000000 0.000000 0.000000 0.043115
#
#
# Mechanical properties :
#
#
# Convention : Reuss Voigt Hill
#
# Bulk Modulus (GPa) = 34.05489 34.72690 34.39090
# Shear Modulus (GPa) = 29.44434 30.06211 29.75323
#
# Velocity S-wave (km/s) = 3.80144 3.84111 3.82133
# Velocity P-wave (km/s) = 5.99848 6.05936 6.02899
#
# Compressibility (1/GPa) = 0.02936436
#
# Stress axis : x y z
#
# Youngs Moduli (GPa) = 77.41027 71.17360 65.99777
#
# Poissons Ratio (x) = 0.20468 0.17598
# Poissons Ratio (y) = 0.22262 0.05516
# Poissons Ratio (z) = 0.20641 0.05948
#
# Static dielectric constant tensor:
#      x y z
#    x 1.729720 0.000000 0.000000 
#    y 0.000000 1.719580 0.000000 
#    z 0.000000 0.000000 1.709250 
# 
# From -- ./inp_files/16459.got.cif
#   From: 2010.05.17/outbox.cif.g08.bks.cpg/sg44_9_cif.got.tgz:16459.got - 2010.06.03 19:37:08.
