data_PCOD9374103
_publ_section_title
;
Structure prediction by ZEFSAII (Michael W. Deem and Ramdas Pophale) SiO2 
 PCOD9374103
Probable space group: I M M 2
;
_chemical_formula_sum "Si O2"
_cell_formula_units_Z 64
_cell_length_a 14.758014
_cell_length_b 23.282244
_cell_length_c 9.582979
_cell_angle_alpha 90.000000
_cell_angle_beta 90.000000
_cell_angle_gamma 90.000000
_cell_volume 3292.708546
_symmetry_space_group_name_H-M "I M M 2"
_symmetry_group_IT_number 44
_symmetry_cell_setting 'orthorhombic'
loop_
_space_group_symop_operation_xyz
x,y,z
-x,-y,z
-x,y,z
x,-y,z
1/2+x,1/2+y,1/2+z
1/2-x,1/2-y,1/2+z
1/2-x,1/2+y,1/2+z
1/2+x,1/2-y,1/2+z
loop_
_atom_site_type_symbol
_atom_site_label
_atom_site_fract_x
_atom_site_fract_y
_atom_site_fract_z
Si Si1 0.594725 0.820806 0.890480
Si Si2 0.686664 0.066414 0.841387
Si Si3 0.603142 0.392365 0.845927
Si Si4 0.793860 0.262772 0.624694
Si Si5 0.404924 0.721768 0.685552
Si Si6 0.388808 0.152249 0.324648
Si Si7 0.262257 0.066101 0.153826
Si Si8 0.245547 0.868540 0.572351
O O1 0.500000 0.810665 0.965052
O O2 0.607584 0.887549 0.866104
O O3 0.594721 0.785823 0.746957
O O4 0.666179 0.789588 0.985429
O O5 0.733778 0.091379 0.703810
O O6 0.660813 0.000000 0.824099
O O7 0.741967 0.071499 0.986488
O O8 0.500000 0.414626 0.853935
O O9 0.595411 0.324455 0.810576
O O10 0.666226 0.418249 0.723972
O O11 0.665194 0.396848 0.981908
O O12 0.691422 0.285916 0.619168
O O13 0.849996 0.288626 0.755697
O O14 0.788242 0.194202 0.621497
O O15 0.500000 0.712852 0.606748
O O16 0.500000 0.150259 0.333843
O O17 0.342685 0.105443 0.218783
O O18 0.333382 0.140991 0.469739
O O19 0.283673 0.000000 0.186789
#
# Coordination Sequence:
#
# PCOD9374103 Si02
#       8
#     8   8   8   8   8   8   8   8
#     4  11  21  35  61  92 123 162 215 266 316 386
#     4  11  24  42  65  90 131 181 224 269 327 395
#     4  10  20  40  66  95 127 165 217 271 331 397
#     4  12  19  37  63  92 128 171 205 272 332 391
#     4  10  19  33  57  90 122 160 207 259 322 386
#     4  11  24  41  64  96 131 170 216 270 332 401
#     4  10  22  41  65  92 122 169 228 277 323 382
#     4  11  24  39  64  97 139 170 214 270 340 398
#
# _framework density 19.436886999999999
#
# number of rings (size 3 to 8) (size 9 to 14) (size 15 to 20)
#    0.000    1.250    6.250    0.375    0.000    4.250 
#    0.000    1.875    0.000    0.750    0.000    0.000 
#    0.000    0.000    0.000    0.000    0.000    0.000 
#
# Total GULP energy -178292.401109 kJ/mol
# GULP energy per Si atom -5571.637535 kJ/mol
# Density = 1.939265 g / cm^3
# Si number density = 19.436887 Si / 1000 Ang^3
#
#
#
# Elastic Constant Matrix: (Units=GPa)
#
#
# Indices 1 2 3 4 5 6 
#
# 1 181.5696 17.7185 51.6501 0.0000 0.0000 0.0000
# 2 17.7185 94.0739 32.3194 0.0000 0.0000 0.0000
# 3 51.6501 32.3194 87.4401 -0.0001 0.0001 0.0000
# 4 0.0000 0.0000 -0.0001 26.0476 0.0000 0.0000
# 5 0.0000 0.0000 0.0001 0.0000 13.1757 0.0000
# 6 0.0000 0.0000 0.0000 0.0000 0.0000 2.0383
#
#
#
# Elastic Compliance Matrix: (Units=1/GPa)
#
#
# Indices 1 2 3 4 5 6 
#
# 1 0.006621 0.000111 -0.003952 0.000000 0.000000 0.000000
# 2 0.000111 0.012178 -0.004567 0.000000 0.000000 0.000000
# 3 -0.003952 -0.004567 0.015459 0.000000 0.000000 0.000000
# 4 0.000000 0.000000 0.000000 0.038391 0.000000 0.000000
# 5 0.000000 0.000000 0.000000 0.000000 0.075897 0.000000
# 6 0.000000 0.000000 0.000000 0.000000 0.000000 0.490593
#
#
# Mechanical properties :
#
#
# Convention : Reuss Voigt Hill
#
# Bulk Modulus (GPa) = 57.33283 62.93994 60.13638
# Shear Modulus (GPa) = 7.55551 25.67870 16.61711
#
# Velocity S-wave (km/s) = 1.97374 3.63868 2.92708
# Velocity P-wave (km/s) = 5.89535 7.07851 6.51385
#
# Compressibility (1/GPa) = 0.01744201
#
# Stress axis : x y z
#
# Youngs Moduli (GPa) = 151.03746 82.11558 64.68910
#
# Poissons Ratio (x) = -0.00908 0.25564
# Poissons Ratio (y) = -0.01671 0.29540
# Poissons Ratio (z) = 0.59687 0.37498
#
# Static dielectric constant tensor:
#      x y z
#    x 1.729780 0.000000 0.000000 
#    y 0.000000 1.710190 0.000000 
#    z 0.000000 0.000000 1.713170 
# 
# From -- ./inp_files/7586.got.cif
#   From: 2010.05.17/outbox.cif.g08.bks.cpg/sg44_4_cif.got.tgz:7586.got - 2010.06.03 19:37:08.
