data_PCOD9374532
_publ_section_title
;
Structure prediction by ZEFSAII (Michael W. Deem and Ramdas Pophale) SiO2 
 PCOD9374532
Probable space group: I M M 2
;
_chemical_formula_sum "Si O2"
_cell_formula_units_Z 64
_cell_length_a 7.598152
_cell_length_b 19.837958
_cell_length_c 21.776879
_cell_angle_alpha 90.000000
_cell_angle_beta 90.000000
_cell_angle_gamma 90.000000
_cell_volume 3282.468611
_symmetry_space_group_name_H-M "I M M 2"
_symmetry_group_IT_number 44
_symmetry_cell_setting 'orthorhombic'
loop_
_space_group_symop_operation_xyz
x,y,z
-x,-y,z
-x,y,z
x,-y,z
1/2+x,1/2+y,1/2+z
1/2-x,1/2-y,1/2+z
1/2-x,1/2+y,1/2+z
1/2+x,1/2-y,1/2+z
loop_
_atom_site_type_symbol
_atom_site_label
_atom_site_fract_x
_atom_site_fract_y
_atom_site_fract_z
Si Si1 0.712633 0.925036 0.142340
Si Si2 0.714839 0.074669 0.285211
Si Si3 0.203863 0.282241 0.978181
Si Si4 0.295819 0.214655 0.725693
Si Si5 0.293267 0.790426 0.346455
Si Si6 0.706034 0.718748 0.601876
Si Si7 0.212576 0.075663 0.669335
Si Si8 0.287026 0.423954 0.026645
O O1 0.500000 0.923327 0.140949
O O2 0.766289 0.916703 0.213783
O O3 0.779573 0.861631 0.104507
O O4 0.768551 0.000000 0.122431
O O5 0.500000 0.075569 0.285653
O O6 0.780594 0.137639 0.324150
O O7 0.770092 0.000000 0.305842
O O8 0.284375 0.249716 0.039683
O O9 0.213432 0.362901 0.987152
O O10 0.000000 0.259806 0.978015
O O11 0.282196 0.266255 0.911472
O O12 0.500000 0.233513 0.729705
O O13 0.217978 0.239481 0.789642
O O14 0.216716 0.251872 0.665508
O O15 0.278787 0.135664 0.711648
O O16 0.500000 0.802301 0.358140
O O17 0.500000 0.738641 0.603249
O O18 0.265363 0.086982 0.598114
O O19 0.000000 0.077079 0.670385
O O20 0.268901 0.000000 0.686579
O O21 0.500000 0.421394 0.024213
O O22 0.233169 0.500000 0.009063
#
# Coordination Sequence:
#
# PCOD9374532 Si02
#       8
#     8   8   8   8   8   8   8   8
#     4   9  17  30  51  77  99 123 164 212 250 290
#     4   8  14  26  45  70  97 124 160 204 243 284
#     4  10  21  35  50  74 105 138 175 215 256 302
#     4  11  21  33  52  77 106 136 169 214 261 305
#     4  10  20  34  53  73 100 138 177 213 252 305
#     4  10  20  33  49  74 106 135 165 204 254 305
#     4   9  18  33  54  79 104 133 173 215 255 305
#     4   9  18  32  50  74 105 140 175 211 253 304
#
# _framework density 19.497520000000002
#
# number of rings (size 3 to 8) (size 9 to 14) (size 15 to 20)
#    0.000    2.500    2.500    1.875    0.000    2.750 
#    0.000    2.500    0.000    1.125    0.000    1.750 
#    0.000    0.000    0.000    0.000    0.000    0.000 
#
# Total GULP energy -178520.790666 kJ/mol
# GULP energy per Si atom -5578.774708 kJ/mol
# Density = 1.945314 g / cm^3
# Si number density = 19.497520 Si / 1000 Ang^3
#
#
#
# Elastic Constant Matrix: (Units=GPa)
#
#
# Indices 1 2 3 4 5 6 
#
# 1 40.0790 -9.6154 3.3002 0.0000 0.0000 0.0000
# 2 -9.6154 93.6683 59.0310 0.0000 0.0000 0.0000
# 3 3.3002 59.0310 129.4894 0.0000 0.0000 0.0000
# 4 0.0000 0.0000 0.0000 21.1582 0.0000 0.0000
# 5 0.0000 0.0000 0.0000 0.0000 0.6684 0.0000
# 6 0.0000 0.0000 0.0000 0.0000 0.0000 13.3726
#
#
#
# Elastic Compliance Matrix: (Units=1/GPa)
#
#
# Indices 1 2 3 4 5 6 
#
# 1 0.026217 0.004367 -0.002659 0.000000 0.000000 0.000000
# 2 0.004367 0.015707 -0.007272 0.000000 0.000000 0.000000
# 3 -0.002659 -0.007272 0.011105 0.000000 0.000000 0.000000
# 4 0.000000 0.000000 0.000000 0.047263 0.000000 0.000000
# 5 0.000000 0.000000 0.000000 0.000000 1.496086 0.000000
# 6 0.000000 0.000000 0.000000 0.000000 0.000000 0.074780
#
#
# Mechanical properties :
#
#
# Convention : Reuss Voigt Hill
#
# Bulk Modulus (GPa) = 23.86496 40.96314 32.41405
# Shear Modulus (GPa) = 2.94767 21.07457 12.01112
#
# Velocity S-wave (km/s) = 1.23089 3.29125 2.48469
# Velocity P-wave (km/s) = 3.77978 5.95803 4.98923
#
# Compressibility (1/GPa) = 0.04190244
#
# Stress axis : x y z
#
# Youngs Moduli (GPa) = 38.14262 63.66583 90.04613
#
# Poissons Ratio (x) = -0.27803 0.23943
# Poissons Ratio (y) = -0.16657 0.65479
# Poissons Ratio (z) = 0.10142 0.46296
#
# Static dielectric constant tensor:
#      x y z
#    x 1.732220 0.000000 0.000000 
#    y 0.000000 1.678740 0.000000 
#    z 0.000000 0.000000 1.700240 
# 
# From -- ./inp_files/20722.got.cif
#   From: 2010.05.17/outbox.cif.g08.bks.cpg/sg44_11_cif.got.tgz:20722.got - 2010.06.03 19:37:08.
