data_PCOD9374782
_publ_section_title
;
Structure prediction by ZEFSAII (Michael W. Deem and Ramdas Pophale) SiO2 
 PCOD9374782
Probable space group: I M M 2
;
_chemical_formula_sum "Si O2"
_cell_formula_units_Z 48
_cell_length_a 7.738375
_cell_length_b 17.511322
_cell_length_c 17.300726
_cell_angle_alpha 90.000000
_cell_angle_beta 90.000000
_cell_angle_gamma 90.000000
_cell_volume 2344.407131
_symmetry_space_group_name_H-M "I M M 2"
_symmetry_group_IT_number 44
_symmetry_cell_setting 'orthorhombic'
loop_
_space_group_symop_operation_xyz
x,y,z
-x,-y,z
-x,y,z
x,-y,z
1/2+x,1/2+y,1/2+z
1/2-x,1/2-y,1/2+z
1/2-x,1/2+y,1/2+z
1/2+x,1/2-y,1/2+z
loop_
_atom_site_type_symbol
_atom_site_label
_atom_site_fract_x
_atom_site_fract_y
_atom_site_fract_z
Si Si1 0.798532 0.654077 0.020960
Si Si2 0.706014 0.000000 0.778150
Si Si3 0.201242 0.179416 0.347123
Si Si4 0.787100 0.500000 0.100381
Si Si5 0.795321 0.151451 0.872105
Si Si6 0.211648 0.912090 0.197710
Si Si7 0.211710 0.176635 0.045458
O O1 0.726118 0.576869 0.057526
O O2 0.726423 0.735496 0.049320
O O3 0.000000 0.655314 0.042691
O O4 0.786454 0.656153 0.928119
O O5 0.760767 0.924014 0.823451
O O6 0.500000 0.000000 0.775302
O O7 0.767953 0.000000 0.689645
O O8 0.216838 0.270764 0.338062
O O9 0.269840 0.135352 0.272471
O O10 0.000000 0.159926 0.355338
O O11 0.000000 0.500000 0.097829
O O12 0.500000 0.335379 0.374432
O O13 0.735803 0.144663 0.961439
O O14 0.268874 0.872593 0.118239
O O15 0.000000 0.910408 0.197425
O O16 0.264790 0.000000 0.201988
O O17 0.000000 0.177078 0.046310
#
# Coordination Sequence:
#
# PCOD9374782 Si02
#       7
#     8   4   8   4   8   8   8
#     4   9  18  35  56  78 105 143 187 228 276 339
#     4  11  23  37  59  88 115 142 186 237 281 331
#     4  10  20  34  56  83 112 145 183 234 285 327
#     4   9  20  35  57  82 107 146 192 231 275 343
#     4  10  21  38  59  82 111 148 188 227 278 339
#     4   9  18  30  50  81 110 139 182 229 272 323
#     4   8  16  31  54  77 101 138 186 228 264 320
#
# _framework density 20.474259
#
# number of rings (size 3 to 8) (size 9 to 14) (size 15 to 20)
#    0.000    2.667    0.000    2.250    4.667    0.000 
#    0.000    1.667    0.000    3.000    0.000    0.000 
#    0.000    0.000    0.000    0.000    0.000    0.000 
#
# Total GULP energy -133954.650776 kJ/mol
# GULP energy per Si atom -5581.443782 kJ/mol
# Density = 2.042766 g / cm^3
# Si number density = 20.474259 Si / 1000 Ang^3
#
#
#
# Elastic Constant Matrix: (Units=GPa)
#
#
# Indices 1 2 3 4 5 6 
#
# 1 29.0044 -10.1169 -10.3718 0.0000 0.0000 0.0000
# 2 -10.1169 175.0509 127.8286 0.0000 0.0000 0.0000
# 3 -10.3718 127.8286 140.3719 0.0000 0.0000 0.0000
# 4 0.0000 0.0000 0.0000 34.2023 0.0000 0.0000
# 5 0.0000 0.0000 0.0000 0.0000 20.8031 0.0000
# 6 0.0000 0.0000 0.0000 0.0000 0.0000 12.4630
#
#
#
# Elastic Compliance Matrix: (Units=1/GPa)
#
#
# Indices 1 2 3 4 5 6 
#
# 1 0.035423 0.000406 0.002248 0.000000 0.000000 0.000000
# 2 0.000406 0.017056 -0.015502 0.000000 0.000000 0.000000
# 3 0.002248 -0.015502 0.021407 0.000000 0.000000 0.000000
# 4 0.000000 0.000000 0.000000 0.029238 0.000000 0.000000
# 5 0.000000 0.000000 0.000000 0.000000 0.048070 0.000000
# 6 0.000000 0.000000 0.000000 0.000000 0.000000 0.080237
#
#
# Mechanical properties :
#
#
# Convention : Reuss Voigt Hill
#
# Bulk Modulus (GPa) = 20.75168 62.12301 41.43734
# Shear Modulus (GPa) = 18.30216 29.29951 23.80084
#
# Velocity S-wave (km/s) = 2.99308 3.78701 3.41321
# Velocity P-wave (km/s) = 4.70130 7.03774 5.98465
#
# Compressibility (1/GPa) = 0.04818888
#
# Stress axis : x y z
#
# Youngs Moduli (GPa) = 28.23039 58.62878 46.71343
#
# Poissons Ratio (x) = -0.02379 -0.10500
# Poissons Ratio (y) = -0.01146 0.72417
# Poissons Ratio (z) = -0.06346 0.90888
#
# Static dielectric constant tensor:
#      x y z
#    x 1.782400 0.000000 0.000000 
#    y 0.000000 1.669840 0.000000 
#    z 0.000000 0.000000 1.701730 
# 
# From -- ./inp_files/16116.got.cif
#   From: 2010.05.17/outbox.cif.g08.bks.cpg/sg44_9_cif.got.tgz:16116.got - 2010.06.03 19:37:08.
