data_PCOD9374577
_publ_section_title
;
Structure prediction by ZEFSAII (Michael W. Deem and Ramdas Pophale) SiO2 
 PCOD9374577
Probable space group: I M M 2
;
_chemical_formula_sum "Si O2"
_cell_formula_units_Z 58
_cell_length_a 27.123166
_cell_length_b 7.488148
_cell_length_c 13.335235
_cell_angle_alpha 90.000000
_cell_angle_beta 90.000000
_cell_angle_gamma 90.000000
_cell_volume 2708.416649
_symmetry_space_group_name_H-M "I M M 2"
_symmetry_group_IT_number 44
_symmetry_cell_setting 'orthorhombic'
loop_
_space_group_symop_operation_xyz
x,y,z
-x,-y,z
-x,y,z
x,-y,z
1/2+x,1/2+y,1/2+z
1/2-x,1/2-y,1/2+z
1/2-x,1/2+y,1/2+z
1/2+x,1/2-y,1/2+z
loop_
_atom_site_type_symbol
_atom_site_label
_atom_site_fract_x
_atom_site_fract_y
_atom_site_fract_z
Si Si1 0.339831 0.211274 0.134830
Si Si2 0.183914 0.717378 0.412951
Si Si3 0.000000 0.000000 0.423395
Si Si4 0.446372 0.214023 0.615698
Si Si5 0.055391 0.784763 0.726439
Si Si6 0.575690 0.216710 0.845132
Si Si7 0.788313 0.792485 0.840051
Si Si8 0.888406 0.210921 0.921865
O O1 0.398135 0.240823 0.155442
O O2 0.307531 0.285645 0.226167
O O3 0.332196 0.000000 0.136609
O O4 0.322277 0.279411 0.027448
O O5 0.184770 0.500000 0.414285
O O6 0.133126 0.760390 0.357827
O O7 0.234284 0.782733 0.361953
O O8 0.042764 0.158830 0.415659
O O9 0.500000 0.281109 0.582112
O O10 0.438758 0.265361 0.730855
O O11 0.406586 0.267787 0.534242
O O12 0.446998 0.000000 0.615597
O O13 0.073082 0.721685 0.837467
O O14 0.000000 0.719795 0.701781
O O15 0.052326 0.000000 0.726336
O O16 0.568387 0.000000 0.859542
O O17 0.834179 0.712025 0.901814
O O18 0.784640 0.000000 0.869596
O O19 0.885296 0.000000 0.900978
#
# Coordination Sequence:
#
# PCOD9374577 Si02
#       8
#     8   8   2   8   8   8   8   8
#     4  10  20  36  58  85 112 147 190 236 289 347
#     4   9  20  41  63  80 113 156 189 230 295 351
#     4  12  22  40  64  90 116 162 202 240 298 346
#     4  10  20  33  51  77 113 154 191 237 294 347
#     4   9  18  35  53  77 111 152 190 237 290 342
#     4  10  22  41  60  86 123 159 197 244 294 354
#     4   9  19  39  60  80 111 154 188 236 299 346
#     4   9  18  30  52  79 108 144 192 237 289 352
#
# _framework density 21.414725000000001
#
# number of rings (size 3 to 8) (size 9 to 14) (size 15 to 20)
#    0.000    2.483    0.690    1.862    0.966    4.414 
#    4.966    0.000    0.000    0.000    0.000    0.000 
#    0.000    0.000    0.000    0.000    0.000    0.000 
#
# Total GULP energy -161529.772999 kJ/mol
# GULP energy per Si atom -5569.992172 kJ/mol
# Density = 2.136598 g / cm^3
# Si number density = 21.414725 Si / 1000 Ang^3
#
#
#
# Elastic Constant Matrix: (Units=GPa)
#
#
# Indices 1 2 3 4 5 6 
#
# 1 192.3660 13.4293 43.5127 0.0000 0.0000 0.0000
# 2 13.4293 68.8544 -5.9007 0.0000 0.0000 0.0000
# 3 43.5127 -5.9007 41.1588 0.0000 0.0000 0.0000
# 4 0.0000 0.0000 0.0000 20.0159 0.0000 0.0000
# 5 0.0000 0.0000 0.0000 0.0000 12.0461 0.0000
# 6 0.0000 0.0000 0.0000 0.0000 0.0000 15.1088
#
#
#
# Elastic Compliance Matrix: (Units=1/GPa)
#
#
# Indices 1 2 3 4 5 6 
#
# 1 0.007108 -0.002056 -0.007810 0.000000 0.000000 0.000000
# 2 -0.002056 0.015299 0.004367 0.000000 0.000000 0.000000
# 3 -0.007810 0.004367 0.033179 0.000000 0.000000 0.000000
# 4 0.000000 0.000000 0.000000 0.049960 0.000000 0.000000
# 5 0.000000 0.000000 0.000000 0.000000 0.083014 0.000000
# 6 0.000000 0.000000 0.000000 0.000000 0.000000 0.066187
#
#
# Mechanical properties :
#
#
# Convention : Reuss Voigt Hill
#
# Bulk Modulus (GPa) = 22.42766 44.94019 33.68392
# Shear Modulus (GPa) = 17.81850 26.19002 22.00426
#
# Velocity S-wave (km/s) = 2.88769 3.50092 3.20899
# Velocity P-wave (km/s) = 4.64909 6.11336 5.43080
#
# Compressibility (1/GPa) = 0.04458780
#
# Stress axis : x y z
#
# Youngs Moduli (GPa) = 140.67707 65.36566 30.13997
#
# Poissons Ratio (x) = 0.13437 0.23539
# Poissons Ratio (y) = 0.28919 -0.13161
# Poissons Ratio (z) = 1.09865 -0.28542
#
# Static dielectric constant tensor:
#      x y z
#    x 1.791350 0.000000 0.000000 
#    y 0.000000 1.816630 0.000000 
#    z 0.000000 0.000000 1.768620 
# 
# From -- ./inp_files/14883.got.cif
#   From: 2010.05.17/outbox.cif.g08.bks.cpg/sg44_8_cif.got.tgz:14883.got - 2010.06.03 19:37:08.
