data_PCOD9374032
_publ_section_title
;
Structure prediction by ZEFSAII (Michael W. Deem and Ramdas Pophale) SiO2 
 PCOD9374032
Probable space group: I M M 2
;
_chemical_formula_sum "Si O2"
_cell_formula_units_Z 64
_cell_length_a 20.832188
_cell_length_b 9.037422
_cell_length_c 19.971041
_cell_angle_alpha 90.000000
_cell_angle_beta 90.000000
_cell_angle_gamma 90.000000
_cell_volume 3759.933393
_symmetry_space_group_name_H-M "I M M 2"
_symmetry_group_IT_number 44
_symmetry_cell_setting 'orthorhombic'
loop_
_space_group_symop_operation_xyz
x,y,z
-x,-y,z
-x,y,z
x,-y,z
1/2+x,1/2+y,1/2+z
1/2-x,1/2-y,1/2+z
1/2-x,1/2+y,1/2+z
1/2+x,1/2-y,1/2+z
loop_
_atom_site_type_symbol
_atom_site_label
_atom_site_fract_x
_atom_site_fract_y
_atom_site_fract_z
Si Si1 0.113938 0.825497 0.619500
Si Si2 0.232292 0.825871 0.982820
Si Si3 0.385973 0.825484 0.979908
Si Si4 0.768752 0.326648 0.120529
Si Si5 0.187894 0.822486 0.835422
Si Si6 0.926256 0.325069 0.755853
Si Si7 0.071692 0.823258 0.343762
Si Si8 0.694209 0.322709 0.755277
O O1 0.094684 0.756668 0.548208
O O2 0.191326 0.807160 0.626227
O O3 0.082866 0.741562 0.681703
O O4 0.099622 0.000000 0.621681
O O5 0.308855 0.805023 0.972176
O O6 0.197006 0.787695 0.913856
O O7 0.222506 0.000000 0.996882
O O8 0.212834 0.731814 0.047219
O O9 0.417790 0.757913 0.914167
O O10 0.398905 0.000000 0.985504
O O11 0.782333 0.500000 0.127711
O O12 0.801551 0.235821 0.179779
O O13 0.123294 0.757300 0.804213
O O14 0.247435 0.751968 0.795549
O O15 0.189674 0.000000 0.827269
O O16 0.911805 0.500000 0.754339
O O17 0.000000 0.304798 0.776702
O O18 0.127894 0.782313 0.292254
O O19 0.000000 0.791691 0.318343
O O20 0.076799 0.000000 0.355310
O O21 0.701387 0.500000 0.756573
#
# Coordination Sequence:
#
# PCOD9374032 Si02
#       8
#     8   8   8   8   8   8   8   8
#     4  10  20  34  53  78 109 147 186 224 268 321
#     4   9  19  34  54  81 112 141 175 223 273 324
#     4  10  19  33  53  78 110 146 184 225 270 322
#     4  10  20  33  54  83 112 140 178 226 273 324
#     4  11  21  36  58  84 111 141 181 227 273 325
#     4  11  24  39  55  79 111 147 186 226 271 324
#     4  10  22  38  54  77 110 148 188 227 271 326
#     4  11  21  34  57  82 109 145 183 227 276 322
#
# _framework density 17.021578000000002
#
# number of rings (size 3 to 8) (size 9 to 14) (size 15 to 20)
#    0.000    1.750    2.500    2.250    0.000    4.750 
#    0.000    0.000    0.000    0.750    0.000    1.750 
#    0.000    0.000    0.000    0.000    0.000    0.000 
#
# Total GULP energy -178742.694379 kJ/mol
# GULP energy per Si atom -5585.709199 kJ/mol
# Density = 1.698284 g / cm^3
# Si number density = 17.021578 Si / 1000 Ang^3
#
#
#
# Elastic Constant Matrix: (Units=GPa)
#
#
# Indices 1 2 3 4 5 6 
#
# 1 81.7461 57.6730 60.3305 0.0000 0.0000 0.0000
# 2 57.6730 76.6300 63.5594 0.0000 0.0000 0.0000
# 3 60.3305 63.5594 115.9499 0.0000 0.0000 0.0000
# 4 0.0000 0.0000 0.0000 34.0721 0.0000 0.0000
# 5 0.0000 0.0000 0.0000 0.0000 17.5534 0.0000
# 6 0.0000 0.0000 0.0000 0.0000 0.0000 -13.5025
#
#
#
# Elastic Compliance Matrix: (Units=1/GPa)
#
#
# Indices 1 2 3 4 5 6 
#
# 1 0.027877 -0.016412 -0.005509 0.000000 0.000000 0.000000
# 2 -0.016412 0.033592 -0.009874 0.000000 0.000000 0.000000
# 3 -0.005509 -0.009874 0.016903 0.000000 0.000000 0.000000
# 4 0.000000 0.000000 0.000000 0.029350 0.000000 0.000000
# 5 0.000000 0.000000 0.000000 0.000000 0.056969 0.000000
# 6 0.000000 0.000000 0.000000 0.000000 0.000000 -0.074060
#
#
# Mechanical properties :
#
#
# Convention : Reuss Voigt Hill
#
# Bulk Modulus (GPa) = 67.64677 70.82799 69.23738
# Shear Modulus (GPa) = 31.41736 13.80881 22.61308
#
# Velocity S-wave (km/s) = 4.30087 2.85134 3.64881
# Velocity P-wave (km/s) = 8.03065 7.24853 7.64959
#
# Compressibility (1/GPa) = 0.01478267
#
# Stress axis : x y z
#
# Youngs Moduli (GPa) = 35.87149 29.76927 59.15978
#
# Poissons Ratio (x) = 0.48857 0.32589
# Poissons Ratio (y) = 0.58872 0.58416
# Poissons Ratio (z) = 0.19760 0.29395
#
# Static dielectric constant tensor:
#      x y z
#    x 1.572020 0.000000 0.000000 
#    y 0.000000 1.564130 0.000000 
#    z 0.000000 0.000000 1.552800 
# 
# From -- ./inp_files/20776.got.cif
#   From: 2010.05.17/outbox.cif.g08.bks.cpg/sg44_11_cif.got.tgz:20776.got - 2010.06.03 19:37:08.
