data_PCOD9374676
_publ_section_title
;
Structure prediction by ZEFSAII (Michael W. Deem and Ramdas Pophale) SiO2 
 PCOD9374676
Probable space group: I M M 2
;
_chemical_formula_sum "Si O2"
_cell_formula_units_Z 64
_cell_length_a 29.159033
_cell_length_b 7.939828
_cell_length_c 13.272326
_cell_angle_alpha 90.000000
_cell_angle_beta 90.000000
_cell_angle_gamma 90.000000
_cell_volume 3072.778478
_symmetry_space_group_name_H-M "I M M 2"
_symmetry_group_IT_number 44
_symmetry_cell_setting 'orthorhombic'
loop_
_space_group_symop_operation_xyz
x,y,z
-x,-y,z
-x,y,z
x,-y,z
1/2+x,1/2+y,1/2+z
1/2-x,1/2-y,1/2+z
1/2-x,1/2+y,1/2+z
1/2+x,1/2-y,1/2+z
loop_
_atom_site_type_symbol
_atom_site_label
_atom_site_fract_x
_atom_site_fract_y
_atom_site_fract_z
Si Si1 0.306634 0.691251 0.390710
Si Si2 0.945216 0.699228 0.885219
Si Si3 0.724572 0.703311 0.012991
Si Si4 0.120434 0.198648 0.487715
Si Si5 0.552342 0.201240 0.163918
Si Si6 0.142888 0.301468 0.272204
Si Si7 0.254711 0.794710 0.735096
Si Si8 0.622335 0.696010 0.549908
O O1 0.323517 0.500000 0.375979
O O2 0.255149 0.696318 0.434236
O O3 0.292965 0.771200 0.284628
O O4 0.339194 0.772439 0.473926
O O5 0.934506 0.500000 0.893729
O O6 0.929530 0.762571 0.773921
O O7 0.922733 0.786349 0.981537
O O8 0.000000 0.717666 0.885749
O O9 0.726493 0.500000 0.993471
O O10 0.749204 0.738168 0.117840
O O11 0.671985 0.758811 0.012459
O O12 0.083687 0.266425 0.567200
O O13 0.115009 0.233174 0.368178
O O14 0.120246 0.000000 0.502512
O O15 0.500000 0.264905 0.149290
O O16 0.549251 0.000000 0.176078
O O17 0.146729 0.500000 0.287827
O O18 0.195207 0.229990 0.269310
O O19 0.121920 0.273048 0.161102
O O20 0.254049 0.000000 0.744967
O O21 0.633515 0.500000 0.565992
#
# Coordination Sequence:
#
# PCOD9374676 Si02
#       8
#     8   8   8   8   8   8   8   8
#     4  10  20  34  52  76 110 149 191 234 277 330
#     4   9  20  41  66  89 115 148 188 233 282 345
#     4  10  20  34  52  76 110 149 191 234 277 330
#     4  11  23  36  57  88 121 151 189 242 295 343
#     4   9  20  41  66  89 115 148 188 233 282 345
#     4  11  21  37  60  78 111 162 204 238 279 339
#     4   9  18  33  51  72 105 150 193 232 275 325
#     4  11  23  36  57  88 121 151 189 242 295 343
#
# _framework density 20.828054999999999
#
# number of rings (size 3 to 8) (size 9 to 14) (size 15 to 20)
#    0.000    2.000    2.500    1.875    1.750    2.000 
#    0.000    2.500    0.000    3.750    0.000    0.000 
#    0.000    0.000    0.000    0.000    0.000    0.000 
#
# Total GULP energy -178351.181980 kJ/mol
# GULP energy per Si atom -5573.474437 kJ/mol
# Density = 2.078065 g / cm^3
# Si number density = 20.828055 Si / 1000 Ang^3
#
#
#
# Elastic Constant Matrix: (Units=GPa)
#
#
# Indices 1 2 3 4 5 6 
#
# 1 44.5717 -0.2841 16.1917 0.0000 0.0000 0.0000
# 2 -0.2841 20.3508 -8.4000 0.0000 0.0000 0.0000
# 3 16.1917 -8.4000 84.5945 0.0000 0.0000 0.0000
# 4 0.0000 0.0000 0.0000 15.3735 0.0000 0.0000
# 5 0.0000 0.0000 0.0000 0.0000 36.2832 0.0000
# 6 0.0000 0.0000 0.0000 0.0000 0.0000 18.8351
#
#
#
# Elastic Compliance Matrix: (Units=1/GPa)
#
#
# Indices 1 2 3 4 5 6 
#
# 1 0.024165 -0.001639 -0.004788 0.000000 0.000000 0.000000
# 2 -0.001639 0.051349 0.005413 0.000000 0.000000 0.000000
# 3 -0.004788 0.005413 0.013275 0.000000 0.000000 0.000000
# 4 0.000000 0.000000 0.000000 0.065047 0.000000 0.000000
# 5 0.000000 0.000000 0.000000 0.000000 0.027561 0.000000
# 6 0.000000 0.000000 0.000000 0.000000 0.000000 0.053092
#
#
# Mechanical properties :
#
#
# Convention : Reuss Voigt Hill
#
# Bulk Modulus (GPa) = 11.52601 18.28138 14.90369
# Shear Modulus (GPa) = 18.83679 23.56566 21.20122
#
# Velocity S-wave (km/s) = 3.01058 3.36733 3.19394
# Velocity P-wave (km/s) = 4.19889 4.89029 4.55772
#
# Compressibility (1/GPa) = 0.08676029
#
# Stress axis : x y z
#
# Youngs Moduli (GPa) = 41.38281 19.47441 75.32970
#
# Poissons Ratio (x) = 0.03192 0.36067
# Poissons Ratio (y) = 0.06782 -0.40772
# Poissons Ratio (z) = 0.19814 -0.10541
#
# Static dielectric constant tensor:
#      x y z
#    x 1.772080 0.000000 0.000000 
#    y 0.000000 1.748760 0.000000 
#    z 0.000000 0.000000 1.800720 
# 
# From -- ./inp_files/15117.got.cif
#   From: 2010.05.17/outbox.cif.g08.bks.cpg/sg44_8_cif.got.tgz:15117.got - 2010.06.03 19:37:08.
