data_PCOD9374491
_publ_section_title
;
Structure prediction by ZEFSAII (Michael W. Deem and Ramdas Pophale) SiO2 
 PCOD9374491
Probable space group: I M M 2
;
_chemical_formula_sum "Si O2"
_cell_formula_units_Z 58
_cell_length_a 7.578252
_cell_length_b 22.489625
_cell_length_c 14.607060
_cell_angle_alpha 90.000000
_cell_angle_beta 90.000000
_cell_angle_gamma 90.000000
_cell_volume 2489.511117
_symmetry_space_group_name_H-M "I M M 2"
_symmetry_group_IT_number 44
_symmetry_cell_setting 'orthorhombic'
loop_
_space_group_symop_operation_xyz
x,y,z
-x,-y,z
-x,y,z
x,-y,z
1/2+x,1/2+y,1/2+z
1/2-x,1/2-y,1/2+z
1/2-x,1/2+y,1/2+z
1/2+x,1/2-y,1/2+z
loop_
_atom_site_type_symbol
_atom_site_label
_atom_site_fract_x
_atom_site_fract_y
_atom_site_fract_z
Si Si1 0.216209 0.754159 0.685640
Si Si2 0.201657 0.412343 0.491736
Si Si3 0.709588 0.634548 0.065280
Si Si4 0.287746 0.932386 0.383288
Si Si5 0.800669 0.823540 0.856088
Si Si6 0.714657 0.119075 0.189847
Si Si7 0.500000 0.500000 0.427934
Si Si8 0.704651 0.934272 0.736219
O O1 0.272066 0.802240 0.608340
O O2 0.275803 0.774494 0.787469
O O3 0.273908 0.686712 0.674088
O O4 0.000000 0.755364 0.686688
O O5 0.206991 0.346162 0.447544
O O6 0.257956 0.415392 0.597195
O O7 0.344625 0.449361 0.437468
O O8 0.000000 0.432779 0.483913
O O9 0.500000 0.633322 0.078154
O O10 0.788743 0.583110 0.129856
O O11 0.745806 0.615803 0.961535
O O12 0.500000 0.935351 0.378558
O O13 0.223359 0.910171 0.283962
O O14 0.224642 0.000000 0.403515
O O15 0.797717 0.880290 0.787168
O O16 0.000000 0.807051 0.879948
O O17 0.500000 0.120426 0.193608
O O18 0.500000 0.934451 0.765847
O O19 0.781716 0.000000 0.750290
#
# Coordination Sequence:
#
# PCOD9374491 Si02
#       8
#     8   8   8   8   8   8   2   8
#     4   8  17  36  62  87 124 161 203 258 316 373
#     4  11  24  42  66  92 127 171 217 260 325 385
#     4  10  20  35  55  84 116 155 194 246 311 368
#     4  10  21  37  58  84 117 154 200 249 302 368
#     4  10  20  36  57  89 127 164 201 257 315 376
#     4   9  20  40  64  89 115 163 212 259 319 377
#     4  12  26  44  64  94 132 166 210 276 318 386
#     4  10  20  32  51  78 112 154 203 251 303 369
#
# _framework density 23.297747999999999
#
# number of rings (size 3 to 8) (size 9 to 14) (size 15 to 20)
#    0.000    2.207    0.690    2.690    1.931    4.138 
#    1.241    0.000    9.103    0.000    0.000    0.000 
#    0.000    0.000    0.000    0.000    0.000    0.000 
#
# Total GULP energy -161694.216223 kJ/mol
# GULP energy per Si atom -5575.662628 kJ/mol
# Density = 2.324472 g / cm^3
# Si number density = 23.297748 Si / 1000 Ang^3
#
#
#
# Elastic Constant Matrix: (Units=GPa)
#
#
# Indices 1 2 3 4 5 6 
#
# 1 78.4351 5.1437 -3.4591 0.0000 0.0000 0.0000
# 2 5.1437 57.3205 -0.0947 0.0000 0.0000 0.0000
# 3 -3.4591 -0.0947 121.1379 0.0000 0.0000 -0.0002
# 4 0.0000 0.0000 0.0000 7.8331 0.0000 0.0001
# 5 0.0000 0.0000 0.0000 0.0000 15.5478 0.0000
# 6 0.0000 0.0000 -0.0002 0.0001 0.0000 -64.4472
#
#
#
# Elastic Compliance Matrix: (Units=1/GPa)
#
#
# Indices 1 2 3 4 5 6 
#
# 1 0.012841 -0.001152 0.000366 0.000000 0.000000 0.000000
# 2 -0.001152 0.017549 -0.000019 0.000000 0.000000 0.000000
# 3 0.000366 -0.000019 0.008265 0.000000 0.000000 0.000000
# 4 0.000000 0.000000 0.000000 0.127663 0.000000 0.000000
# 5 0.000000 0.000000 0.000000 0.000000 0.064318 0.000000
# 6 0.000000 0.000000 0.000000 0.000000 0.000000 -0.015517
#
#
# Mechanical properties :
#
#
# Convention : Reuss Voigt Hill
#
# Bulk Modulus (GPa) = 26.99388 28.89704 27.94546
# Shear Modulus (GPa) = 21.82659 8.80700 15.31680
#
# Velocity S-wave (km/s) = 3.06413 1.94638 2.56683
# Velocity P-wave (km/s) = 4.91224 4.18109 4.56134
#
# Compressibility (1/GPa) = 0.03704543
#
# Stress axis : x y z
#
# Youngs Moduli (GPa) = 77.87522 56.98307 120.98505
#
# Poissons Ratio (x) = 0.06563 -0.04425
# Poissons Ratio (y) = 0.08969 0.00232
# Poissons Ratio (z) = -0.02848 0.00109
#
# Static dielectric constant tensor:
#      x y z
#    x 1.904340 0.000000 0.000000 
#    y 0.000000 2.080380 0.000000 
#    z 0.000000 0.000000 1.897030 
# 
# From -- ./inp_files/16723.got.cif
#   From: 2010.05.17/outbox.cif.g08.bks.cpg/sg44_9_cif.got.tgz:16723.got - 2010.06.03 19:37:08.
