data_PCOD9374667
_publ_section_title
;
Structure prediction by ZEFSAII (Michael W. Deem and Ramdas Pophale) SiO2 
 PCOD9374667
Probable space group: I M M 2
;
_chemical_formula_sum "Si O2"
_cell_formula_units_Z 64
_cell_length_a 14.774762
_cell_length_b 8.900971
_cell_length_c 28.533855
_cell_angle_alpha 90.000000
_cell_angle_beta 90.000000
_cell_angle_gamma 90.000000
_cell_volume 3752.479513
_symmetry_space_group_name_H-M "I M M 2"
_symmetry_group_IT_number 44
_symmetry_cell_setting 'orthorhombic'
loop_
_space_group_symop_operation_xyz
x,y,z
-x,-y,z
-x,y,z
x,-y,z
1/2+x,1/2+y,1/2+z
1/2-x,1/2-y,1/2+z
1/2-x,1/2+y,1/2+z
1/2+x,1/2-y,1/2+z
loop_
_atom_site_type_symbol
_atom_site_label
_atom_site_fract_x
_atom_site_fract_y
_atom_site_fract_z
Si Si1 0.103941 0.319722 0.248750
Si Si2 0.105590 0.821033 0.871881
Si Si3 0.102904 0.182405 0.412382
Si Si4 0.220817 0.178452 0.057823
Si Si5 0.607879 0.823116 0.473263
Si Si6 0.895583 0.679872 0.138589
Si Si7 0.729143 0.680265 0.826698
Si Si8 0.605591 0.680703 0.019551
O O1 0.111011 0.500000 0.254763
O O2 0.117974 0.287815 0.193635
O O3 0.175196 0.237663 0.281617
O O4 0.000000 0.276407 0.260606
O O5 0.126738 0.749123 0.922662
O O6 0.172267 0.750230 0.833873
O O7 0.000000 0.789103 0.862126
O O8 0.117444 0.000000 0.874292
O O9 0.171182 0.231267 0.372302
O O10 0.125812 0.226910 0.465537
O O11 0.000000 0.231396 0.402159
O O12 0.102659 0.000000 0.412277
O O13 0.172710 0.235842 0.104829
O O14 0.322452 0.240349 0.052608
O O15 0.219771 0.000000 0.055547
O O16 0.163983 0.246098 0.014332
O O17 0.500000 0.807482 0.482149
O O18 0.629956 0.000000 0.471652
O O19 0.886168 0.500000 0.132069
O O20 0.000000 0.718522 0.126837
O O21 0.734034 0.500000 0.826663
O O22 0.500000 0.715156 0.028635
O O23 0.615850 0.500000 0.022416
#
# Coordination Sequence:
#
# PCOD9374667 Si02
#       8
#     8   8   8   8   8   8   8   8
#     4   9  19  36  56  78 105 135 167 207 256 307
#     4  10  21  36  52  72 102 138 176 219 261 299
#     4   8  15  28  46  71 101 131 165 202 238 282
#     4  12  23  32  49  77 107 137 169 210 260 311
#     4  10  20  34  52  74 103 139 177 214 252 301
#     4   9  19  37  58  77 100 133 171 210 254 306
#     4  11  20  30  51  79 106 138 172 206 250 306
#     4   9  18  34  54  72  96 136 181 217 247 288
#
# _framework density 17.055389000000002
#
# number of rings (size 3 to 8) (size 9 to 14) (size 15 to 20)
#    0.000    2.250    0.000    5.250    0.000    5.750 
#    0.000    1.875    0.000    2.250    0.000    5.250 
#    0.000    0.000    0.000    0.000    0.000    0.000 
#
# Total GULP energy -178663.552125 kJ/mol
# GULP energy per Si atom -5583.236004 kJ/mol
# Density = 1.701657 g / cm^3
# Si number density = 17.055389 Si / 1000 Ang^3
#
#
#
# Elastic Constant Matrix: (Units=GPa)
#
#
# Indices 1 2 3 4 5 6 
#
# 1 104.6463 64.2787 74.7330 0.0000 0.0000 0.0000
# 2 64.2787 69.1004 52.2941 0.0000 0.0000 0.0000
# 3 74.7330 52.2941 76.9129 0.0000 0.0000 0.0000
# 4 0.0000 0.0000 0.0000 27.2163 0.0000 0.0000
# 5 0.0000 0.0000 0.0000 0.0000 32.6646 0.0000
# 6 0.0000 0.0000 0.0000 0.0000 0.0000 20.8775
#
#
#
# Elastic Compliance Matrix: (Units=1/GPa)
#
#
# Indices 1 2 3 4 5 6 
#
# 1 0.037558 -0.015078 -0.026242 0.000000 0.000000 0.000000
# 2 -0.015078 0.035864 -0.009734 0.000000 0.000000 0.000000
# 3 -0.026242 -0.009734 0.045118 0.000000 0.000000 0.000000
# 4 0.000000 0.000000 0.000000 0.036743 0.000000 0.000000
# 5 0.000000 0.000000 0.000000 0.000000 0.030614 0.000000
# 6 0.000000 0.000000 0.000000 0.000000 0.000000 0.047899
#
#
# Mechanical properties :
#
#
# Convention : Reuss Voigt Hill
#
# Bulk Modulus (GPa) = 60.85403 70.36346 65.60875
# Shear Modulus (GPa) = 14.64636 20.10858 17.37747
#
# Velocity S-wave (km/s) = 2.93363 3.43741 3.19546
# Velocity P-wave (km/s) = 6.87260 7.55644 7.22262
#
# Compressibility (1/GPa) = 0.01643276
#
# Stress axis : x y z
#
# Youngs Moduli (GPa) = 26.62514 27.88316 22.16393
#
# Poissons Ratio (x) = 0.42042 0.58163
# Poissons Ratio (y) = 0.40145 0.21574
# Poissons Ratio (z) = 0.69870 0.27141
#
# Static dielectric constant tensor:
#      x y z
#    x 1.586930 0.000000 0.000000 
#    y 0.000000 1.563200 0.000000 
#    z 0.000000 0.000000 1.556460 
# 
# From -- ./inp_files/25789.got.cif
#   From: 2010.05.17/outbox.cif.g08.bks.cpg/sg44_13_cif.got.tgz:25789.got - 2010.06.03 19:37:08.
