data_PCOD9374586
_publ_section_title
;
Structure prediction by ZEFSAII (Michael W. Deem and Ramdas Pophale) SiO2 
 PCOD9374586
Probable space group: I M M 2
;
_chemical_formula_sum "Si O2"
_cell_formula_units_Z 64
_cell_length_a 13.522664
_cell_length_b 17.207932
_cell_length_c 14.012493
_cell_angle_alpha 90.000000
_cell_angle_beta 90.000000
_cell_angle_gamma 90.000000
_cell_volume 3260.666241
_symmetry_space_group_name_H-M "I M M 2"
_symmetry_group_IT_number 44
_symmetry_cell_setting 'orthorhombic'
loop_
_space_group_symop_operation_xyz
x,y,z
-x,-y,z
-x,y,z
x,-y,z
1/2+x,1/2+y,1/2+z
1/2-x,1/2-y,1/2+z
1/2-x,1/2+y,1/2+z
1/2+x,1/2-y,1/2+z
loop_
_atom_site_type_symbol
_atom_site_label
_atom_site_fract_x
_atom_site_fract_y
_atom_site_fract_z
Si Si1 0.808703 0.867537 0.192400
Si Si2 0.750461 0.298213 0.239991
Si Si3 0.112405 0.170803 0.579780
Si Si4 0.609750 0.625468 0.492960
Si Si5 0.785113 0.090371 0.406153
Si Si6 0.189428 0.414815 0.392320
Si Si7 0.114939 0.285199 0.893653
Si Si8 0.108698 0.642108 0.588058
O O1 0.812782 0.773869 0.200455
O O2 0.875772 0.893286 0.104233
O O3 0.823790 0.901044 0.297292
O O4 0.696549 0.884827 0.156837
O O5 0.695293 0.347441 0.158944
O O6 0.813868 0.350041 0.311368
O O7 0.662438 0.257227 0.301329
O O8 0.140745 0.130163 0.481107
O O9 0.117963 0.264880 0.572335
O O10 0.000000 0.151060 0.608041
O O11 0.500000 0.604364 0.460245
O O12 0.698035 0.588234 0.432920
O O13 0.622115 0.718506 0.474989
O O14 0.684489 0.141238 0.412584
O O15 0.770466 0.000000 0.427813
O O16 0.166382 0.500000 0.355488
O O17 0.124322 0.395355 0.484602
O O18 0.000000 0.303948 0.879368
O O19 0.000000 0.625085 0.626383
#
# Coordination Sequence:
#
# PCOD9374586 Si02
#       8
#     8   8   8   8   8   8   8   8
#     4   9  18  33  53  76 102 134 175 216 254 300
#     4   9  17  33  55  78 102 132 170 217 260 303
#     4  10  20  36  57  77  99 135 184 227 257 293
#     4   9  18  34  56  77  97 128 171 215 256 300
#     4  11  23  35  48  73 110 144 172 207 255 309
#     4  10  20  33  51  80 114 138 159 200 263 325
#     4   9  17  33  57  80  99 124 166 217 263 308
#     4   9  18  35  60  84 103 130 172 219 263 308
#
# _framework density 19.627890000000001
#
# number of rings (size 3 to 8) (size 9 to 14) (size 15 to 20)
#    0.000    2.500    0.000    4.125    0.000    7.500 
#    0.000    0.625    0.000    0.750    0.000    1.750 
#    0.000    0.000    0.000    0.000    0.000    0.000 
#
# Total GULP energy -178539.699382 kJ/mol
# GULP energy per Si atom -5579.365606 kJ/mol
# Density = 1.958322 g / cm^3
# Si number density = 19.627890 Si / 1000 Ang^3
#
#
#
# Elastic Constant Matrix: (Units=GPa)
#
#
# Indices 1 2 3 4 5 6 
#
# 1 14.2843 1.6679 -2.2625 0.0000 0.0000 0.0000
# 2 1.6679 40.3440 -1.1654 0.0000 0.0000 0.0000
# 3 -2.2625 -1.1654 52.1779 -0.0001 0.0000 0.0000
# 4 0.0000 0.0000 -0.0001 0.0306 0.0000 0.0000
# 5 0.0000 0.0000 0.0000 0.0000 10.6141 0.0000
# 6 0.0000 0.0000 0.0000 0.0000 0.0000 6.0453
#
#
#
# Elastic Compliance Matrix: (Units=1/GPa)
#
#
# Indices 1 2 3 4 5 6 
#
# 1 0.070815 -0.002841 0.003007 0.000028 0.000000 0.000000
# 2 -0.002841 0.024917 0.000433 0.000023 0.000000 0.000000
# 3 0.003007 0.000433 0.019305 0.000038 0.000000 0.000000
# 4 0.000028 0.000023 0.000038 32.655742 -0.000004 -0.000003
# 5 0.000000 0.000000 0.000000 -0.000004 0.094215 0.000000
# 6 0.000000 0.000000 0.000000 -0.000003 0.000000 0.165417
#
#
# Mechanical properties :
#
#
# Convention : Reuss Voigt Hill
#
# Bulk Modulus (GPa) = 8.60316 11.47625 10.03970
# Shear Modulus (GPa) = 0.15120 10.57575 5.36348
#
# Velocity S-wave (km/s) = 0.27785 2.32375 1.65485
# Velocity P-wave (km/s) = 2.12028 3.61377 2.96268
#
# Compressibility (1/GPa) = 0.11623641
#
# Stress axis : x y z
#
# Youngs Moduli (GPa) = 14.12133 40.13353 51.79934
#
# Poissons Ratio (x) = 0.11401 -0.15577
# Poissons Ratio (y) = 0.04012 -0.02245
# Poissons Ratio (z) = -0.04247 -0.01739
#
# Static dielectric constant tensor:
#      x y z
#    x 1.680740 0.000000 0.000000 
#    y 0.000000 1.702230 0.000000 
#    z 0.000000 0.000000 1.705940 
# 
# From -- ./inp_files/18606.got.cif
#   From: 2010.05.17/outbox.cif.g08.bks.cpg/sg44_10_cif.got.tgz:18606.got - 2010.06.03 19:37:08.
