data_PCOD9374908
_publ_section_title
;
Structure prediction by ZEFSAII (Michael W. Deem and Ramdas Pophale) SiO2 
 PCOD9374908
Probable space group: I M M 2
;
_chemical_formula_sum "Si O2"
_cell_formula_units_Z 56
_cell_length_a 8.806693
_cell_length_b 14.307551
_cell_length_c 23.405013
_cell_angle_alpha 90.000000
_cell_angle_beta 90.000000
_cell_angle_gamma 90.000000
_cell_volume 2949.083345
_symmetry_space_group_name_H-M "I M M 2"
_symmetry_group_IT_number 44
_symmetry_cell_setting 'orthorhombic'
loop_
_space_group_symop_operation_xyz
x,y,z
-x,-y,z
-x,y,z
x,-y,z
1/2+x,1/2+y,1/2+z
1/2-x,1/2-y,1/2+z
1/2-x,1/2+y,1/2+z
1/2+x,1/2-y,1/2+z
loop_
_atom_site_type_symbol
_atom_site_label
_atom_site_fract_x
_atom_site_fract_y
_atom_site_fract_z
Si Si1 0.819032 0.212882 0.324390
Si Si2 0.817756 0.610045 0.934123
Si Si3 0.181345 0.108795 0.777371
Si Si4 0.822815 0.388174 0.715121
Si Si5 0.319032 0.287118 0.043857
Si Si6 0.822815 0.388174 0.153126
Si Si7 0.181345 0.108795 0.090876
O O1 0.749250 0.159396 0.378243
O O2 0.759080 0.318877 0.320083
O O3 0.759602 0.162672 0.266956
O O4 0.000000 0.210602 0.326581
O O5 0.779346 0.500000 0.934123
O O6 0.000000 0.618374 0.934124
O O7 0.750749 0.659396 0.990004
O O8 0.243619 0.130231 0.713780
O O9 0.000000 0.120421 0.778248
O O10 0.216686 0.000000 0.789258
O O11 0.816461 0.500000 0.724591
O O12 0.743619 0.369769 0.654467
O O13 0.000000 0.360348 0.712669
O O14 0.500000 0.289398 0.041667
O O15 0.259602 0.337328 0.101290
O O16 0.259080 0.181123 0.048164
O O17 0.816461 0.500000 0.143655
O O18 0.000000 0.360348 0.155578
O O19 0.000000 0.120421 0.089999
O O20 0.216686 0.000000 0.078989
#
# Coordination Sequence:
#
# PCOD9374908 Si02
#       7
#     8   8   8   8   8   8   8
#     4  12  24  38  59  86 118 154 192 237 288 344
#     4  11  25  45  66  87 114 149 191 238 284 335
#     4  10  21  38  60  86 117 153 194 240 288 340
#     4  10  20  35  57  86 120 156 194 238 288 342
#     4  12  24  38  59  86 118 154 192 237 288 344
#     4  10  20  35  57  86 120 156 194 238 288 342
#     4  10  21  38  60  86 117 153 194 240 288 340
#
# _framework density 18.988952000000001
#
# number of rings (size 3 to 8) (size 9 to 14) (size 15 to 20)
#    0.000    1.286    0.000    6.429    0.000    8.000 
#    0.000    0.714    0.000    4.286    0.000    0.000 
#    0.000    0.000    0.000    0.000    0.000    0.000 
#
# Total GULP energy -156664.729121 kJ/mol
# GULP energy per Si atom -5595.168897 kJ/mol
# Density = 1.894573 g / cm^3
# Si number density = 18.988952 Si / 1000 Ang^3
#
#
#
# Elastic Constant Matrix: (Units=GPa)
#
#
# Indices 1 2 3 4 5 6 
#
# 1 144.3803 85.0705 68.5628 0.0000 0.0000 0.0000
# 2 85.0705 135.1499 97.6734 0.0000 0.0000 0.0000
# 3 68.5628 97.6734 94.2210 0.0000 0.0000 0.0000
# 4 0.0000 0.0000 0.0000 31.9048 0.0000 0.0000
# 5 0.0000 0.0000 0.0000 0.0000 34.8999 0.0000
# 6 0.0000 0.0000 0.0000 0.0000 0.0000 30.1464
#
#
#
# Elastic Compliance Matrix: (Units=1/GPa)
#
#
# Indices 1 2 3 4 5 6 
#
# 1 0.011273 -0.004654 -0.003378 0.000000 0.000000 0.000000
# 2 -0.004654 0.031422 -0.029187 0.000000 0.000000 0.000000
# 3 -0.003378 -0.029187 0.043328 0.000000 0.000000 0.000000
# 4 0.000000 0.000000 0.000000 0.031343 0.000000 0.000000
# 5 0.000000 0.000000 0.000000 0.000000 0.028653 0.000000
# 6 0.000000 0.000000 0.000000 0.000000 0.000000 0.033171
#
#
# Mechanical properties :
#
#
# Convention : Reuss Voigt Hill
#
# Bulk Modulus (GPa) = 86.32323 97.37384 91.84853
# Shear Modulus (GPa) = 19.41819 27.55320 23.48569
#
# Velocity S-wave (km/s) = 3.20129 3.81335 3.52064
# Velocity P-wave (km/s) = 7.69563 8.41305 8.06232
#
# Compressibility (1/GPa) = 0.01158437
#
# Stress axis : x y z
#
# Youngs Moduli (GPa) = 88.71006 31.82462 23.07986
#
# Poissons Ratio (x) = 0.14812 0.07797
# Poissons Ratio (y) = 0.41287 0.67363
# Poissons Ratio (z) = 0.29968 0.92886
#
# Static dielectric constant tensor:
#      x y z
#    x 1.629250 0.000000 0.000000 
#    y 0.000000 1.685240 0.000000 
#    z 0.000000 0.000000 1.615050 
# 
# From -- ./inp_files/23025.got.cif
#   From: 2010.05.17/outbox.cif.g08.bks.cpg/sg44_12_cif.got.tgz:23025.got - 2010.06.03 19:37:08.
