data_PCOD9374746
_publ_section_title
;
Structure prediction by ZEFSAII (Michael W. Deem and Ramdas Pophale) SiO2 
 PCOD9374746
Probable space group: I M M 2
;
_chemical_formula_sum "Si O2"
_cell_formula_units_Z 58
_cell_length_a 23.685244
_cell_length_b 7.407798
_cell_length_c 15.476371
_cell_angle_alpha 90.000000
_cell_angle_beta 90.000000
_cell_angle_gamma 90.000000
_cell_volume 2715.414460
_symmetry_space_group_name_H-M "I M M 2"
_symmetry_group_IT_number 44
_symmetry_cell_setting 'orthorhombic'
loop_
_space_group_symop_operation_xyz
x,y,z
-x,-y,z
-x,y,z
x,-y,z
1/2+x,1/2+y,1/2+z
1/2-x,1/2-y,1/2+z
1/2-x,1/2+y,1/2+z
1/2+x,1/2-y,1/2+z
loop_
_atom_site_type_symbol
_atom_site_label
_atom_site_fract_x
_atom_site_fract_y
_atom_site_fract_z
Si Si1 0.401510 0.290523 0.198090
Si Si2 0.500000 0.000000 0.238481
Si Si3 0.937916 0.780042 0.165223
Si Si4 0.856600 0.218523 0.510922
Si Si5 0.682633 0.277956 0.597669
Si Si6 0.774742 0.292873 0.740003
Si Si7 0.739640 0.295145 0.432692
Si Si8 0.561527 0.719135 0.863739
O O1 0.420245 0.500000 0.198468
O O2 0.449269 0.158531 0.234963
O O3 0.387576 0.232694 0.099109
O O4 0.338167 0.285976 0.239353
O O5 0.880623 0.721256 0.120787
O O6 0.933001 0.723928 0.265249
O O7 0.000000 0.722554 0.132869
O O8 0.938219 0.000000 0.163706
O O9 0.794815 0.291399 0.493180
O O10 0.891820 0.281769 0.428852
O O11 0.852308 0.000000 0.511097
O O12 0.684041 0.500000 0.598185
O O13 0.729024 0.219062 0.670239
O O14 0.695254 0.215346 0.500245
O O15 0.782860 0.500000 0.714898
O O16 0.751556 0.288112 0.838342
O O17 0.723554 0.500000 0.413424
O O18 0.500000 0.771965 0.896388
O O19 0.563725 0.500000 0.862969
#
# Coordination Sequence:
#
# PCOD9374746 Si02
#       8
#     8   2   8   8   8   8   8   8
#     4  11  24  42  67  96 130 173 229 279 335 405
#     4  12  26  44  68  94 132 188 218 280 344 406
#     4   8  13  24  45  73 107 148 195 250 312 382
#     4  10  20  34  54  84 120 159 206 260 322 397
#     4   9  18  32  54  81 116 160 206 261 331 397
#     4  11  21  40  64  89 125 169 215 279 344 398
#     4  11  22  35  56  86 121 159 209 270 334 395
#     4   8  14  25  44  74 109 142 183 240 301 370
#
# _framework density 21.359537
#
# number of rings (size 3 to 8) (size 9 to 14) (size 15 to 20)
#    0.000    2.207    2.069    2.690    1.931    2.207 
#    0.000    0.000    1.517    0.000    0.000    0.000 
#    0.000    4.966    0.000    0.000    0.000    0.000 
#
# Total GULP energy -161478.194778 kJ/mol
# GULP energy per Si atom -5568.213613 kJ/mol
# Density = 2.131092 g / cm^3
# Si number density = 21.359537 Si / 1000 Ang^3
#
#
#
# Elastic Constant Matrix: (Units=GPa)
#
#
# Indices 1 2 3 4 5 6 
#
# 1 98.8928 11.6363 14.2459 0.0000 0.0000 0.0000
# 2 11.6363 93.2965 1.4328 0.0000 0.0000 0.0000
# 3 14.2459 1.4328 56.4117 0.0000 0.0000 0.0000
# 4 0.0000 0.0000 0.0000 8.1675 0.0000 0.0000
# 5 0.0000 0.0000 0.0000 0.0000 31.6389 0.0000
# 6 0.0000 0.0000 0.0000 0.0000 0.0000 13.3233
#
#
#
# Elastic Compliance Matrix: (Units=1/GPa)
#
#
# Indices 1 2 3 4 5 6 
#
# 1 0.010646 -0.001287 -0.002656 0.000000 0.000000 0.000000
# 2 -0.001287 0.010878 0.000049 0.000000 0.000000 0.000000
# 3 -0.002656 0.000049 0.018396 0.000000 0.000000 0.000000
# 4 0.000000 0.000000 0.000000 0.122436 0.000000 0.000000
# 5 0.000000 0.000000 0.000000 0.000000 0.031607 0.000000
# 6 0.000000 0.000000 0.000000 0.000000 0.000000 0.075057
#
#
# Mechanical properties :
#
#
# Convention : Reuss Voigt Hill
#
# Bulk Modulus (GPa) = 31.12130 33.69235 32.40682
# Shear Modulus (GPa) = 17.39015 25.37834 21.38425
#
# Velocity S-wave (km/s) = 2.85645 3.45070 3.16754
# Velocity P-wave (km/s) = 5.04786 5.62890 5.34628
#
# Compressibility (1/GPa) = 0.03213233
#
# Stress axis : x y z
#
# Youngs Moduli (GPa) = 93.93218 91.92623 54.35892
#
# Poissons Ratio (x) = 0.11831 0.14437
# Poissons Ratio (y) = 0.12089 -0.00265
# Poissons Ratio (z) = 0.24946 -0.00448
#
# Static dielectric constant tensor:
#      x y z
#    x 1.840760 0.000000 0.000000 
#    y 0.000000 1.826830 0.000000 
#    z 0.000000 0.000000 1.763540 
# 
# From -- ./inp_files/19423.got.cif
#   From: 2010.05.17/outbox.cif.g08.bks.cpg/sg44_10_cif.got.tgz:19423.got - 2010.06.03 19:37:08.
