data_PCOD9374692
_publ_section_title
;
Structure prediction by ZEFSAII (Michael W. Deem and Ramdas Pophale) SiO2 
 PCOD9374692
Probable space group: I M M 2
;
_chemical_formula_sum "Si O2"
_cell_formula_units_Z 56
_cell_length_a 15.408536
_cell_length_b 11.379750
_cell_length_c 16.860138
_cell_angle_alpha 90.000000
_cell_angle_beta 90.000000
_cell_angle_gamma 90.000000
_cell_volume 2956.345746
_symmetry_space_group_name_H-M "I M M 2"
_symmetry_group_IT_number 44
_symmetry_cell_setting 'orthorhombic'
loop_
_space_group_symop_operation_xyz
x,y,z
-x,-y,z
-x,y,z
x,-y,z
1/2+x,1/2+y,1/2+z
1/2-x,1/2-y,1/2+z
1/2-x,1/2+y,1/2+z
1/2+x,1/2-y,1/2+z
loop_
_atom_site_type_symbol
_atom_site_label
_atom_site_fract_x
_atom_site_fract_y
_atom_site_fract_z
Si Si1 0.403474 0.634761 0.066760
Si Si2 0.664179 0.777175 0.922015
Si Si3 0.200359 0.128144 0.040407
Si Si4 0.230420 0.751439 0.682367
Si Si5 0.312226 0.865625 0.338588
Si Si6 0.399232 0.132523 0.501209
Si Si7 0.903202 0.638984 0.256831
O O1 0.500000 0.652016 0.100868
O O2 0.395545 0.500000 0.040984
O O3 0.328403 0.663057 0.129548
O O4 0.391871 0.717848 0.990764
O O5 0.724791 0.676912 0.882767
O O6 0.612867 0.836217 0.850255
O O7 0.731081 0.861984 0.968228
O O8 0.249397 0.142885 0.124006
O O9 0.156424 0.000000 0.036499
O O10 0.145717 0.249787 0.034383
O O11 0.179431 0.713933 0.761272
O O12 0.322541 0.803877 0.710761
O O13 0.385259 0.857712 0.406221
O O14 0.304275 0.000000 0.313794
O O15 0.500000 0.133783 0.522133
O O16 0.364605 0.000000 0.523075
O O17 0.900886 0.500000 0.242702
O O18 0.000000 0.682469 0.234719
#
# Coordination Sequence:
#
# PCOD9374692 Si02
#       7
#     8   8   8   8   8   8   8
#     4  10  20  34  53  77 106 141 180 222 270 325
#     4   9  18  33  54  77 101 129 171 222 272 322
#     4  10  20  34  54  79 108 143 179 220 274 328
#     4  10  21  34  51  76 109 141 175 217 267 325
#     4   9  17  32  54  75  98 133 173 217 269 320
#     4   9  19  35  55  79 105 138 185 233 272 318
#     4  10  20  34  53  76 103 138 178 220 267 319
#
# _framework density 18.942304
#
# number of rings (size 3 to 8) (size 9 to 14) (size 15 to 20)
#    0.000    2.429    0.000    2.143    0.000    5.429 
#    0.000    2.143    0.000   16.286    0.000    0.000 
#    0.000    0.000    0.000    0.000    0.000    0.000 
#
# Total GULP energy -156009.054008 kJ/mol
# GULP energy per Si atom -5571.751929 kJ/mol
# Density = 1.889919 g / cm^3
# Si number density = 18.942304 Si / 1000 Ang^3
#
#
#
# Elastic Constant Matrix: (Units=GPa)
#
#
# Indices 1 2 3 4 5 6 
#
# 1 66.7143 25.4779 19.3471 0.0000 0.0000 0.0000
# 2 25.4779 104.5029 19.2044 0.0000 0.0000 0.0000
# 3 19.3471 19.2044 83.0749 0.0000 0.0000 0.0000
# 4 0.0000 0.0000 0.0000 3.6706 0.0000 0.0000
# 5 0.0000 0.0000 0.0000 0.0000 11.7134 0.0000
# 6 0.0000 0.0000 0.0000 0.0000 0.0000 17.5185
#
#
#
# Elastic Compliance Matrix: (Units=1/GPa)
#
#
# Indices 1 2 3 4 5 6 
#
# 1 0.017301 -0.003632 -0.003190 0.000000 0.000000 0.000000
# 2 -0.003632 0.010756 -0.001641 0.000000 0.000000 0.000000
# 3 -0.003190 -0.001641 0.013159 0.000000 0.000000 0.000000
# 4 0.000000 0.000000 0.000000 0.272437 0.000000 0.000000
# 5 0.000000 0.000000 0.000000 0.000000 0.085373 0.000000
# 6 0.000000 0.000000 0.000000 0.000000 0.000000 0.057083
#
#
# Mechanical properties :
#
#
# Convention : Reuss Voigt Hill
#
# Bulk Modulus (GPa) = 41.16524 42.48345 41.82434
# Shear Modulus (GPa) = 10.39217 19.26466 14.82842
#
# Velocity S-wave (km/s) = 2.34481 3.19253 2.80093
# Velocity P-wave (km/s) = 5.39536 6.00551 5.70859
#
# Compressibility (1/GPa) = 0.02429234
#
# Stress axis : x y z
#
# Youngs Moduli (GPa) = 57.79913 92.97068 75.99113
#
# Poissons Ratio (x) = 0.33766 0.24239
# Poissons Ratio (y) = 0.20992 0.12467
# Poissons Ratio (z) = 0.18436 0.15253
#
# Static dielectric constant tensor:
#      x y z
#    x 1.664330 0.000000 0.000000 
#    y 0.000000 1.661210 0.000000 
#    z 0.000000 0.000000 1.663630 
# 
# From -- ./inp_files/18412.got.cif
#   From: 2010.05.17/outbox.cif.g08.bks.cpg/sg44_10_cif.got.tgz:18412.got - 2010.06.03 19:37:08.
