data_PCOD9374789
_publ_section_title
;
Structure prediction by ZEFSAII (Michael W. Deem and Ramdas Pophale) SiO2 
 PCOD9374789
Probable space group: I M M 2
;
_chemical_formula_sum "Si O2"
_cell_formula_units_Z 64
_cell_length_a 9.004841
_cell_length_b 33.189775
_cell_length_c 11.872454
_cell_angle_alpha 90.000000
_cell_angle_beta 90.000000
_cell_angle_gamma 90.000000
_cell_volume 3548.304260
_symmetry_space_group_name_H-M "I M M 2"
_symmetry_group_IT_number 44
_symmetry_cell_setting 'orthorhombic'
loop_
_space_group_symop_operation_xyz
x,y,z
-x,-y,z
-x,y,z
x,-y,z
1/2+x,1/2+y,1/2+z
1/2-x,1/2-y,1/2+z
1/2-x,1/2+y,1/2+z
1/2+x,1/2-y,1/2+z
loop_
_atom_site_type_symbol
_atom_site_label
_atom_site_fract_x
_atom_site_fract_y
_atom_site_fract_z
Si Si1 0.167312 0.048040 0.891320
Si Si2 0.677567 0.952372 0.658164
Si Si3 0.829328 0.830577 0.950070
Si Si4 0.821237 0.120022 0.524915
Si Si5 0.826497 0.401956 0.566282
Si Si6 0.326195 0.721193 0.665823
Si Si7 0.174002 0.193357 0.691291
Si Si8 0.821602 0.353901 0.789322
O O1 0.266694 0.059503 0.783559
O O2 0.000000 0.063511 0.873569
O O3 0.163342 0.000000 0.892408
O O4 0.232228 0.063045 0.009200
O O5 0.500000 0.948731 0.651556
O O6 0.754384 0.921842 0.571337
O O7 0.715511 0.000000 0.640470
O O8 0.811817 0.818921 0.821403
O O9 0.000000 0.845199 0.967277
O O10 0.713060 0.864164 0.986738
O O11 0.809905 0.794049 0.037207
O O12 0.782295 0.155965 0.612326
O O13 0.753931 0.132503 0.404772
O O14 0.000000 0.117081 0.519342
O O15 0.787080 0.386577 0.691078
O O16 0.000000 0.411613 0.563343
O O17 0.500000 0.719647 0.695563
O O18 0.265212 0.766062 0.673524
O O19 0.239971 0.688928 0.743931
O O20 0.000000 0.201868 0.668839
O O21 0.000000 0.351579 0.800839
#
# Coordination Sequence:
#
# PCOD9374789 Si02
#       8
#     8   8   8   8   8   8   8   8
#     4  10  20  34  56  86 118 150 183 228 286 344
#     4  10  21  38  61  89 121 156 194 239 292 348
#     4   9  19  36  55  76 105 141 179 222 279 338
#     4  11  23  38  59  88 118 154 199 244 293 351
#     4  10  20  35  57  82 107 142 185 232 284 337
#     4  10  21  36  56  82 108 143 188 233 285 343
#     4  10  22  37  54  80 113 146 182 232 285 340
#     4  10  22  40  59  79 112 155 195 239 292 347
#
# _framework density 18.036783
#
# number of rings (size 3 to 8) (size 9 to 14) (size 15 to 20)
#    0.000    2.000    0.000    3.000    1.750    6.000 
#    0.000    0.625    0.000    0.750    0.000    0.000 
#    0.000    0.000    0.000    0.000    0.000    0.000 
#
# Total GULP energy -178613.717396 kJ/mol
# GULP energy per Si atom -5581.678669 kJ/mol
# Density = 1.799573 g / cm^3
# Si number density = 18.036783 Si / 1000 Ang^3
#
#
#
# Elastic Constant Matrix: (Units=GPa)
#
#
# Indices 1 2 3 4 5 6 
#
# 1 78.1509 50.5755 64.3865 0.0000 0.0000 0.0000
# 2 50.5755 86.4332 67.1604 -0.0001 0.0000 0.0000
# 3 64.3865 67.1604 115.9527 -0.0004 0.0000 0.0000
# 4 0.0000 -0.0001 -0.0004 8.1697 0.0000 0.0000
# 5 0.0000 0.0000 0.0000 0.0000 28.0706 0.0000
# 6 0.0000 0.0000 0.0000 0.0000 0.0000 28.5793
#
#
#
# Elastic Compliance Matrix: (Units=1/GPa)
#
#
# Indices 1 2 3 4 5 6 
#
# 1 0.025849 -0.007223 -0.010170 0.000000 0.000000 0.000000
# 2 -0.007223 0.023056 -0.009343 0.000000 0.000000 0.000000
# 3 -0.010170 -0.009343 0.019683 0.000001 0.000000 0.000000
# 4 0.000000 0.000000 0.000001 0.122403 0.000000 0.000000
# 5 0.000000 0.000000 0.000000 0.000000 0.035624 0.000000
# 6 0.000000 0.000000 0.000000 0.000000 0.000000 0.034990
#
#
# Mechanical properties :
#
#
# Convention : Reuss Voigt Hill
#
# Bulk Modulus (GPa) = 66.15701 71.64241 68.89971
# Shear Modulus (GPa) = 15.61931 19.52490 17.57210
#
# Velocity S-wave (km/s) = 2.94593 3.29371 3.12466
# Velocity P-wave (km/s) = 6.95197 7.36689 7.16244
#
# Compressibility (1/GPa) = 0.01511556
#
# Stress axis : x y z
#
# Youngs Moduli (GPa) = 38.68661 43.37251 50.80520
#
# Poissons Ratio (x) = 0.31328 0.51668
# Poissons Ratio (y) = 0.27943 0.47469
# Poissons Ratio (z) = 0.39343 0.40525
#
# Static dielectric constant tensor:
#      x y z
#    x 1.619400 0.000000 0.000000 
#    y 0.000000 1.617660 0.000000 
#    z 0.000000 0.000000 1.596630 
# 
# From -- ./inp_files/11413.got.cif
#   From: 2010.05.17/outbox.cif.g08.bks.cpg/sg44_6_cif.got.tgz:11413.got - 2010.06.03 19:37:08.
