data_PCOD9374353
_publ_section_title
;
Structure prediction by ZEFSAII (Michael W. Deem and Ramdas Pophale) SiO2 
 PCOD9374353
Probable space group: I M M 2
;
_chemical_formula_sum "Si O2"
_cell_formula_units_Z 52
_cell_length_a 18.725009
_cell_length_b 7.377420
_cell_length_c 17.018476
_cell_angle_alpha 90.000000
_cell_angle_beta 90.000000
_cell_angle_gamma 90.000000
_cell_volume 2350.970667
_symmetry_space_group_name_H-M "I M M 2"
_symmetry_group_IT_number 44
_symmetry_cell_setting 'orthorhombic'
loop_
_space_group_symop_operation_xyz
x,y,z
-x,-y,z
-x,y,z
x,-y,z
1/2+x,1/2+y,1/2+z
1/2-x,1/2-y,1/2+z
1/2-x,1/2+y,1/2+z
1/2+x,1/2-y,1/2+z
loop_
_atom_site_type_symbol
_atom_site_label
_atom_site_fract_x
_atom_site_fract_y
_atom_site_fract_z
Si Si1 0.120463 0.500000 0.483711
Si Si2 0.842490 0.781010 0.623880
Si Si3 0.331643 0.707567 0.883560
Si Si4 0.081333 0.721505 0.071197
Si Si5 0.190496 0.718206 0.202469
Si Si6 0.580042 0.717650 0.284705
Si Si7 0.821181 0.290252 0.930053
O O1 0.135731 0.339854 0.550372
O O2 0.109548 0.658586 0.415834
O O3 0.763398 0.733526 0.656761
O O4 0.895466 0.740992 0.696650
O O5 0.843644 0.000000 0.608770
O O6 0.342799 0.500000 0.906608
O O7 0.316859 0.711516 0.790535
O O8 0.257761 0.788168 0.921308
O O9 0.079977 0.500000 0.068198
O O10 0.123532 0.773143 0.149343
O O11 0.000000 0.783076 0.067674
O O12 0.127919 0.785983 0.997136
O O13 0.191862 0.500000 0.208415
O O14 0.500000 0.783563 0.301589
O O15 0.580055 0.500000 0.291464
O O16 0.637127 0.783469 0.348027
O O17 0.808758 0.500000 0.950616
#
# Coordination Sequence:
#
# PCOD9374353 Si02
#       7
#     4   8   8   8   8   8   8
#     4  12  24  38  63  90 119 166 202 260 318 358
#     4  10  22  39  60  89 125 160 209 258 310 372
#     4  11  23  38  61  94 125 159 209 256 307 367
#     4   9  18  33  56  87 123 161 202 251 304 365
#     4  10  19  37  60  87 122 164 206 252 303 364
#     4  10  21  36  57  86 125 167 203 253 315 378
#     4  10  20  35  56  87 127 166 204 244 301 376
#
# _framework density 22.118525999999999
#
# number of rings (size 3 to 8) (size 9 to 14) (size 15 to 20)
#    0.000    1.846    2.308    1.846    3.231    3.385 
#    0.000    0.000    0.000    3.231    0.000    0.000 
#    0.000    0.000    0.000    0.000    0.000    0.000 
#
# Total GULP energy -144832.257597 kJ/mol
# GULP energy per Si atom -5570.471446 kJ/mol
# Density = 2.206818 g / cm^3
# Si number density = 22.118526 Si / 1000 Ang^3
#
#
#
# Elastic Constant Matrix: (Units=GPa)
#
#
# Indices 1 2 3 4 5 6 
#
# 1 23.7041 -1.8530 8.6983 0.0000 0.0000 0.0000
# 2 -1.8530 113.4455 4.4696 0.0000 0.0000 0.0000
# 3 8.6983 4.4696 47.4814 0.0000 0.0000 0.0000
# 4 0.0000 0.0000 0.0000 47.2554 0.0000 0.0000
# 5 0.0000 0.0000 0.0000 0.0000 22.0258 0.0000
# 6 0.0000 0.0000 0.0000 0.0000 0.0000 5.4150
#
#
#
# Elastic Compliance Matrix: (Units=1/GPa)
#
#
# Indices 1 2 3 4 5 6 
#
# 1 0.045357 0.001072 -0.008410 0.000000 0.000000 0.000000
# 2 0.001072 0.008873 -0.001032 0.000000 0.000000 0.000000
# 3 -0.008410 -0.001032 0.022699 0.000000 0.000000 0.000000
# 4 0.000000 0.000000 0.000000 0.021162 0.000000 0.000000
# 5 0.000000 0.000000 0.000000 0.000000 0.045401 0.000000
# 6 0.000000 0.000000 0.000000 0.000000 0.000000 0.184674
#
#
# Mechanical properties :
#
#
# Convention : Reuss Voigt Hill
#
# Bulk Modulus (GPa) = 16.61423 23.02897 19.82160
# Shear Modulus (GPa) = 13.69987 26.49363 20.09675
#
# Velocity S-wave (km/s) = 2.49144 3.46468 3.01756
# Velocity P-wave (km/s) = 3.97544 5.14194 4.59585
#
# Compressibility (1/GPa) = 0.06018936
#
# Stress axis : x y z
#
# Youngs Moduli (GPa) = 22.04745 112.70195 44.05543
#
# Poissons Ratio (x) = -0.12084 0.37051
# Poissons Ratio (y) = -0.02364 0.04545
# Poissons Ratio (z) = 0.18542 0.11627
#
# Static dielectric constant tensor:
#      x y z
#    x 1.847230 0.000000 0.000000 
#    y 0.000000 1.841850 0.000000 
#    z 0.000000 0.000000 1.791020 
# 
# From -- ./inp_files/19114.got.cif
#   From: 2010.05.17/outbox.cif.g08.bks.cpg/sg44_10_cif.got.tgz:19114.got - 2010.06.03 19:37:08.
