data_PCOD9374628
_publ_section_title
;
Structure prediction by ZEFSAII (Michael W. Deem and Ramdas Pophale) SiO2 
 PCOD9374628
Probable space group: I M M 2
;
_chemical_formula_sum "Si O2"
_cell_formula_units_Z 64
_cell_length_a 8.442792
_cell_length_b 20.187293
_cell_length_c 21.299298
_cell_angle_alpha 90.000000
_cell_angle_beta 90.000000
_cell_angle_gamma 90.000000
_cell_volume 3630.190921
_symmetry_space_group_name_H-M "I M M 2"
_symmetry_group_IT_number 44
_symmetry_cell_setting 'orthorhombic'
loop_
_space_group_symop_operation_xyz
x,y,z
-x,-y,z
-x,y,z
x,-y,z
1/2+x,1/2+y,1/2+z
1/2-x,1/2-y,1/2+z
1/2-x,1/2+y,1/2+z
1/2+x,1/2-y,1/2+z
loop_
_atom_site_type_symbol
_atom_site_label
_atom_site_fract_x
_atom_site_fract_y
_atom_site_fract_z
Si Si1 0.191249 0.926163 0.523830
Si Si2 0.808441 0.073488 0.899522
Si Si3 0.190896 0.572915 0.166362
Si Si4 0.309129 0.787292 0.713895
Si Si5 0.188788 0.787951 0.847501
Si Si6 0.810676 0.211104 0.468378
Si Si7 0.189552 0.790537 0.089647
Si Si8 0.189775 0.574771 0.542547
O O1 0.261645 0.918264 0.593564
O O2 0.241249 0.864621 0.481096
O O3 0.000000 0.923643 0.529298
O O4 0.234932 0.000000 0.501217
O O5 0.751901 0.082564 0.971224
O O6 0.000000 0.073986 0.899507
O O7 0.755528 0.000000 0.878332
O O8 0.751773 0.136692 0.860322
O O9 0.249252 0.500000 0.186839
O O10 0.249216 0.637112 0.203469
O O11 0.000000 0.572397 0.169948
O O12 0.500000 0.788031 0.713044
O O13 0.253617 0.762963 0.781359
O O14 0.256946 0.743700 0.654351
O O15 0.000000 0.790082 0.844555
O O16 0.238466 0.743866 0.906647
O O17 0.762192 0.252720 0.529884
O O18 0.000000 0.212706 0.462554
O O19 0.238228 0.866963 0.083979
O O20 0.000000 0.784673 0.085442
O O21 0.231979 0.500000 0.562766
O O22 0.000000 0.580626 0.541740
#
# Coordination Sequence:
#
# PCOD9374628 Si02
#       8
#     8   8   8   8   8   8   8   8
#     4   9  18  32  52  80 109 137 173 218 266 315
#     4   9  18  33  51  73 105 144 181 218 261 313
#     4   9  17  31  51  75 106 144 180 214 256 308
#     4  10  22  37  52  75 109 145 182 223 267 318
#     4  11  23  36  53  77 107 144 184 224 268 321
#     4  11  21  34  56  81 108 141 178 224 271 317
#     4  11  21  35  56  81 108 142 182 223 268 319
#     4  10  20  33  53  82 110 138 175 221 272 321
#
# _framework density 17.629926000000001
#
# number of rings (size 3 to 8) (size 9 to 14) (size 15 to 20)
#    0.000    2.000    2.500    1.500    0.000    3.750 
#    0.000    0.000    0.000    0.750    0.000    1.750 
#    0.000    0.000    0.000    0.000    0.000    0.000 
#
# Total GULP energy -178570.435037 kJ/mol
# GULP energy per Si atom -5580.326095 kJ/mol
# Density = 1.758980 g / cm^3
# Si number density = 17.629926 Si / 1000 Ang^3
#
#
#
# Elastic Constant Matrix: (Units=GPa)
#
#
# Indices 1 2 3 4 5 6 
#
# 1 8.3173 6.8354 6.4170 0.0000 0.0000 0.0000
# 2 6.8354 97.7326 51.5819 0.0000 0.0000 0.0000
# 3 6.4170 51.5819 107.6858 0.0000 0.0000 0.0000
# 4 0.0000 0.0000 0.0000 18.5990 0.0000 0.0000
# 5 0.0000 0.0000 0.0000 0.0000 22.8554 0.0000
# 6 0.0000 0.0000 0.0000 0.0000 0.0000 20.5395
#
#
#
# Elastic Compliance Matrix: (Units=1/GPa)
#
#
# Indices 1 2 3 4 5 6 
#
# 1 0.129179 -0.006654 -0.004510 0.000000 0.000000 0.000000
# 2 -0.006654 0.014037 -0.006327 0.000000 0.000000 0.000000
# 3 -0.004510 -0.006327 0.012586 0.000000 0.000000 0.000000
# 4 0.000000 0.000000 0.000000 0.053766 0.000000 0.000000
# 5 0.000000 0.000000 0.000000 0.000000 0.043753 0.000000
# 6 0.000000 0.000000 0.000000 0.000000 0.000000 0.048687
#
#
# Mechanical properties :
#
#
# Convention : Reuss Voigt Hill
#
# Bulk Modulus (GPa) = 8.27690 38.15603 23.21647
# Shear Modulus (GPa) = 13.25332 22.32555 17.78944
#
# Velocity S-wave (km/s) = 2.74478 3.56243 3.18000
# Velocity P-wave (km/s) = 3.84059 6.21377 5.16532
#
# Compressibility (1/GPa) = 0.12081813
#
# Stress axis : x y z
#
# Youngs Moduli (GPa) = 7.74120 71.24143 79.45477
#
# Poissons Ratio (x) = 0.47405 0.35837
# Poissons Ratio (y) = 0.05151 0.50272
# Poissons Ratio (z) = 0.03492 0.45076
#
# Static dielectric constant tensor:
#      x y z
#    x 1.600010 0.000000 0.000000 
#    y 0.000000 1.642270 0.000000 
#    z 0.000000 0.000000 1.567370 
# 
# From -- ./inp_files/20727.got.cif
#   From: 2010.05.17/outbox.cif.g08.bks.cpg/sg44_11_cif.got.tgz:20727.got - 2010.06.03 19:37:08.
