data_PCOD9374119
_publ_section_title
;
Structure prediction by ZEFSAII (Michael W. Deem and Ramdas Pophale) SiO2 
 PCOD9374119
Probable space group: I M M 2
;
_chemical_formula_sum "Si O2"
_cell_formula_units_Z 40
_cell_length_a 26.341723
_cell_length_b 8.257477
_cell_length_c 9.960545
_cell_angle_alpha 90.000000
_cell_angle_beta 90.000000
_cell_angle_gamma 90.000000
_cell_volume 2166.579618
_symmetry_space_group_name_H-M "I M M 2"
_symmetry_group_IT_number 44
_symmetry_cell_setting 'orthorhombic'
loop_
_space_group_symop_operation_xyz
x,y,z
-x,-y,z
-x,y,z
x,-y,z
1/2+x,1/2+y,1/2+z
1/2-x,1/2-y,1/2+z
1/2-x,1/2+y,1/2+z
1/2+x,1/2-y,1/2+z
loop_
_atom_site_type_symbol
_atom_site_label
_atom_site_fract_x
_atom_site_fract_y
_atom_site_fract_z
Si Si1 0.558192 0.303737 0.527720
Si Si2 0.138008 0.802720 0.807099
Si Si3 0.643410 0.188598 0.722997
Si Si4 0.336452 0.690427 0.014107
Si Si5 0.776638 0.190650 0.016234
O O1 0.500000 0.249890 0.528283
O O2 0.558950 0.500000 0.531640
O O3 0.589325 0.253125 0.394490
O O4 0.591180 0.241155 0.652409
O O5 0.140340 0.747006 0.654171
O O6 0.187971 0.754506 0.891746
O O7 0.138687 0.000000 0.805049
O O8 0.644309 0.223807 0.880296
O O9 0.688611 0.283938 0.647535
O O10 0.652369 0.000000 0.697874
O O11 0.347583 0.500000 0.001949
O O12 0.275909 0.715856 0.023689
O O13 0.765575 0.000000 0.999672
#
# Coordination Sequence:
#
# PCOD9374119 Si02
#       5
#     8   8   8   8   8
#     4   9  18  37  62  80  96 127 174 226 277 325
#     4   8  17  32  51  76 103 130 167 217 265 312
#     4  11  22  35  51  76 110 145 180 215 256 311
#     4  11  20  32  51  78 112 144 175 214 262 313
#     4  10  19  34  54  77 106 141 181 219 260 310
#
# _framework density 18.46228
#
# number of rings (size 3 to 8) (size 9 to 14) (size 15 to 20)
#    0.000    2.200    0.000    5.400    0.000    2.000 
#    0.000   10.000    0.000    3.600    0.000    0.000 
#    0.000    0.000    0.000    0.000    0.000    0.000 
#
# Total GULP energy -111660.661771 kJ/mol
# GULP energy per Si atom -5583.033089 kJ/mol
# Density = 1.842026 g / cm^3
# Si number density = 18.462280 Si / 1000 Ang^3
#
#
#
# Elastic Constant Matrix: (Units=GPa)
#
#
# Indices 1 2 3 4 5 6 
#
# 1 106.5653 -3.4545 55.4850 0.0000 0.0000 0.0000
# 2 -3.4545 21.2703 -5.0094 0.0000 0.0000 0.0000
# 3 55.4850 -5.0094 150.9434 0.0000 0.0000 0.0000
# 4 0.0000 0.0000 0.0000 10.1681 0.0000 0.0000
# 5 0.0000 0.0000 0.0000 0.0000 2.1774 0.0000
# 6 0.0000 0.0000 0.0000 0.0000 0.0000 21.5956
#
#
#
# Elastic Compliance Matrix: (Units=1/GPa)
#
#
# Indices 1 2 3 4 5 6 
#
# 1 0.011622 0.000888 -0.004242 0.000000 0.000000 0.000000
# 2 0.000888 0.047452 0.001248 0.000000 0.000000 0.000000
# 3 -0.004242 0.001248 0.008226 0.000000 0.000000 0.000000
# 4 0.000000 0.000000 0.000000 0.098347 0.000000 0.000000
# 5 0.000000 0.000000 0.000000 0.000000 0.459257 0.000000
# 6 0.000000 0.000000 0.000000 0.000000 0.000000 0.046306
#
#
# Mechanical properties :
#
#
# Convention : Reuss Voigt Hill
#
# Bulk Modulus (GPa) = 15.85091 41.42457 28.63774
# Shear Modulus (GPa) = 7.17926 22.23875 14.70901
#
# Velocity S-wave (km/s) = 1.97410 3.47443 2.82566
# Velocity P-wave (km/s) = 3.71487 6.21141 5.11771
#
# Compressibility (1/GPa) = 0.06308788
#
# Stress axis : x y z
#
# Youngs Moduli (GPa) = 86.04640 21.07386 121.56693
#
# Poissons Ratio (x) = -0.01872 0.51575
# Poissons Ratio (y) = -0.07643 -0.15175
# Poissons Ratio (z) = 0.36505 -0.02631
#
# Static dielectric constant tensor:
#      x y z
#    x 1.606260 0.000000 0.000000 
#    y 0.000000 1.626590 0.000000 
#    z 0.000000 0.000000 1.642370 
# 
# From -- ./inp_files/4434.got.cif
#   From: 2010.05.17/outbox.cif.g08.bks.cpg/sg44_3_cif.got.tgz:4434.got - 2010.06.03 19:37:08.
