data_PCOD9374002
_publ_section_title
;
Structure prediction by ZEFSAII (Michael W. Deem and Ramdas Pophale) SiO2 
 PCOD9374002
Probable space group: I M M 2
;
_chemical_formula_sum "Si O2"
_cell_formula_units_Z 64
_cell_length_a 23.972504
_cell_length_b 8.527084
_cell_length_c 19.712752
_cell_angle_alpha 90.000000
_cell_angle_beta 90.000000
_cell_angle_gamma 90.000000
_cell_volume 4029.593147
_symmetry_space_group_name_H-M "I M M 2"
_symmetry_group_IT_number 44
_symmetry_cell_setting 'orthorhombic'
loop_
_space_group_symop_operation_xyz
x,y,z
-x,-y,z
-x,y,z
x,-y,z
1/2+x,1/2+y,1/2+z
1/2-x,1/2-y,1/2+z
1/2-x,1/2+y,1/2+z
1/2+x,1/2-y,1/2+z
loop_
_atom_site_type_symbol
_atom_site_label
_atom_site_fract_x
_atom_site_fract_y
_atom_site_fract_z
Si Si1 0.750850 0.187520 0.474460
Si Si2 0.221712 0.812640 0.832140
Si Si3 0.658957 0.186334 0.206240
Si Si4 0.935329 0.812156 0.614725
Si Si5 0.876939 0.311902 0.478877
Si Si6 0.233587 0.310091 0.125711
Si Si7 0.666187 0.190481 0.752636
Si Si8 0.063144 0.691399 0.339063
O O1 0.720250 0.259972 0.409687
O O2 0.815610 0.238435 0.473686
O O3 0.727461 0.238298 0.547861
O O4 0.747671 0.000000 0.470061
O O5 0.176358 0.739923 0.781534
O O6 0.282523 0.764766 0.802010
O O7 0.218314 0.000000 0.827328
O O8 0.601789 0.257269 0.178048
O O9 0.708718 0.246981 0.157124
O O10 0.656768 0.000000 0.202550
O O11 0.907497 0.740700 0.547263
O O12 0.000000 0.764670 0.619844
O O13 0.932590 0.000000 0.609736
O O14 0.870864 0.500000 0.478553
O O15 0.913140 0.266026 0.413092
O O16 0.237008 0.500000 0.127518
O O17 0.184739 0.260404 0.177377
O O18 0.607860 0.246064 0.783179
O O19 0.664414 0.000000 0.752896
O O20 0.062310 0.500000 0.337045
O O21 0.000000 0.746385 0.329194
#
# Coordination Sequence:
#
# PCOD9374002 Si02
#       8
#     8   8   8   8   8   8   8   8
#     4  11  20  30  47  72  99 130 167 204 249 298
#     4  10  19  33  51  69  96 129 162 202 253 303
#     4  11  21  33  51  74  98 126 165 209 253 299
#     4  11  23  37  51  69  98 137 175 208 247 297
#     4  11  20  31  46  69 100 134 171 208 245 287
#     4   9  18  31  48  67  96 131 162 203 250 295
#     4   8  14  27  44  64  89 122 158 194 243 290
#     4   9  16  26  43  68  95 124 163 204 239 281
#
# _framework density 15.882497000000001
#
# number of rings (size 3 to 8) (size 9 to 14) (size 15 to 20)
#    0.000    2.000    2.500    3.750    0.000    2.000 
#    0.000    0.000    0.000    0.000    0.000    0.875 
#    0.000    3.000    0.000    0.000    0.000    0.000 
#
# Total GULP energy -178534.502885 kJ/mol
# GULP energy per Si atom -5579.203215 kJ/mol
# Density = 1.584635 g / cm^3
# Si number density = 15.882497 Si / 1000 Ang^3
#
#
#
# Elastic Constant Matrix: (Units=GPa)
#
#
# Indices 1 2 3 4 5 6 
#
# 1 69.9601 1.1379 42.8437 0.0000 0.0000 0.0000
# 2 1.1379 16.6434 9.2068 0.0000 0.0000 0.0000
# 3 42.8437 9.2068 115.8806 0.0000 0.0000 0.0000
# 4 0.0000 0.0000 0.0000 22.8165 0.0000 0.0000
# 5 0.0000 0.0000 0.0000 0.0000 19.5300 0.0000
# 6 0.0000 0.0000 0.0000 0.0000 0.0000 14.6229
#
#
#
# Elastic Compliance Matrix: (Units=1/GPa)
#
#
# Indices 1 2 3 4 5 6 
#
# 1 0.018588 0.002647 -0.007083 0.000000 0.000000 0.000000
# 2 0.002647 0.063223 -0.006002 0.000000 0.000000 0.000000
# 3 -0.007083 -0.006002 0.011725 0.000000 0.000000 0.000000
# 4 0.000000 0.000000 0.000000 0.043828 0.000000 0.000000
# 5 0.000000 0.000000 0.000000 0.000000 0.051203 0.000000
# 6 0.000000 0.000000 0.000000 0.000000 0.000000 0.068386
#
#
# Mechanical properties :
#
#
# Convention : Reuss Voigt Hill
#
# Bulk Modulus (GPa) = 13.76243 34.31786 24.04014
# Shear Modulus (GPa) = 16.55359 21.34692 18.95026
#
# Velocity S-wave (km/s) = 3.23190 3.67011 3.45795
# Velocity P-wave (km/s) = 4.75509 6.29396 5.57785
#
# Compressibility (1/GPa) = 0.07266161
#
# Stress axis : x y z
#
# Youngs Moduli (GPa) = 53.79706 15.81701 85.28689
#
# Poissons Ratio (x) = -0.04187 0.60408
# Poissons Ratio (y) = -0.14242 0.51188
# Poissons Ratio (z) = 0.38104 0.09493
#
# Static dielectric constant tensor:
#      x y z
#    x 1.513330 0.000000 0.000000 
#    y 0.000000 1.539120 0.000000 
#    z 0.000000 0.000000 1.540270 
# 
# From -- ./inp_files/20861.got.cif
#   From: 2010.05.17/outbox.cif.g08.bks.cpg/sg44_11_cif.got.tgz:20861.got - 2010.06.03 19:37:08.
