data_PCOD9374479
_publ_section_title
;
Structure prediction by ZEFSAII (Michael W. Deem and Ramdas Pophale) SiO2 
 PCOD9374479
Probable space group: I M M 2
;
_chemical_formula_sum "Si O2"
_cell_formula_units_Z 56
_cell_length_a 20.032559
_cell_length_b 16.240195
_cell_length_c 8.076794
_cell_angle_alpha 90.000000
_cell_angle_beta 90.000000
_cell_angle_gamma 90.000000
_cell_volume 2627.644913
_symmetry_space_group_name_H-M "I M M 2"
_symmetry_group_IT_number 44
_symmetry_cell_setting 'orthorhombic'
loop_
_space_group_symop_operation_xyz
x,y,z
-x,-y,z
-x,y,z
x,-y,z
1/2+x,1/2+y,1/2+z
1/2-x,1/2-y,1/2+z
1/2-x,1/2+y,1/2+z
1/2+x,1/2-y,1/2+z
loop_
_atom_site_type_symbol
_atom_site_label
_atom_site_fract_x
_atom_site_fract_y
_atom_site_fract_z
Si Si1 0.574103 0.096830 0.821930
Si Si2 0.922713 0.898952 0.524192
Si Si3 0.710143 0.830602 0.828383
Si Si4 0.925897 0.403170 0.726446
Si Si5 0.289858 0.169401 0.219995
Si Si6 0.155408 0.095337 0.208257
Si Si7 0.655407 0.404664 0.340129
O O1 0.500000 0.123694 0.767403
O O2 0.637793 0.147567 0.757489
O O3 0.582291 0.000000 0.780212
O O4 0.574278 0.100489 0.024188
O O5 0.886037 0.867391 0.359371
O O6 0.886038 0.867391 0.689013
O O7 0.000000 0.876626 0.524191
O O8 0.918408 0.000000 0.524192
O O9 0.750001 0.750002 0.774187
O O10 0.766023 0.900391 0.800080
O O11 0.700603 0.823693 0.024189
O O12 0.917707 0.500000 0.768164
O O13 0.862208 0.352431 0.790887
O O14 0.000000 0.376308 0.780974
O O15 0.233978 0.099612 0.248305
O O16 0.135400 0.000000 0.198055
O O17 0.145357 0.132023 0.024193
O O18 0.635397 0.500000 0.350332
#
# Coordination Sequence:
#
# PCOD9374479 Si02
#       7
#     8   8   8   8   8   8   8
#     4   8  14  28  53  81 104 130 173 228 275 317
#     4   9  18  32  52  78 103 131 172 220 267 314
#     4  10  20  32  50  76 108 141 176 216 271 330
#     4   8  14  28  53  81 104 130 173 228 275 317
#     4  10  20  32  50  76 108 141 176 216 271 330
#     4   9  18  33  53  76 103 138 181 225 269 319
#     4   9  18  33  53  76 103 138 181 225 269 319
#
# _framework density 21.311859999999999
#
# number of rings (size 3 to 8) (size 9 to 14) (size 15 to 20)
#    0.000    3.000    0.000    1.714    2.000    4.000 
#    0.000    4.286    0.000    2.571    0.000    2.000 
#    0.000    0.000    0.000    0.000    0.000    0.000 
#
# Total GULP energy -155990.604446 kJ/mol
# GULP energy per Si atom -5571.093016 kJ/mol
# Density = 2.126335 g / cm^3
# Si number density = 21.311860 Si / 1000 Ang^3
#
#
#
# Elastic Constant Matrix: (Units=GPa)
#
#
# Indices 1 2 3 4 5 6 
#
# 1 219.0245 42.4479 80.2966 0.0000 0.0000 0.0000
# 2 42.4479 33.9399 10.3498 0.0000 0.0000 0.0000
# 3 80.2966 10.3498 70.1692 0.0000 0.0000 0.0000
# 4 0.0000 0.0000 0.0000 11.1959 0.0000 0.0000
# 5 0.0000 0.0000 0.0000 0.0000 22.5396 0.0000
# 6 0.0000 0.0000 0.0000 0.0000 0.0000 16.8612
#
#
#
# Elastic Compliance Matrix: (Units=1/GPa)
#
#
# Indices 1 2 3 4 5 6 
#
# 1 0.010179 -0.009611 -0.010230 0.000000 0.000000 0.000000
# 2 -0.009611 0.039926 0.005109 0.000000 0.000000 0.000000
# 3 -0.010230 0.005109 0.025205 0.000000 0.000000 0.000000
# 4 0.000000 0.000000 0.000000 0.089318 0.000000 0.000000
# 5 0.000000 0.000000 0.000000 0.000000 0.044366 0.000000
# 6 0.000000 0.000000 0.000000 0.000000 0.000000 0.059308
#
#
# Mechanical properties :
#
#
# Convention : Reuss Voigt Hill
#
# Bulk Modulus (GPa) = 21.81265 65.48023 43.64644
# Shear Modulus (GPa) = 15.97198 22.78863 19.38031
#
# Velocity S-wave (km/s) = 2.74056 3.27355 3.01884
# Velocity P-wave (km/s) = 4.50238 6.71414 5.71625
#
# Compressibility (1/GPa) = 0.04584495
#
# Stress axis : x y z
#
# Youngs Moduli (GPa) = 98.24243 25.04638 39.67515
#
# Poissons Ratio (x) = 0.24072 0.40589
# Poissons Ratio (y) = 0.94419 -0.20270
# Poissons Ratio (z) = 1.00506 -0.12796
#
# Static dielectric constant tensor:
#      x y z
#    x 1.698560 0.000000 0.000000 
#    y 0.000000 1.984250 0.000000 
#    z 0.000000 0.000000 1.811460 
# 
# From -- ./inp_files/8385.got.cif
#   From: 2010.05.17/outbox.cif.g08.bks.cpg/sg44_5_cif.got.tgz:8385.got - 2010.06.03 19:37:08.
