data_PCOD9374451
_publ_section_title
;
Structure prediction by ZEFSAII (Michael W. Deem and Ramdas Pophale) SiO2 
 PCOD9374451
Probable space group: I M M 2
;
_chemical_formula_sum "Si O2"
_cell_formula_units_Z 48
_cell_length_a 8.045499
_cell_length_b 9.699562
_cell_length_c 32.409625
_cell_angle_alpha 90.000000
_cell_angle_beta 90.000000
_cell_angle_gamma 90.000000
_cell_volume 2529.176364
_symmetry_space_group_name_H-M "I M M 2"
_symmetry_group_IT_number 44
_symmetry_cell_setting 'orthorhombic'
loop_
_space_group_symop_operation_xyz
x,y,z
-x,-y,z
-x,y,z
x,-y,z
1/2+x,1/2+y,1/2+z
1/2-x,1/2-y,1/2+z
1/2-x,1/2+y,1/2+z
1/2+x,1/2-y,1/2+z
loop_
_atom_site_type_symbol
_atom_site_label
_atom_site_fract_x
_atom_site_fract_y
_atom_site_fract_z
Si Si1 0.698505 0.342985 0.522430
Si Si2 0.799101 0.842065 0.445694
Si Si3 0.300712 0.156365 0.689691
Si Si4 0.192545 0.832175 0.356392
Si Si5 0.795911 0.159797 0.266046
Si Si6 0.302370 0.842221 0.113497
O O1 0.500000 0.345864 0.523874
O O2 0.761100 0.500000 0.517026
O O3 0.751695 0.250308 0.484231
O O4 0.760320 0.294376 0.567187
O O5 0.735153 0.790700 0.400802
O O6 0.000000 0.845056 0.442804
O O7 0.742494 0.000000 0.451736
O O8 0.500000 0.148802 0.693986
O O9 0.238743 0.242287 0.729256
O O10 0.264810 0.241788 0.648433
O O11 0.235809 0.000000 0.687964
O O12 0.263999 0.794941 0.311671
O O13 0.000000 0.786038 0.355936
O O14 0.191287 0.000000 0.357019
O O15 0.000000 0.160995 0.267105
O O16 0.748211 0.000000 0.258899
O O17 0.500000 0.847323 0.117681
O O18 0.236881 0.000000 0.118143
#
# Coordination Sequence:
#
# PCOD9374451 Si02
#       6
#     8   8   8   8   8   8
#     4  10  21  36  53  73  98 128 162 201 245 293
#     4   9  17  30  50  76 104 132 163 201 244 288
#     4  10  20  32  48  74 106 134 160 195 242 294
#     4   7  11  22  42  69  98 127 162 202 239 276
#     4   8  13  24  45  70  96 129 167 204 239 276
#     4  10  21  37  56  74  92 121 164 208 247 291
#
# _framework density 18.978508999999999
#
# number of rings (size 3 to 8) (size 9 to 14) (size 15 to 20)
#    0.000    3.000    0.000    3.500    0.000    4.000 
#    0.000    0.833    0.000    4.000    0.000    2.333 
#    0.000    0.000    0.000    0.000    0.000    0.000 
#
# Total GULP energy -133732.152489 kJ/mol
# GULP energy per Si atom -5572.173020 kJ/mol
# Density = 1.893531 g / cm^3
# Si number density = 18.978509 Si / 1000 Ang^3
#
#
#
# Elastic Constant Matrix: (Units=GPa)
#
#
# Indices 1 2 3 4 5 6 
#
# 1 13.8948 8.1520 5.6436 0.0000 0.0000 0.0000
# 2 8.1520 87.5453 105.0525 0.0000 0.0000 0.0000
# 3 5.6436 105.0525 214.9272 0.0000 0.0000 0.0000
# 4 0.0000 0.0000 0.0000 24.2261 0.0000 0.0000
# 5 0.0000 0.0000 0.0000 0.0000 18.3136 0.0000
# 6 0.0000 0.0000 0.0000 0.0000 0.0000 15.1632
#
#
#
# Elastic Compliance Matrix: (Units=1/GPa)
#
#
# Indices 1 2 3 4 5 6 
#
# 1 0.077262 -0.011512 0.003598 0.000000 0.000000 0.000000
# 2 -0.011512 0.029342 -0.014039 0.000000 0.000000 0.000000
# 3 0.003598 -0.014039 0.011420 0.000000 0.000000 0.000000
# 4 0.000000 0.000000 0.000000 0.041278 0.000000 0.000000
# 5 0.000000 0.000000 0.000000 0.000000 0.054604 0.000000
# 6 0.000000 0.000000 0.000000 0.000000 0.000000 0.065949
#
#
# Mechanical properties :
#
#
# Convention : Reuss Voigt Hill
#
# Bulk Modulus (GPa) = 13.49211 61.56262 37.52736
# Shear Modulus (GPa) = 14.34852 24.70852 19.52852
#
# Velocity S-wave (km/s) = 2.75260 3.61213 3.21125
# Velocity P-wave (km/s) = 4.15054 7.06436 5.79362
#
# Compressibility (1/GPa) = 0.07411739
#
# Stress axis : x y z
#
# Youngs Moduli (GPa) = 12.94294 34.08133 87.56235
#
# Poissons Ratio (x) = 0.39235 -0.31507
# Poissons Ratio (y) = 0.14900 1.22932
# Poissons Ratio (z) = -0.04657 0.47848
#
# Static dielectric constant tensor:
#      x y z
#    x 1.694310 0.000000 0.000000 
#    y 0.000000 1.652210 0.000000 
#    z 0.000000 0.000000 1.675890 
# 
# From -- ./inp_files/26863.got.cif
#   From: 2010.05.17/outbox.cif.g08.bks.cpg/sg44_14_cif.got.tgz:26863.got - 2010.06.03 19:37:08.
