data_PCOD9374390
_publ_section_title
;
Structure prediction by ZEFSAII (Michael W. Deem and Ramdas Pophale) SiO2 
 PCOD9374390
Probable space group: I M M 2
;
_chemical_formula_sum "Si O2"
_cell_formula_units_Z 48
_cell_length_a 9.790469
_cell_length_b 7.366157
_cell_length_c 32.457790
_cell_angle_alpha 90.000000
_cell_angle_beta 90.000000
_cell_angle_gamma 90.000000
_cell_volume 2340.795176
_symmetry_space_group_name_H-M "I M M 2"
_symmetry_group_IT_number 44
_symmetry_cell_setting 'orthorhombic'
loop_
_space_group_symop_operation_xyz
x,y,z
-x,-y,z
-x,y,z
x,-y,z
1/2+x,1/2+y,1/2+z
1/2-x,1/2-y,1/2+z
1/2-x,1/2+y,1/2+z
1/2+x,1/2-y,1/2+z
loop_
_atom_site_type_symbol
_atom_site_label
_atom_site_fract_x
_atom_site_fract_y
_atom_site_fract_z
Si Si1 0.157444 0.278567 0.442030
Si Si2 0.844201 0.218303 0.594240
Si Si3 0.154341 0.784167 0.016211
Si Si4 0.157167 0.279057 0.349363
Si Si5 0.833798 0.789723 0.684025
Si Si6 0.158072 0.222303 0.773720
O O1 0.157416 0.500000 0.442591
O O2 0.258530 0.213455 0.477496
O O3 0.197525 0.223322 0.395656
O O4 0.000000 0.223590 0.449545
O O5 0.741145 0.258568 0.557659
O O6 0.797308 0.287843 0.639303
O O7 0.000000 0.281761 0.585690
O O8 0.851938 0.000000 0.597770
O O9 0.000000 0.712456 0.018975
O O10 0.143957 0.000000 0.010006
O O11 0.160384 0.500000 0.349128
O O12 0.252288 0.217596 0.312212
O O13 0.000000 0.225299 0.342962
O O14 0.792101 0.714377 0.728518
O O15 0.000000 0.787804 0.684539
O O16 0.789263 0.000000 0.683925
O O17 0.000000 0.274596 0.778885
O O18 0.160549 0.000000 0.772687
#
# Coordination Sequence:
#
# PCOD9374390 Si02
#       6
#     8   8   8   8   8   8
#     4   8  14  25  39  53  73 105 141 173 206 246
#     4   9  17  30  48  66  84 111 147 182 214 251
#     4  10  20  31  43  62  88 115 143 178 219 259
#     4   8  13  20  30  47  72 100 130 164 200 239
#     4   7  11  21  36  54  76 102 133 167 201 240
#     4   8  12  18  30  48  71 100 130 158 192 238
#
# _framework density 20.505852000000001
#
# number of rings (size 3 to 8) (size 9 to 14) (size 15 to 20)
#    0.000    3.667    0.000    3.500    0.000    2.000 
#    0.000    4.167    0.000    3.000    0.000    0.000 
#    0.000    1.333    0.000    8.667    0.000   13.167 
#
# Total GULP energy -133747.521035 kJ/mol
# GULP energy per Si atom -5572.813376 kJ/mol
# Density = 2.045918 g / cm^3
# Si number density = 20.505852 Si / 1000 Ang^3
#
#
#
# Elastic Constant Matrix: (Units=GPa)
#
#
# Indices 1 2 3 4 5 6 
#
# 1 113.7690 5.1248 135.4188 0.0000 0.0000 0.0000
# 2 5.1248 73.8257 6.2454 0.0000 0.0000 0.0000
# 3 135.4188 6.2454 256.3951 0.0000 0.0000 0.0000
# 4 0.0000 0.0000 0.0000 5.6428 0.0000 0.0000
# 5 0.0000 0.0000 0.0000 0.0000 33.4219 0.0000
# 6 0.0000 0.0000 0.0000 0.0000 0.0000 -0.2209
#
#
#
# Elastic Compliance Matrix: (Units=1/GPa)
#
#
# Indices 1 2 3 4 5 6 
#
# 1 0.023696 -0.000587 -0.012501 0.000000 0.000000 0.000000
# 2 -0.000587 0.013588 -0.000021 0.000000 0.000000 0.000000
# 3 -0.012501 -0.000021 0.010503 0.000000 0.000000 0.000000
# 4 0.000000 0.000000 0.000000 0.177216 0.000000 -0.000001
# 5 0.000000 0.000000 0.000000 0.000000 0.029920 0.000000
# 6 0.000000 0.000000 0.000000 -0.000001 0.000000 -4.527177
#
#
# Mechanical properties :
#
#
# Convention : Reuss Voigt Hill
#
# Bulk Modulus (GPa) = 46.36284 81.95198 64.15741
# Shear Modulus (GPa) = -1.17957 27.58216 13.20130
#
# Velocity S-wave (km/s) = -0.75926 3.67152 2.54004
# Velocity P-wave (km/s) = 4.67868 7.61744 6.32121
#
# Compressibility (1/GPa) = 0.02156900
#
# Stress axis : x y z
#
# Youngs Moduli (GPa) = 42.20033 73.59462 95.20640
#
# Poissons Ratio (x) = 0.04323 1.19021
# Poissons Ratio (y) = 0.02479 0.00197
# Poissons Ratio (z) = 0.52756 0.00153
#
# Static dielectric constant tensor:
#      x y z
#    x 1.687660 0.000000 0.000000 
#    y 0.000000 1.920380 0.000000 
#    z 0.000000 0.000000 1.745940 
# 
# From -- ./inp_files/27087.got.cif
#   From: 2010.05.17/outbox.cif.g08.bks.cpg/sg44_14_cif.got.tgz:27087.got - 2010.06.03 19:37:08.
