data_PCOD9374205
_publ_section_title
;
Structure prediction by ZEFSAII (Michael W. Deem and Ramdas Pophale) SiO2 
 PCOD9374205
Probable space group: I M M 2
;
_chemical_formula_sum "Si O2"
_cell_formula_units_Z 48
_cell_length_a 8.137992
_cell_length_b 7.805645
_cell_length_c 38.150352
_cell_angle_alpha 90.000000
_cell_angle_beta 90.000000
_cell_angle_gamma 90.000000
_cell_volume 2423.397211
_symmetry_space_group_name_H-M "I M M 2"
_symmetry_group_IT_number 44
_symmetry_cell_setting 'orthorhombic'
loop_
_space_group_symop_operation_xyz
x,y,z
-x,-y,z
-x,y,z
x,-y,z
1/2+x,1/2+y,1/2+z
1/2-x,1/2-y,1/2+z
1/2-x,1/2+y,1/2+z
1/2+x,1/2-y,1/2+z
loop_
_atom_site_type_symbol
_atom_site_label
_atom_site_fract_x
_atom_site_fract_y
_atom_site_fract_z
Si Si1 0.802879 0.812750 0.548320
Si Si2 0.191694 0.705515 0.625059
Si Si3 0.000000 0.294937 0.818565
Si Si4 0.321316 0.204210 0.699993
Si Si5 0.310568 0.500000 0.502377
Si Si6 0.693407 0.000000 0.924245
Si Si7 0.000000 0.202044 0.738242
Si Si8 0.192887 0.795863 0.368247
O O1 0.743868 0.771292 0.587713
O O2 0.762913 0.667112 0.520706
O O3 0.000000 0.816305 0.551203
O O4 0.743188 0.000000 0.537369
O O5 0.194881 0.500000 0.623921
O O6 0.288839 0.767471 0.658887
O O7 0.000000 0.759569 0.629275
O O8 0.000000 0.219744 0.779830
O O9 0.167227 0.251012 0.839697
O O10 0.000000 0.500000 0.815088
O O11 0.500000 0.275500 0.709822
O O12 0.165697 0.276354 0.721143
O O13 0.326403 0.000000 0.706331
O O14 0.500000 0.500000 0.511122
O O15 0.285783 0.500000 0.460860
O O16 0.724719 0.169336 0.900875
O O17 0.500000 0.000000 0.932734
O O18 0.000000 0.000000 0.729329
O O19 0.000000 0.768800 0.357566
O O20 0.209529 0.000000 0.376315
#
# Coordination Sequence:
#
# PCOD9374205 Si02
#       8
#     8   8   4   8   4   4   4   8
#     4  10  21  40  65  87 117 165 214 261 317 378
#     4  10  19  34  60  87 114 153 207 265 313 372
#     4  10  22  38  62  90 122 160 198 253 309 378
#     4  10  21  37  56  81 116 158 206 254 309 375
#     4  12  26  40  58  92 134 166 204 264 320 385
#     4  10  22  40  66  92 120 162 206 255 305 374
#     4  10  22  38  56  84 122 160 200 256 314 371
#     4   9  20  39  62  93 126 158 205 254 304 370
#
# _framework density 19.806906000000001
#
# number of rings (size 3 to 8) (size 9 to 14) (size 15 to 20)
#    0.000    2.000    1.667    1.250    2.333    4.000 
#    0.000    1.667    0.000    0.000    0.000    0.000 
#    0.000    0.000    0.000    0.000    0.000    0.000 
#
# Total GULP energy -133965.779010 kJ/mol
# GULP energy per Si atom -5581.907459 kJ/mol
# Density = 1.976182 g / cm^3
# Si number density = 19.806906 Si / 1000 Ang^3
#
#
#
# Elastic Constant Matrix: (Units=GPa)
#
#
# Indices 1 2 3 4 5 6 
#
# 1 114.1468 39.8567 63.6917 0.0000 0.0000 0.0000
# 2 39.8567 66.4606 31.1969 0.0000 0.0001 0.0000
# 3 63.6917 31.1969 96.3615 0.0000 0.0000 0.0000
# 4 0.0000 0.0000 0.0000 24.9020 0.0000 0.0000
# 5 0.0000 0.0001 0.0000 0.0000 -350.0157 0.0000
# 6 0.0000 0.0000 0.0000 0.0000 0.0000 3.1283
#
#
#
# Elastic Compliance Matrix: (Units=1/GPa)
#
#
# Indices 1 2 3 4 5 6 
#
# 1 0.015271 -0.005212 -0.008406 0.000000 0.000000 0.000000
# 2 -0.005212 0.019522 -0.002875 0.000000 0.000000 0.000000
# 3 -0.008406 -0.002875 0.016865 0.000000 0.000000 0.000000
# 4 0.000000 0.000000 0.000000 0.040157 0.000000 0.000000
# 5 0.000000 0.000000 0.000000 0.000000 -0.002857 0.000000
# 6 0.000000 0.000000 0.000000 0.000000 0.000000 0.319659
#
#
# Mechanical properties :
#
#
# Convention : Reuss Voigt Hill
#
# Bulk Modulus (GPa) = 53.56031 60.71773 57.13902
# Shear Modulus (GPa) = 11.16501 -54.91549 -21.87524
#
# Velocity S-wave (km/s) = 2.37680 -5.27121 -3.32689
# Velocity P-wave (km/s) = 5.88491 2.51518 3.76205
#
# Compressibility (1/GPa) = 0.01867054
#
# Stress axis : x y z
#
# Youngs Moduli (GPa) = 65.48300 51.22461 59.29565
#
# Poissons Ratio (x) = 0.26699 0.49845
# Poissons Ratio (y) = 0.34131 0.17048
# Poissons Ratio (z) = 0.55047 0.14727
#
# Static dielectric constant tensor:
#      x y z
#    x 1.837940 0.000000 0.000000 
#    y 0.000000 1.681610 0.000000 
#    z 0.000000 0.000000 1.645290 
# 
# From -- ./inp_files/27072.got.cif
#   From: 2010.05.17/outbox.cif.g08.bks.cpg/sg44_14_cif.got.tgz:27072.got - 2010.06.03 19:37:08.
