data_PCOD9374455
_publ_section_title
;
Structure prediction by ZEFSAII (Michael W. Deem and Ramdas Pophale) SiO2 
 PCOD9374455
Probable space group: I M M 2
;
_chemical_formula_sum "Si O2"
_cell_formula_units_Z 48
_cell_length_a 7.524657
_cell_length_b 9.095502
_cell_length_c 35.775122
_cell_angle_alpha 90.000000
_cell_angle_beta 90.000000
_cell_angle_gamma 90.000000
_cell_volume 2448.468410
_symmetry_space_group_name_H-M "I M M 2"
_symmetry_group_IT_number 44
_symmetry_cell_setting 'orthorhombic'
loop_
_space_group_symop_operation_xyz
x,y,z
-x,-y,z
-x,y,z
x,-y,z
1/2+x,1/2+y,1/2+z
1/2-x,1/2-y,1/2+z
1/2-x,1/2+y,1/2+z
1/2+x,1/2-y,1/2+z
loop_
_atom_site_type_symbol
_atom_site_label
_atom_site_fract_x
_atom_site_fract_y
_atom_site_fract_z
Si Si1 0.713450 0.167066 0.081550
Si Si2 0.287737 0.174249 0.807657
Si Si3 0.212441 0.334597 0.157593
Si Si4 0.000000 0.676057 0.859561
Si Si5 0.500000 0.678086 0.440482
Si Si6 0.203298 0.321083 0.499860
Si Si7 0.216434 0.832540 0.230910
O O1 0.500000 0.159344 0.078508
O O2 0.755977 0.263350 0.117357
O O3 0.780083 0.000000 0.087144
O O4 0.772500 0.225190 0.040925
O O5 0.500000 0.197933 0.812649
O O6 0.237212 0.233764 0.766553
O O7 0.171362 0.261072 0.837655
O O8 0.254010 0.000000 0.810305
O O9 0.283364 0.500000 0.159363
O O10 0.279900 0.236100 0.191893
O O11 0.000000 0.342505 0.162408
O O12 0.000000 0.500000 0.859384
O O13 0.000000 0.740767 0.901237
O O14 0.500000 0.500000 0.435042
O O15 0.669960 0.718362 0.465852
O O16 0.201490 0.500000 0.501800
O O17 0.000000 0.271859 0.494487
O O18 0.000000 0.835796 0.229749
O O19 0.277288 0.000000 0.235643
#
# Coordination Sequence:
#
# PCOD9374455 Si02
#       7
#     8   8   8   4   4   8   8
#     4   9  18  33  52  76 106 140 184 236 286 337
#     4  10  21  40  66  91 118 155 197 246 301 355
#     4  10  20  32  48  75 110 148 190 235 279 333
#     4  12  26  42  60  90 128 160 196 244 294 362
#     4  10  20  36  60  86 112 148 192 240 296 354
#     4   8  16  32  55  83 111 141 184 238 291 346
#     4   9  17  32  55  82 112 148 190 235 287 347
#
# _framework density 19.604092000000001
#
# number of rings (size 3 to 8) (size 9 to 14) (size 15 to 20)
#    0.000    2.500    0.000    3.250    1.167    5.000 
#    1.500    2.500    0.000    1.000    0.000    0.000 
#    0.000    0.000    0.000    0.000    0.000    0.000 
#
# Total GULP energy -133982.592159 kJ/mol
# GULP energy per Si atom -5582.608007 kJ/mol
# Density = 1.955947 g / cm^3
# Si number density = 19.604092 Si / 1000 Ang^3
#
#
#
# Elastic Constant Matrix: (Units=GPa)
#
#
# Indices 1 2 3 4 5 6 
#
# 1 76.1318 38.2823 54.7420 0.0000 0.0000 0.0000
# 2 38.2823 118.6629 83.6302 0.0000 0.0000 0.0000
# 3 54.7420 83.6302 192.4933 0.0000 0.0000 0.0000
# 4 0.0000 0.0000 0.0000 31.6765 0.0000 0.0000
# 5 0.0000 0.0000 0.0000 0.0000 38.3619 0.0000
# 6 0.0000 0.0000 0.0000 0.0000 0.0000 14.4284
#
#
#
# Elastic Compliance Matrix: (Units=1/GPa)
#
#
# Indices 1 2 3 4 5 6 
#
# 1 0.017238 -0.003036 -0.003583 0.000000 0.000000 0.000000
# 2 -0.003036 0.012681 -0.004646 0.000000 0.000000 0.000000
# 3 -0.003583 -0.004646 0.008233 0.000000 0.000000 0.000000
# 4 0.000000 0.000000 0.000000 0.031569 0.000000 0.000000
# 5 0.000000 0.000000 0.000000 0.000000 0.026068 0.000000
# 6 0.000000 0.000000 0.000000 0.000000 0.000000 0.069308
#
#
# Mechanical properties :
#
#
# Convention : Reuss Voigt Hill
#
# Bulk Modulus (GPa) = 64.01485 82.28855 73.15170
# Shear Modulus (GPa) = 25.92905 30.93558 28.43231
#
# Velocity S-wave (km/s) = 3.64075 3.97673 3.81245
# Velocity P-wave (km/s) = 7.09916 7.94684 7.53493
#
# Compressibility (1/GPa) = 0.01562137
#
# Stress axis : x y z
#
# Youngs Moduli (GPa) = 58.01055 78.85794 121.46944
#
# Poissons Ratio (x) = 0.23940 0.43526
# Poissons Ratio (y) = 0.17611 0.56435
# Poissons Ratio (z) = 0.20787 0.36638
#
# Static dielectric constant tensor:
#      x y z
#    x 1.723360 0.000000 0.000000 
#    y 0.000000 1.666390 0.000000 
#    z 0.000000 0.000000 1.663340 
# 
# From -- ./inp_files/26914.got.cif
#   From: 2010.05.17/outbox.cif.g08.bks.cpg/sg44_14_cif.got.tgz:26914.got - 2010.06.03 19:37:08.
