data_PCOD9374506
_publ_section_title
;
Structure prediction by ZEFSAII (Michael W. Deem and Ramdas Pophale) SiO2 
 PCOD9374506
Probable space group: I M M 2
;
_chemical_formula_sum "Si O2"
_cell_formula_units_Z 40
_cell_length_a 7.976335
_cell_length_b 7.356986
_cell_length_c 30.588106
_cell_angle_alpha 90.000000
_cell_angle_beta 90.000000
_cell_angle_gamma 90.000000
_cell_volume 1794.964658
_symmetry_space_group_name_H-M "I M M 2"
_symmetry_group_IT_number 44
_symmetry_cell_setting 'orthorhombic'
loop_
_space_group_symop_operation_xyz
x,y,z
-x,-y,z
-x,y,z
x,-y,z
1/2+x,1/2+y,1/2+z
1/2-x,1/2-y,1/2+z
1/2-x,1/2+y,1/2+z
1/2+x,1/2-y,1/2+z
loop_
_atom_site_type_symbol
_atom_site_label
_atom_site_fract_x
_atom_site_fract_y
_atom_site_fract_z
Si Si1 0.320021 0.213914 0.106950
Si Si2 0.704445 0.209874 0.796346
Si Si3 0.500000 0.723026 0.554178
Si Si4 0.306412 0.222470 0.892788
Si Si5 0.000000 0.221469 0.953495
Si Si6 0.806590 0.280459 0.202183
O O1 0.500000 0.292672 0.095110
O O2 0.291417 0.230671 0.158804
O O3 0.162974 0.287357 0.080391
O O4 0.324704 0.000000 0.097052
O O5 0.500000 0.210029 0.794668
O O6 0.745597 0.285924 0.843968
O O7 0.758217 0.286578 0.749397
O O8 0.761047 0.000000 0.797154
O O9 0.500000 0.500000 0.555074
O O10 0.500000 0.778246 0.503802
O O11 0.500000 0.276746 0.901374
O O12 0.167940 0.278347 0.927840
O O13 0.307901 0.000000 0.891587
O O14 0.000000 0.000000 0.953038
O O15 0.808461 0.500000 0.204778
O O16 0.000000 0.220376 0.196540
#
# Coordination Sequence:
#
# PCOD9374506 Si02
#       6
#     8   8   4   8   4   8
#     4  10  20  33  48  65  90 126 161 193 234 279
#     4   7  11  21  37  58  87 120 146 173 219 271
#     4   9  18  32  45  59  85 119 157 201 236 269
#     4   8  13  22  35  53  82 114 141 175 218 268
#     4   9  16  24  38  59  79 109 153 187 220 271
#     4   9  16  28  48  71  95 124 156 191 230 274
#
# _framework density 22.284562999999999
#
# number of rings (size 3 to 8) (size 9 to 14) (size 15 to 20)
#    0.000    3.400    1.000    2.400    0.000    1.200 
#    1.800    4.000    0.000    0.000    0.000    0.000 
#    0.000    3.200    0.000    5.800    0.000    4.400 
#
# Total GULP energy -111559.302210 kJ/mol
# GULP energy per Si atom -5577.965111 kJ/mol
# Density = 2.223384 g / cm^3
# Si number density = 22.284563 Si / 1000 Ang^3
#
#
#
# Elastic Constant Matrix: (Units=GPa)
#
#
# Indices 1 2 3 4 5 6 
#
# 1 158.3606 8.5778 116.2276 0.0000 0.0000 0.0000
# 2 8.5778 82.5698 1.1854 0.0000 0.0000 0.0000
# 3 116.2276 1.1854 201.5038 0.0000 0.0000 0.0000
# 4 0.0000 0.0000 0.0000 1.9403 0.0000 0.0000
# 5 0.0000 0.0000 0.0000 0.0000 -22.3444 0.0000
# 6 0.0000 0.0000 0.0000 0.0000 0.0000 -5.5585
#
#
#
# Elastic Compliance Matrix: (Units=1/GPa)
#
#
# Indices 1 2 3 4 5 6 
#
# 1 0.011042 -0.001056 -0.006363 0.000000 0.000000 0.000000
# 2 -0.001056 0.012213 0.000537 0.000000 0.000000 0.000000
# 3 -0.006363 0.000537 0.008630 0.000000 0.000000 0.000000
# 4 0.000000 0.000000 0.000000 0.515372 0.000000 0.000000
# 5 0.000000 0.000000 0.000000 0.000000 -0.044754 0.000000
# 6 0.000000 0.000000 0.000000 0.000000 0.000000 -0.179905
#
#
# Mechanical properties :
#
#
# Convention : Reuss Voigt Hill
#
# Bulk Modulus (GPa) = 55.18286 77.15732 66.17009
# Shear Modulus (GPa) = 14.60278 15.90373 15.25325
#
# Velocity S-wave (km/s) = 2.56263 2.67435 2.61909
# Velocity P-wave (km/s) = 5.79420 6.65094 6.23730
#
# Compressibility (1/GPa) = 0.01812157
#
# Stress axis : x y z
#
# Youngs Moduli (GPa) = 90.56565 81.88048 115.88135
#
# Poissons Ratio (x) = 0.08644 0.73731
# Poissons Ratio (y) = 0.09561 -0.06224
# Poissons Ratio (z) = 0.57624 -0.04398
#
# Static dielectric constant tensor:
#      x y z
#    x 1.804380 0.000000 0.000000 
#    y 0.000000 1.996850 0.000000 
#    z 0.000000 0.000000 1.796940 
# 
# From -- ./inp_files/25967.got.cif
#   From: 2010.05.17/outbox.cif.g08.bks.cpg/sg44_13_cif.got.tgz:25967.got - 2010.06.03 19:37:08.
