data_PCOD9374225
_publ_section_title
;
Structure prediction by ZEFSAII (Michael W. Deem and Ramdas Pophale) SiO2 
 PCOD9374225
Probable space group: I M M 2
;
_chemical_formula_sum "Si O2"
_cell_formula_units_Z 56
_cell_length_a 17.742363
_cell_length_b 7.448359
_cell_length_c 17.925026
_cell_angle_alpha 90.000000
_cell_angle_beta 90.000000
_cell_angle_gamma 90.000000
_cell_volume 2368.818879
_symmetry_space_group_name_H-M "I M M 2"
_symmetry_group_IT_number 44
_symmetry_cell_setting 'orthorhombic'
loop_
_space_group_symop_operation_xyz
x,y,z
-x,-y,z
-x,y,z
x,-y,z
1/2+x,1/2+y,1/2+z
1/2-x,1/2-y,1/2+z
1/2-x,1/2+y,1/2+z
1/2+x,1/2-y,1/2+z
loop_
_atom_site_type_symbol
_atom_site_label
_atom_site_fract_x
_atom_site_fract_y
_atom_site_fract_z
Si Si1 0.848785 0.280067 0.729230
Si Si2 0.682687 0.712826 0.773250
Si Si3 0.585852 0.718326 0.635034
Si Si4 0.081487 0.715955 0.409350
Si Si5 0.916896 0.280922 0.882434
Si Si6 0.699370 0.794191 0.503354
Si Si7 0.638419 0.794492 0.062605
O O1 0.847942 0.500000 0.726547
O O2 0.765465 0.217969 0.754008
O O3 0.904224 0.230922 0.796340
O O4 0.866044 0.216020 0.645573
O O5 0.687941 0.500000 0.762676
O O6 0.621923 0.778617 0.713170
O O7 0.650481 0.740867 0.855374
O O8 0.500000 0.776508 0.627213
O O9 0.587309 0.500000 0.632284
O O10 0.638322 0.787584 0.569235
O O11 0.080078 0.500000 0.413274
O O12 0.093965 0.786306 0.492934
O O13 0.000000 0.777355 0.379542
O O14 0.915606 0.500000 0.886972
O O15 0.846317 0.218892 0.932384
O O16 0.000000 0.222842 0.908811
O O17 0.774702 0.704185 0.534598
O O18 0.720470 0.000000 0.486471
O O19 0.612080 0.000000 0.070008
#
# Coordination Sequence:
#
# PCOD9374225 Si02
#       7
#     8   8   8   8   8   8   8
#     4   9  17  32  55  77 101 137 182 224 259 312
#     4  10  19  35  57  79 106 142 186 225 266 326
#     4  10  20  34  54  79 109 147 186 222 267 329
#     4  10  22  37  54  81 114 144 178 226 283 332
#     4   9  18  31  49  78 110 137 171 220 273 317
#     4  11  21  34  54  80 112 144 179 226 278 326
#     4  10  20  37  58  79 108 145 184 225 269 325
#
# _framework density 23.640473
#
# number of rings (size 3 to 8) (size 9 to 14) (size 15 to 20)
#    0.000    2.143    1.429    2.143    0.000    4.571 
#    0.000    2.857    0.000    0.857    0.000    0.000 
#    0.000    0.000    0.000    0.000    0.000    0.000 
#
# Total GULP energy -156486.333682 kJ/mol
# GULP energy per Si atom -5588.797632 kJ/mol
# Density = 2.358667 g / cm^3
# Si number density = 23.640473 Si / 1000 Ang^3
#
#
#
# Elastic Constant Matrix: (Units=GPa)
#
#
# Indices 1 2 3 4 5 6 
#
# 1 35.6088 -6.4396 -11.0145 0.0000 0.0000 0.0000
# 2 -6.4396 71.3124 -9.7807 0.0000 0.0000 0.0000
# 3 -11.0145 -9.7807 123.6826 0.0000 0.0000 0.0000
# 4 0.0000 0.0000 0.0000 5.8521 0.0000 0.0000
# 5 0.0000 0.0000 0.0000 0.0000 39.3754 0.0000
# 6 0.0000 0.0000 0.0000 0.0000 0.0000 38.4254
#
#
#
# Elastic Compliance Matrix: (Units=1/GPa)
#
#
# Indices 1 2 3 4 5 6 
#
# 1 0.029524 0.003060 0.002871 0.000000 0.000000 0.000000
# 2 0.003060 0.014494 0.001419 0.000000 0.000000 0.000000
# 3 0.002871 0.001419 0.008453 0.000000 0.000000 0.000000
# 4 0.000000 0.000000 0.000000 0.170878 0.000000 0.000000
# 5 0.000000 0.000000 0.000000 0.000000 0.025397 0.000000
# 6 0.000000 0.000000 0.000000 0.000000 0.000000 0.026024
#
#
# Mechanical properties :
#
#
# Convention : Reuss Voigt Hill
#
# Bulk Modulus (GPa) = 14.88742 19.57048 17.22895
# Shear Modulus (GPa) = 17.70158 33.91982 25.81070
#
# Velocity S-wave (km/s) = 2.73936 3.79201 3.30783
# Velocity P-wave (km/s) = 4.03937 5.24107 4.67896
#
# Compressibility (1/GPa) = 0.06717079
#
# Stress axis : x y z
#
# Youngs Moduli (GPa) = 33.87021 68.99561 118.29984
#
# Poissons Ratio (x) = -0.21112 -0.33967
# Poissons Ratio (y) = -0.10364 -0.16782
# Poissons Ratio (z) = -0.09725 -0.09788
#
# Static dielectric constant tensor:
#      x y z
#    x 1.860910 0.000000 0.000000 
#    y 0.000000 1.971500 0.000000 
#    z 0.000000 0.000000 1.883320 
# 
# From -- ./inp_files/16490.got.cif
#   From: 2010.05.17/outbox.cif.g08.bks.cpg/sg44_9_cif.got.tgz:16490.got - 2010.06.03 19:37:08.
