data_PCOD9374927
_publ_section_title
;
Structure prediction by ZEFSAII (Michael W. Deem and Ramdas Pophale) SiO2 
 PCOD9374927
Probable space group: I M M 2
;
_chemical_formula_sum "Si O2"
_cell_formula_units_Z 40
_cell_length_a 9.009688
_cell_length_b 14.762225
_cell_length_c 14.934293
_cell_angle_alpha 90.000000
_cell_angle_beta 90.000000
_cell_angle_gamma 90.000000
_cell_volume 1986.306391
_symmetry_space_group_name_H-M "I M M 2"
_symmetry_group_IT_number 44
_symmetry_cell_setting 'orthorhombic'
loop_
_space_group_symop_operation_xyz
x,y,z
-x,-y,z
-x,y,z
x,-y,z
1/2+x,1/2+y,1/2+z
1/2-x,1/2-y,1/2+z
1/2-x,1/2+y,1/2+z
1/2+x,1/2-y,1/2+z
loop_
_atom_site_type_symbol
_atom_site_label
_atom_site_fract_x
_atom_site_fract_y
_atom_site_fract_z
Si Si1 0.180487 0.500000 0.531010
Si Si2 0.820492 0.000000 0.229707
Si Si3 0.175026 0.650818 0.857102
Si Si4 0.161356 0.894056 0.530068
Si Si5 0.322611 0.154350 0.888290
Si Si6 0.837361 0.394651 0.189685
O O1 0.257708 0.500000 0.628125
O O2 0.220364 0.411087 0.470828
O O3 0.000000 0.500000 0.541176
O O4 0.759149 0.088311 0.283961
O O5 0.000000 0.000000 0.231219
O O6 0.237884 0.751891 0.871550
O O7 0.000000 0.649915 0.838786
O O8 0.215285 0.611220 0.954230
O O9 0.219764 0.851470 0.622273
O O10 0.000000 0.856392 0.502332
O O11 0.139408 0.000000 0.545180
O O12 0.500000 0.169273 0.896553
O O13 0.297938 0.105650 0.793374
O O14 0.850855 0.500000 0.164617
O O15 0.000000 0.351397 0.179089
#
# Coordination Sequence:
#
# PCOD9374927 Si02
#       6
#     4   4   8   8   8   8
#     4  10  22  44  71  98 131 176 223 270 328 392
#     4  12  26  46  69  94 129 174 223 278 336 394
#     4  12  25  41  64  93 126 168 216 268 324 390
#     4  10  20  35  58  87 119 155 195 247 308 368
#     4  10  21  40  66  95 129 169 214 266 321 383
#     4   9  17  33  59  89 119 154 196 244 303 366
#
# _framework density 20.137879999999999
#
# number of rings (size 3 to 8) (size 9 to 14) (size 15 to 20)
#    0.000    1.600    2.000    3.300    0.000    4.000 
#    0.000    0.000    0.000    0.000    0.000    0.000 
#    0.000    0.000    0.000    0.000    0.000    0.000 
#
# Total GULP energy -111396.289930 kJ/mol
# GULP energy per Si atom -5569.814497 kJ/mol
# Density = 2.009205 g / cm^3
# Si number density = 20.137880 Si / 1000 Ang^3
#
#
#
# Elastic Constant Matrix: (Units=GPa)
#
#
# Indices 1 2 3 4 5 6 
#
# 1 110.1026 61.2830 67.5320 0.0000 0.0000 0.0000
# 2 61.2830 101.8793 54.8543 0.0000 0.0000 0.0000
# 3 67.5320 54.8543 142.4548 0.0000 0.0000 0.0000
# 4 0.0000 0.0000 0.0000 1.9380 0.0000 0.0000
# 5 0.0000 0.0000 0.0000 0.0000 27.4325 0.0000
# 6 0.0000 0.0000 0.0000 0.0000 0.0000 12.7549
#
#
#
# Elastic Compliance Matrix: (Units=1/GPa)
#
#
# Indices 1 2 3 4 5 6 
#
# 1 0.015955 -0.006970 -0.004880 0.000000 0.000000 0.000000
# 2 -0.006970 0.015428 -0.002636 0.000000 0.000000 0.000000
# 3 -0.004880 -0.002636 0.010348 0.000000 0.000000 0.000000
# 4 0.000000 0.000000 0.000000 0.515997 0.000000 0.000000
# 5 0.000000 0.000000 0.000000 0.000000 0.036453 0.000000
# 6 0.000000 0.000000 0.000000 0.000000 0.000000 0.078401
#
#
# Mechanical properties :
#
#
# Convention : Reuss Voigt Hill
#
# Bulk Modulus (GPa) = 78.37852 80.19724 79.28788
# Shear Modulus (GPa) = 7.08409 19.80958 13.44684
#
# Velocity S-wave (km/s) = 1.87761 3.13980 2.58687
# Velocity P-wave (km/s) = 6.61105 7.28388 6.95561
#
# Compressibility (1/GPa) = 0.01275860
#
# Stress axis : x y z
#
# Youngs Moduli (GPa) = 62.67684 64.81859 96.63470
#
# Poissons Ratio (x) = 0.45178 0.47155
# Poissons Ratio (y) = 0.43685 0.25478
# Poissons Ratio (z) = 0.30584 0.17089
#
# Static dielectric constant tensor:
#      x y z
#    x 1.764000 0.000000 0.000000 
#    y 0.000000 1.572690 0.000000 
#    z 0.000000 0.000000 1.722940 
# 
# From -- ./inp_files/15812.got.cif
#   From: 2010.05.17/outbox.cif.g08.bks.cpg/sg44_8_cif.got.tgz:15812.got - 2010.06.03 19:37:08.
