data_PCOD9374802
_publ_section_title
;
Structure prediction by ZEFSAII (Michael W. Deem and Ramdas Pophale) SiO2 
 PCOD9374802
Probable space group: I M M 2
;
_chemical_formula_sum "Si O2"
_cell_formula_units_Z 40
_cell_length_a 23.917662
_cell_length_b 8.942731
_cell_length_c 10.284672
_cell_angle_alpha 90.000000
_cell_angle_beta 90.000000
_cell_angle_gamma 90.000000
_cell_volume 2199.780445
_symmetry_space_group_name_H-M "I M M 2"
_symmetry_group_IT_number 44
_symmetry_cell_setting 'orthorhombic'
loop_
_space_group_symop_operation_xyz
x,y,z
-x,-y,z
-x,y,z
x,-y,z
1/2+x,1/2+y,1/2+z
1/2-x,1/2-y,1/2+z
1/2-x,1/2+y,1/2+z
1/2+x,1/2-y,1/2+z
loop_
_atom_site_type_symbol
_atom_site_label
_atom_site_fract_x
_atom_site_fract_y
_atom_site_fract_z
Si Si1 0.364671 0.178113 0.826390
Si Si2 0.747832 0.177741 0.249607
Si Si3 0.148524 0.173953 0.877384
Si Si4 0.564319 0.179300 0.579128
Si Si5 0.342571 0.673999 0.088591
O O1 0.307679 0.248059 0.769126
O O2 0.413798 0.210578 0.724548
O O3 0.358316 0.000000 0.837473
O O4 0.372258 0.249296 0.968098
O O5 0.705831 0.232105 0.364487
O O6 0.715346 0.241432 0.123281
O O7 0.751877 0.000000 0.245497
O O8 0.126079 0.182202 0.727892
O O9 0.161055 0.000000 0.904752
O O10 0.105439 0.240062 0.978862
O O11 0.500000 0.224173 0.562188
O O12 0.568405 0.000000 0.559555
O O13 0.331534 0.500000 0.060154
#
# Coordination Sequence:
#
# PCOD9374802 Si02
#       5
#     8   8   8   8   8
#     4  11  22  36  58  87 122 159 201 249 303 362
#     4  10  20  34  57  86 121 156 192 241 306 362
#     4   9  20  37  59  85 117 152 197 248 297 357
#     4  10  23  42  62  86 119 162 209 252 299 359
#     4   9  20  37  56  85 119 150 194 241 296 360
#
# _framework density 18.183630999999998
#
# number of rings (size 3 to 8) (size 9 to 14) (size 15 to 20)
#    1.200    1.000    0.000    3.000    2.800    2.000 
#    0.000    1.000    0.000    3.600    0.000    0.000 
#    0.000    0.000    0.000    0.000    0.000    0.000 
#
# Total GULP energy -111468.520567 kJ/mol
# GULP energy per Si atom -5573.426028 kJ/mol
# Density = 1.814224 g / cm^3
# Si number density = 18.183631 Si / 1000 Ang^3
#
#
#
# Elastic Constant Matrix: (Units=GPa)
#
#
# Indices 1 2 3 4 5 6 
#
# 1 45.1574 17.8809 6.5158 0.0000 0.0000 0.0000
# 2 17.8809 87.6455 32.1385 0.0000 0.0000 0.0000
# 3 6.5158 32.1385 72.3456 0.0000 0.0000 0.0000
# 4 0.0000 0.0000 0.0000 31.3372 0.0000 0.0000
# 5 0.0000 0.0000 0.0000 0.0000 -24.9928 0.0000
# 6 0.0000 0.0000 0.0000 0.0000 0.0000 15.7989
#
#
#
# Elastic Compliance Matrix: (Units=1/GPa)
#
#
# Indices 1 2 3 4 5 6 
#
# 1 0.024091 -0.004921 0.000016 0.000000 0.000000 0.000000
# 2 -0.004921 0.014635 -0.006058 0.000000 0.000000 0.000000
# 3 0.000016 -0.006058 0.016512 0.000000 0.000000 0.000000
# 4 0.000000 0.000000 0.000000 0.031911 0.000000 0.000000
# 5 0.000000 0.000000 0.000000 0.000000 -0.040012 0.000000
# 6 0.000000 0.000000 0.000000 0.000000 0.000000 0.063296
#
#
# Mechanical properties :
#
#
# Convention : Reuss Voigt Hill
#
# Bulk Modulus (GPa) = 30.01858 35.35766 32.68812
# Shear Modulus (GPa) = 34.85221 14.33622 24.59421
#
# Velocity S-wave (km/s) = 4.38274 2.81092 3.68169
# Velocity P-wave (km/s) = 6.49274 5.47923 6.00740
#
# Compressibility (1/GPa) = 0.03331271
#
# Stress axis : x y z
#
# Youngs Moduli (GPa) = 41.50944 68.32936 60.56071
#
# Poissons Ratio (x) = 0.33624 -0.00099
# Poissons Ratio (y) = 0.20426 0.36689
# Poissons Ratio (z) = -0.00068 0.41395
#
# Static dielectric constant tensor:
#      x y z
#    x 1.630260 0.000000 0.000000 
#    y 0.000000 1.605680 0.000000 
#    z 0.000000 0.000000 1.665640 
# 
# From -- ./inp_files/4445.got.cif
#   From: 2010.05.17/outbox.cif.g08.bks.cpg/sg44_3_cif.got.tgz:4445.got - 2010.06.03 19:37:08.
