data_PCOD9374304
_publ_section_title
;
Structure prediction by ZEFSAII (Michael W. Deem and Ramdas Pophale) SiO2 
 PCOD9374304
Probable space group: I M M 2
;
_chemical_formula_sum "Si O2"
_cell_formula_units_Z 48
_cell_length_a 10.581101
_cell_length_b 8.594181
_cell_length_c 29.173963
_cell_angle_alpha 90.000000
_cell_angle_beta 90.000000
_cell_angle_gamma 90.000000
_cell_volume 2652.960500
_symmetry_space_group_name_H-M "I M M 2"
_symmetry_group_IT_number 44
_symmetry_cell_setting 'orthorhombic'
loop_
_space_group_symop_operation_xyz
x,y,z
-x,-y,z
-x,y,z
x,-y,z
1/2+x,1/2+y,1/2+z
1/2-x,1/2-y,1/2+z
1/2-x,1/2+y,1/2+z
1/2+x,1/2-y,1/2+z
loop_
_atom_site_type_symbol
_atom_site_label
_atom_site_fract_x
_atom_site_fract_y
_atom_site_fract_z
Si Si1 0.242735 0.188602 0.390300
Si Si2 0.500000 0.314873 0.543346
Si Si3 0.350417 0.687337 0.691121
Si Si4 0.000000 0.688433 0.940344
Si Si5 0.741738 0.814022 0.597554
Si Si6 0.500000 0.185458 0.944439
Si Si7 0.646584 0.310744 0.793570
Si Si8 0.500000 0.311558 0.047572
O O1 0.373828 0.237152 0.413418
O O2 0.123945 0.250301 0.418876
O O3 0.226813 0.239362 0.337401
O O4 0.237821 0.000000 0.391090
O O5 0.500000 0.500000 0.543714
O O6 0.500000 0.253087 0.491579
O O7 0.375812 0.255411 0.569582
O O8 0.500000 0.723882 0.685257
O O9 0.339358 0.500000 0.688504
O O10 0.272971 0.761710 0.650038
O O11 0.313544 0.738734 0.742563
O O12 0.000000 0.500000 0.942818
O O13 0.873742 0.764539 0.574776
O O14 0.734065 0.000000 0.594998
O O15 0.500000 0.000000 0.942817
O O16 0.500000 0.242719 0.996762
O O17 0.500000 0.264270 0.800570
O O18 0.647411 0.500000 0.792837
O O19 0.500000 0.500000 0.043941
#
# Coordination Sequence:
#
# PCOD9374304 Si02
#       8
#     8   4   8   4   8   4   8   4
#     4  10  19  36  59  81 110 147 183 221 267 318
#     4  12  24  38  57  80 109 146 184 224 273 324
#     4   9  17  31  54  84 114 141 175 220 270 321
#     4  10  22  36  55  84 112 142 184 226 266 320
#     4  11  22  38  59  82 108 141 184 227 269 321
#     4  12  24  36  55  84 109 138 186 232 271 320
#     4   8  14  28  54  82 107 141 180 218 263 316
#     4  10  24  42  57  76 108 148 184 222 270 326
#
# _framework density 18.092994999999998
#
# number of rings (size 3 to 8) (size 9 to 14) (size 15 to 20)
#    0.000    2.000    1.667    4.000    0.000    6.000 
#    0.000    1.667    0.000    2.000    0.000    0.000 
#    0.000    0.000    0.000    0.000    0.000    0.000 
#
# Total GULP energy -133990.577019 kJ/mol
# GULP energy per Si atom -5582.940709 kJ/mol
# Density = 1.805181 g / cm^3
# Si number density = 18.092995 Si / 1000 Ang^3
#
#
#
# Elastic Constant Matrix: (Units=GPa)
#
#
# Indices 1 2 3 4 5 6 
#
# 1 148.6378 32.4516 99.9969 0.0000 0.0000 0.0000
# 2 32.4516 20.6271 32.6745 0.0000 0.0000 0.0000
# 3 99.9969 32.6745 200.5532 0.0000 0.0000 0.0000
# 4 0.0000 0.0000 0.0000 26.8171 0.0000 0.0000
# 5 0.0000 0.0000 0.0000 0.0000 -6.8302 0.0000
# 6 0.0000 0.0000 0.0000 0.0000 0.0000 -2.2076
#
#
#
# Elastic Compliance Matrix: (Units=1/GPa)
#
#
# Indices 1 2 3 4 5 6 
#
# 1 0.012238 -0.012922 -0.003996 0.000000 0.000000 0.000000
# 2 -0.012922 0.078989 -0.006426 0.000000 0.000000 0.000000
# 3 -0.003996 -0.006426 0.008026 0.000000 0.000000 0.000000
# 4 0.000000 0.000000 0.000000 0.037290 0.000000 0.000000
# 5 0.000000 0.000000 0.000000 0.000000 -0.146408 0.000000
# 6 0.000000 0.000000 0.000000 0.000000 0.000000 -0.452983
#
#
# Mechanical properties :
#
#
# Convention : Reuss Voigt Hill
#
# Bulk Modulus (GPa) = 19.02476 77.78490 48.40483
# Shear Modulus (GPa) = -12.54267 17.20220 2.32977
#
# Velocity S-wave (km/s) = -2.63579 3.08679 1.13598
# Velocity P-wave (km/s) = 1.12900 7.46923 5.34154
#
# Compressibility (1/GPa) = 0.05256309
#
# Stress axis : x y z
#
# Youngs Moduli (GPa) = 81.71467 12.65999 124.59876
#
# Poissons Ratio (x) = 0.16360 0.49795
# Poissons Ratio (y) = 1.05595 0.80065
# Poissons Ratio (z) = 0.32657 0.08135
#
# Static dielectric constant tensor:
#      x y z
#    x 1.593900 0.000000 0.000000 
#    y 0.000000 1.619080 0.000000 
#    z 0.000000 0.000000 1.619890 
# 
# From -- ./inp_files/27078.got.cif
#   From: 2010.05.17/outbox.cif.g08.bks.cpg/sg44_14_cif.got.tgz:27078.got - 2010.06.03 19:37:08.
