data_PCOD9374015
_publ_section_title
;
Structure prediction by ZEFSAII (Michael W. Deem and Ramdas Pophale) SiO2 
 PCOD9374015
Probable space group: I M M 2
;
_chemical_formula_sum "Si O2"
_cell_formula_units_Z 56
_cell_length_a 25.164190
_cell_length_b 7.478912
_cell_length_c 14.020403
_cell_angle_alpha 90.000000
_cell_angle_beta 90.000000
_cell_angle_gamma 90.000000
_cell_volume 2638.650536
_symmetry_space_group_name_H-M "I M M 2"
_symmetry_group_IT_number 44
_symmetry_cell_setting 'orthorhombic'
loop_
_space_group_symop_operation_xyz
x,y,z
-x,-y,z
-x,y,z
x,-y,z
1/2+x,1/2+y,1/2+z
1/2-x,1/2-y,1/2+z
1/2-x,1/2+y,1/2+z
1/2+x,1/2-y,1/2+z
loop_
_atom_site_type_symbol
_atom_site_label
_atom_site_fract_x
_atom_site_fract_y
_atom_site_fract_z
Si Si1 0.559695 0.218321 0.878690
Si Si2 0.773004 0.280936 0.297384
Si Si3 0.122155 0.712287 0.194302
Si Si4 0.941026 0.213857 0.008776
Si Si5 0.834615 0.284721 0.483641
Si Si6 0.059442 0.781542 0.790360
Si Si7 0.666927 0.289676 0.201743
O O1 0.500000 0.279625 0.899235
O O2 0.579770 0.276490 0.773597
O O3 0.606337 0.274595 0.950907
O O4 0.558693 0.000000 0.879825
O O5 0.771727 0.500000 0.296653
O O6 0.819526 0.222413 0.224331
O O7 0.793181 0.226270 0.402127
O O8 0.715663 0.216070 0.263756
O O9 0.124199 0.500000 0.207293
O O10 0.102239 0.744249 0.088132
O O11 0.000000 0.279975 0.037775
O O12 0.943682 0.000000 0.004230
O O13 0.930830 0.273318 0.900487
O O14 0.834957 0.500000 0.481613
O O15 0.821637 0.228394 0.590060
O O16 0.108633 0.717333 0.727323
O O17 0.000000 0.722551 0.762432
O O18 0.058215 0.000000 0.787847
O O19 0.664521 0.500000 0.224218
#
# Coordination Sequence:
#
# PCOD9374015 Si02
#       7
#     8   8   8   8   8   8   8
#     4   8  14  26  45  67  92 124 155 182 223 279
#     4   8  17  33  49  67  94 126 154 184 229 283
#     4   9  16  28  47  69  93 122 158 194 227 271
#     4   9  17  29  45  68  98 127 155 190 231 272
#     4   9  18  33  50  69  94 120 151 190 227 270
#     4   8  16  31  48  66  91 124 158 188 224 278
#     4  10  19  33  53  71  90 121 157 190 229 275
#
# _framework density 21.222968999999999
#
# number of rings (size 3 to 8) (size 9 to 14) (size 15 to 20)
#    0.000    3.286    0.000    3.000    0.000    2.571 
#    0.000    6.429    0.000    1.714    0.000    0.000 
#    0.000    0.000    0.000    0.000    0.000    0.000 
#
# Total GULP energy -156152.174797 kJ/mol
# GULP energy per Si atom -5576.863386 kJ/mol
# Density = 2.117466 g / cm^3
# Si number density = 21.222969 Si / 1000 Ang^3
#
#
#
# Elastic Constant Matrix: (Units=GPa)
#
#
# Indices 1 2 3 4 5 6 
#
# 1 176.6881 7.1147 91.2392 0.0000 0.0000 0.0000
# 2 7.1147 54.6423 -6.3305 0.0000 0.0000 0.0000
# 3 91.2392 -6.3305 94.9133 0.0000 0.0000 0.0000
# 4 0.0000 0.0000 0.0000 19.4906 0.0000 0.0000
# 5 0.0000 0.0000 0.0000 0.0000 22.6310 0.0000
# 6 0.0000 0.0000 0.0000 0.0000 0.0000 1.4106
#
#
#
# Elastic Compliance Matrix: (Units=1/GPa)
#
#
# Indices 1 2 3 4 5 6 
#
# 1 0.011659 -0.002839 -0.011397 0.000000 0.000000 0.000000
# 2 -0.002839 0.019134 0.004005 0.000000 0.000000 0.000000
# 3 -0.011397 0.004005 0.021759 0.000000 0.000000 0.000000
# 4 0.000000 0.000000 0.000000 0.051307 0.000000 0.000000
# 5 0.000000 0.000000 0.000000 0.000000 0.044187 0.000000
# 6 0.000000 0.000000 0.000000 0.000000 0.000000 0.708912
#
#
# Mechanical properties :
#
#
# Convention : Reuss Voigt Hill
#
# Bulk Modulus (GPa) = 31.16139 56.69892 43.93015
# Shear Modulus (GPa) = 5.62988 24.32113 14.97550
#
# Velocity S-wave (km/s) = 1.63049 3.38891 2.65925
# Velocity P-wave (km/s) = 4.27310 6.48743 5.49300
#
# Compressibility (1/GPa) = 0.03209100
#
# Stress axis : x y z
#
# Youngs Moduli (GPa) = 85.76702 52.26181 45.95725
#
# Poissons Ratio (x) = 0.14835 0.52380
# Poissons Ratio (y) = 0.24345 -0.18405
# Poissons Ratio (z) = 0.97753 -0.20930
#
# Static dielectric constant tensor:
#      x y z
#    x 1.776290 0.000000 0.000000 
#    y 0.000000 1.809320 0.000000 
#    z 0.000000 0.000000 1.733880 
# 
# From -- ./inp_files/14661.got.cif
#   From: 2010.05.17/outbox.cif.g08.bks.cpg/sg44_8_cif.got.tgz:14661.got - 2010.06.03 19:37:08.
