data_PCOD9374296
_publ_section_title
;
Structure prediction by ZEFSAII (Michael W. Deem and Ramdas Pophale) SiO2 
 PCOD9374296
Probable space group: I M M 2
;
_chemical_formula_sum "Si O2"
_cell_formula_units_Z 48
_cell_length_a 29.080802
_cell_length_b 8.573345
_cell_length_c 10.601746
_cell_angle_alpha 90.000000
_cell_angle_beta 90.000000
_cell_angle_gamma 90.000000
_cell_volume 2643.224646
_symmetry_space_group_name_H-M "I M M 2"
_symmetry_group_IT_number 44
_symmetry_cell_setting 'orthorhombic'
loop_
_space_group_symop_operation_xyz
x,y,z
-x,-y,z
-x,y,z
x,-y,z
1/2+x,1/2+y,1/2+z
1/2-x,1/2-y,1/2+z
1/2-x,1/2+y,1/2+z
1/2+x,1/2-y,1/2+z
loop_
_atom_site_type_symbol
_atom_site_label
_atom_site_fract_x
_atom_site_fract_y
_atom_site_fract_z
Si Si1 0.447950 0.686661 0.692330
Si Si2 0.299509 0.810151 0.542940
Si Si3 0.854074 0.688637 0.791087
Si Si4 0.551612 0.188230 0.408950
Si Si5 0.693494 0.313151 0.040555
Si Si6 0.355285 0.813128 0.791193
O O1 0.500000 0.734493 0.728408
O O2 0.445488 0.500000 0.695738
O O3 0.440745 0.743428 0.548419
O O4 0.407594 0.757037 0.776268
O O5 0.324767 0.762502 0.414183
O O6 0.246622 0.758708 0.545475
O O7 0.327325 0.758396 0.666719
O O8 0.300027 0.000000 0.544382
O O9 0.852241 0.500000 0.783035
O O10 0.906858 0.735108 0.818057
O O11 0.832872 0.758011 0.665144
O O12 0.500000 0.232416 0.367741
O O13 0.553292 0.000000 0.420498
O O14 0.693726 0.500000 0.035958
O O15 0.668834 0.249626 0.916099
O O16 0.354412 0.000000 0.792651
#
# Coordination Sequence:
#
# PCOD9374296 Si02
#       6
#     8   8   8   8   8   8
#     4  10  20  34  55  85 116 143 178 228 283 334
#     4   9  19  36  58  82 109 142 189 237 276 324
#     4  10  19  36  57  80 110 144 182 228 277 331
#     4   9  17  32  57  84 108 139 182 229 273 325
#     4  11  23  37  53  80 116 150 185 231 283 333
#     4  11  21  38  60  83 111 149 192 232 274 330
#
# _framework density 18.159637
#
# number of rings (size 3 to 8) (size 9 to 14) (size 15 to 20)
#    0.000    2.000    1.667    2.500    0.000    1.667 
#    0.000    4.167    0.000    3.000    0.000    0.000 
#    0.000    0.000    0.000    0.000    0.000    0.000 
#
# Total GULP energy -133999.687801 kJ/mol
# GULP energy per Si atom -5583.320325 kJ/mol
# Density = 1.811830 g / cm^3
# Si number density = 18.159637 Si / 1000 Ang^3
#
#
#
# Elastic Constant Matrix: (Units=GPa)
#
#
# Indices 1 2 3 4 5 6 
#
# 1 180.2247 38.9385 90.3665 0.0000 0.0000 0.0000
# 2 38.9385 25.6193 28.2693 0.0000 0.0000 0.0000
# 3 90.3665 28.2693 139.3327 0.0000 0.0000 0.0000
# 4 0.0000 0.0000 0.0000 22.1062 0.0000 0.0000
# 5 0.0000 0.0000 0.0000 0.0000 -11.6258 0.0000
# 6 0.0000 0.0000 0.0000 0.0000 0.0000 23.4515
#
#
#
# Elastic Compliance Matrix: (Units=1/GPa)
#
#
# Indices 1 2 3 4 5 6 
#
# 1 0.009973 -0.010335 -0.004372 0.000000 0.000000 0.000000
# 2 -0.010335 0.061001 -0.005674 0.000000 0.000000 0.000000
# 3 -0.004372 -0.005674 0.011164 0.000000 0.000000 0.000000
# 4 0.000000 0.000000 0.000000 0.045236 0.000000 0.000000
# 5 0.000000 0.000000 0.000000 0.000000 -0.086015 0.000000
# 6 0.000000 0.000000 0.000000 0.000000 0.000000 0.042641
#
#
# Mechanical properties :
#
#
# Convention : Reuss Voigt Hill
#
# Bulk Modulus (GPa) = 24.16745 73.36948 48.76847
# Shear Modulus (GPa) = 36.08710 19.29321 27.69015
#
# Velocity S-wave (km/s) = 4.46266 3.26302 3.90913
# Velocity P-wave (km/s) = 6.31593 7.39504 6.87668
#
# Compressibility (1/GPa) = 0.04137796
#
# Stress axis : x y z
#
# Youngs Moduli (GPa) = 100.26576 16.39306 89.57730
#
# Poissons Ratio (x) = 0.16942 0.39160
# Poissons Ratio (y) = 1.03622 0.50825
# Poissons Ratio (z) = 0.43833 0.09301
#
# Static dielectric constant tensor:
#      x y z
#    x 1.637320 0.000000 0.000000 
#    y 0.000000 1.617520 0.000000 
#    z 0.000000 0.000000 1.575170 
# 
# From -- ./inp_files/4920.got.cif
#   From: 2010.05.17/outbox.cif.g08.bks.cpg/sg44_3_cif.got.tgz:4920.got - 2010.06.03 19:37:08.
