data_PCOD9374738
_publ_section_title
;
Structure prediction by ZEFSAII (Michael W. Deem and Ramdas Pophale) SiO2 
 PCOD9374738
Probable space group: I M M 2
;
_chemical_formula_sum "Si O2"
_cell_formula_units_Z 64
_cell_length_a 8.972996
_cell_length_b 29.704275
_cell_length_c 12.308561
_cell_angle_alpha 90.000000
_cell_angle_beta 90.000000
_cell_angle_gamma 90.000000
_cell_volume 3280.678809
_symmetry_space_group_name_H-M "I M M 2"
_symmetry_group_IT_number 44
_symmetry_cell_setting 'orthorhombic'
loop_
_space_group_symop_operation_xyz
x,y,z
-x,-y,z
-x,y,z
x,-y,z
1/2+x,1/2+y,1/2+z
1/2-x,1/2-y,1/2+z
1/2-x,1/2+y,1/2+z
1/2+x,1/2-y,1/2+z
loop_
_atom_site_type_symbol
_atom_site_label
_atom_site_fract_x
_atom_site_fract_y
_atom_site_fract_z
Si Si1 0.170163 0.367874 0.889400
Si Si2 0.828107 0.334115 0.130025
Si Si3 0.318089 0.346853 0.496479
Si Si4 0.678696 0.550223 0.451982
Si Si5 0.675375 0.720493 0.302084
Si Si6 0.170994 0.920893 0.710155
Si Si7 0.825151 0.190450 0.228693
Si Si8 0.165982 0.949625 0.468950
O O1 0.284742 0.353120 0.798472
O O2 0.206008 0.418708 0.922211
O O3 0.000000 0.361437 0.854106
O O4 0.193106 0.340689 0.001865
O O5 0.717515 0.299269 0.184555
O O6 0.786271 0.381010 0.187970
O O7 0.000000 0.321759 0.150009
O O8 0.500000 0.348540 0.494315
O O9 0.268491 0.399796 0.492978
O O10 0.272533 0.315887 0.393019
O O11 0.272659 0.320540 0.606090
O O12 0.500000 0.549752 0.471848
O O13 0.734444 0.500000 0.488062
O O14 0.700750 0.553629 0.321585
O O15 0.500000 0.725749 0.317095
O O16 0.749560 0.769250 0.295984
O O17 0.175027 0.949333 0.599982
O O18 0.000000 0.902410 0.719968
O O19 0.000000 0.199328 0.222992
O O20 0.000000 0.931044 0.443804
O O21 0.175017 0.000000 0.427972
#
# Coordination Sequence:
#
# PCOD9374738 Si02
#       8
#     8   8   8   8   8   8   8   8
#     4  10  22  39  57  80 115 156 197 239 287 342
#     4  10  20  34  54  82 115 151 187 230 281 339
#     4   9  20  38  58  84 120 153 185 243 299 349
#     4   9  15  27  53  86 115 148 190 232 285 349
#     4  11  22  39  62  87 115 149 188 232 294 358
#     4   9  15  27  49  80 116 150 183 231 288 344
#     4  11  24  41  60  84 115 152 196 245 297 348
#     4   9  17  30  52  84 117 150 193 245 295 343
#
# _framework density 19.508157000000001
#
# number of rings (size 3 to 8) (size 9 to 14) (size 15 to 20)
#    0.000    2.250    1.250    1.875    1.750    3.250 
#    0.000    2.500    0.000    3.375    0.000    0.000 
#    0.000    0.000    0.000    0.000    0.000    0.000 
#
# Total GULP energy -178227.995923 kJ/mol
# GULP energy per Si atom -5569.624873 kJ/mol
# Density = 1.946376 g / cm^3
# Si number density = 19.508157 Si / 1000 Ang^3
#
#
#
# Elastic Constant Matrix: (Units=GPa)
#
#
# Indices 1 2 3 4 5 6 
#
# 1 21.8923 15.8109 21.3938 0.0002 0.0001 0.0000
# 2 15.8109 86.2100 31.0639 0.0000 0.0000 0.0000
# 3 21.3938 31.0639 53.1795 0.0007 0.0003 0.0001
# 4 0.0002 0.0000 0.0007 5.8965 0.0001 0.0000
# 5 0.0001 0.0000 0.0003 0.0001 13.4192 0.0000
# 6 0.0000 0.0000 0.0001 0.0000 0.0000 13.1125
#
#
#
# Elastic Compliance Matrix: (Units=1/GPa)
#
#
# Indices 1 2 3 4 5 6 
#
# 1 0.076194 -0.003710 -0.028485 0.000001 0.000000 0.000000
# 2 -0.003710 0.014873 -0.007195 0.000001 0.000000 0.000000
# 3 -0.028485 -0.007195 0.034467 -0.000003 -0.000001 0.000000
# 4 0.000001 0.000001 -0.000003 0.169593 -0.000002 0.000000
# 5 0.000000 0.000000 -0.000001 -0.000002 0.074520 0.000000
# 6 0.000000 0.000000 0.000000 0.000000 0.000000 0.076263
#
#
# Mechanical properties :
#
#
# Convention : Reuss Voigt Hill
#
# Bulk Modulus (GPa) = 21.38919 33.09102 27.24010
# Shear Modulus (GPa) = 9.25456 12.68651 10.97054
#
# Velocity S-wave (km/s) = 2.18042 2.55290 2.37398
# Velocity P-wave (km/s) = 4.16257 5.06845 4.63768
#
# Compressibility (1/GPa) = 0.04675260
#
# Stress axis : x y z
#
# Youngs Moduli (GPa) = 13.12436 67.23786 29.01349
#
# Poissons Ratio (x) = 0.24944 0.82646
# Poissons Ratio (y) = 0.04869 0.20876
# Poissons Ratio (z) = 0.37385 0.48379
#
# Static dielectric constant tensor:
#      x y z
#    x 1.673080 0.000000 0.000000 
#    y 0.000000 1.755390 0.000000 
#    z 0.000000 0.000000 1.683970 
# 
# From -- ./inp_files/11458.got.cif
#   From: 2010.05.17/outbox.cif.g08.bks.cpg/sg44_6_cif.got.tgz:11458.got - 2010.06.03 19:37:08.
