data_PCOD9374722
_publ_section_title
;
Structure prediction by ZEFSAII (Michael W. Deem and Ramdas Pophale) SiO2 
 PCOD9374722
Probable space group: I M M 2
;
_chemical_formula_sum "Si O2"
_cell_formula_units_Z 64
_cell_length_a 20.605595
_cell_length_b 8.995752
_cell_length_c 20.177873
_cell_angle_alpha 90.000000
_cell_angle_beta 90.000000
_cell_angle_gamma 90.000000
_cell_volume 3740.227490
_symmetry_space_group_name_H-M "I M M 2"
_symmetry_group_IT_number 44
_symmetry_cell_setting 'orthorhombic'
loop_
_space_group_symop_operation_xyz
x,y,z
-x,-y,z
-x,y,z
x,-y,z
1/2+x,1/2+y,1/2+z
1/2-x,1/2-y,1/2+z
1/2-x,1/2+y,1/2+z
1/2+x,1/2-y,1/2+z
loop_
_atom_site_type_symbol
_atom_site_label
_atom_site_fract_x
_atom_site_fract_y
_atom_site_fract_z
Si Si1 0.679330 0.677855 0.052920
Si Si2 0.925037 0.821632 0.313249
Si Si3 0.817755 0.178332 0.206100
Si Si4 0.179988 0.822943 0.708220
Si Si5 0.925242 0.321396 0.803411
Si Si6 0.424101 0.177531 0.955440
Si Si7 0.818209 0.822165 0.051899
Si Si8 0.924731 0.321467 0.957978
O O1 0.681793 0.500000 0.045196
O O2 0.667479 0.712247 0.130640
O O3 0.749095 0.747899 0.035126
O O4 0.623354 0.746378 0.007759
O O5 0.875619 0.778672 0.255279
O O6 0.910068 0.740079 0.382062
O O7 0.000000 0.789097 0.295574
O O8 0.919909 0.000000 0.323328
O O9 0.750222 0.255066 0.224926
O O10 0.832026 0.214401 0.129232
O O11 0.809529 0.000000 0.210192
O O12 0.125010 0.755487 0.754802
O O13 0.181942 0.000000 0.715110
O O14 0.920077 0.500000 0.797151
O O15 0.912644 0.284730 0.880624
O O16 0.000000 0.280344 0.788614
O O17 0.500000 0.211314 0.969560
O O18 0.415954 0.000000 0.956700
O O19 0.813242 0.000000 0.045840
O O20 0.874578 0.759970 0.005405
O O21 0.917954 0.500000 0.964861
O O22 0.000000 0.284057 0.972653
#
# Coordination Sequence:
#
# PCOD9374722 Si02
#       8
#     8   8   8   8   8   8   8   8
#     4  10  21  37  55  75 103 139 175 210 254 311
#     4   9  18  34  55  77 103 137 174 210 252 305
#     4   9  19  35  54  76 104 138 173 210 254 307
#     4  10  21  35  53  78 105 133 169 214 258 302
#     4   9  19  36  56  76 101 136 174 209 250 305
#     4  10  21  36  54  78 106 134 169 215 261 304
#     4  10  20  34  54  80 107 135 172 218 262 302
#     4   9  19  36  55  76 105 141 178 212 251 306
#
# _framework density 17.111260000000001
#
# number of rings (size 3 to 8) (size 9 to 14) (size 15 to 20)
#    0.000    2.500    0.000    2.250    0.000    6.250 
#    0.000    6.250    0.000    1.500    0.000    0.000 
#    0.000    0.000    0.000    0.000    0.000    0.000 
#
# Total GULP energy -178563.486916 kJ/mol
# GULP energy per Si atom -5580.108966 kJ/mol
# Density = 1.707231 g / cm^3
# Si number density = 17.111260 Si / 1000 Ang^3
#
#
#
# Elastic Constant Matrix: (Units=GPa)
#
#
# Indices 1 2 3 4 5 6 
#
# 1 158.2074 70.8401 121.4749 0.0000 0.0000 0.0000
# 2 70.8401 48.9122 60.4454 0.0000 0.0000 0.0000
# 3 121.4749 60.4454 111.6293 0.0000 0.0000 0.0000
# 4 0.0000 0.0000 0.0000 29.7711 0.0000 0.0000
# 5 0.0000 0.0000 0.0000 0.0000 43.9515 0.0000
# 6 0.0000 0.0000 0.0000 0.0000 0.0000 31.5046
#
#
#
# Elastic Compliance Matrix: (Units=1/GPa)
#
#
# Indices 1 2 3 4 5 6 
#
# 1 0.040926 -0.012806 -0.037602 0.000000 0.000000 0.000000
# 2 -0.012806 0.065804 -0.021696 0.000000 0.000000 0.000000
# 3 -0.037602 -0.021696 0.061624 0.000000 0.000000 0.000000
# 4 0.000000 0.000000 0.000000 0.033590 0.000000 0.000000
# 5 0.000000 0.000000 0.000000 0.000000 0.022752 0.000000
# 6 0.000000 0.000000 0.000000 0.000000 0.000000 0.031741
#
#
# Mechanical properties :
#
#
# Convention : Reuss Voigt Hill
#
# Bulk Modulus (GPa) = 41.41335 91.58551 66.49943
# Shear Modulus (GPa) = 12.23408 25.44469 18.83938
#
# Velocity S-wave (km/s) = 2.67680 3.86037 3.32172
# Velocity P-wave (km/s) = 5.81452 8.57378 7.32524
#
# Compressibility (1/GPa) = 0.02414680
#
# Stress axis : x y z
#
# Youngs Moduli (GPa) = 24.43421 15.19667 16.22734
#
# Poissons Ratio (x) = 0.19461 0.61017
# Poissons Ratio (y) = 0.31291 0.35207
# Poissons Ratio (z) = 0.91877 0.32971
#
# Static dielectric constant tensor:
#      x y z
#    x 1.552190 0.000000 0.000000 
#    y 0.000000 1.567940 0.000000 
#    z 0.000000 0.000000 1.559340 
# 
# From -- ./inp_files/20769.got.cif
#   From: 2010.05.17/outbox.cif.g08.bks.cpg/sg44_11_cif.got.tgz:20769.got - 2010.06.03 19:37:08.
