data_PCOD9374664
_publ_section_title
;
Structure prediction by ZEFSAII (Michael W. Deem and Ramdas Pophale) SiO2 
 PCOD9374664
Probable space group: I M M 2
;
_chemical_formula_sum "Si O2"
_cell_formula_units_Z 48
_cell_length_a 21.837436
_cell_length_b 7.284353
_cell_length_c 12.930576
_cell_angle_alpha 90.000000
_cell_angle_beta 90.000000
_cell_angle_gamma 90.000000
_cell_volume 2056.887315
_symmetry_space_group_name_H-M "I M M 2"
_symmetry_group_IT_number 44
_symmetry_cell_setting 'orthorhombic'
loop_
_space_group_symop_operation_xyz
x,y,z
-x,-y,z
-x,y,z
x,-y,z
1/2+x,1/2+y,1/2+z
1/2-x,1/2-y,1/2+z
1/2-x,1/2+y,1/2+z
1/2+x,1/2-y,1/2+z
loop_
_atom_site_type_symbol
_atom_site_label
_atom_site_fract_x
_atom_site_fract_y
_atom_site_fract_z
Si Si1 0.665673 0.779929 0.687160
Si Si2 0.701187 0.784609 0.121131
Si Si3 0.863278 0.724276 0.411004
Si Si4 0.070728 0.275851 0.022962
Si Si5 0.622504 0.222824 0.307922
Si Si6 0.000000 0.277890 0.688048
Si Si7 0.000000 0.276999 0.450812
O O1 0.726167 0.734356 0.622622
O O2 0.668971 0.714637 0.805373
O O3 0.605034 0.717830 0.627035
O O4 0.662403 0.000000 0.691443
O O5 0.675956 0.712191 0.231262
O O6 0.685574 0.000000 0.121516
O O7 0.668442 0.711977 0.017579
O O8 0.861689 0.500000 0.413380
O O9 0.934717 0.778990 0.405155
O O10 0.069286 0.500000 0.021506
O O11 0.000000 0.217337 0.013928
O O12 0.112078 0.216390 0.925269
O O13 0.560571 0.275486 0.248084
O O14 0.626171 0.000000 0.313574
O O15 0.000000 0.217922 0.570281
O O16 0.000000 0.500000 0.686132
O O17 0.000000 0.500000 0.448108
#
# Coordination Sequence:
#
# PCOD9374664 Si02
#       7
#     8   8   8   8   8   4   4
#     4  10  22  35  49  73 104 134 163 199 246 298
#     4  10  20  34  52  73  99 134 170 201 238 291
#     4   9  18  31  48  73 102 129 162 206 252 291
#     4   9  17  29  47  72 100 126 157 205 256 291
#     4   9  15  25  44  71 100 125 158 205 249 285
#     4   9  12  20  39  69 101 122 150 203 257 282
#     4   9  14  24  45  71  99 126 156 203 255 290
#
# _framework density 23.336234000000001
#
# number of rings (size 3 to 8) (size 9 to 14) (size 15 to 20)
#    0.000    2.667    2.500    0.000    3.500    0.000 
#    0.000    0.000    0.000    0.500    0.000    3.500 
#    0.000    0.000    0.000    0.000    0.000    0.000 
#
# Total GULP energy -134016.075626 kJ/mol
# GULP energy per Si atom -5584.003151 kJ/mol
# Density = 2.328312 g / cm^3
# Si number density = 23.336234 Si / 1000 Ang^3
#
#
#
# Elastic Constant Matrix: (Units=GPa)
#
#
# Indices 1 2 3 4 5 6 
#
# 1 107.6175 -7.4879 63.5053 0.0000 0.0000 0.0000
# 2 -7.4879 97.3002 6.0193 0.0000 0.0000 0.0000
# 3 63.5053 6.0193 141.0069 0.0000 0.0000 0.0000
# 4 0.0000 0.0000 0.0000 -15.1903 0.0000 0.0000
# 5 0.0000 0.0000 0.0000 0.0000 30.2391 0.0000
# 6 0.0000 0.0000 0.0000 0.0000 0.0000 7.2405
#
#
#
# Elastic Compliance Matrix: (Units=1/GPa)
#
#
# Indices 1 2 3 4 5 6 
#
# 1 0.012830 0.001348 -0.005836 0.000000 0.000000 0.000000
# 2 0.001348 0.010446 -0.001053 0.000000 0.000000 0.000000
# 3 -0.005836 -0.001053 0.009765 0.000000 0.000000 0.000000
# 4 0.000000 0.000000 0.000000 -0.065831 0.000000 0.000000
# 5 0.000000 0.000000 0.000000 0.000000 0.033070 0.000000
# 6 0.000000 0.000000 0.000000 0.000000 0.000000 0.138111
#
#
# Mechanical properties :
#
#
# Convention : Reuss Voigt Hill
#
# Bulk Modulus (GPa) = 45.53726 52.22200 48.87963
# Shear Modulus (GPa) = 31.88942 23.38372 27.63657
#
# Velocity S-wave (km/s) = 3.70066 3.16893 3.44507
# Velocity P-wave (km/s) = 6.14945 5.98466 6.06761
#
# Compressibility (1/GPa) = 0.02196004
#
# Stress axis : x y z
#
# Youngs Moduli (GPa) = 77.94475 95.72685 102.40651
#
# Poissons Ratio (x) = -0.12907 0.59761
# Poissons Ratio (y) = -0.10510 0.10785
# Poissons Ratio (z) = 0.45486 0.10082
#
# Static dielectric constant tensor:
#      x y z
#    x 1.818570 0.000000 0.000000 
#    y 0.000000 1.953660 0.000000 
#    z 0.000000 0.000000 1.851500 
# 
# From -- ./inp_files/12396.got.cif
#   From: 2010.05.17/outbox.cif.g08.bks.cpg/sg44_7_cif.got.tgz:12396.got - 2010.06.03 19:37:08.
