data_PCOD9374841
_publ_section_title
;
Structure prediction by ZEFSAII (Michael W. Deem and Ramdas Pophale) SiO2 
 PCOD9374841
Probable space group: I M M 2
;
_chemical_formula_sum "Si O2"
_cell_formula_units_Z 48
_cell_length_a 31.380276
_cell_length_b 7.569797
_cell_length_c 9.473476
_cell_angle_alpha 90.000000
_cell_angle_beta 90.000000
_cell_angle_gamma 90.000000
_cell_volume 2250.351459
_symmetry_space_group_name_H-M "I M M 2"
_symmetry_group_IT_number 44
_symmetry_cell_setting 'orthorhombic'
loop_
_space_group_symop_operation_xyz
x,y,z
-x,-y,z
-x,y,z
x,-y,z
1/2+x,1/2+y,1/2+z
1/2-x,1/2-y,1/2+z
1/2-x,1/2+y,1/2+z
1/2+x,1/2-y,1/2+z
loop_
_atom_site_type_symbol
_atom_site_label
_atom_site_fract_x
_atom_site_fract_y
_atom_site_fract_z
Si Si1 0.295433 0.792963 0.040870
Si Si2 0.047982 0.712517 0.841517
Si Si3 0.372690 0.783581 0.525231
Si Si4 0.548128 0.709799 0.014750
Si Si5 0.869433 0.294267 0.344074
Si Si6 0.787409 0.714266 0.859643
O O1 0.287945 0.720910 0.197974
O O2 0.305439 0.000000 0.063870
O O3 0.334842 0.715349 0.951955
O O4 0.253322 0.777707 0.946723
O O5 0.046792 0.500000 0.853085
O O6 0.058498 0.754196 0.678770
O O7 0.000000 0.779057 0.870169
O O8 0.084534 0.777097 0.946234
O O9 0.369722 0.719950 0.686216
O O10 0.330892 0.732975 0.437654
O O11 0.374073 0.000000 0.526120
O O12 0.500000 0.777501 0.989263
O O13 0.547737 0.500000 0.994162
O O14 0.584228 0.785338 0.914179
O O15 0.857423 0.500000 0.326882
O O16 0.785287 0.500000 0.860440
#
# Coordination Sequence:
#
# PCOD9374841 Si02
#       6
#     8   8   8   8   8   8
#     4  10  21  36  55  80 107 136 174 217 259 306
#     4   9  17  32  55  79 103 135 176 219 261 307
#     4   9  18  33  54  80 106 133 172 220 263 305
#     4  10  21  36  53  76 107 140 174 213 257 307
#     4  10  20  35  56  79 104 136 174 216 260 307
#     4  10  20  35  55  77 105 140 174 212 260 311
#
# _framework density 21.330003000000001
#
# number of rings (size 3 to 8) (size 9 to 14) (size 15 to 20)
#    0.000    2.333    0.000    2.500    0.000    7.000 
#    0.000    5.833    0.000    2.000    0.000    0.000 
#    0.000    0.000    0.000    0.000    0.000    0.000 
#
# Total GULP energy -134069.917865 kJ/mol
# GULP energy per Si atom -5586.246578 kJ/mol
# Density = 2.128145 g / cm^3
# Si number density = 21.330003 Si / 1000 Ang^3
#
#
#
# Elastic Constant Matrix: (Units=GPa)
#
#
# Indices 1 2 3 4 5 6 
#
# 1 112.2512 -16.4593 95.2607 0.0000 0.0000 0.0000
# 2 -16.4593 44.1623 -12.3954 0.0000 0.0000 0.0000
# 3 95.2607 -12.3954 186.7062 0.0000 0.0000 0.0000
# 4 0.0000 0.0000 0.0000 2.9866 0.0000 0.0000
# 5 0.0000 0.0000 0.0000 0.0000 39.4695 0.0000
# 6 0.0000 0.0000 0.0000 0.0000 0.0000 46.6825
#
#
#
# Elastic Compliance Matrix: (Units=1/GPa)
#
#
# Indices 1 2 3 4 5 6 
#
# 1 0.016319 0.003816 -0.008073 0.000000 0.000000 0.000000
# 2 0.003816 0.023966 -0.000356 0.000000 0.000000 0.000000
# 3 -0.008073 -0.000356 0.009451 0.000000 0.000000 0.000000
# 4 0.000000 0.000000 0.000000 0.334828 0.000000 0.000000
# 5 0.000000 0.000000 0.000000 0.000000 0.025336 0.000000
# 6 0.000000 0.000000 0.000000 0.000000 0.000000 0.021421
#
#
# Mechanical properties :
#
#
# Convention : Reuss Voigt Hill
#
# Bulk Modulus (GPa) = 24.68449 52.88131 38.78290
# Shear Modulus (GPa) = 11.01198 36.27529 23.64363
#
# Velocity S-wave (km/s) = 2.27462 4.12839 3.33298
# Velocity P-wave (km/s) = 4.30073 6.89715 5.74747
#
# Compressibility (1/GPa) = 0.04051127
#
# Stress axis : x y z
#
# Youngs Moduli (GPa) = 61.27753 41.72548 105.80515
#
# Poissons Ratio (x) = -0.15924 0.85416
# Poissons Ratio (y) = -0.23385 0.03767
# Poissons Ratio (z) = 0.49469 0.01486
#
# Static dielectric constant tensor:
#      x y z
#    x 1.741170 0.000000 0.000000 
#    y 0.000000 1.831860 0.000000 
#    z 0.000000 0.000000 1.739630 
# 
# From -- ./inp_files/4852.got.cif
#   From: 2010.05.17/outbox.cif.g08.bks.cpg/sg44_3_cif.got.tgz:4852.got - 2010.06.03 19:37:08.
