data_PCOD9374402
_publ_section_title
;
Structure prediction by ZEFSAII (Michael W. Deem and Ramdas Pophale) SiO2 
 PCOD9374402
Probable space group: I M M 2
;
_chemical_formula_sum "Si O2"
_cell_formula_units_Z 48
_cell_length_a 7.701927
_cell_length_b 8.252797
_cell_length_c 34.902626
_cell_angle_alpha 90.000000
_cell_angle_beta 90.000000
_cell_angle_gamma 90.000000
_cell_volume 2218.496072
_symmetry_space_group_name_H-M "I M M 2"
_symmetry_group_IT_number 44
_symmetry_cell_setting 'orthorhombic'
loop_
_space_group_symop_operation_xyz
x,y,z
-x,-y,z
-x,y,z
x,-y,z
1/2+x,1/2+y,1/2+z
1/2-x,1/2-y,1/2+z
1/2-x,1/2+y,1/2+z
1/2+x,1/2-y,1/2+z
loop_
_atom_site_type_symbol
_atom_site_label
_atom_site_fract_x
_atom_site_fract_y
_atom_site_fract_z
Si Si1 0.790155 0.000000 0.981081
Si Si2 0.200455 0.310683 0.777850
Si Si3 0.298741 0.685071 0.113440
Si Si4 0.791767 0.500000 0.570424
Si Si5 0.287609 0.822032 0.436611
Si Si6 0.788949 0.815461 0.857340
Si Si7 0.201996 0.316664 0.197258
O O1 0.729155 0.834376 0.960601
O O2 0.740449 0.000000 0.025346
O O3 0.000000 0.000000 0.978000
O O4 0.204744 0.500000 0.786983
O O5 0.278401 0.222453 0.814852
O O6 0.278232 0.281571 0.736187
O O7 0.000000 0.258048 0.774134
O O8 0.500000 0.671309 0.102031
O O9 0.225217 0.500000 0.110513
O O10 0.293377 0.735530 0.158237
O O11 0.221212 0.833246 0.089166
O O12 0.000000 0.500000 0.577579
O O13 0.500000 0.819807 0.437125
O O14 0.233182 0.796681 0.392381
O O15 0.232699 0.000000 0.450534
O O16 0.000000 0.799996 0.855126
O O17 0.749521 0.000000 0.867789
O O18 0.261502 0.500000 0.205955
O O19 0.000000 0.319894 0.187304
#
# Coordination Sequence:
#
# PCOD9374402 Si02
#       7
#     4   8   8   4   8   8   8
#     4  10  20  34  52  80 110 138 174 218 270 322
#     4  10  20  31  47  75 107 140 181 225 266 313
#     4   9  19  37  59  80 104 137 177 222 268 316
#     4  10  22  38  58  82 108 138 176 220 268 326
#     4   9  16  28  48  75 108 141 174 217 266 314
#     4   9  15  26  46  72 103 138 178 222 265 306
#     4  10  21  36  53  75 105 140 177 219 272 326
#
# _framework density 21.636277
#
# number of rings (size 3 to 8) (size 9 to 14) (size 15 to 20)
#    0.000    2.500    0.833    1.500    1.167    5.333 
#    0.000    0.000    0.000    1.000    0.000    0.000 
#    0.000    0.000    0.000    0.000    0.000    0.000 
#
# Total GULP energy -133871.735686 kJ/mol
# GULP energy per Si atom -5577.988987 kJ/mol
# Density = 2.158703 g / cm^3
# Si number density = 21.636277 Si / 1000 Ang^3
#
#
#
# Elastic Constant Matrix: (Units=GPa)
#
#
# Indices 1 2 3 4 5 6 
#
# 1 32.9388 11.8736 -2.4923 0.0000 0.0000 0.0000
# 2 11.8736 135.4456 83.6940 0.0000 0.0000 0.0000
# 3 -2.4923 83.6940 118.6399 0.0000 0.0000 0.0000
# 4 0.0000 0.0000 0.0000 27.7233 0.0000 0.0000
# 5 0.0000 0.0000 0.0000 0.0000 7.6743 0.0000
# 6 0.0000 0.0000 0.0000 0.0000 0.0000 0.7757
#
#
#
# Elastic Compliance Matrix: (Units=1/GPa)
#
#
# Indices 1 2 3 4 5 6 
#
# 1 0.032836 -0.005859 0.004823 0.000000 0.000000 0.000000
# 2 -0.005859 0.014134 -0.010094 0.000000 0.000000 0.000000
# 3 0.004823 -0.010094 0.015651 0.000000 0.000000 0.000000
# 4 0.000000 0.000000 0.000000 0.036071 0.000000 0.000000
# 5 0.000000 0.000000 0.000000 0.000000 0.130305 0.000000
# 6 0.000000 0.000000 0.000000 0.000000 0.000000 1.289198
#
#
# Mechanical properties :
#
#
# Convention : Reuss Voigt Hill
#
# Bulk Modulus (GPa) = 24.77606 52.57498 38.67552
# Shear Modulus (GPa) = 3.21770 20.16458 11.69114
#
# Velocity S-wave (km/s) = 1.22082 3.05615 2.32706
# Velocity P-wave (km/s) = 3.66923 6.06676 5.01342
#
# Compressibility (1/GPa) = 0.04036154
#
# Stress axis : x y z
#
# Youngs Moduli (GPa) = 30.45426 70.75340 63.89513
#
# Poissons Ratio (x) = 0.41451 -0.30815
# Poissons Ratio (y) = 0.17842 0.64493
# Poissons Ratio (z) = -0.14687 0.71415
#
# Static dielectric constant tensor:
#      x y z
#    x 1.840070 0.000000 0.000000 
#    y 0.000000 1.812030 0.000000 
#    z 0.000000 0.000000 1.757860 
# 
# From -- ./inp_files/26887.got.cif
#   From: 2010.05.17/outbox.cif.g08.bks.cpg/sg44_14_cif.got.tgz:26887.got - 2010.06.03 19:37:08.
