data_PCOD9374432
_publ_section_title
;
Structure prediction by ZEFSAII (Michael W. Deem and Ramdas Pophale) SiO2 
 PCOD9374432
Probable space group: I M M 2
;
_chemical_formula_sum "Si O2"
_cell_formula_units_Z 56
_cell_length_a 8.595421
_cell_length_b 19.744089
_cell_length_c 17.840361
_cell_angle_alpha 90.000000
_cell_angle_beta 90.000000
_cell_angle_gamma 90.000000
_cell_volume 3027.665494
_symmetry_space_group_name_H-M "I M M 2"
_symmetry_group_IT_number 44
_symmetry_cell_setting 'orthorhombic'
loop_
_space_group_symop_operation_xyz
x,y,z
-x,-y,z
-x,y,z
x,-y,z
1/2+x,1/2+y,1/2+z
1/2-x,1/2-y,1/2+z
1/2-x,1/2+y,1/2+z
1/2+x,1/2-y,1/2+z
loop_
_atom_site_type_symbol
_atom_site_label
_atom_site_fract_x
_atom_site_fract_y
_atom_site_fract_z
Si Si1 0.316633 0.072402 0.087730
Si Si2 0.183836 0.292736 0.924826
Si Si3 0.817062 0.312058 0.319496
Si Si4 0.820187 0.925588 0.924866
Si Si5 0.688358 0.577833 0.012174
Si Si6 0.821143 0.849099 0.661784
Si Si7 0.680325 0.214679 0.063543
O O1 0.500000 0.070730 0.105137
O O2 0.258731 0.147784 0.106361
O O3 0.249091 0.000000 0.114874
O O4 0.286680 0.073685 0.998384
O O5 0.256849 0.260959 0.849270
O O6 0.000000 0.297426 0.916088
O O7 0.248105 0.364814 0.955355
O O8 0.225441 0.238849 0.990931
O O9 0.729904 0.367350 0.369835
O O10 0.778148 0.334514 0.235168
O O11 0.000000 0.314920 0.332708
O O12 0.000000 0.917028 0.948729
O O13 0.806941 0.000000 0.888791
O O14 0.500000 0.582663 0.010481
O O15 0.732776 0.500000 0.995601
O O16 0.734634 0.598377 0.097652
O O17 0.823178 0.778045 0.618148
O O18 0.000000 0.866720 0.682933
O O19 0.500000 0.202298 0.039954
#
# Coordination Sequence:
#
# PCOD9374432 Si02
#       7
#     8   8   8   8   8   8   8
#     4   9  16  27  47  74 101 130 163 200 244 298
#     4  11  21  33  54  80 106 139 180 228 273 315
#     4  12  23  35  51  74 106 144 185 225 271 321
#     4  10  20  32  47  71 102 134 167 205 251 303
#     4   9  19  38  62  85 111 144 180 222 277 338
#     4   9  19  34  52  76 106 141 179 217 267 325
#     4   9  17  32  52  74 102 135 171 214 261 317
#
# _framework density 18.496099000000001
#
# number of rings (size 3 to 8) (size 9 to 14) (size 15 to 20)
#    0.000    2.143    1.429    3.857    0.000    4.000 
#    0.000    1.429    0.000    0.857    0.000    2.000 
#    0.000    0.000    0.000    0.000    0.000    0.000 
#
# Total GULP energy -155922.927080 kJ/mol
# GULP energy per Si atom -5568.675967 kJ/mol
# Density = 1.845400 g / cm^3
# Si number density = 18.496099 Si / 1000 Ang^3
#
#
#
# Elastic Constant Matrix: (Units=GPa)
#
#
# Indices 1 2 3 4 5 6 
#
# 1 32.3916 14.1668 5.5875 0.0000 0.0000 0.0000
# 2 14.1668 115.9520 2.7832 0.0000 0.0000 0.0000
# 3 5.5875 2.7832 26.1708 0.0000 0.0000 0.0000
# 4 0.0000 0.0000 0.0000 11.3782 0.0000 0.0000
# 5 0.0000 0.0000 0.0000 0.0000 22.6602 0.0000
# 6 0.0000 0.0000 0.0000 0.0000 0.0000 19.8271
#
#
#
# Elastic Compliance Matrix: (Units=1/GPa)
#
#
# Indices 1 2 3 4 5 6 
#
# 1 0.033777 -0.003964 -0.006790 0.000000 0.000000 0.000000
# 2 -0.003964 0.009112 -0.000123 0.000000 0.000000 0.000000
# 3 -0.006790 -0.000123 0.039673 0.000000 0.000000 0.000000
# 4 0.000000 0.000000 0.000000 0.087888 0.000000 0.000000
# 5 0.000000 0.000000 0.000000 0.000000 0.044130 0.000000
# 6 0.000000 0.000000 0.000000 0.000000 0.000000 0.050436
#
#
# Mechanical properties :
#
#
# Convention : Reuss Voigt Hill
#
# Bulk Modulus (GPa) = 16.44494 24.39881 20.42188
# Shear Modulus (GPa) = 16.28461 20.90489 18.59475
#
# Velocity S-wave (km/s) = 2.97043 3.36554 3.17414
# Velocity P-wave (km/s) = 4.54697 5.32188 4.94962
#
# Compressibility (1/GPa) = 0.06080897
#
# Stress axis : x y z
#
# Youngs Moduli (GPa) = 29.60587 109.75136 25.20590
#
# Poissons Ratio (x) = 0.43504 0.17115
# Poissons Ratio (y) = 0.11735 0.00309
# Poissons Ratio (z) = 0.20102 0.01347
#
# Static dielectric constant tensor:
#      x y z
#    x 1.651360 0.000000 0.000000 
#    y 0.000000 1.717720 0.000000 
#    z 0.000000 0.000000 1.622530 
# 
# From -- ./inp_files/20696.got.cif
#   From: 2010.05.17/outbox.cif.g08.bks.cpg/sg44_11_cif.got.tgz:20696.got - 2010.06.03 19:37:08.
