data_PCOD9374219
_publ_section_title
;
Structure prediction by ZEFSAII (Michael W. Deem and Ramdas Pophale) SiO2 
 PCOD9374219
Probable space group: I M M 2
;
_chemical_formula_sum "Si O2"
_cell_formula_units_Z 64
_cell_length_a 7.635094
_cell_length_b 27.437288
_cell_length_c 13.466255
_cell_angle_alpha 90.000000
_cell_angle_beta 90.000000
_cell_angle_gamma 90.000000
_cell_volume 2820.995571
_symmetry_space_group_name_H-M "I M M 2"
_symmetry_group_IT_number 44
_symmetry_cell_setting 'orthorhombic'
loop_
_space_group_symop_operation_xyz
x,y,z
-x,-y,z
-x,y,z
x,-y,z
1/2+x,1/2+y,1/2+z
1/2-x,1/2-y,1/2+z
1/2-x,1/2+y,1/2+z
1/2+x,1/2-y,1/2+z
loop_
_atom_site_type_symbol
_atom_site_label
_atom_site_fract_x
_atom_site_fract_y
_atom_site_fract_z
Si Si1 0.298872 0.610262 0.278350
Si Si2 0.211328 0.554281 0.881716
Si Si3 0.712287 0.263391 0.051697
Si Si4 0.210274 0.055587 0.973929
Si Si5 0.709918 0.212184 0.251170
Si Si6 0.709680 0.628178 0.058830
Si Si7 0.210930 0.605805 0.682671
Si Si8 0.300575 0.794541 0.883091
O O1 0.500000 0.593704 0.267587
O O2 0.222283 0.579431 0.370783
O O3 0.221822 0.610147 0.166803
O O4 0.297199 0.666048 0.317388
O O5 0.274677 0.500000 0.904898
O O6 0.271242 0.570560 0.771958
O O7 0.000000 0.553493 0.878193
O O8 0.259311 0.591863 0.968193
O O9 0.500000 0.262265 0.039099
O O10 0.778228 0.216431 0.990551
O O11 0.746591 0.250628 0.164788
O O12 0.779128 0.317805 0.033107
O O13 0.000000 0.053959 0.965331
O O14 0.274475 0.000000 0.986630
O O15 0.245391 0.087200 0.072704
O O16 0.500000 0.209775 0.268277
O O17 0.771921 0.159521 0.215989
O O18 0.796162 0.238905 0.343514
O O19 0.500000 0.633776 0.071223
O O20 0.000000 0.607736 0.685139
O O21 0.500000 0.812160 0.888284
#
# Coordination Sequence:
#
# PCOD9374219 Si02
#       8
#     8   8   8   8   8   8   8   8
#     4  10  21  39  60  82 116 157 194 238 293 350
#     4  10  22  39  57  82 117 151 188 241 298 346
#     4   9  18  33  52  77 111 146 180 224 274 324
#     4  10  22  39  60  87 117 151 197 254 303 345
#     4  10  19  35  56  79 111 149 185 221 276 341
#     4  10  20  37  60  82 111 153 198 239 281 339
#     4  10  21  38  62  88 117 155 194 237 295 363
#     4  11  21  33  54  84 115 148 189 235 278 334
#
# _framework density 22.687024999999998
#
# number of rings (size 3 to 8) (size 9 to 14) (size 15 to 20)
#    0.000    2.000    1.250    2.250    0.000    4.500 
#    0.000    3.125    0.000    0.000    0.000    0.000 
#    0.000    0.000    0.000    0.000    0.000    0.000 
#
# Total GULP energy -178588.157942 kJ/mol
# GULP energy per Si atom -5580.879936 kJ/mol
# Density = 2.263539 g / cm^3
# Si number density = 22.687025 Si / 1000 Ang^3
#
#
#
# Elastic Constant Matrix: (Units=GPa)
#
#
# Indices 1 2 3 4 5 6 
#
# 1 42.0779 -1.4804 -4.5568 0.0000 0.0000 0.0000
# 2 -1.4804 91.6560 7.8167 0.0000 -0.0001 0.0000
# 3 -4.5568 7.8167 88.8290 0.0000 0.0000 0.0000
# 4 0.0000 0.0000 0.0000 39.6018 0.0000 0.0000
# 5 0.0000 -0.0001 0.0000 0.0000 6.5197 0.0000
# 6 0.0000 0.0000 0.0000 0.0000 0.0000 17.2443
#
#
#
# Elastic Compliance Matrix: (Units=1/GPa)
#
#
# Indices 1 2 3 4 5 6 
#
# 1 0.023906 0.000284 0.001201 0.000000 0.000000 0.000000
# 2 0.000284 0.010996 -0.000953 0.000000 0.000000 0.000000
# 3 0.001201 -0.000953 0.011403 0.000000 0.000000 0.000000
# 4 0.000000 0.000000 0.000000 0.025251 0.000000 0.000000
# 5 0.000000 0.000000 0.000000 0.000000 0.153382 0.000000
# 6 0.000000 0.000000 0.000000 0.000000 0.000000 0.057990
#
#
# Mechanical properties :
#
#
# Convention : Reuss Voigt Hill
#
# Bulk Modulus (GPa) = 21.11099 25.12465 23.11782
# Shear Modulus (GPa) = 16.79805 27.39206 22.09505
#
# Velocity S-wave (km/s) = 2.72403 3.47852 3.12413
# Velocity P-wave (km/s) = 4.38398 5.21843 4.81930
#
# Compressibility (1/GPa) = 0.04736870
#
# Stress axis : x y z
#
# Youngs Moduli (GPa) = 41.83137 90.94034 87.69555
#
# Poissons Ratio (x) = -0.02580 -0.10535
# Poissons Ratio (y) = -0.01187 0.08358
# Poissons Ratio (z) = -0.05025 0.08667
#
# Static dielectric constant tensor:
#      x y z
#    x 2.363160 0.000000 0.000000 
#    y 0.000000 1.844150 0.000000 
#    z 0.000000 0.000000 1.855740 
# 
# From -- ./inp_files/11499.got.cif
#   From: 2010.05.17/outbox.cif.g08.bks.cpg/sg44_6_cif.got.tgz:11499.got - 2010.06.03 19:37:08.
