data_PCOD9374671
_publ_section_title
;
Structure prediction by ZEFSAII (Michael W. Deem and Ramdas Pophale) SiO2 
 PCOD9374671
Probable space group: I M M 2
;
_chemical_formula_sum "Si O2"
_cell_formula_units_Z 64
_cell_length_a 7.539665
_cell_length_b 33.227910
_cell_length_c 12.225784
_cell_angle_alpha 90.000000
_cell_angle_beta 90.000000
_cell_angle_gamma 90.000000
_cell_volume 3062.892779
_symmetry_space_group_name_H-M "I M M 2"
_symmetry_group_IT_number 44
_symmetry_cell_setting 'orthorhombic'
loop_
_space_group_symop_operation_xyz
x,y,z
-x,-y,z
-x,y,z
x,-y,z
1/2+x,1/2+y,1/2+z
1/2-x,1/2-y,1/2+z
1/2-x,1/2+y,1/2+z
1/2+x,1/2-y,1/2+z
loop_
_atom_site_type_symbol
_atom_site_label
_atom_site_fract_x
_atom_site_fract_y
_atom_site_fract_z
Si Si1 0.701693 0.319625 0.228240
Si Si2 0.715771 0.151608 0.149557
Si Si3 0.782531 0.453081 0.279453
Si Si4 0.295758 0.121120 0.917322
Si Si5 0.792171 0.231179 0.287764
Si Si6 0.786567 0.452581 0.036513
Si Si7 0.201775 0.599338 0.844654
Si Si8 0.783407 0.176835 0.481628
O O1 0.500000 0.334511 0.224848
O O2 0.792942 0.346256 0.320359
O O3 0.701456 0.272509 0.256343
O O4 0.776501 0.322738 0.106136
O O5 0.500000 0.152230 0.152398
O O6 0.768917 0.194589 0.201397
O O7 0.779005 0.116177 0.231673
O O8 0.778792 0.141267 0.027544
O O9 0.731081 0.500000 0.296269
O O10 0.720547 0.420614 0.368599
O O11 0.725132 0.439159 0.157175
O O12 0.000000 0.452749 0.278513
O O13 0.500000 0.111765 0.944581
O O14 0.733794 0.214736 0.406376
O O15 0.000000 0.240284 0.294316
O O16 0.757603 0.500000 0.033584
O O17 0.000000 0.445341 0.034702
O O18 0.712795 0.432810 0.926384
O O19 0.203449 0.638799 0.920524
O O20 0.000000 0.586209 0.819962
O O21 0.000000 0.174246 0.478327
#
# Coordination Sequence:
#
# PCOD9374671 Si02
#       8
#     8   8   8   8   8   8   8   8
#     4  11  23  36  52  76 103 129 163 212 260 303
#     4   9  19  34  50  71 103 137 170 214 258 297
#     4   8  14  26  46  73 103 135 173 217 261 304
#     4  10  20  34  52  75 104 140 178 215 257 308
#     4  10  21  37  55  74  96 130 169 204 254 314
#     4   8  13  22  41  71 102 127 159 209 258 297
#     4   9  16  29  50  72  95 128 168 203 243 299
#     4   9  20  36  51  69  96 125 155 200 253 295
#
# _framework density 20.895278999999999
#
# number of rings (size 3 to 8) (size 9 to 14) (size 15 to 20)
#    0.000    2.750    0.000    2.250    1.750    3.000 
#    0.000    0.625    0.000    4.500    0.000    3.500 
#    0.000    3.000    0.000    0.000    0.000    0.000 
#
# Total GULP energy -178411.357899 kJ/mol
# GULP energy per Si atom -5575.354934 kJ/mol
# Density = 2.084772 g / cm^3
# Si number density = 20.895279 Si / 1000 Ang^3
#
#
#
# Elastic Constant Matrix: (Units=GPa)
#
#
# Indices 1 2 3 4 5 6 
#
# 1 50.8455 -4.4876 -0.6849 0.0000 0.0000 0.0000
# 2 -4.4876 59.6059 46.1705 0.0002 0.0000 0.0000
# 3 -0.6849 46.1705 150.4470 0.0004 0.0001 -0.0001
# 4 0.0000 0.0002 0.0004 18.7691 0.0000 -0.0001
# 5 0.0000 0.0000 0.0001 0.0000 3.5894 0.0001
# 6 0.0000 0.0000 -0.0001 -0.0001 0.0001 -4.4233
#
#
#
# Elastic Compliance Matrix: (Units=1/GPa)
#
#
# Indices 1 2 3 4 5 6 
#
# 1 0.019826 0.001866 -0.000483 0.000000 0.000000 0.000000
# 2 0.001866 0.022184 -0.006800 0.000000 0.000000 0.000000
# 3 -0.000483 -0.006800 0.008731 0.000000 0.000000 0.000000
# 4 0.000000 0.000000 0.000000 0.053279 0.000000 -0.000001
# 5 0.000000 0.000000 0.000000 0.000000 0.278599 0.000004
# 6 0.000000 0.000000 0.000000 -0.000001 0.000004 -0.226075
#
#
# Mechanical properties :
#
#
# Convention : Reuss Voigt Hill
#
# Bulk Modulus (GPa) = 25.05646 38.09937 31.57791
# Shear Modulus (GPa) = 27.67344 18.24706 22.96025
#
# Velocity S-wave (km/s) = 3.64316 2.95831 3.31845
# Velocity P-wave (km/s) = 5.45108 5.47191 5.46151
#
# Compressibility (1/GPa) = 0.03990987
#
# Stress axis : x y z
#
# Youngs Moduli (GPa) = 50.43973 45.07681 114.52925
#
# Poissons Ratio (x) = -0.08413 0.05526
# Poissons Ratio (y) = -0.09414 0.77876
# Poissons Ratio (z) = 0.02434 0.30651
#
# Static dielectric constant tensor:
#      x y z
#    x 1.841800 0.000000 0.000000 
#    y 0.000000 1.733370 0.000000 
#    z 0.000000 0.000000 1.781620 
# 
# From -- ./inp_files/11502.got.cif
#   From: 2010.05.17/outbox.cif.g08.bks.cpg/sg44_6_cif.got.tgz:11502.got - 2010.06.03 19:37:08.
