data_PCOD9374130
_publ_section_title
;
Structure prediction by ZEFSAII (Michael W. Deem and Ramdas Pophale) SiO2 
 PCOD9374130
Probable space group: I M M 2
;
_chemical_formula_sum "Si O2"
_cell_formula_units_Z 64
_cell_length_a 18.762609
_cell_length_b 26.873290
_cell_length_c 6.673318
_cell_angle_alpha 90.000000
_cell_angle_beta 90.000000
_cell_angle_gamma 90.000000
_cell_volume 3364.773908
_symmetry_space_group_name_H-M "I M M 2"
_symmetry_group_IT_number 44
_symmetry_cell_setting 'orthorhombic'
loop_
_space_group_symop_operation_xyz
x,y,z
-x,-y,z
-x,y,z
x,-y,z
1/2+x,1/2+y,1/2+z
1/2-x,1/2-y,1/2+z
1/2-x,1/2+y,1/2+z
1/2+x,1/2-y,1/2+z
loop_
_atom_site_type_symbol
_atom_site_label
_atom_site_fract_x
_atom_site_fract_y
_atom_site_fract_z
Si Si1 0.922314 0.055418 0.186410
Si Si2 0.317715 0.867742 0.098127
Si Si3 0.677617 0.443886 0.052955
Si Si4 0.705396 0.685448 0.341396
Si Si5 0.659994 0.058727 0.447150
Si Si6 0.585057 0.142779 0.711660
Si Si7 0.579623 0.626445 0.313101
Si Si8 0.195415 0.703386 0.980128
O O1 0.855652 0.059792 0.331587
O O2 0.000000 0.057648 0.294694
O O3 0.919356 0.000000 0.093519
O O4 0.922677 0.097774 0.022727
O O5 0.329348 0.918451 0.223767
O O6 0.315054 0.826126 0.272968
O O7 0.245072 0.856695 0.974543
O O8 0.379766 0.862421 0.932251
O O9 0.663655 0.500000 0.124906
O O10 0.761864 0.436440 0.047624
O O11 0.632175 0.405714 0.178173
O O12 0.621128 0.677570 0.335777
O O13 0.715257 0.739881 0.435001
O O14 0.741127 0.683389 0.122315
O O15 0.608308 0.094801 0.575532
O O16 0.640800 0.000000 0.444615
O O17 0.500000 0.147144 0.718297
O O18 0.624599 0.190084 0.608405
O O19 0.500000 0.630607 0.233467
#
# Coordination Sequence:
#
# PCOD9374130 Si02
#       8
#     8   8   8   8   8   8   8   8
#     4   9  18  32  50  75 111 156 195 225 269 333
#     4  10  20  38  64  90 118 158 201 257 310 367
#     4  10  19  34  55  78 110 152 194 234 278 333
#     4  11  21  38  62  88 116 154 200 250 304 363
#     4  10  22  39  62  92 121 157 208 260 309 367
#     4  10  23  41  61  90 124 161 202 250 313 385
#     4  11  22  33  50  81 116 147 183 232 288 339
#     4  10  21  39  67  89 113 153 202 250 306 371
#
# _framework density 19.020595
#
# number of rings (size 3 to 8) (size 9 to 14) (size 15 to 20)
#    0.000    1.875    1.250    3.750    0.000    4.500 
#    0.000    3.125    0.000    0.000    0.000    0.000 
#    0.000    0.000    0.000    0.000    0.000    0.000 
#
# Total GULP energy -178380.575385 kJ/mol
# GULP energy per Si atom -5574.392981 kJ/mol
# Density = 1.897730 g / cm^3
# Si number density = 19.020595 Si / 1000 Ang^3
#
#
#
# Elastic Constant Matrix: (Units=GPa)
#
#
# Indices 1 2 3 4 5 6 
#
# 1 108.8592 11.6011 22.5082 0.0000 0.0000 0.0000
# 2 11.6011 54.5300 23.7650 0.0000 0.0000 0.0000
# 3 22.5082 23.7650 75.3920 0.0000 0.0000 0.0000
# 4 0.0000 0.0000 0.0000 27.8425 0.0000 0.0000
# 5 0.0000 0.0000 0.0000 0.0000 17.9282 0.0000
# 6 0.0000 0.0000 0.0000 0.0000 0.0000 22.1886
#
#
#
# Elastic Compliance Matrix: (Units=1/GPa)
#
#
# Indices 1 2 3 4 5 6 
#
# 1 0.009832 -0.000942 -0.002638 0.000000 0.000000 0.000000
# 2 -0.000942 0.021349 -0.006448 0.000000 0.000000 0.000000
# 3 -0.002638 -0.006448 0.016084 0.000000 0.000000 0.000000
# 4 0.000000 0.000000 0.000000 0.035916 0.000000 0.000000
# 5 0.000000 0.000000 0.000000 0.000000 0.055778 0.000000
# 6 0.000000 0.000000 0.000000 0.000000 0.000000 0.045068
#
#
# Mechanical properties :
#
#
# Convention : Reuss Voigt Hill
#
# Bulk Modulus (GPa) = 36.75374 39.39218 38.07296
# Shear Modulus (GPa) = 23.45708 25.65233 24.55470
#
# Velocity S-wave (km/s) = 3.51557 3.67640 3.59688
# Velocity P-wave (km/s) = 5.98699 6.22707 6.10821
#
# Compressibility (1/GPa) = 0.02720812
#
# Stress axis : x y z
#
# Youngs Moduli (GPa) = 101.70775 46.84001 62.17203
#
# Poissons Ratio (x) = 0.04412 0.16404
# Poissons Ratio (y) = 0.09580 0.40092
# Poissons Ratio (z) = 0.26835 0.30205
#
# Static dielectric constant tensor:
#      x y z
#    x 1.659400 0.000000 0.000000 
#    y 0.000000 1.690900 0.000000 
#    z 0.000000 0.000000 1.673170 
# 
# From -- ./inp_files/2163.got.cif
#   From: 2010.05.17/outbox.cif.g08.bks.cpg/sg44_2_cif.got.tgz:2163.got - 2010.06.03 19:37:08.
