data_PCOD9374180
_publ_section_title
;
Structure prediction by ZEFSAII (Michael W. Deem and Ramdas Pophale) SiO2 
 PCOD9374180
Probable space group: I M M 2
;
_chemical_formula_sum "Si O2"
_cell_formula_units_Z 48
_cell_length_a 18.990440
_cell_length_b 7.919665
_cell_length_c 15.311875
_cell_angle_alpha 90.000000
_cell_angle_beta 90.000000
_cell_angle_gamma 90.000000
_cell_volume 2302.874197
_symmetry_space_group_name_H-M "I M M 2"
_symmetry_group_IT_number 44
_symmetry_cell_setting 'orthorhombic'
loop_
_space_group_symop_operation_xyz
x,y,z
-x,-y,z
-x,y,z
x,-y,z
1/2+x,1/2+y,1/2+z
1/2-x,1/2-y,1/2+z
1/2-x,1/2+y,1/2+z
1/2+x,1/2-y,1/2+z
loop_
_atom_site_type_symbol
_atom_site_label
_atom_site_fract_x
_atom_site_fract_y
_atom_site_fract_z
Si Si1 0.769130 0.792417 0.453640
Si Si2 0.000000 0.796810 0.076444
Si Si3 0.389671 0.799513 0.717845
Si Si4 0.924626 0.196417 0.404709
Si Si5 0.500000 0.298713 0.377832
Si Si6 0.241987 0.202052 0.653171
Si Si7 0.346859 0.200435 0.311202
O O1 0.848476 0.732775 0.431421
O O2 0.756312 0.737664 0.553471
O O3 0.709377 0.734263 0.384631
O O4 0.768910 0.000000 0.450863
O O5 0.932905 0.732604 0.130090
O O6 0.000000 0.733834 0.977548
O O7 0.000000 0.000000 0.077316
O O8 0.423420 0.708551 0.800034
O O9 0.310792 0.734909 0.704038
O O10 0.390126 0.000000 0.735986
O O11 0.000000 0.270763 0.434968
O O12 0.924381 0.000000 0.431552
O O13 0.500000 0.500000 0.381536
O O14 0.426957 0.246330 0.333247
O O15 0.176260 0.241784 0.714752
O O16 0.248295 0.000000 0.648056
O O17 0.340901 0.000000 0.313371
#
# Coordination Sequence:
#
# PCOD9374180 Si02
#       7
#     8   4   8   8   4   8   8
#     4   9  19  37  60  86 118 158 202 245 294 354
#     4  11  23  37  57  86 119 154 197 247 302 362
#     4  11  21  33  55  85 120 155 191 240 300 358
#     4  10  19  34  57  83 115 154 198 241 290 353
#     4  11  25  43  61  86 119 156 199 251 304 356
#     4  10  21  38  59  86 119 157 202 246 296 356
#     4  11  22  40  65  89 120 160 202 250 299 354
#
# _framework density 20.843518
#
# number of rings (size 3 to 8) (size 9 to 14) (size 15 to 20)
#    0.000    1.667    2.500    2.500    0.000    3.333 
#    1.500    2.500    0.000    0.000    0.000    0.000 
#    0.000    0.000    0.000    0.000    0.000    0.000 
#
# Total GULP energy -133974.563538 kJ/mol
# GULP energy per Si atom -5582.273481 kJ/mol
# Density = 2.079608 g / cm^3
# Si number density = 20.843518 Si / 1000 Ang^3
#
#
#
# Elastic Constant Matrix: (Units=GPa)
#
#
# Indices 1 2 3 4 5 6 
#
# 1 132.1677 -7.7658 22.9666 0.0000 0.0000 0.0000
# 2 -7.7658 21.8353 -5.6620 0.0000 0.0000 0.0000
# 3 22.9666 -5.6620 68.8050 0.0000 0.0000 0.0000
# 4 0.0000 0.0000 0.0000 20.2513 0.0000 0.0000
# 5 0.0000 0.0000 0.0000 0.0000 30.7168 0.0000
# 6 0.0000 0.0000 0.0000 0.0000 0.0000 16.5581
#
#
#
# Elastic Compliance Matrix: (Units=1/GPa)
#
#
# Indices 1 2 3 4 5 6 
#
# 1 0.008138 0.002238 -0.002532 0.000000 0.000000 0.000000
# 2 0.002238 0.047411 0.003155 0.000000 0.000000 0.000000
# 3 -0.002532 0.003155 0.015639 0.000000 0.000000 0.000000
# 4 0.000000 0.000000 0.000000 0.049379 0.000000 0.000000
# 5 0.000000 0.000000 0.000000 0.000000 0.032555 0.000000
# 6 0.000000 0.000000 0.000000 0.000000 0.000000 0.060394
#
#
# Mechanical properties :
#
#
# Convention : Reuss Voigt Hill
#
# Bulk Modulus (GPa) = 13.00261 26.87617 19.93939
# Shear Modulus (GPa) = 21.41953 27.72319 24.57136
#
# Velocity S-wave (km/s) = 3.20915 3.65096 3.43716
# Velocity P-wave (km/s) = 4.47027 5.54030 5.03380
#
# Compressibility (1/GPa) = 0.07690766
#
# Stress axis : x y z
#
# Youngs Moduli (GPa) = 122.88601 21.09203 63.94419
#
# Poissons Ratio (x) = -0.04719 0.16192
# Poissons Ratio (y) = -0.27497 -0.20172
# Poissons Ratio (z) = 0.31117 -0.06654
#
# Static dielectric constant tensor:
#      x y z
#    x 1.771590 0.000000 0.000000 
#    y 0.000000 1.748050 0.000000 
#    z 0.000000 0.000000 1.733980 
# 
# From -- ./inp_files/16133.got.cif
#   From: 2010.05.17/outbox.cif.g08.bks.cpg/sg44_9_cif.got.tgz:16133.got - 2010.06.03 19:37:08.
