data_PCOD9374862
_publ_section_title
;
Structure prediction by ZEFSAII (Michael W. Deem and Ramdas Pophale) SiO2 
 PCOD9374862
Probable space group: I M M 2
;
_chemical_formula_sum "Si O2"
_cell_formula_units_Z 58
_cell_length_a 14.906444
_cell_length_b 7.337536
_cell_length_c 25.760841
_cell_angle_alpha 90.000000
_cell_angle_beta 90.000000
_cell_angle_gamma 90.000000
_cell_volume 2817.632416
_symmetry_space_group_name_H-M "I M M 2"
_symmetry_group_IT_number 44
_symmetry_cell_setting 'orthorhombic'
loop_
_space_group_symop_operation_xyz
x,y,z
-x,-y,z
-x,y,z
x,-y,z
1/2+x,1/2+y,1/2+z
1/2-x,1/2-y,1/2+z
1/2-x,1/2+y,1/2+z
1/2+x,1/2-y,1/2+z
loop_
_atom_site_type_symbol
_atom_site_label
_atom_site_fract_x
_atom_site_fract_y
_atom_site_fract_z
Si Si1 0.794026 0.276650 0.202010
Si Si2 0.400941 0.279543 0.342118
Si Si3 0.902316 0.220521 0.719551
Si Si4 0.399268 0.788054 0.803216
Si Si5 0.718909 0.296789 0.900067
Si Si6 0.839327 0.722356 0.987277
Si Si7 0.000000 0.000000 0.962252
Si Si8 0.397696 0.779794 0.599865
O O1 0.792070 0.500000 0.202533
O O2 0.691078 0.216575 0.195571
O O3 0.836629 0.214438 0.256804
O O4 0.854624 0.218643 0.153670
O O5 0.500000 0.220652 0.359678
O O6 0.398198 0.500000 0.347799
O O7 0.395665 0.239011 0.280985
O O8 0.314994 0.203140 0.370600
O O9 0.000000 0.285636 0.700874
O O10 0.903855 0.000000 0.715508
O O11 0.500000 0.710484 0.804446
O O12 0.350237 0.783475 0.858793
O O13 0.408414 0.000000 0.790015
O O14 0.685832 0.500000 0.908799
O O15 0.749311 0.223457 0.956043
O O16 0.851233 0.500000 0.981536
O O17 0.921194 0.840152 0.964890
O O18 0.841266 0.764258 0.048584
O O19 0.500000 0.714240 0.592801
O O20 0.401731 0.000000 0.602318
#
# Coordination Sequence:
#
# PCOD9374862 Si02
#       8
#     8   8   8   8   8   8   2   8
#     4   9  15  26  51  80 104 141 184 224 281 338
#     4   9  17  28  47  71 100 134 171 215 261 313
#     4   8  13  23  40  70 105 132 165 219 268 316
#     4  10  20  35  56  81 105 136 190 240 276 340
#     4  11  23  35  50  73 110 147 180 222 281 339
#     4  10  23  38  54  84 118 151 192 237 282 349
#     4  12  22  36  64  82 114 160 190 228 300 336
#     4   9  16  30  50  73 108 143 178 230 281 327
#
# _framework density 20.584658999999998
#
# number of rings (size 3 to 8) (size 9 to 14) (size 15 to 20)
#    0.000    2.483    2.069    1.862    2.897    2.207 
#    0.000    0.000    1.517    0.828    0.000    3.862 
#    0.000    0.000    0.000    0.000    0.000    0.000 
#
# Total GULP energy -161472.256315 kJ/mol
# GULP energy per Si atom -5568.008838 kJ/mol
# Density = 2.053781 g / cm^3
# Si number density = 20.584659 Si / 1000 Ang^3
#
#
#
# Elastic Constant Matrix: (Units=GPa)
#
#
# Indices 1 2 3 4 5 6 
#
# 1 125.2792 3.0414 59.3728 0.0000 0.0000 0.0000
# 2 3.0414 82.5077 4.2153 0.0000 0.0000 0.0000
# 3 59.3728 4.2153 110.0200 0.0000 0.0000 0.0000
# 4 0.0000 0.0000 0.0000 4.9250 0.0000 0.0000
# 5 0.0000 0.0000 0.0000 0.0000 22.2873 0.0000
# 6 0.0000 0.0000 0.0000 0.0000 0.0000 -51.2374
#
#
#
# Elastic Compliance Matrix: (Units=1/GPa)
#
#
# Indices 1 2 3 4 5 6 
#
# 1 0.010726 -0.000100 -0.005785 0.000000 0.000000 0.000000
# 2 -0.000100 0.012145 -0.000411 0.000000 0.000000 0.000000
# 3 -0.005785 -0.000411 0.012227 0.000000 0.000000 0.000000
# 4 0.000000 0.000000 0.000000 0.203044 0.000000 0.000000
# 5 0.000000 0.000000 0.000000 0.000000 0.044869 0.000000
# 6 0.000000 0.000000 0.000000 0.000000 0.000000 -0.019517
#
#
# Mechanical properties :
#
#
# Convention : Reuss Voigt Hill
#
# Bulk Modulus (GPa) = 44.43288 50.11844 47.27566
# Shear Modulus (GPa) = 17.63131 11.94013 14.78572
#
# Velocity S-wave (km/s) = 2.92982 2.41104 2.68300
# Velocity P-wave (km/s) = 5.75130 5.67020 5.71089
#
# Compressibility (1/GPa) = 0.02250586
#
# Stress axis : x y z
#
# Youngs Moduli (GPa) = 93.23122 82.33987 81.78847
#
# Poissons Ratio (x) = 0.00822 0.47311
# Poissons Ratio (y) = 0.00931 0.03365
# Poissons Ratio (z) = 0.53930 0.03388
#
# Static dielectric constant tensor:
#      x y z
#    x 1.724550 0.000000 0.000000 
#    y 0.000000 1.814100 0.000000 
#    z 0.000000 0.000000 1.759370 
# 
# From -- ./inp_files/26574.got.cif
#   From: 2010.05.17/outbox.cif.g08.bks.cpg/sg44_14_cif.got.tgz:26574.got - 2010.06.03 19:37:08.
