data_PCOD9374587
_publ_section_title
;
Structure prediction by ZEFSAII (Michael W. Deem and Ramdas Pophale) SiO2 
 PCOD9374587
Probable space group: I M M 2
;
_chemical_formula_sum "Si O2"
_cell_formula_units_Z 64
_cell_length_a 22.913840
_cell_length_b 20.002765
_cell_length_c 6.724092
_cell_angle_alpha 90.000000
_cell_angle_beta 90.000000
_cell_angle_gamma 90.000000
_cell_volume 3081.921381
_symmetry_space_group_name_H-M "I M M 2"
_symmetry_group_IT_number 44
_symmetry_cell_setting 'orthorhombic'
loop_
_space_group_symop_operation_xyz
x,y,z
-x,-y,z
-x,y,z
x,-y,z
1/2+x,1/2+y,1/2+z
1/2-x,1/2-y,1/2+z
1/2-x,1/2+y,1/2+z
1/2+x,1/2-y,1/2+z
loop_
_atom_site_type_symbol
_atom_site_label
_atom_site_fract_x
_atom_site_fract_y
_atom_site_fract_z
Si Si1 0.716630 0.897087 0.919530
Si Si2 0.113280 0.078781 0.424044
Si Si3 0.749199 0.574009 0.984591
Si Si4 0.157249 0.266476 0.310181
Si Si5 0.065976 0.310476 0.972997
Si Si6 0.860486 0.578115 0.769576
Si Si7 0.602197 0.693311 0.188153
Si Si8 0.665701 0.363055 0.565259
O O1 0.728846 0.929622 0.709366
O O2 0.706165 0.819562 0.866696
O O3 0.659447 0.919442 0.039640
O O4 0.776036 0.906242 0.043211
O O5 0.181724 0.093956 0.478534
O O6 0.077150 0.130221 0.561023
O O7 0.115107 0.099907 0.191725
O O8 0.101622 0.000000 0.451937
O O9 0.748971 0.500000 0.895587
O O10 0.802302 0.609875 0.873681
O O11 0.130463 0.238750 0.515204
O O12 0.180901 0.203768 0.186727
O O13 0.108481 0.298215 0.162391
O O14 0.088697 0.373446 0.843515
O O15 0.067835 0.245082 0.829373
O O16 0.000000 0.321037 0.041269
O O17 0.870424 0.500000 0.824387
O O18 0.644845 0.658870 0.348773
#
# Coordination Sequence:
#
# PCOD9374587 Si02
#       8
#     8   8   8   8   8   8   8   8
#     4  12  20  33  55  83 123 170 202 238 290 361
#     4  10  20  35  56  89 131 168 197 228 281 359
#     4  10  20  33  51  81 122 168 203 235 282 347
#     4  10  23  36  55  84 120 154 203 254 308 356
#     4  11  24  44  66  85 110 153 209 271 330 366
#     4  11  23  39  58  87 122 159 209 256 297 354
#     4  10  21  41  58  91 122 155 200 252 302 360
#     4  10  22  31  53  87 126 167 201 230 286 360
#
# _framework density 20.766266000000002
#
# number of rings (size 3 to 8) (size 9 to 14) (size 15 to 20)
#    0.000    1.500    5.000    0.375    1.750    1.750 
#    0.000    0.000    0.000    0.375    0.000    0.000 
#    0.000    0.000    0.000    0.000    0.000    0.000 
#
# Total GULP energy -178291.039367 kJ/mol
# GULP energy per Si atom -5571.594980 kJ/mol
# Density = 2.071900 g / cm^3
# Si number density = 20.766266 Si / 1000 Ang^3
#
#
#
# Elastic Constant Matrix: (Units=GPa)
#
#
# Indices 1 2 3 4 5 6 
#
# 1 42.1659 4.4616 12.5579 0.0000 0.0000 0.0000
# 2 4.4616 91.1154 17.2867 0.0000 0.0000 0.0000
# 3 12.5579 17.2867 107.1368 0.0000 0.0000 0.0000
# 4 0.0000 0.0000 0.0000 15.3575 0.0000 0.0000
# 5 0.0000 0.0000 0.0000 0.0000 10.6945 0.0000
# 6 0.0000 0.0000 0.0000 0.0000 0.0000 3.0628
#
#
#
# Elastic Compliance Matrix: (Units=1/GPa)
#
#
# Indices 1 2 3 4 5 6 
#
# 1 0.024614 -0.000679 -0.002776 0.000000 0.000000 0.000000
# 2 -0.000679 0.011340 -0.001750 0.000000 0.000000 0.000000
# 3 -0.002776 -0.001750 0.009942 0.000000 0.000000 0.000000
# 4 0.000000 0.000000 0.000000 0.065115 0.000000 0.000000
# 5 0.000000 0.000000 0.000000 0.000000 0.093506 0.000000
# 6 0.000000 0.000000 0.000000 0.000000 0.000000 0.326504
#
#
# Mechanical properties :
#
#
# Convention : Reuss Voigt Hill
#
# Bulk Modulus (GPa) = 28.17919 34.33674 31.25796
# Shear Modulus (GPa) = 9.03737 19.56376 14.30057
#
# Velocity S-wave (km/s) = 2.08840 3.07268 2.62705
# Velocity P-wave (km/s) = 4.40617 5.39993 4.92817
#
# Compressibility (1/GPa) = 0.03548718
#
# Stress axis : x y z
#
# Youngs Moduli (GPa) = 40.62684 88.18042 100.58736
#
# Poissons Ratio (x) = 0.05985 0.27919
# Poissons Ratio (y) = 0.02757 0.17605
# Poissons Ratio (z) = 0.11276 0.15434
#
# Static dielectric constant tensor:
#      x y z
#    x 1.764040 0.000000 0.000000 
#    y 0.000000 1.785940 0.000000 
#    z 0.000000 0.000000 1.812470 
# 
# From -- ./inp_files/2527.got.cif
#   From: 2010.05.17/outbox.cif.g08.bks.cpg/sg44_2_cif.got.tgz:2527.got - 2010.06.03 19:37:08.
