data_PCOD9374801
_publ_section_title
;
Structure prediction by ZEFSAII (Michael W. Deem and Ramdas Pophale) SiO2 
 PCOD9374801
Probable space group: I M M 2
;
_chemical_formula_sum "Si O2"
_cell_formula_units_Z 48
_cell_length_a 10.260599
_cell_length_b 8.759005
_cell_length_c 28.438458
_cell_angle_alpha 90.000000
_cell_angle_beta 90.000000
_cell_angle_gamma 90.000000
_cell_volume 2555.839240
_symmetry_space_group_name_H-M "I M M 2"
_symmetry_group_IT_number 44
_symmetry_cell_setting 'orthorhombic'
loop_
_space_group_symop_operation_xyz
x,y,z
-x,-y,z
-x,y,z
x,-y,z
1/2+x,1/2+y,1/2+z
1/2-x,1/2-y,1/2+z
1/2-x,1/2+y,1/2+z
1/2+x,1/2-y,1/2+z
loop_
_atom_site_type_symbol
_atom_site_label
_atom_site_fract_x
_atom_site_fract_y
_atom_site_fract_z
Si Si1 0.252642 0.184931 0.632670
Si Si2 0.750115 0.320922 0.852691
Si Si3 0.000000 0.313829 0.792414
Si Si4 0.000000 0.316915 0.682715
Si Si5 0.652692 0.182628 0.949706
Si Si6 0.000000 0.319933 0.189739
Si Si7 0.652608 0.184314 0.527753
Si Si8 0.500000 0.328296 0.786591
O O1 0.370860 0.240481 0.665308
O O2 0.291417 0.224174 0.579302
O O3 0.123843 0.256827 0.654112
O O4 0.241201 0.000000 0.634867
O O5 0.771782 0.500000 0.864889
O O6 0.873693 0.266311 0.822428
O O7 0.713876 0.232460 0.899873
O O8 0.626023 0.312153 0.818760
O O9 0.000000 0.263851 0.737719
O O10 0.000000 0.500000 0.791020
O O11 0.000000 0.500000 0.683516
O O12 0.500000 0.234836 0.953050
O O13 0.651729 0.000000 0.953169
O O14 0.748124 0.249556 0.989423
O O15 0.000000 0.500000 0.180284
O O16 0.000000 0.288549 0.244432
O O17 0.500000 0.232917 0.522863
O O18 0.652663 0.000000 0.524103
O O19 0.500000 0.500000 0.766214
#
# Coordination Sequence:
#
# PCOD9374801 Si02
#       8
#     8   8   4   4   8   4   8   4
#     4  10  21  40  62  88 120 156 201 247 291 351
#     4  10  20  38  61  84 114 155 204 247 286 346
#     4   9  20  37  58  85 118 156 199 246 288 339
#     4  11  23  39  60  89 126 163 199 243 300 351
#     4  11  25  42  60  88 126 157 190 244 307 362
#     4  10  20  36  61  88 119 155 195 245 301 352
#     4  10  22  42  67  90 115 154 203 248 294 353
#     4  10  20  34  57  86 117 154 199 244 289 348
#
# _framework density 18.780522999999999
#
# number of rings (size 3 to 8) (size 9 to 14) (size 15 to 20)
#    0.000    1.833    1.667    1.750    2.333    4.667 
#    0.000    1.667    0.000    0.000    0.000    0.000 
#    0.000    0.000    0.000    0.000    0.000    0.000 
#
# Total GULP energy -133958.814826 kJ/mol
# GULP energy per Si atom -5581.617284 kJ/mol
# Density = 1.873778 g / cm^3
# Si number density = 18.780523 Si / 1000 Ang^3
#
#
#
# Elastic Constant Matrix: (Units=GPa)
#
#
# Indices 1 2 3 4 5 6 
#
# 1 190.6615 41.0470 80.6144 0.0000 0.0000 0.0000
# 2 41.0470 22.1156 36.6997 0.0000 0.0000 0.0000
# 3 80.6144 36.6997 119.6241 0.0000 0.0000 0.0000
# 4 0.0000 0.0000 0.0000 30.0935 0.0000 0.0000
# 5 0.0000 0.0000 0.0000 0.0000 29.4642 0.0000
# 6 0.0000 0.0000 0.0000 0.0000 0.0000 75.3006
#
#
#
# Elastic Compliance Matrix: (Units=1/GPa)
#
#
# Indices 1 2 3 4 5 6 
#
# 1 0.008943 -0.013440 -0.001904 0.000000 0.000000 0.000000
# 2 -0.013440 0.112309 -0.025398 0.000000 0.000000 0.000000
# 3 -0.001904 -0.025398 0.017434 0.000000 0.000000 0.000000
# 4 0.000000 0.000000 0.000000 0.033230 0.000000 0.000000
# 5 0.000000 0.000000 0.000000 0.000000 0.033939 0.000000
# 6 0.000000 0.000000 0.000000 0.000000 0.000000 0.013280
#
#
# Mechanical properties :
#
#
# Convention : Reuss Voigt Hill
#
# Bulk Modulus (GPa) = 17.48167 72.12483 44.80325
# Shear Modulus (GPa) = 15.64033 38.57435 27.10734
#
# Velocity S-wave (km/s) = 2.88895 4.53697 3.80330
# Velocity P-wave (km/s) = 4.52290 8.11991 6.57228
#
# Compressibility (1/GPa) = 0.05720276
#
# Stress axis : x y z
#
# Youngs Moduli (GPa) = 111.81694 8.90403 57.35832
#
# Poissons Ratio (x) = 0.11967 0.10918
# Poissons Ratio (y) = 1.50281 1.45680
# Poissons Ratio (z) = 0.21285 0.22615
#
# Static dielectric constant tensor:
#      x y z
#    x 1.651930 0.000000 0.000000 
#    y 0.000000 1.650700 0.000000 
#    z 0.000000 0.000000 1.620770 
# 
# From -- ./inp_files/26989.got.cif
#   From: 2010.05.17/outbox.cif.g08.bks.cpg/sg44_14_cif.got.tgz:26989.got - 2010.06.03 19:37:08.
