data_PCOD9374125
_publ_section_title
;
Structure prediction by ZEFSAII (Michael W. Deem and Ramdas Pophale) SiO2 
 PCOD9374125
Probable space group: I M M 2
;
_chemical_formula_sum "Si O2"
_cell_formula_units_Z 48
_cell_length_a 19.403610
_cell_length_b 12.610551
_cell_length_c 11.575511
_cell_angle_alpha 90.000000
_cell_angle_beta 90.000000
_cell_angle_gamma 90.000000
_cell_volume 2832.414258
_symmetry_space_group_name_H-M "I M M 2"
_symmetry_group_IT_number 44
_symmetry_cell_setting 'orthorhombic'
loop_
_space_group_symop_operation_xyz
x,y,z
-x,-y,z
-x,y,z
x,-y,z
1/2+x,1/2+y,1/2+z
1/2-x,1/2-y,1/2+z
1/2-x,1/2+y,1/2+z
1/2+x,1/2-y,1/2+z
loop_
_atom_site_type_symbol
_atom_site_label
_atom_site_fract_x
_atom_site_fract_y
_atom_site_fract_z
Si Si1 0.141991 0.875179 0.494600
Si Si2 0.420581 0.699998 0.770586
Si Si3 0.917261 0.000000 0.127106
Si Si4 0.176878 0.623801 0.180791
Si Si5 0.917353 0.000000 0.854614
Si Si6 0.832473 0.190125 0.740880
Si Si7 0.701199 0.875976 0.414126
O O1 0.086375 0.842054 0.400652
O O2 0.140564 0.803968 0.609173
O O3 0.216284 0.863536 0.431758
O O4 0.135824 0.000000 0.527296
O O5 0.500000 0.719778 0.740921
O O6 0.391459 0.605618 0.689683
O O7 0.375451 0.803064 0.749347
O O8 0.904776 0.000000 0.991865
O O9 0.000000 0.000000 0.145491
O O10 0.162819 0.500000 0.196080
O O11 0.254600 0.646648 0.223432
O O12 0.172480 0.647189 0.043062
O O13 0.880483 0.896523 0.802700
O O14 0.000000 0.000000 0.833863
O O15 0.826956 0.296007 0.817656
O O16 0.687894 0.000000 0.387372
#
# Coordination Sequence:
#
# PCOD9374125 Si02
#       7
#     8   8   4   8   4   8   8
#     4  10  19  34  54  83 117 150 186 230 282 338
#     4  11  21  35  57  83 114 151 189 233 284 338
#     4   9  20  35  53  83 117 143 183 238 284 330
#     4  10  20  37  57  81 113 150 190 232 278 333
#     4  11  22  35  55  87 116 145 185 234 289 334
#     4  11  19  36  58  81 116 148 187 231 281 335
#     4   9  19  35  59  83 112 146 188 234 277 331
#
# _framework density 16.946672
#
# number of rings (size 3 to 8) (size 9 to 14) (size 15 to 20)
#    0.000    1.833    4.167    2.000    0.000    1.000 
#    0.000    0.833    0.000    1.500    0.000    0.000 
#    0.000    0.000    0.000    0.000    0.000    0.000 
#
# Total GULP energy -133850.418947 kJ/mol
# GULP energy per Si atom -5577.100789 kJ/mol
# Density = 1.690810 g / cm^3
# Si number density = 16.946672 Si / 1000 Ang^3
#
#
#
# Elastic Constant Matrix: (Units=GPa)
#
#
# Indices 1 2 3 4 5 6 
#
# 1 54.1723 30.7808 34.0384 0.0000 0.0000 0.0000
# 2 30.7808 96.8901 64.9359 0.0000 0.0000 0.0000
# 3 34.0384 64.9359 100.6975 0.0000 0.0000 0.0000
# 4 0.0000 0.0000 0.0000 34.5205 0.0000 0.0000
# 5 0.0000 0.0000 0.0000 0.0000 23.2355 0.0000
# 6 0.0000 0.0000 0.0000 0.0000 0.0000 20.6742
#
#
#
# Elastic Compliance Matrix: (Units=1/GPa)
#
#
# Indices 1 2 3 4 5 6 
#
# 1 0.024243 -0.003891 -0.005685 0.000000 0.000000 0.000000
# 2 -0.003891 0.018801 -0.010809 0.000000 0.000000 0.000000
# 3 -0.005685 -0.010809 0.018823 0.000000 0.000000 0.000000
# 4 0.000000 0.000000 0.000000 0.028968 0.000000 0.000000
# 5 0.000000 0.000000 0.000000 0.000000 0.043038 0.000000
# 6 0.000000 0.000000 0.000000 0.000000 0.000000 0.048369
#
#
# Mechanical properties :
#
#
# Convention : Reuss Voigt Hill
#
# Bulk Modulus (GPa) = 47.40257 56.80777 52.10517
# Shear Modulus (GPa) = 21.73483 23.81971 22.77727
#
# Velocity S-wave (km/s) = 3.58515 3.75316 3.67011
# Velocity P-wave (km/s) = 6.72086 7.23712 6.98376
#
# Compressibility (1/GPa) = 0.02109590
#
# Stress axis : x y z
#
# Youngs Moduli (GPa) = 41.24893 53.18775 53.12724
#
# Poissons Ratio (x) = 0.20697 0.30205
# Poissons Ratio (y) = 0.16052 0.57424
# Poissons Ratio (z) = 0.23452 0.57490
#
# Static dielectric constant tensor:
#      x y z
#    x 1.566520 0.000000 0.000000 
#    y 0.000000 1.556110 0.000000 
#    z 0.000000 0.000000 1.587900 
# 
# From -- ./inp_files/12403.got.cif
#   From: 2010.05.17/outbox.cif.g08.bks.cpg/sg44_7_cif.got.tgz:12403.got - 2010.06.03 19:37:08.
