data_PCOD9374545
_publ_section_title
;
Structure prediction by ZEFSAII (Michael W. Deem and Ramdas Pophale) SiO2 
 PCOD9374545
Probable space group: I M M 2
;
_chemical_formula_sum "Si O2"
_cell_formula_units_Z 64
_cell_length_a 28.595119
_cell_length_b 8.889980
_cell_length_c 14.642607
_cell_angle_alpha 90.000000
_cell_angle_beta 90.000000
_cell_angle_gamma 90.000000
_cell_volume 3722.297653
_symmetry_space_group_name_H-M "I M M 2"
_symmetry_group_IT_number 44
_symmetry_cell_setting 'orthorhombic'
loop_
_space_group_symop_operation_xyz
x,y,z
-x,-y,z
-x,y,z
x,-y,z
1/2+x,1/2+y,1/2+z
1/2-x,1/2-y,1/2+z
1/2-x,1/2+y,1/2+z
1/2+x,1/2-y,1/2+z
loop_
_atom_site_type_symbol
_atom_site_label
_atom_site_fract_x
_atom_site_fract_y
_atom_site_fract_z
Si Si1 0.134501 0.320832 0.116720
Si Si2 0.444735 0.321347 0.737106
Si Si3 0.863518 0.679935 0.567161
Si Si4 0.280553 0.677403 0.949920
Si Si5 0.781644 0.177240 0.232158
Si Si6 0.180573 0.179186 0.734971
Si Si7 0.179420 0.179520 0.947980
Si Si8 0.554238 0.180050 0.932355
O O1 0.135178 0.500000 0.113913
O O2 0.087589 0.261295 0.164247
O O3 0.177793 0.260508 0.177524
O O4 0.142602 0.252446 0.016528
O O5 0.500000 0.291478 0.723510
O O6 0.436887 0.500000 0.732150
O O7 0.432541 0.262913 0.838601
O O8 0.860740 0.500000 0.574634
O O9 0.820892 0.740869 0.505783
O O10 0.857101 0.753887 0.665835
O O11 0.911051 0.720250 0.514125
O O12 0.279514 0.500000 0.971869
O O13 0.289235 0.693349 0.841198
O O14 0.230284 0.750755 0.969714
O O15 0.730772 0.246613 0.212302
O O16 0.781987 0.000000 0.209797
O O17 0.170185 0.211777 0.841217
O O18 0.184271 0.000000 0.724101
O O19 0.180978 0.000000 0.960252
O O20 0.500000 0.214696 0.952555
O O21 0.558002 0.000000 0.917057
#
# Coordination Sequence:
#
# PCOD9374545 Si02
#       8
#     8   8   8   8   8   8   8   8
#     4  12  23  34  53  78 105 137 173 212 255 307
#     4  10  21  37  57  81 108 136 167 207 255 305
#     4  11  21  32  51  76 103 136 172 211 255 305
#     4  10  20  33  50  74 105 138 172 210 252 302
#     4  10  20  34  52  75 106 140 174 213 255 302
#     4  10  21  36  53  73 101 137 176 217 258 302
#     4  10  21  37  54  72  99 135 175 217 258 300
#     4   9  19  36  56  79 107 137 169 207 254 307
#
# _framework density 17.193681999999999
#
# number of rings (size 3 to 8) (size 9 to 14) (size 15 to 20)
#    0.000    1.750    0.000    4.875    0.000    6.750 
#    0.000    0.000    0.000    0.750    0.000    3.500 
#    0.000    0.000    0.000    0.000    0.000    0.000 
#
# Total GULP energy -178845.091034 kJ/mol
# GULP energy per Si atom -5588.909095 kJ/mol
# Density = 1.715455 g / cm^3
# Si number density = 17.193682 Si / 1000 Ang^3
#
#
#
# Elastic Constant Matrix: (Units=GPa)
#
#
# Indices 1 2 3 4 5 6 
#
# 1 71.6333 49.4270 64.8164 0.0000 0.0000 0.0000
# 2 49.4270 88.8451 57.4613 0.0000 0.0000 0.0000
# 3 64.8164 57.4613 92.5291 0.0000 0.0000 0.0000
# 4 0.0000 0.0000 0.0000 31.6294 0.0000 0.0000
# 5 0.0000 0.0000 0.0000 0.0000 33.5740 0.0000
# 6 0.0000 0.0000 0.0000 0.0000 0.0000 24.6899
#
#
#
# Elastic Compliance Matrix: (Units=1/GPa)
#
#
# Indices 1 2 3 4 5 6 
#
# 1 0.040575 -0.007003 -0.024073 0.000000 0.000000 0.000000
# 2 -0.007003 0.020019 -0.007527 0.000000 0.000000 0.000000
# 3 -0.024073 -0.007527 0.032345 0.000000 0.000000 0.000000
# 4 0.000000 0.000000 0.000000 0.031616 0.000000 0.000000
# 5 0.000000 0.000000 0.000000 0.000000 0.029785 0.000000
# 6 0.000000 0.000000 0.000000 0.000000 0.000000 0.040502
#
#
# Mechanical properties :
#
#
# Convention : Reuss Voigt Hill
#
# Bulk Modulus (GPa) = 63.56192 66.26855 64.91523
# Shear Modulus (GPa) = 18.03148 23.39884 20.71516
#
# Velocity S-wave (km/s) = 3.24192 3.69304 3.47481
# Velocity P-wave (km/s) = 7.14576 7.53729 7.34413
#
# Compressibility (1/GPa) = 0.01573269
#
# Stress axis : x y z
#
# Youngs Moduli (GPa) = 24.64598 49.95146 30.91683
#
# Poissons Ratio (x) = 0.34981 0.74427
# Poissons Ratio (y) = 0.17260 0.23270
# Poissons Ratio (z) = 0.59331 0.37596
#
# Static dielectric constant tensor:
#      x y z
#    x 1.558690 0.000000 0.000000 
#    y 0.000000 1.570280 0.000000 
#    z 0.000000 0.000000 1.592030 
# 
# From -- ./inp_files/16894.got.cif
#   From: 2010.05.17/outbox.cif.g08.bks.cpg/sg44_9_cif.got.tgz:16894.got - 2010.06.03 19:37:08.
