data_PCOD9374717
_publ_section_title
;
Structure prediction by ZEFSAII (Michael W. Deem and Ramdas Pophale) SiO2 
 PCOD9374717
Probable space group: I M M 2
;
_chemical_formula_sum "Si O2"
_cell_formula_units_Z 48
_cell_length_a 32.181780
_cell_length_b 7.717775
_cell_length_c 9.241048
_cell_angle_alpha 90.000000
_cell_angle_beta 90.000000
_cell_angle_gamma 90.000000
_cell_volume 2295.215145
_symmetry_space_group_name_H-M "I M M 2"
_symmetry_group_IT_number 44
_symmetry_cell_setting 'orthorhombic'
loop_
_space_group_symop_operation_xyz
x,y,z
-x,-y,z
-x,y,z
x,-y,z
1/2+x,1/2+y,1/2+z
1/2-x,1/2-y,1/2+z
1/2-x,1/2+y,1/2+z
1/2+x,1/2-y,1/2+z
loop_
_atom_site_type_symbol
_atom_site_label
_atom_site_fract_x
_atom_site_fract_y
_atom_site_fract_z
Si Si1 0.127570 0.702979 0.333530
Si Si2 0.546325 0.788342 0.993178
Si Si3 0.206801 0.790339 0.820043
Si Si4 0.628247 0.296771 0.503000
Si Si5 0.710696 0.207247 0.982275
Si Si6 0.453438 0.790709 0.329006
O O1 0.127075 0.500000 0.373615
O O2 0.084441 0.775607 0.396501
O O3 0.129427 0.715608 0.161403
O O4 0.169054 0.778156 0.406419
O O5 0.500000 0.730506 0.949169
O O6 0.553012 0.740036 0.161204
O O7 0.545497 0.000000 0.988147
O O8 0.209419 0.739375 0.652922
O O9 0.206309 0.000000 0.824018
O O10 0.164679 0.728507 0.898149
O O11 0.247197 0.726584 0.907593
O O12 0.635811 0.500000 0.524424
O O13 0.583747 0.272968 0.428106
O O14 0.711195 0.000000 0.959502
O O15 0.500000 0.734214 0.372270
O O16 0.452919 0.000000 0.333625
#
# Coordination Sequence:
#
# PCOD9374717 Si02
#       6
#     8   8   8   8   8   8
#     4  10  20  34  54  79 105 137 181 226 265 313
#     4   8  15  30  53  79 103 128 166 218 269 313
#     4  10  22  38  55  79 110 142 177 221 274 324
#     4  11  23  36  51  76 112 147 177 215 268 327
#     4  10  21  37  58  82 106 138 184 230 268 316
#     4   9  18  35  59  82 104 136 179 224 268 314
#
# _framework density 20.913070999999999
#
# number of rings (size 3 to 8) (size 9 to 14) (size 15 to 20)
#    0.000    2.333    0.000    3.500    0.000    5.000 
#    0.000    2.500    0.000    1.000    0.000    0.000 
#    0.000    0.000    0.000    0.000    0.000    0.000 
#
# Total GULP energy -134038.609567 kJ/mol
# GULP energy per Si atom -5584.942065 kJ/mol
# Density = 2.086547 g / cm^3
# Si number density = 20.913071 Si / 1000 Ang^3
#
#
#
# Elastic Constant Matrix: (Units=GPa)
#
#
# Indices 1 2 3 4 5 6 
#
# 1 198.8734 -1.5013 104.4712 0.0000 0.0000 0.0000
# 2 -1.5013 27.1971 -19.4283 0.0000 0.0000 0.0000
# 3 104.4712 -19.4283 122.8437 0.0000 0.0000 0.0000
# 4 0.0000 0.0000 0.0000 16.0718 0.0000 0.0000
# 5 0.0000 0.0000 0.0000 0.0000 43.2033 0.0000
# 6 0.0000 0.0000 0.0000 0.0000 0.0000 -14.2600
#
#
#
# Elastic Compliance Matrix: (Units=1/GPa)
#
#
# Indices 1 2 3 4 5 6 
#
# 1 0.009933 -0.006185 -0.009426 0.000000 0.000000 0.000000
# 2 -0.006185 0.045303 0.012425 0.000000 0.000000 0.000000
# 3 -0.009426 0.012425 0.018121 0.000000 0.000000 0.000000
# 4 0.000000 0.000000 0.000000 0.062221 0.000000 0.000000
# 5 0.000000 0.000000 0.000000 0.000000 0.023146 0.000000
# 6 0.000000 0.000000 0.000000 0.000000 0.000000 -0.070126
#
#
# Mechanical properties :
#
#
# Convention : Reuss Voigt Hill
#
# Bulk Modulus (GPa) = 14.92855 57.33305 36.13080
# Shear Modulus (GPa) = 42.62627 26.69453 34.66040
#
# Velocity S-wave (km/s) = 4.51961 3.57662 4.07548
# Velocity P-wave (km/s) = 5.86427 6.67314 6.28174
#
# Compressibility (1/GPa) = 0.06698575
#
# Stress axis : x y z
#
# Youngs Moduli (GPa) = 100.67376 22.07365 55.18331
#
# Poissons Ratio (x) = 0.13652 0.52014
# Poissons Ratio (y) = 0.62266 -0.68564
# Poissons Ratio (z) = 0.94892 -0.27426
#
# Static dielectric constant tensor:
#      x y z
#    x 1.763890 0.000000 0.000000 
#    y 0.000000 1.784730 0.000000 
#    z 0.000000 0.000000 1.680500 
# 
# From -- ./inp_files/4856.got.cif
#   From: 2010.05.17/outbox.cif.g08.bks.cpg/sg44_3_cif.got.tgz:4856.got - 2010.06.03 19:37:08.
