data_PCOD9374959
_publ_section_title
;
Structure prediction by ZEFSAII (Michael W. Deem and Ramdas Pophale) SiO2 
 PCOD9374959
Probable space group: I M M 2
;
_chemical_formula_sum "Si O2"
_cell_formula_units_Z 56
_cell_length_a 8.755996
_cell_length_b 25.388910
_cell_length_c 14.513089
_cell_angle_alpha 90.000000
_cell_angle_beta 90.000000
_cell_angle_gamma 90.000000
_cell_volume 3226.335072
_symmetry_space_group_name_H-M "I M M 2"
_symmetry_group_IT_number 44
_symmetry_cell_setting 'orthorhombic'
loop_
_space_group_symop_operation_xyz
x,y,z
-x,-y,z
-x,y,z
x,-y,z
1/2+x,1/2+y,1/2+z
1/2-x,1/2-y,1/2+z
1/2-x,1/2+y,1/2+z
1/2+x,1/2-y,1/2+z
loop_
_atom_site_type_symbol
_atom_site_label
_atom_site_fract_x
_atom_site_fract_y
_atom_site_fract_z
Si Si1 0.824672 0.165897 0.990090
Si Si2 0.317318 0.276431 0.001645
Si Si3 0.685204 0.288935 0.787343
Si Si4 0.322182 0.392770 0.681290
Si Si5 0.815006 0.682267 0.179262
Si Si6 0.180272 0.500000 0.631627
Si Si7 0.320607 0.102475 0.833575
Si Si8 0.680421 0.500000 0.425003
O O1 0.712604 0.146659 0.910681
O O2 0.000000 0.167967 0.957063
O O3 0.770374 0.222423 0.024460
O O4 0.818147 0.126102 0.075199
O O5 0.500000 0.269687 0.007011
O O6 0.260546 0.316649 0.079090
O O7 0.277015 0.288745 0.895542
O O8 0.500000 0.289024 0.779794
O O9 0.738650 0.343006 0.739504
O O10 0.734766 0.235177 0.735724
O O11 0.500000 0.401177 0.706208
O O12 0.235090 0.447634 0.684104
O O13 0.775025 0.630576 0.238488
O O14 0.000000 0.684229 0.171899
O O15 0.247341 0.500000 0.527335
O O16 0.000000 0.500000 0.622894
O O17 0.500000 0.090265 0.830694
O O18 0.231528 0.051338 0.867941
O O19 0.500000 0.500000 0.437350
#
# Coordination Sequence:
#
# PCOD9374959 Si02
#       8
#     8   8   8   8   8   4   8   4
#     4  11  20  31  53  82 114 149 184 224 270 328
#     4  11  21  34  54  82 114 148 188 228 271 327
#     4   9  18  35  55  77 108 147 183 222 271 326
#     4  10  20  36  56  76 107 149 188 221 268 329
#     4  10  20  37  56  79 113 148 182 224 280 332
#     4  12  24  36  54  81 114 143 180 229 278 328
#     4  11  22  37  57  80 112 150 186 226 276 332
#     4  12  24  38  56  81 114 147 184 227 274 332
#
# _framework density 17.357156
#
# number of rings (size 3 to 8) (size 9 to 14) (size 15 to 20)
#    0.000    1.429    4.286    2.571    0.000    1.714 
#    0.000    1.429    0.000    0.857    0.000    1.000 
#    0.000    0.000    0.000    0.000    0.000    0.000 
#
# Total GULP energy -156281.743935 kJ/mol
# GULP energy per Si atom -5581.490855 kJ/mol
# Density = 1.731765 g / cm^3
# Si number density = 17.357156 Si / 1000 Ang^3
#
#
#
# Elastic Constant Matrix: (Units=GPa)
#
#
# Indices 1 2 3 4 5 6 
#
# 1 43.4087 21.2360 8.7420 0.0000 0.0000 0.0000
# 2 21.2360 72.8854 11.3292 0.0000 0.0000 0.0000
# 3 8.7420 11.3292 63.1393 0.0000 0.0000 0.0000
# 4 0.0000 0.0000 0.0000 24.7286 0.0000 0.0000
# 5 0.0000 0.0000 0.0000 0.0000 23.5712 0.0000
# 6 0.0000 0.0000 0.0000 0.0000 0.0000 25.1605
#
#
#
# Elastic Compliance Matrix: (Units=1/GPa)
#
#
# Indices 1 2 3 4 5 6 
#
# 1 0.027219 -0.007556 -0.002413 0.000000 0.000000 0.000000
# 2 -0.007556 0.016211 -0.001863 0.000000 0.000000 0.000000
# 3 -0.002413 -0.001863 0.016506 0.000000 0.000000 0.000000
# 4 0.000000 0.000000 0.000000 0.040439 0.000000 0.000000
# 5 0.000000 0.000000 0.000000 0.000000 0.042425 0.000000
# 6 0.000000 0.000000 0.000000 0.000000 0.000000 0.039745
#
#
# Mechanical properties :
#
#
# Convention : Reuss Voigt Hill
#
# Bulk Modulus (GPa) = 27.56782 29.11641 28.34212
# Shear Modulus (GPa) = 22.90440 23.90046 23.40243
#
# Velocity S-wave (km/s) = 3.63656 3.71479 3.67589
# Velocity P-wave (km/s) = 5.79223 5.93388 5.86348
#
# Compressibility (1/GPa) = 0.03627418
#
# Stress axis : x y z
#
# Youngs Moduli (GPa) = 36.73897 61.68621 60.58289
#
# Poissons Ratio (x) = 0.46607 0.14618
# Poissons Ratio (y) = 0.27758 0.11285
# Poissons Ratio (z) = 0.08865 0.11490
#
# Static dielectric constant tensor:
#      x y z
#    x 1.587830 0.000000 0.000000 
#    y 0.000000 1.598580 0.000000 
#    z 0.000000 0.000000 1.584910 
# 
# From -- ./inp_files/16582.got.cif
#   From: 2010.05.17/outbox.cif.g08.bks.cpg/sg44_9_cif.got.tgz:16582.got - 2010.06.03 19:37:08.
