data_PCOD9374118
_publ_section_title
;
Structure prediction by ZEFSAII (Michael W. Deem and Ramdas Pophale) SiO2 
 PCOD9374118
Probable space group: I M M 2
;
_chemical_formula_sum "Si O2"
_cell_formula_units_Z 56
_cell_length_a 7.442054
_cell_length_b 17.342289
_cell_length_c 19.341466
_cell_angle_alpha 90.000000
_cell_angle_beta 90.000000
_cell_angle_gamma 90.000000
_cell_volume 2496.253144
_symmetry_space_group_name_H-M "I M M 2"
_symmetry_group_IT_number 44
_symmetry_cell_setting 'orthorhombic'
loop_
_space_group_symop_operation_xyz
x,y,z
-x,-y,z
-x,y,z
x,-y,z
1/2+x,1/2+y,1/2+z
1/2-x,1/2-y,1/2+z
1/2-x,1/2+y,1/2+z
1/2+x,1/2-y,1/2+z
loop_
_atom_site_type_symbol
_atom_site_label
_atom_site_fract_x
_atom_site_fract_y
_atom_site_fract_z
Si Si1 0.789757 0.683410 0.339980
Si Si2 0.281087 0.087856 0.557684
Si Si3 0.782493 0.343417 0.915658
Si Si4 0.285271 0.500000 0.680234
Si Si5 0.285527 0.000000 0.342278
Si Si6 0.220336 0.311019 0.183244
Si Si7 0.213376 0.844985 0.110713
Si Si8 0.783627 0.587238 0.466531
O O1 0.777701 0.766857 0.376440
O O2 0.716156 0.684150 0.262218
O O3 0.714537 0.621786 0.394493
O O4 0.000000 0.664594 0.332424
O O5 0.500000 0.087108 0.556366
O O6 0.225946 0.144384 0.495258
O O7 0.226268 0.120048 0.632114
O O8 0.222792 0.000000 0.545015
O O9 0.719969 0.420831 0.876402
O O10 0.000000 0.341270 0.914508
O O11 0.500000 0.500000 0.668558
O O12 0.252418 0.500000 0.761415
O O13 0.212204 0.577580 0.645800
O O14 0.500000 0.000000 0.353386
O O15 0.282084 0.232190 0.146413
O O16 0.000000 0.310061 0.184329
O O17 0.000000 0.843833 0.123056
O O18 0.238815 0.855473 0.029143
O O19 0.718898 0.500000 0.480495
O O20 0.000000 0.584209 0.463376
#
# Coordination Sequence:
#
# PCOD9374118 Si02
#       8
#     8   8   8   4   4   8   8   8
#     4  10  21  36  53  77 108 140 175 216 265 318
#     4   9  16  29  51  77 102 130 169 216 259 301
#     4  10  19  34  54  78 107 137 174 217 261 313
#     4  10  20  32  50  76 107 140 174 216 263 314
#     4  10  20  32  50  78 111 142 172 212 265 322
#     4   9  18  31  50  75 102 133 170 215 260 302
#     4  10  19  34  54  77 103 134 176 219 259 309
#     4  10  21  36  54  77 107 141 175 216 266 318
#
# _framework density 22.433623000000001
#
# number of rings (size 3 to 8) (size 9 to 14) (size 15 to 20)
#    0.000    2.286    1.429    1.714    0.000    4.571 
#    0.000    3.571    0.000    0.857    0.000    0.000 
#    0.000    0.000    0.000    0.000    0.000    0.000 
#
# Total GULP energy -156456.126505 kJ/mol
# GULP energy per Si atom -5587.718804 kJ/mol
# Density = 2.238256 g / cm^3
# Si number density = 22.433623 Si / 1000 Ang^3
#
#
#
# Elastic Constant Matrix: (Units=GPa)
#
#
# Indices 1 2 3 4 5 6 
#
# 1 65.0082 -11.3649 -14.3848 0.0000 0.0000 0.0000
# 2 -11.3649 35.6662 28.0736 0.0000 0.0000 0.0000
# 3 -14.3848 28.0736 172.0866 0.0000 0.0000 0.0000
# 4 0.0000 0.0000 0.0000 27.8846 0.0000 0.0000
# 5 0.0000 0.0000 0.0000 0.0000 1.9154 0.0000
# 6 0.0000 0.0000 0.0000 0.0000 0.0000 23.4966
#
#
#
# Elastic Compliance Matrix: (Units=1/GPa)
#
#
# Indices 1 2 3 4 5 6 
#
# 1 0.016343 0.004741 0.000593 0.000000 0.000000 0.000000
# 2 0.004741 0.033544 -0.005076 0.000000 0.000000 0.000000
# 3 0.000593 -0.005076 0.006689 0.000000 0.000000 0.000000
# 4 0.000000 0.000000 0.000000 0.035862 0.000000 0.000000
# 5 0.000000 0.000000 0.000000 0.000000 0.522073 0.000000
# 6 0.000000 0.000000 0.000000 0.000000 0.000000 0.042559
#
#
# Mechanical properties :
#
#
# Convention : Reuss Voigt Hill
#
# Bulk Modulus (GPa) = 17.51598 30.82320 24.16959
# Shear Modulus (GPa) = 7.40100 28.68846 18.04473
#
# Velocity S-wave (km/s) = 1.81830 3.57993 2.83920
# Velocity P-wave (km/s) = 3.49759 5.55495 4.64169
#
# Compressibility (1/GPa) = 0.05709074
#
# Stress axis : x y z
#
# Youngs Moduli (GPa) = 61.18951 29.81171 149.50731
#
# Poissons Ratio (x) = -0.14134 -0.08861
# Poissons Ratio (y) = -0.29010 0.75889
# Poissons Ratio (z) = -0.03626 0.15132
#
# Static dielectric constant tensor:
#      x y z
#    x 1.973150 0.000000 0.000000 
#    y 0.000000 1.797330 0.000000 
#    z 0.000000 0.000000 1.825760 
# 
# From -- ./inp_files/23139.got.cif
#   From: 2010.05.17/outbox.cif.g08.bks.cpg/sg44_12_cif.got.tgz:23139.got - 2010.06.03 19:37:08.
