data_PCOD9374454
_publ_section_title
;
Structure prediction by ZEFSAII (Michael W. Deem and Ramdas Pophale) SiO2 
 PCOD9374454
Probable space group: I M M 2
;
_chemical_formula_sum "Si O2"
_cell_formula_units_Z 64
_cell_length_a 7.691064
_cell_length_b 16.574280
_cell_length_c 23.276817
_cell_angle_alpha 90.000000
_cell_angle_beta 90.000000
_cell_angle_gamma 90.000000
_cell_volume 2967.185438
_symmetry_space_group_name_H-M "I M M 2"
_symmetry_group_IT_number 44
_symmetry_cell_setting 'orthorhombic'
loop_
_space_group_symop_operation_xyz
x,y,z
-x,-y,z
-x,y,z
x,-y,z
1/2+x,1/2+y,1/2+z
1/2-x,1/2-y,1/2+z
1/2-x,1/2+y,1/2+z
1/2+x,1/2-y,1/2+z
loop_
_atom_site_type_symbol
_atom_site_label
_atom_site_fract_x
_atom_site_fract_y
_atom_site_fract_z
Si Si1 0.796082 0.733642 0.651740
Si Si2 0.298817 0.086401 0.623272
Si Si3 0.203294 0.880836 0.495442
Si Si4 0.794737 0.695361 0.528875
Si Si5 0.300222 0.092500 0.927585
Si Si6 0.199731 0.910567 0.798462
Si Si7 0.709190 0.589429 0.865966
Si Si8 0.789885 0.268801 0.776021
O O1 0.785031 0.831220 0.645713
O O2 0.718898 0.698153 0.592917
O O3 0.726433 0.704691 0.712817
O O4 0.000000 0.713751 0.651148
O O5 0.500000 0.089624 0.640405
O O6 0.288936 0.087255 0.553720
O O7 0.224063 0.000000 0.642770
O O8 0.211404 0.785048 0.503644
O O9 0.272128 0.901758 0.432195
O O10 0.000000 0.905022 0.498031
O O11 0.717283 0.639839 0.479980
O O12 0.000000 0.672938 0.533790
O O13 0.500000 0.121856 0.916924
O O14 0.202826 0.095805 0.867565
O O15 0.311059 0.000000 0.944828
O O16 0.277766 0.823676 0.781639
O O17 0.000000 0.912467 0.778098
O O18 0.277625 0.000000 0.784669
O O19 0.500000 0.588906 0.869390
O O20 0.765408 0.500000 0.844684
O O21 0.751826 0.665804 0.825503
O O22 0.000000 0.262286 0.775075
#
# Coordination Sequence:
#
# PCOD9374454 Si02
#       8
#     8   8   8   8   8   8   8   8
#     4   9  19  35  52  69  93 131 176 212 247 302
#     4  10  20  32  48  75 107 132 158 202 260 313
#     4   9  17  31  52  74  98 132 170 205 247 308
#     4   8  14  27  47  70  94 119 153 200 246 288
#     4   9  16  27  46  71  95 120 154 197 246 299
#     4   9  18  32  49  72 103 133 161 199 249 305
#     4  10  21  36  55  79 106 139 178 218 263 314
#     4  10  21  36  54  76 102 136 177 219 262 305
#
# _framework density 21.569262999999999
#
# number of rings (size 3 to 8) (size 9 to 14) (size 15 to 20)
#    0.000    2.750    0.000    2.250    0.000    4.750 
#    0.000    5.625    0.000    3.750    0.000    1.750 
#    0.000    0.000    0.000    0.000    0.000    0.000 
#
# Total GULP energy -178310.019678 kJ/mol
# GULP energy per Si atom -5572.188115 kJ/mol
# Density = 2.152017 g / cm^3
# Si number density = 21.569263 Si / 1000 Ang^3
#
#
#
# Elastic Constant Matrix: (Units=GPa)
#
#
# Indices 1 2 3 4 5 6 
#
# 1 40.0507 5.1641 -1.8311 0.0000 0.0000 0.0000
# 2 5.1641 49.8316 44.3775 0.0000 0.0000 0.0000
# 3 -1.8311 44.3775 112.4006 0.0000 0.0000 0.0000
# 4 0.0000 0.0000 0.0000 25.1280 0.0000 0.0000
# 5 0.0000 0.0000 0.0000 0.0000 11.9211 0.0000
# 6 0.0000 0.0000 0.0000 0.0000 0.0000 308.6539
#
#
#
# Elastic Compliance Matrix: (Units=1/GPa)
#
#
# Indices 1 2 3 4 5 6 
#
# 1 0.025675 -0.004678 0.002265 0.000000 0.000000 0.000000
# 2 -0.004678 0.031802 -0.012632 0.000000 0.000000 0.000000
# 3 0.002265 -0.012632 0.013921 0.000000 0.000000 0.000000
# 4 0.000000 0.000000 0.000000 0.039796 0.000000 0.000000
# 5 0.000000 0.000000 0.000000 0.000000 0.083885 0.000000
# 6 0.000000 0.000000 0.000000 0.000000 0.000000 0.003240
#
#
# Mechanical properties :
#
#
# Convention : Reuss Voigt Hill
#
# Bulk Modulus (GPa) = 24.20827 33.07821 28.64324
# Shear Modulus (GPa) = 20.64596 79.44543 50.04569
#
# Velocity S-wave (km/s) = 3.09721 6.07558 4.82210
# Velocity P-wave (km/s) = 4.90287 8.03654 6.65673
#
# Compressibility (1/GPa) = 0.04130819
#
# Stress axis : x y z
#
# Youngs Moduli (GPa) = 38.94830 31.44470 71.83398
#
# Poissons Ratio (x) = 0.14710 -0.16272
# Poissons Ratio (y) = 0.18220 0.90741
# Poissons Ratio (z) = -0.08823 0.39721
#
# Static dielectric constant tensor:
#      x y z
#    x 1.839140 0.000000 0.000000 
#    y 0.000000 1.778050 0.000000 
#    z 0.000000 0.000000 1.808150 
# 
# From -- ./inp_files/25159.got.cif
#   From: 2010.05.17/outbox.cif.g08.bks.cpg/sg44_13_cif.got.tgz:25159.got - 2010.06.03 19:37:08.
