data_PCOD9374486
_publ_section_title
;
Structure prediction by ZEFSAII (Michael W. Deem and Ramdas Pophale) SiO2 
 PCOD9374486
Probable space group: I M M 2
;
_chemical_formula_sum "Si O2"
_cell_formula_units_Z 56
_cell_length_a 8.875310
_cell_length_b 14.468270
_cell_length_c 23.463289
_cell_angle_alpha 90.000000
_cell_angle_beta 90.000000
_cell_angle_gamma 90.000000
_cell_volume 3012.929890
_symmetry_space_group_name_H-M "I M M 2"
_symmetry_group_IT_number 44
_symmetry_cell_setting 'orthorhombic'
loop_
_space_group_symop_operation_xyz
x,y,z
-x,-y,z
-x,y,z
x,-y,z
1/2+x,1/2+y,1/2+z
1/2-x,1/2-y,1/2+z
1/2-x,1/2+y,1/2+z
1/2+x,1/2-y,1/2+z
loop_
_atom_site_type_symbol
_atom_site_label
_atom_site_fract_x
_atom_site_fract_y
_atom_site_fract_z
Si Si1 0.179246 0.101332 0.593960
Si Si2 0.328777 0.642141 0.678218
Si Si3 0.328581 0.858628 0.710031
Si Si4 0.179274 0.399093 0.794163
Si Si5 0.817901 0.294604 0.329535
Si Si6 0.181191 0.794866 0.057690
Si Si7 0.181840 0.391796 0.447659
O O1 0.225812 0.101000 0.660612
O O2 0.258038 0.190523 0.566293
O O3 0.000000 0.111918 0.588824
O O4 0.222599 0.000000 0.570252
O O5 0.500000 0.605688 0.681238
O O6 0.337655 0.750333 0.694260
O O7 0.225973 0.601344 0.727498
O O8 0.273304 0.643716 0.613174
O O9 0.500000 0.895050 0.707125
O O10 0.271950 0.857301 0.774971
O O11 0.225669 0.500000 0.817770
O O12 0.254546 0.308930 0.822074
O O13 0.000000 0.390605 0.799038
O O14 0.774857 0.341722 0.388697
O O15 0.000000 0.289116 0.326347
O O16 0.000000 0.791962 0.058081
O O17 0.243613 0.840564 0.000849
O O18 0.222671 0.500000 0.446454
O O19 0.000000 0.385806 0.452574
#
# Coordination Sequence:
#
# PCOD9374486 Si02
#       7
#     8   8   8   8   8   8   8
#     4  10  20  33  52  81 114 145 178 217 264 320
#     4   8  16  31  50  73 102 137 174 211 254 305
#     4   8  15  29  50  76 105 137 173 213 257 305
#     4  10  20  32  50  80 113 142 174 214 262 314
#     4   9  19  36  56  78 105 140 180 218 260 314
#     4  10  21  37  56  79 108 142 181 224 268 316
#     4  10  22  40  60  80 103 135 177 224 271 318
#
# _framework density 18.586559999999999
#
# number of rings (size 3 to 8) (size 9 to 14) (size 15 to 20)
#    0.000    2.714    0.000    3.000    0.000   10.000 
#    0.000    5.000    0.000    0.857    0.000    0.000 
#    0.000    0.000    0.000    0.000    0.000    0.000 
#
# Total GULP energy -156057.411667 kJ/mol
# GULP energy per Si atom -5573.478988 kJ/mol
# Density = 1.854426 g / cm^3
# Si number density = 18.586560 Si / 1000 Ang^3
#
#
#
# Elastic Constant Matrix: (Units=GPa)
#
#
# Indices 1 2 3 4 5 6 
#
# 1 29.6560 35.0247 27.8089 0.0000 0.0000 0.0000
# 2 35.0247 134.7529 61.7633 0.0000 0.0000 0.0000
# 3 27.8089 61.7633 140.0584 0.0000 0.0000 0.0000
# 4 0.0000 0.0000 0.0000 14.5853 0.0000 0.0000
# 5 0.0000 0.0000 0.0000 0.0000 28.2164 0.0000
# 6 0.0000 0.0000 0.0000 0.0000 0.0000 40.3717
#
#
#
# Elastic Compliance Matrix: (Units=1/GPa)
#
#
# Indices 1 2 3 4 5 6 
#
# 1 0.051771 -0.010960 -0.005446 0.000000 0.000000 0.000000
# 2 -0.010960 0.011621 -0.002949 0.000000 0.000000 0.000000
# 3 -0.005446 -0.002949 0.009521 0.000000 0.000000 0.000000
# 4 0.000000 0.000000 0.000000 0.068562 0.000000 0.000000
# 5 0.000000 0.000000 0.000000 0.000000 0.035440 0.000000
# 6 0.000000 0.000000 0.000000 0.000000 0.000000 0.024770
#
#
# Mechanical properties :
#
#
# Convention : Reuss Voigt Hill
#
# Bulk Modulus (GPa) = 29.23615 61.51791 45.37703
# Shear Modulus (GPa) = 19.85731 28.62605 24.24168
#
# Velocity S-wave (km/s) = 3.27214 3.92873 3.61537
# Velocity P-wave (km/s) = 5.48085 7.33143 6.47262
#
# Compressibility (1/GPa) = 0.03420423
#
# Stress axis : x y z
#
# Youngs Moduli (GPa) = 19.31587 86.04995 105.02561
#
# Poissons Ratio (x) = 0.94311 0.57198
# Poissons Ratio (y) = 0.21170 0.30968
# Poissons Ratio (z) = 0.10520 0.25373
#
# Static dielectric constant tensor:
#      x y z
#    x 1.624140 0.000000 0.000000 
#    y 0.000000 1.668570 0.000000 
#    z 0.000000 0.000000 1.648200 
# 
# From -- ./inp_files/23077.got.cif
#   From: 2010.05.17/outbox.cif.g08.bks.cpg/sg44_12_cif.got.tgz:23077.got - 2010.06.03 19:37:08.
