data_PCOD9374839
_publ_section_title
;
Structure prediction by ZEFSAII (Michael W. Deem and Ramdas Pophale) SiO2 
 PCOD9374839
Probable space group: I M M 2
;
_chemical_formula_sum "Si O2"
_cell_formula_units_Z 56
_cell_length_a 14.698922
_cell_length_b 8.646956
_cell_length_c 23.375580
_cell_angle_alpha 90.000000
_cell_angle_beta 90.000000
_cell_angle_gamma 90.000000
_cell_volume 2971.057999
_symmetry_space_group_name_H-M "I M M 2"
_symmetry_group_IT_number 44
_symmetry_cell_setting 'orthorhombic'
loop_
_space_group_symop_operation_xyz
x,y,z
-x,-y,z
-x,y,z
x,-y,z
1/2+x,1/2+y,1/2+z
1/2-x,1/2-y,1/2+z
1/2-x,1/2+y,1/2+z
1/2+x,1/2-y,1/2+z
loop_
_atom_site_type_symbol
_atom_site_label
_atom_site_fract_x
_atom_site_fract_y
_atom_site_fract_z
Si Si1 0.394565 0.685240 0.206440
Si Si2 0.597892 0.688811 0.557662
Si Si3 0.797528 0.684709 0.818319
Si Si4 0.701656 0.187601 0.093909
Si Si5 0.597597 0.684730 0.854245
Si Si6 0.354053 0.675436 0.433992
Si Si7 0.356767 0.175666 0.971958
O O1 0.500000 0.736244 0.207029
O O2 0.392658 0.500000 0.204812
O O3 0.343825 0.742605 0.263188
O O4 0.343900 0.750603 0.150840
O O5 0.500000 0.733937 0.583410
O O6 0.600960 0.500000 0.556434
O O7 0.692465 0.737991 0.586844
O O8 0.599206 0.738780 0.491077
O O9 0.795693 0.500000 0.812797
O O10 0.692627 0.741814 0.827076
O O11 0.852769 0.729871 0.875663
O O12 0.701156 0.000000 0.093875
O O13 0.645519 0.235434 0.036903
O O14 0.500000 0.743437 0.831350
O O15 0.598596 0.500000 0.847659
O O16 0.600691 0.724599 0.921634
O O17 0.385979 0.500000 0.422641
O O18 0.249300 0.666441 0.454476
O O19 0.392803 0.000000 0.970776
#
# Coordination Sequence:
#
# PCOD9374839 Si02
#       7
#     8   8   8   8   8   8   8
#     4  11  25  42  57  72  93 128 173 217 262 311
#     4   8  14  27  51  82 111 139 170 201 241 300
#     4  10  20  35  55  77 103 135 171 214 258 298
#     4   9  18  34  55  78 105 136 171 213 254 293
#     4   9  18  32  51  78 110 140 169 202 246 303
#     4   8  14  27  48  74 106 140 170 202 241 288
#     4   8  15  28  47  73 104 137 171 205 244 289
#
# _framework density 18.848504999999999
#
# number of rings (size 3 to 8) (size 9 to 14) (size 15 to 20)
#    0.000    3.000    0.000    2.571    0.000    3.714 
#    0.000    7.143    0.000    5.571    0.000    0.000 
#    0.000    0.000    0.000    0.000    0.000    0.000 
#
# Total GULP energy -155943.791324 kJ/mol
# GULP energy per Si atom -5569.421119 kJ/mol
# Density = 1.880560 g / cm^3
# Si number density = 18.848505 Si / 1000 Ang^3
#
#
#
# Elastic Constant Matrix: (Units=GPa)
#
#
# Indices 1 2 3 4 5 6 
#
# 1 143.4422 20.2114 66.2554 0.0000 0.0000 0.0000
# 2 20.2114 14.1720 20.0824 0.0000 0.0000 0.0000
# 3 66.2554 20.0824 129.1568 0.0000 0.0000 0.0000
# 4 0.0000 0.0000 0.0000 29.8195 0.0000 0.0000
# 5 0.0000 0.0000 0.0000 0.0000 16.6122 0.0000
# 6 0.0000 0.0000 0.0000 0.0000 0.0000 14.9624
#
#
#
# Elastic Compliance Matrix: (Units=1/GPa)
#
#
# Indices 1 2 3 4 5 6 
#
# 1 0.009944 -0.008918 -0.003714 0.000000 0.000000 0.000000
# 2 -0.008918 0.098501 -0.010741 0.000000 0.000000 0.000000
# 3 -0.003714 -0.010741 0.011318 0.000000 0.000000 0.000000
# 4 0.000000 0.000000 0.000000 0.033535 0.000000 0.000000
# 5 0.000000 0.000000 0.000000 0.000000 0.060197 0.000000
# 6 0.000000 0.000000 0.000000 0.000000 0.000000 0.066834
#
#
# Mechanical properties :
#
#
# Convention : Reuss Voigt Hill
#
# Bulk Modulus (GPa) = 13.69563 55.54103 34.61833
# Shear Modulus (GPa) = 14.22827 24.29361 19.26094
#
# Velocity S-wave (km/s) = 2.75048 3.59400 3.20016
# Velocity P-wave (km/s) = 4.16759 6.83765 5.66226
#
# Compressibility (1/GPa) = 0.07301598
#
# Stress axis : x y z
#
# Youngs Moduli (GPa) = 100.56710 10.15223 88.35479
#
# Poissons Ratio (x) = 0.09054 0.32818
# Poissons Ratio (y) = 0.89683 0.94902
# Poissons Ratio (z) = 0.37354 0.10905
#
# Static dielectric constant tensor:
#      x y z
#    x 1.717470 0.000000 0.000000 
#    y 0.000000 1.646630 0.000000 
#    z 0.000000 0.000000 1.627950 
# 
# From -- ./inp_files/24138.got.cif
#   From: 2010.05.17/outbox.cif.g08.bks.cpg/sg44_13_cif.got.tgz:24138.got - 2010.06.03 19:37:08.
