data_PCOD9374750
_publ_section_title
;
Structure prediction by ZEFSAII (Michael W. Deem and Ramdas Pophale) SiO2 
 PCOD9374750
Probable space group: I M M 2
;
_chemical_formula_sum "Si O2"
_cell_formula_units_Z 64
_cell_length_a 13.684997
_cell_length_b 18.624215
_cell_length_c 12.885386
_cell_angle_alpha 90.000000
_cell_angle_beta 90.000000
_cell_angle_gamma 90.000000
_cell_volume 3284.128306
_symmetry_space_group_name_H-M "I M M 2"
_symmetry_group_IT_number 44
_symmetry_cell_setting 'orthorhombic'
loop_
_space_group_symop_operation_xyz
x,y,z
-x,-y,z
-x,y,z
x,-y,z
1/2+x,1/2+y,1/2+z
1/2-x,1/2-y,1/2+z
1/2-x,1/2+y,1/2+z
1/2+x,1/2-y,1/2+z
loop_
_atom_site_type_symbol
_atom_site_label
_atom_site_fract_x
_atom_site_fract_y
_atom_site_fract_z
Si Si1 0.696143 0.420026 0.662670
Si Si2 0.887156 0.167004 0.341367
Si Si3 0.384840 0.170270 0.464157
Si Si4 0.107978 0.580862 0.758347
Si Si5 0.784086 0.585625 0.150418
Si Si6 0.252678 0.697402 0.523743
Si Si7 0.382846 0.831555 0.836442
Si Si8 0.384411 0.315840 0.089695
O O1 0.660186 0.500000 0.641084
O O2 0.667393 0.393555 0.777192
O O3 0.813411 0.418939 0.668347
O O4 0.676064 0.358273 0.580735
O O5 0.863459 0.248012 0.304802
O O6 0.876961 0.166164 0.465837
O O7 0.000000 0.155266 0.317688
O O8 0.500000 0.181144 0.484807
O O9 0.374365 0.136648 0.350204
O O10 0.339868 0.115758 0.548716
O O11 0.322250 0.242531 0.472926
O O12 0.112015 0.500000 0.804700
O O13 0.000000 0.592899 0.716501
O O14 0.777821 0.500000 0.149892
O O15 0.845021 0.615608 0.248002
O O16 0.676959 0.623200 0.148806
O O17 0.182726 0.660239 0.439208
O O18 0.178462 0.742349 0.598676
O O19 0.500000 0.837460 0.854695
O O20 0.500000 0.309520 0.114657
#
# Coordination Sequence:
#
# PCOD9374750 Si02
#       8
#     8   8   8   8   8   8   8   8
#     4  11  22  34  51  77 109 141 172 214 268 322
#     4   9  18  35  58  82 106 136 179 225 269 320
#     4  10  20  34  55  81 108 138 174 223 278 328
#     4   9  18  32  50  75 105 132 160 201 262 329
#     4  11  22  34  53  83 116 147 180 219 272 338
#     4  10  21  37  55  77 104 141 191 234 268 316
#     4  10  21  38  58  78 104 142 188 235 274 316
#     4   9  19  36  60  86 110 141 181 228 279 329
#
# _framework density 19.487667999999999
#
# number of rings (size 3 to 8) (size 9 to 14) (size 15 to 20)
#    0.000    2.125    0.000    5.625    0.000    6.500 
#    0.000    3.125    0.000    0.000    0.000    1.750 
#    0.000    0.000    0.000    0.000    0.000    0.000 
#
# Total GULP energy -178466.694968 kJ/mol
# GULP energy per Si atom -5577.084218 kJ/mol
# Density = 1.944331 g / cm^3
# Si number density = 19.487668 Si / 1000 Ang^3
#
#
#
# Elastic Constant Matrix: (Units=GPa)
#
#
# Indices 1 2 3 4 5 6 
#
# 1 74.6717 12.3777 -3.9038 0.0000 0.0000 0.0000
# 2 12.3777 70.6959 5.9437 -0.0001 0.0000 0.0000
# 3 -3.9038 5.9437 8.5564 -0.0002 0.0000 0.0000
# 4 0.0000 -0.0001 -0.0002 13.9349 0.0000 0.0000
# 5 0.0000 0.0000 0.0000 0.0000 19.5223 0.0000
# 6 0.0000 0.0000 0.0000 0.0000 0.0000 15.1455
#
#
#
# Elastic Compliance Matrix: (Units=1/GPa)
#
#
# Indices 1 2 3 4 5 6 
#
# 1 0.014395 -0.003263 0.008834 0.000000 0.000000 0.000000
# 2 -0.003263 0.015762 -0.012438 0.000000 0.000000 0.000000
# 3 0.008834 -0.012438 0.129542 0.000002 0.000000 0.000000
# 4 0.000000 0.000000 0.000002 0.071762 0.000000 0.000000
# 5 0.000000 0.000000 0.000000 0.000000 0.051224 0.000000
# 6 0.000000 0.000000 0.000000 0.000000 0.000000 0.066026
#
#
# Mechanical properties :
#
#
# Convention : Reuss Voigt Hill
#
# Bulk Modulus (GPa) = 6.85092 20.30656 13.57874
# Shear Modulus (GPa) = 12.16249 19.02096 15.59173
#
# Velocity S-wave (km/s) = 2.50093 3.12757 2.83164
# Velocity P-wave (km/s) = 3.44423 4.84614 4.20403
#
# Compressibility (1/GPa) = 0.14596586
#
# Stress axis : x y z
#
# Youngs Moduli (GPa) = 69.47006 63.44331 7.71947
#
# Poissons Ratio (x) = 0.20702 -0.06820
# Poissons Ratio (y) = 0.22668 0.09601
# Poissons Ratio (z) = -0.61371 0.78910
#
# Static dielectric constant tensor:
#      x y z
#    x 1.723400 0.000000 0.000000 
#    y 0.000000 1.710810 0.000000 
#    z 0.000000 0.000000 1.687260 
# 
# From -- ./inp_files/13435.got.cif
#   From: 2010.05.17/outbox.cif.g08.bks.cpg/sg44_7_cif.got.tgz:13435.got - 2010.06.03 19:37:08.
