data_PCOD9374803
_publ_section_title
;
Structure prediction by ZEFSAII (Michael W. Deem and Ramdas Pophale) SiO2 
 PCOD9374803
Probable space group: I M M 2
;
_chemical_formula_sum "Si O2"
_cell_formula_units_Z 64
_cell_length_a 8.782645
_cell_length_b 25.584202
_cell_length_c 15.335317
_cell_angle_alpha 90.000000
_cell_angle_beta 90.000000
_cell_angle_gamma 90.000000
_cell_volume 3445.799168
_symmetry_space_group_name_H-M "I M M 2"
_symmetry_group_IT_number 44
_symmetry_cell_setting 'orthorhombic'
loop_
_space_group_symop_operation_xyz
x,y,z
-x,-y,z
-x,y,z
x,-y,z
1/2+x,1/2+y,1/2+z
1/2-x,1/2-y,1/2+z
1/2-x,1/2+y,1/2+z
1/2+x,1/2-y,1/2+z
loop_
_atom_site_type_symbol
_atom_site_label
_atom_site_fract_x
_atom_site_fract_y
_atom_site_fract_z
Si Si1 0.818898 0.349993 0.532140
Si Si2 0.315751 0.440361 0.651605
Si Si3 0.182666 0.108212 0.333441
Si Si4 0.819676 0.717841 0.860765
Si Si5 0.817381 0.364001 0.165235
Si Si6 0.683930 0.561377 0.018719
Si Si7 0.318854 0.240289 0.564747
Si Si8 0.817054 0.164563 0.840982
O O1 0.756391 0.398302 0.587305
O O2 0.766271 0.295078 0.575142
O O3 0.748330 0.350814 0.435005
O O4 0.000000 0.351219 0.526877
O O5 0.500000 0.436410 0.646772
O O6 0.273234 0.500000 0.631407
O O7 0.269092 0.425675 0.750375
O O8 0.235358 0.167826 0.323509
O O9 0.236694 0.085517 0.426186
O O10 0.000000 0.106791 0.335862
O O11 0.771582 0.774565 0.826013
O O12 0.000000 0.711765 0.846302
O O13 0.793813 0.721193 0.965138
O O14 0.756912 0.407020 0.098054
O O15 0.771723 0.307128 0.126645
O O16 0.747314 0.368610 0.261193
O O17 0.000000 0.365742 0.168830
O O18 0.500000 0.566703 0.023197
O O19 0.720133 0.500000 0.021805
O O20 0.500000 0.249580 0.574581
O O21 0.000000 0.162482 0.844367
#
# Coordination Sequence:
#
# PCOD9374803 Si02
#       8
#     8   8   8   8   8   8   8   8
#     4  11  23  39  61  88 117 151 197 248 298 349
#     4  10  22  41  62  84 115 157 201 244 297 355
#     4  10  20  34  57  87 117 153 197 240 283 343
#     4   9  18  34  54  81 117 154 188 228 285 346
#     4  11  22  37  59  88 120 155 200 247 292 345
#     4  10  21  38  59  85 120 160 200 242 292 351
#     4   9  19  36  56  82 118 157 192 233 288 350
#     4  10  22  40  60  84 120 158 194 240 298 359
#
# _framework density 18.573340999999999
#
# number of rings (size 3 to 8) (size 9 to 14) (size 15 to 20)
#    0.000    2.000    1.250    3.000    1.750    6.000 
#    0.000    0.625    0.000    6.000    0.000    0.000 
#    0.000    0.000    0.000    0.000    0.000    0.000 
#
# Total GULP energy -178736.460928 kJ/mol
# GULP energy per Si atom -5585.514404 kJ/mol
# Density = 1.853107 g / cm^3
# Si number density = 18.573341 Si / 1000 Ang^3
#
#
#
# Elastic Constant Matrix: (Units=GPa)
#
#
# Indices 1 2 3 4 5 6 
#
# 1 38.1038 42.5949 31.3299 0.0000 0.0000 0.0000
# 2 42.5949 120.9439 58.9319 0.0000 0.0000 0.0000
# 3 31.3299 58.9319 88.4665 0.0001 0.0000 0.0000
# 4 0.0000 0.0000 0.0001 26.1341 0.0000 0.0000
# 5 0.0000 0.0000 0.0000 0.0000 20.5964 0.0000
# 6 0.0000 0.0000 0.0000 0.0000 0.0000 27.7052
#
#
#
# Elastic Compliance Matrix: (Units=1/GPa)
#
#
# Indices 1 2 3 4 5 6 
#
# 1 0.047101 -0.012527 -0.008336 0.000000 0.000000 0.000000
# 2 -0.012527 0.015573 -0.005938 0.000000 0.000000 0.000000
# 3 -0.008336 -0.005938 0.018211 0.000000 0.000000 0.000000
# 4 0.000000 0.000000 0.000000 0.038264 0.000000 0.000000
# 5 0.000000 0.000000 0.000000 0.000000 0.048552 0.000000
# 6 0.000000 0.000000 0.000000 0.000000 0.000000 0.036094
#
#
# Mechanical properties :
#
#
# Convention : Reuss Voigt Hill
#
# Bulk Modulus (GPa) = 36.65038 57.02527 46.83783
# Shear Modulus (GPa) = 18.76224 22.53098 20.64661
#
# Velocity S-wave (km/s) = 3.18177 3.48671 3.33772
# Velocity P-wave (km/s) = 5.76835 6.85412 6.33454
#
# Compressibility (1/GPa) = 0.02728484
#
# Stress axis : x y z
#
# Youngs Moduli (GPa) = 21.23090 64.21223 54.91049
#
# Poissons Ratio (x) = 0.80436 0.45774
# Poissons Ratio (y) = 0.26595 0.32606
# Poissons Ratio (z) = 0.17698 0.38129
#
# Static dielectric constant tensor:
#      x y z
#    x 1.620810 0.000000 0.000000 
#    y 0.000000 1.617630 0.000000 
#    z 0.000000 0.000000 1.642290 
# 
# From -- ./inp_files/16773.got.cif
#   From: 2010.05.17/outbox.cif.g08.bks.cpg/sg44_9_cif.got.tgz:16773.got - 2010.06.03 19:37:08.
