data_PCOD9374162
_publ_section_title
;
Structure prediction by ZEFSAII (Michael W. Deem and Ramdas Pophale) SiO2 
 PCOD9374162
Probable space group: I M M 2
;
_chemical_formula_sum "Si O2"
_cell_formula_units_Z 64
_cell_length_a 7.660179
_cell_length_b 24.688362
_cell_length_c 15.872954
_cell_angle_alpha 90.000000
_cell_angle_beta 90.000000
_cell_angle_gamma 90.000000
_cell_volume 3001.849761
_symmetry_space_group_name_H-M "I M M 2"
_symmetry_group_IT_number 44
_symmetry_cell_setting 'orthorhombic'
loop_
_space_group_symop_operation_xyz
x,y,z
-x,-y,z
-x,y,z
x,-y,z
1/2+x,1/2+y,1/2+z
1/2-x,1/2-y,1/2+z
1/2-x,1/2+y,1/2+z
1/2+x,1/2-y,1/2+z
loop_
_atom_site_type_symbol
_atom_site_label
_atom_site_fract_x
_atom_site_fract_y
_atom_site_fract_z
Si Si1 0.213819 0.437407 0.705440
Si Si2 0.798279 0.132413 0.558343
Si Si3 0.213958 0.362101 0.360531
Si Si4 0.205116 0.439445 0.212196
Si Si5 0.294539 0.743156 0.810144
Si Si6 0.288342 0.250250 0.112989
Si Si7 0.213047 0.634283 0.547185
Si Si8 0.299314 0.874311 0.369970
O O1 0.265551 0.500000 0.702912
O O2 0.271470 0.404325 0.622977
O O3 0.274006 0.407721 0.790761
O O4 0.000000 0.435432 0.705783
O O5 0.717402 0.089477 0.622020
O O6 0.725648 0.193077 0.573812
O O7 0.785315 0.117705 0.460658
O O8 0.000000 0.134617 0.582806
O O9 0.277441 0.399862 0.284579
O O10 0.270562 0.299997 0.347210
O O11 0.265773 0.381964 0.453129
O O12 0.000000 0.360687 0.357406
O O13 0.280263 0.500000 0.211636
O O14 0.000000 0.444227 0.231473
O O15 0.500000 0.738526 0.829933
O O16 0.268572 0.746253 0.709842
O O17 0.209353 0.688963 0.845561
O O18 0.500000 0.249901 0.110424
O O19 0.230754 0.195946 0.065609
O O20 0.000000 0.633854 0.548719
O O21 0.500000 0.890697 0.379860
#
# Coordination Sequence:
#
# PCOD9374162 Si02
#       8
#     8   8   8   8   8   8   8   8
#     4   9  18  32  52  79 108 141 184 231 275 324
#     4  11  23  38  59  85 114 147 191 241 293 346
#     4   9  18  32  53  82 115 147 181 228 284 338
#     4  10  21  38  58  82 114 152 196 242 288 342
#     4  11  20  33  56  84 116 149 186 229 280 341
#     4  10  19  34  56  82 112 147 182 227 287 342
#     4   9  16  30  53  80 111 141 175 224 279 333
#     4  11  22  37  57  83 117 151 189 232 287 349
#
# _framework density 21.320188999999999
#
# number of rings (size 3 to 8) (size 9 to 14) (size 15 to 20)
#    0.000    2.000    2.500    1.875    0.000    3.750 
#    0.000    3.750    0.000    1.875    0.000    0.000 
#    0.000    0.000    0.000    0.000    0.000    0.000 
#
# Total GULP energy -178776.516195 kJ/mol
# GULP energy per Si atom -5586.766131 kJ/mol
# Density = 2.127166 g / cm^3
# Si number density = 21.320189 Si / 1000 Ang^3
#
#
#
# Elastic Constant Matrix: (Units=GPa)
#
#
# Indices 1 2 3 4 5 6 
#
# 1 36.2233 0.0523 -11.4534 0.0000 0.0000 0.0000
# 2 0.0523 147.2134 68.7304 0.0000 0.0000 0.0000
# 3 -11.4534 68.7304 155.8298 0.0003 0.0001 0.0000
# 4 0.0000 0.0000 0.0003 0.8918 0.0001 0.0000
# 5 0.0000 0.0000 0.0001 0.0001 11.8849 0.0000
# 6 0.0000 0.0000 0.0000 0.0000 0.0000 13.6487
#
#
#
# Elastic Compliance Matrix: (Units=1/GPa)
#
#
# Indices 1 2 3 4 5 6 
#
# 1 0.028443 -0.001242 0.002638 -0.000001 0.000000 0.000000
# 2 -0.001242 0.008609 -0.003888 0.000001 0.000000 0.000000
# 3 0.002638 -0.003888 0.008326 -0.000002 0.000000 0.000000
# 4 -0.000001 0.000001 -0.000002 1.121388 -0.000006 -0.000001
# 5 0.000000 0.000000 0.000000 -0.000006 0.084140 0.000000
# 6 0.000000 0.000000 0.000000 -0.000001 0.000000 0.073267
#
#
# Mechanical properties :
#
#
# Convention : Reuss Voigt Hill
#
# Bulk Modulus (GPa) = 24.75638 50.43611 37.59625
# Shear Modulus (GPa) = 3.72406 24.08088 13.90247
#
# Velocity S-wave (km/s) = 1.32307 3.36443 2.55636
# Velocity P-wave (km/s) = 3.73777 6.22900 5.13670
#
# Compressibility (1/GPa) = 0.04039362
#
# Stress axis : x y z
#
# Youngs Moduli (GPa) = 35.15865 116.16289 120.10437
#
# Poissons Ratio (x) = 0.14425 -0.31686
# Poissons Ratio (y) = 0.04366 0.46699
# Poissons Ratio (z) = -0.09276 0.45166
#
# Static dielectric constant tensor:
#      x y z
#    x 1.810720 0.000000 0.000000 
#    y 0.000000 1.749920 0.000000 
#    z 0.000000 0.000000 1.733520 
# 
# From -- ./inp_files/16801.got.cif
#   From: 2010.05.17/outbox.cif.g08.bks.cpg/sg44_9_cif.got.tgz:16801.got - 2010.06.03 19:37:08.
