data_PCOD9374354
_publ_section_title
;
Structure prediction by ZEFSAII (Michael W. Deem and Ramdas Pophale) SiO2 
 PCOD9374354
Probable space group: I M M 2
;
_chemical_formula_sum "Si O2"
_cell_formula_units_Z 34
_cell_length_a 23.926904
_cell_length_b 7.257022
_cell_length_c 7.979723
_cell_angle_alpha 90.000000
_cell_angle_beta 90.000000
_cell_angle_gamma 90.000000
_cell_volume 1385.583691
_symmetry_space_group_name_H-M "I M M 2"
_symmetry_group_IT_number 44
_symmetry_cell_setting 'orthorhombic'
loop_
_space_group_symop_operation_xyz
x,y,z
-x,-y,z
-x,y,z
x,-y,z
1/2+x,1/2+y,1/2+z
1/2-x,1/2-y,1/2+z
1/2-x,1/2+y,1/2+z
1/2+x,1/2-y,1/2+z
loop_
_atom_site_type_symbol
_atom_site_label
_atom_site_fract_x
_atom_site_fract_y
_atom_site_fract_z
Si Si1 0.500000 0.000000 0.678120
Si Si2 0.702964 0.278275 0.706840
Si Si3 0.821799 0.287433 0.823978
Si Si4 0.939990 0.717282 0.712837
Si Si5 0.084936 0.219349 0.326632
O O1 0.450933 0.160861 0.697710
O O2 0.706103 0.500000 0.713980
O O3 0.764529 0.206822 0.749934
O O4 0.686079 0.219975 0.521926
O O5 0.650593 0.227463 0.823287
O O6 0.824207 0.500000 0.766324
O O7 0.881713 0.204303 0.778385
O O8 0.941018 0.500000 0.757490
O O9 0.937763 0.736262 0.511824
O O10 0.000000 0.791665 0.771764
O O11 0.080202 0.000000 0.295933
#
# Coordination Sequence:
#
# PCOD9374354 Si02
#       5
#     2   8   8   8   8
#     4  12  22  40  64  96 128 172 204 258 312 382
#     4  10  23  41  59  92 124 162 215 264 314 377
#     4  10  22  39  63  89 126 168 213 261 316 376
#     4  10  19  37  60  92 127 169 213 256 310 378
#     4  11  22  39  65  94 129 165 214 258 310 377
#
# _framework density 24.538394
#
# number of rings (size 3 to 8) (size 9 to 14) (size 15 to 20)
#    0.000    1.647    2.353    1.765    1.647    1.882 
#    2.118    0.000    0.000    0.000    0.000    0.000 
#    0.000    0.000    0.000    0.000    0.000    0.000 
#
# Total GULP energy -94817.505900 kJ/mol
# GULP energy per Si atom -5577.500347 kJ/mol
# Density = 2.448254 g / cm^3
# Si number density = 24.538394 Si / 1000 Ang^3
#
#
#
# Elastic Constant Matrix: (Units=GPa)
#
#
# Indices 1 2 3 4 5 6 
#
# 1 304.9101 37.3126 43.4851 0.0000 0.0000 0.0000
# 2 37.3126 141.4105 -20.8962 0.0000 0.0000 0.0000
# 3 43.4851 -20.8962 39.8736 0.0000 0.0000 0.0000
# 4 0.0000 0.0000 0.0000 15.5758 0.0000 0.0000
# 5 0.0000 0.0000 0.0000 0.0000 95.1021 0.0000
# 6 0.0000 0.0000 0.0000 0.0000 0.0000 0.3070
#
#
#
# Elastic Compliance Matrix: (Units=1/GPa)
#
#
# Indices 1 2 3 4 5 6 
#
# 1 0.004352 -0.002005 -0.005796 0.000000 0.000000 0.000000
# 2 -0.002005 0.008589 0.006687 0.000000 0.000000 0.000000
# 3 -0.005796 0.006687 0.034905 0.000000 0.000000 0.000000
# 4 0.000000 0.000000 0.000000 0.064202 0.000000 0.000000
# 5 0.000000 0.000000 0.000000 0.000000 0.010515 0.000000
# 6 0.000000 0.000000 0.000000 0.000000 0.000000 3.257400
#
#
# Mechanical properties :
#
#
# Convention : Reuss Voigt Hill
#
# Bulk Modulus (GPa) = 21.92112 67.33303 44.62707
# Shear Modulus (GPa) = 1.47172 50.61650 26.04411
#
# Velocity S-wave (km/s) = 0.77528 4.54667 3.26139
# Velocity P-wave (km/s) = 3.12317 7.42041 5.69283
#
# Compressibility (1/GPa) = 0.04561811
#
# Stress axis : x y z
#
# Youngs Moduli (GPa) = 229.79824 116.43104 28.64897
#
# Poissons Ratio (x) = 0.23342 0.16606
# Poissons Ratio (y) = 0.46069 -0.19159
# Poissons Ratio (z) = 1.33200 -0.77862
#
# Static dielectric constant tensor:
#      x y z
#    x 1.992040 0.000000 0.000000 
#    y 0.000000 1.942040 0.000000 
#    z 0.000000 0.000000 1.912340 
# 
# From -- ./inp_files/4294.got.cif
#   From: 2010.05.17/outbox.cif.g08.bks.cpg/sg44_3_cif.got.tgz:4294.got - 2010.06.03 19:37:08.
