data_PCOD9374713
_publ_section_title
;
Structure prediction by ZEFSAII (Michael W. Deem and Ramdas Pophale) SiO2 
 PCOD9374713
Probable space group: I M M 2
;
_chemical_formula_sum "Si O2"
_cell_formula_units_Z 64
_cell_length_a 7.558410
_cell_length_b 9.455578
_cell_length_c 43.274197
_cell_angle_alpha 90.000000
_cell_angle_beta 90.000000
_cell_angle_gamma 90.000000
_cell_volume 3092.769441
_symmetry_space_group_name_H-M "I M M 2"
_symmetry_group_IT_number 44
_symmetry_cell_setting 'orthorhombic'
loop_
_space_group_symop_operation_xyz
x,y,z
-x,-y,z
-x,y,z
x,-y,z
1/2+x,1/2+y,1/2+z
1/2-x,1/2-y,1/2+z
1/2-x,1/2+y,1/2+z
1/2+x,1/2-y,1/2+z
loop_
_atom_site_type_symbol
_atom_site_label
_atom_site_fract_x
_atom_site_fract_y
_atom_site_fract_z
Si Si1 0.712541 0.836020 0.540720
Si Si2 0.216073 0.664778 0.973573
Si Si3 0.216935 0.337123 0.667171
Si Si4 0.712522 0.339652 0.787975
Si Si5 0.212212 0.839057 0.726742
Si Si6 0.287405 0.661140 0.414794
Si Si7 0.288297 0.838234 0.846070
Si Si8 0.789937 0.838382 0.608284
O O1 0.500000 0.836835 0.540068
O O2 0.771902 0.777925 0.507415
O O3 0.763686 0.775714 0.573945
O O4 0.773582 0.000000 0.541390
O O5 0.266293 0.500000 0.971547
O O6 0.279354 0.749621 0.943799
O O7 0.000000 0.668302 0.973205
O O8 0.273398 0.500000 0.668668
O O9 0.275851 0.248103 0.696978
O O10 0.277168 0.258901 0.635953
O O11 0.000000 0.337916 0.667201
O O12 0.500000 0.348241 0.790786
O O13 0.780147 0.500000 0.784935
O O14 0.749864 0.246289 0.757901
O O15 0.780184 0.260035 0.818605
O O16 0.000000 0.847481 0.723817
O O17 0.280307 0.000000 0.727854
O O18 0.500000 0.656454 0.417291
O O19 0.220320 0.500000 0.416073
O O20 0.246908 0.717389 0.380577
O O21 0.500000 0.846356 0.842616
O O22 0.219225 0.000000 0.844026
O O23 0.000000 0.849861 0.612829
O O24 0.717765 0.000000 0.609279
#
# Coordination Sequence:
#
# PCOD9374713 Si02
#       8
#     8   8   8   8   8   8   8   8
#     4   8  14  26  44  64  87 117 151 185 224 273
#     4   8  14  26  44  64  87 117 150 183 225 277
#     4   9  17  30  48  69  95 126 156 189 234 283
#     4  10  21  36  53  74 101 131 161 195 239 289
#     4  10  20  34  54  78 100 125 162 203 239 281
#     4   9  17  29  46  68  91 115 149 193 233 269
#     4   9  18  33  50  66  90 126 160 188 227 281
#     4   9  16  27  45  67  89 115 151 192 229 269
#
# _framework density 20.693427
#
# number of rings (size 3 to 8) (size 9 to 14) (size 15 to 20)
#    0.000    3.000    0.000    1.875    0.000    4.000 
#    0.000    3.125    0.000    4.125    0.000    0.000 
#    0.000    0.000    0.000    0.000    0.000    0.000 
#
# Total GULP energy -178458.566350 kJ/mol
# GULP energy per Si atom -5576.830198 kJ/mol
# Density = 2.064633 g / cm^3
# Si number density = 20.693427 Si / 1000 Ang^3
#
#
#
# Elastic Constant Matrix: (Units=GPa)
#
#
# Indices 1 2 3 4 5 6 
#
# 1 46.7636 5.7895 0.4572 0.0000 0.0000 0.0000
# 2 5.7895 127.1741 120.3306 0.0000 0.0000 0.0000
# 3 0.4572 120.3306 252.3826 0.0000 0.0000 0.0000
# 4 0.0000 0.0000 0.0000 31.6610 0.0000 0.0000
# 5 0.0000 0.0000 0.0000 0.0000 19.4763 0.0000
# 6 0.0000 0.0000 0.0000 0.0000 0.0000 -2.6365
#
#
#
# Elastic Compliance Matrix: (Units=1/GPa)
#
#
# Indices 1 2 3 4 5 6 
#
# 1 0.021590 -0.001723 0.000782 0.000000 0.000000 0.000000
# 2 -0.001723 0.014464 -0.006893 0.000000 0.000000 0.000000
# 3 0.000782 -0.006893 0.007247 0.000000 0.000000 0.000000
# 4 0.000000 0.000000 0.000000 0.031585 0.000000 0.000000
# 5 0.000000 0.000000 0.000000 0.000000 0.051344 0.000000
# 6 0.000000 0.000000 0.000000 0.000000 0.000000 -0.379284
#
#
# Mechanical properties :
#
#
# Convention : Reuss Voigt Hill
#
# Bulk Modulus (GPa) = 36.18797 75.49720 55.84259
# Shear Modulus (GPa) = -21.91286 29.68301 3.88508
#
# Velocity S-wave (km/s) = -3.25765 3.79148 1.37169
# Velocity P-wave (km/s) = 1.83737 7.46525 5.43626
#
# Compressibility (1/GPa) = 0.02763349
#
# Stress axis : x y z
#
# Youngs Moduli (GPa) = 46.31806 69.13924 137.98509
#
# Poissons Ratio (x) = 0.11914 -0.10797
# Poissons Ratio (y) = 0.07982 0.95110
# Poissons Ratio (z) = -0.03624 0.47656
#
# Static dielectric constant tensor:
#      x y z
#    x 1.794650 0.000000 0.000000 
#    y 0.000000 1.722310 0.000000 
#    z 0.000000 0.000000 1.738660 
# 
# From -- ./inp_files/27455.got.cif
#   From: 2010.05.17/outbox.cif.g08.bks.cpg/sg44_14_cif.got.tgz:27455.got - 2010.06.03 19:37:08.
