data_PCOD9374317
_publ_section_title
;
Structure prediction by ZEFSAII (Michael W. Deem and Ramdas Pophale) SiO2 
 PCOD9374317
Probable space group: I M M 2
;
_chemical_formula_sum "Si O2"
_cell_formula_units_Z 40
_cell_length_a 7.631727
_cell_length_b 26.397154
_cell_length_c 9.251416
_cell_angle_alpha 90.000000
_cell_angle_beta 90.000000
_cell_angle_gamma 90.000000
_cell_volume 1863.752086
_symmetry_space_group_name_H-M "I M M 2"
_symmetry_group_IT_number 44
_symmetry_cell_setting 'orthorhombic'
loop_
_space_group_symop_operation_xyz
x,y,z
-x,-y,z
-x,y,z
x,-y,z
1/2+x,1/2+y,1/2+z
1/2-x,1/2-y,1/2+z
1/2-x,1/2+y,1/2+z
1/2+x,1/2-y,1/2+z
loop_
_atom_site_type_symbol
_atom_site_label
_atom_site_fract_x
_atom_site_fract_y
_atom_site_fract_z
Si Si1 0.787851 0.000000 0.943970
Si Si2 0.214593 0.900887 0.768954
Si Si3 0.204932 0.500000 0.782300
Si Si4 0.794302 0.102843 0.440879
Si Si5 0.792354 0.803891 0.255525
Si Si6 0.287724 0.702184 0.427569
O O1 0.727930 0.949710 0.860071
O O2 0.000000 0.000000 0.941820
O O3 0.734341 0.000000 0.110777
O O4 0.276712 0.902329 0.603224
O O5 0.267946 0.848687 0.844968
O O6 0.000000 0.902259 0.769179
O O7 0.280344 0.550566 0.854459
O O8 0.000000 0.500000 0.812543
O O9 0.718138 0.148911 0.346627
O O10 0.000000 0.114534 0.460491
O O11 0.769357 0.752320 0.343723
O O12 0.000000 0.813511 0.238215
O O13 0.722659 0.798709 0.092776
O O14 0.500000 0.702738 0.428344
#
# Coordination Sequence:
#
# PCOD9374317 Si02
#       6
#     4   8   4   8   8   8
#     4  10  19  36  60  82 108 144 187 228 268 320
#     4   9  18  34  60  87 106 137 187 234 272 319
#     4  12  25  38  54  82 116 146 179 220 274 330
#     4  10  20  38  62  83 106 141 186 229 271 323
#     4  10  21  36  57  84 111 145 187 226 269 324
#     4  10  20  35  55  82 115 146 181 227 276 323
#
# _framework density 21.462081000000001
#
# number of rings (size 3 to 8) (size 9 to 14) (size 15 to 20)
#    0.000    2.000    0.000    3.900    0.000    8.000 
#    0.000    6.000    0.000    0.000    0.000    0.000 
#    0.000    0.000    0.000    0.000    0.000    0.000 
#
# Total GULP energy -111800.679213 kJ/mol
# GULP energy per Si atom -5590.033961 kJ/mol
# Density = 2.141323 g / cm^3
# Si number density = 21.462081 Si / 1000 Ang^3
#
#
#
# Elastic Constant Matrix: (Units=GPa)
#
#
# Indices 1 2 3 4 5 6 
#
# 1 33.3535 -32.0683 -17.2889 0.0001 0.0000 0.0000
# 2 -32.0683 171.7159 101.0132 0.0002 0.0000 0.0000
# 3 -17.2889 101.0132 225.1667 0.0008 0.0004 0.0000
# 4 0.0001 0.0002 0.0008 12.8612 0.0001 -0.0001
# 5 0.0000 0.0000 0.0004 0.0001 8.4284 0.0001
# 6 0.0000 0.0000 0.0000 -0.0001 0.0001 27.0282
#
#
#
# Elastic Compliance Matrix: (Units=1/GPa)
#
#
# Indices 1 2 3 4 5 6 
#
# 1 0.036563 0.007033 -0.000348 0.000000 0.000000 0.000000
# 2 0.007033 0.009264 -0.003616 0.000000 0.000000 0.000000
# 3 -0.000348 -0.003616 0.006037 0.000000 0.000000 0.000000
# 4 0.000000 0.000000 0.000000 0.077753 -0.000001 0.000000
# 5 0.000000 0.000000 0.000000 -0.000001 0.118646 0.000000
# 6 0.000000 0.000000 0.000000 0.000000 0.000000 0.036998
#
#
# Mechanical properties :
#
#
# Convention : Reuss Voigt Hill
#
# Bulk Modulus (GPa) = 17.24060 59.28311 38.26186
# Shear Modulus (GPa) = 16.75279 34.90225 25.82752
#
# Velocity S-wave (km/s) = 2.79691 4.03703 3.47277
# Velocity P-wave (km/s) = 4.29893 7.02939 5.82637
#
# Compressibility (1/GPa) = 0.05800261
#
# Stress axis : x y z
#
# Youngs Moduli (GPa) = 27.34971 107.94340 165.65417
#
# Poissons Ratio (x) = -0.75914 0.05757
# Poissons Ratio (y) = -0.19234 0.59901
# Poissons Ratio (z) = 0.00951 0.39033
#
# Static dielectric constant tensor:
#      x y z
#    x 1.830270 0.000000 0.000000 
#    y 0.000000 1.733500 0.000000 
#    z 0.000000 0.000000 1.750170 
# 
# From -- ./inp_files/4492.got.cif
#   From: 2010.05.17/outbox.cif.g08.bks.cpg/sg44_3_cif.got.tgz:4492.got - 2010.06.03 19:37:08.
