data_PCOD9374816
_publ_section_title
;
Structure prediction by ZEFSAII (Michael W. Deem and Ramdas Pophale) SiO2 
 PCOD9374816
Probable space group: I M M 2
;
_chemical_formula_sum "Si O2"
_cell_formula_units_Z 48
_cell_length_a 27.880108
_cell_length_b 8.828072
_cell_length_c 9.354061
_cell_angle_alpha 90.000000
_cell_angle_beta 90.000000
_cell_angle_gamma 90.000000
_cell_volume 2302.292592
_symmetry_space_group_name_H-M "I M M 2"
_symmetry_group_IT_number 44
_symmetry_cell_setting 'orthorhombic'
loop_
_space_group_symop_operation_xyz
x,y,z
-x,-y,z
-x,y,z
x,-y,z
1/2+x,1/2+y,1/2+z
1/2-x,1/2-y,1/2+z
1/2-x,1/2+y,1/2+z
1/2+x,1/2-y,1/2+z
loop_
_atom_site_type_symbol
_atom_site_label
_atom_site_fract_x
_atom_site_fract_y
_atom_site_fract_z
Si Si1 0.634149 0.170228 0.760030
Si Si2 0.218335 0.677295 0.748916
Si Si3 0.557706 0.000000 0.232201
Si Si4 0.556320 0.000000 0.895460
Si Si5 0.307626 0.678910 0.546916
Si Si6 0.353144 0.331346 0.043390
Si Si7 0.942733 0.167617 0.732759
O O1 0.579485 0.139785 0.808667
O O2 0.645676 0.234983 0.605636
O O3 0.655465 0.000000 0.774136
O O4 0.653279 0.282753 0.880753
O O5 0.219653 0.500000 0.782707
O O6 0.266093 0.717366 0.661381
O O7 0.174718 0.714970 0.643045
O O8 0.209935 0.768923 0.892956
O O9 0.570440 0.834305 0.297734
O O10 0.500000 0.000000 0.232028
O O11 0.572570 0.000000 0.062660
O O12 0.500000 0.000000 0.894274
O O13 0.315506 0.500000 0.546846
O O14 0.333310 0.500000 0.067103
O O15 0.408482 0.335223 0.093913
O O16 0.000000 0.172042 0.702482
O O17 0.933759 0.000000 0.803265
#
# Coordination Sequence:
#
# PCOD9374816 Si02
#       7
#     8   8   4   4   8   8   8
#     4  10  20  34  60  88 120 160 198 253 293 368
#     4  11  25  41  63  86 120 158 202 252 304 376
#     4   9  14  26  46  71 112 155 190 239 292 344
#     4   9  18  32  56  89 124 163 204 253 303 362
#     4  11  24  43  62  89 119 157 200 251 311 368
#     4  11  21  34  55  88 122 161 201 252 309 356
#     4   9  17  28  46  76 113 151 196 244 296 353
#
# _framework density 20.848783999999998
#
# number of rings (size 3 to 8) (size 9 to 14) (size 15 to 20)
#    0.500    1.333    1.667    3.000    1.167    5.333 
#    0.000    0.000    0.000    2.500    0.000    0.000 
#    0.000    0.000    0.000    0.000    0.000    0.000 
#
# Total GULP energy -133689.652598 kJ/mol
# GULP energy per Si atom -5570.402192 kJ/mol
# Density = 2.080133 g / cm^3
# Si number density = 20.848784 Si / 1000 Ang^3
#
#
#
# Elastic Constant Matrix: (Units=GPa)
#
#
# Indices 1 2 3 4 5 6 
#
# 1 52.7785 2.7688 13.8847 0.0000 0.0000 0.0000
# 2 2.7688 108.4965 6.5276 0.0000 0.0000 0.0000
# 3 13.8847 6.5276 54.2088 0.0000 0.0000 0.0000
# 4 0.0000 0.0000 0.0000 28.9482 0.0000 0.0000
# 5 0.0000 0.0000 0.0000 0.0000 7.7630 0.0000
# 6 0.0000 0.0000 0.0000 0.0000 0.0000 19.1379
#
#
#
# Elastic Compliance Matrix: (Units=1/GPa)
#
#
# Indices 1 2 3 4 5 6 
#
# 1 0.020321 -0.000207 -0.005180 0.000000 0.000000 0.000000
# 2 -0.000207 0.009286 -0.001065 0.000000 0.000000 0.000000
# 3 -0.005180 -0.001065 0.019902 0.000000 0.000000 0.000000
# 4 0.000000 0.000000 0.000000 0.034544 0.000000 0.000000
# 5 0.000000 0.000000 0.000000 0.000000 0.128816 0.000000
# 6 0.000000 0.000000 0.000000 0.000000 0.000000 0.052252
#
#
# Mechanical properties :
#
#
# Convention : Reuss Voigt Hill
#
# Bulk Modulus (GPa) = 27.31860 29.09397 28.20629
# Shear Modulus (GPa) = 17.22786 23.99001 20.60894
#
# Velocity S-wave (km/s) = 2.87770 3.39583 3.14745
# Velocity P-wave (km/s) = 4.91663 5.41854 5.17367
#
# Compressibility (1/GPa) = 0.03660509
#
# Stress axis : x y z
#
# Youngs Moduli (GPa) = 49.21100 107.68598 50.24570
#
# Poissons Ratio (x) = 0.02228 0.26027
# Poissons Ratio (y) = 0.01018 0.05352
# Poissons Ratio (z) = 0.25491 0.11471
#
# Static dielectric constant tensor:
#      x y z
#    x 1.784500 0.000000 0.000000 
#    y 0.000000 1.810850 0.000000 
#    z 0.000000 0.000000 1.690200 
# 
# From -- ./inp_files/9987.got.cif
#   From: 2010.05.17/outbox.cif.g08.bks.cpg/sg44_5_cif.got.tgz:9987.got - 2010.06.03 19:37:08.
