data_PCOD9374227
_publ_section_title
;
Structure prediction by ZEFSAII (Michael W. Deem and Ramdas Pophale) SiO2 
 PCOD9374227
Probable space group: I M M 2
;
_chemical_formula_sum "Si O2"
_cell_formula_units_Z 64
_cell_length_a 8.286292
_cell_length_b 29.281432
_cell_length_c 12.833325
_cell_angle_alpha 90.000000
_cell_angle_beta 90.000000
_cell_angle_gamma 90.000000
_cell_volume 3113.807340
_symmetry_space_group_name_H-M "I M M 2"
_symmetry_group_IT_number 44
_symmetry_cell_setting 'orthorhombic'
loop_
_space_group_symop_operation_xyz
x,y,z
-x,-y,z
-x,y,z
x,-y,z
1/2+x,1/2+y,1/2+z
1/2-x,1/2-y,1/2+z
1/2-x,1/2+y,1/2+z
1/2+x,1/2-y,1/2+z
loop_
_atom_site_type_symbol
_atom_site_label
_atom_site_fract_x
_atom_site_fract_y
_atom_site_fract_z
Si Si1 0.690942 0.952134 0.450690
Si Si2 0.306508 0.947923 0.114657
Si Si3 0.185820 0.665204 0.117639
Si Si4 0.304293 0.122929 0.292787
Si Si5 0.307576 0.409811 0.395232
Si Si6 0.685038 0.569868 0.169322
Si Si7 0.688927 0.191406 0.847978
Si Si8 0.693657 0.291203 0.905452
O O1 0.500000 0.952209 0.431411
O O2 0.751772 0.907395 0.392295
O O3 0.721160 0.951453 0.573375
O O4 0.758021 0.000000 0.407864
O O5 0.500000 0.949723 0.126912
O O6 0.251395 0.907986 0.194341
O O7 0.246280 0.000000 0.133891
O O8 0.265623 0.932213 0.997814
O O9 0.303420 0.623306 0.140916
O O10 0.196108 0.694722 0.222400
O O11 0.000000 0.647963 0.109746
O O12 0.231302 0.689833 0.011933
O O13 0.500000 0.126125 0.291056
O O14 0.239652 0.173715 0.312748
O O15 0.500000 0.415350 0.398048
O O16 0.249370 0.433150 0.286861
O O17 0.269331 0.355714 0.385443
O O18 0.500000 0.554498 0.167523
O O19 0.500000 0.186981 0.876399
O O20 0.752378 0.239334 0.890214
O O21 0.500000 0.290425 0.913275
#
# Coordination Sequence:
#
# PCOD9374227 Si02
#       8
#     8   8   8   8   8   8   8   8
#     4  10  20  34  55  83 113 146 186 232 285 347
#     4  10  22  41  64  88 119 163 210 253 300 361
#     4  10  19  35  57  79 109 150 190 234 288 347
#     4  10  21  38  59  84 115 154 199 246 294 350
#     4  10  22  39  60  86 118 154 197 249 303 354
#     4  10  20  35  55  81 112 146 185 236 293 346
#     4   9  21  39  58  83 116 156 200 245 296 356
#     4  11  22  36  57  87 120 153 194 246 301 359
#
# _framework density 20.553615000000001
#
# number of rings (size 3 to 8) (size 9 to 14) (size 15 to 20)
#    0.000    2.000    1.250    1.875    0.000    7.000 
#    0.000    5.000    0.000    2.250    0.000    0.000 
#    0.000    0.000    0.000    0.000    0.000    0.000 
#
# Total GULP energy -178501.242851 kJ/mol
# GULP energy per Si atom -5578.163839 kJ/mol
# Density = 2.050683 g / cm^3
# Si number density = 20.553615 Si / 1000 Ang^3
#
#
#
# Elastic Constant Matrix: (Units=GPa)
#
#
# Indices 1 2 3 4 5 6 
#
# 1 24.1596 1.1136 1.4197 0.0000 0.0000 0.0000
# 2 1.1136 63.8556 10.4150 -0.0002 0.0001 0.0001
# 3 1.4197 10.4150 83.5934 0.0005 0.0002 0.0001
# 4 0.0000 -0.0002 0.0005 -65.1610 0.0007 0.0005
# 5 0.0000 0.0001 0.0002 0.0007 22.1926 0.0000
# 6 0.0000 0.0001 0.0001 0.0005 0.0000 7.1422
#
#
#
# Elastic Compliance Matrix: (Units=1/GPa)
#
#
# Indices 1 2 3 4 5 6 
#
# 1 0.041457 -0.000621 -0.000627 0.000000 0.000000 0.000000
# 2 -0.000621 0.015994 -0.001982 0.000000 0.000000 0.000000
# 3 -0.000627 -0.001982 0.012220 0.000000 0.000000 0.000000
# 4 0.000000 0.000000 0.000000 -0.015347 0.000001 0.000001
# 5 0.000000 0.000000 0.000000 0.000001 0.045060 0.000000
# 6 0.000000 0.000000 0.000000 0.000001 0.000000 0.140013
#
#
# Mechanical properties :
#
#
# Convention : Reuss Voigt Hill
#
# Bulk Modulus (GPa) = 15.81974 21.94501 18.88237
# Shear Modulus (GPa) = 18.73163 3.41214 11.07188
#
# Velocity S-wave (km/s) = 3.02214 1.28985 2.32347
# Velocity P-wave (km/s) = 4.45997 3.59422 4.05029
#
# Compressibility (1/GPa) = 0.06321217
#
# Stress axis : x y z
#
# Youngs Moduli (GPa) = 24.12150 62.52166 81.83117
#
# Poissons Ratio (x) = 0.03881 0.05129
# Poissons Ratio (y) = 0.01497 0.16221
# Poissons Ratio (z) = 0.01512 0.12393
#
# Static dielectric constant tensor:
#      x y z
#    x 1.731830 0.000000 0.000000 
#    y 0.000000 1.807800 0.000000 
#    z 0.000000 0.000000 1.739070 
# 
# From -- ./inp_files/11524.got.cif
#   From: 2010.05.17/outbox.cif.g08.bks.cpg/sg44_6_cif.got.tgz:11524.got - 2010.06.03 19:37:08.
