data_PCOD9374404
_publ_section_title
;
Structure prediction by ZEFSAII (Michael W. Deem and Ramdas Pophale) SiO2 
 PCOD9374404
Probable space group: I M M 2
;
_chemical_formula_sum "Si O2"
_cell_formula_units_Z 64
_cell_length_a 15.045453
_cell_length_b 14.080687
_cell_length_c 15.867783
_cell_angle_alpha 90.000000
_cell_angle_beta 90.000000
_cell_angle_gamma 90.000000
_cell_volume 3361.594818
_symmetry_space_group_name_H-M "I M M 2"
_symmetry_group_IT_number 44
_symmetry_cell_setting 'orthorhombic'
loop_
_space_group_symop_operation_xyz
x,y,z
-x,-y,z
-x,y,z
x,-y,z
1/2+x,1/2+y,1/2+z
1/2-x,1/2-y,1/2+z
1/2-x,1/2+y,1/2+z
1/2+x,1/2-y,1/2+z
loop_
_atom_site_type_symbol
_atom_site_label
_atom_site_fract_x
_atom_site_fract_y
_atom_site_fract_z
Si Si1 0.662631 0.106468 0.695510
Si Si2 0.598822 0.743622 0.121829
Si Si3 0.712178 0.614662 0.444522
Si Si4 0.205970 0.201284 0.122264
Si Si5 0.393096 0.392297 0.964019
Si Si6 0.361731 0.607149 0.270026
Si Si7 0.897129 0.885348 0.278779
Si Si8 0.904140 0.384669 0.375879
O O1 0.672689 0.189397 0.627797
O O2 0.760432 0.100030 0.736767
O O3 0.604033 0.136533 0.776219
O O4 0.637246 0.000000 0.667118
O O5 0.500000 0.785878 0.108709
O O6 0.686832 0.806660 0.131433
O O7 0.594399 0.678534 0.205219
O O8 0.622154 0.674982 0.043038
O O9 0.712122 0.500000 0.447419
O O10 0.682411 0.656018 0.533111
O O11 0.648997 0.640946 0.366036
O O12 0.814256 0.644733 0.423453
O O13 0.160806 0.151886 0.202175
O O14 0.500000 0.399302 0.956289
O O15 0.359499 0.500000 0.979470
O O16 0.363246 0.356203 0.872054
O O17 0.398400 0.500000 0.267282
O O18 0.000000 0.855766 0.268536
O O19 0.895973 0.000000 0.279783
O O20 0.904852 0.500000 0.380972
O O21 0.000000 0.348782 0.407709
#
# Coordination Sequence:
#
# PCOD9374404 Si02
#       8
#     8   8   8   8   8   8   8   8
#     4   8  16  30  46  68  98 131 169 211 256 307
#     4  10  20  31  47  76 109 138 171 209 254 313
#     4   9  18  32  49  72 101 133 173 214 253 307
#     4  11  21  32  51  75 106 145 177 208 253 303
#     4   8  15  30  53  80 106 130 163 214 273 323
#     4   8  15  30  49  67  94 132 171 214 259 298
#     4   9  19  37  59  81 104 131 169 219 269 312
#     4   8  14  27  49  74  98 126 163 214 274 322
#
# _framework density 19.038581000000001
#
# number of rings (size 3 to 8) (size 9 to 14) (size 15 to 20)
#    0.000    3.125    0.000    3.000    0.000    5.250 
#    0.000    1.875    0.000    1.875    0.000    0.000 
#    0.000    1.000    0.000    0.000    0.000    0.250 
#
# Total GULP energy -178372.429474 kJ/mol
# GULP energy per Si atom -5574.138421 kJ/mol
# Density = 1.899525 g / cm^3
# Si number density = 19.038581 Si / 1000 Ang^3
#
#
#
# Elastic Constant Matrix: (Units=GPa)
#
#
# Indices 1 2 3 4 5 6 
#
# 1 59.8163 14.0890 40.5727 0.0000 0.0000 0.0000
# 2 14.0890 49.1263 40.9449 0.0000 0.0000 0.0000
# 3 40.5727 40.9449 137.7586 0.0000 0.0000 0.0000
# 4 0.0000 0.0000 0.0000 32.1121 0.0000 0.0000
# 5 0.0000 0.0000 0.0000 0.0000 19.0223 0.0000
# 6 0.0000 0.0000 0.0000 0.0000 0.0000 14.3387
#
#
#
# Elastic Compliance Matrix: (Units=1/GPa)
#
#
# Indices 1 2 3 4 5 6 
#
# 1 0.020940 -0.001150 -0.005825 0.000000 0.000000 0.000000
# 2 -0.001150 0.027122 -0.007723 0.000000 0.000000 0.000000
# 3 -0.005825 -0.007723 0.011270 0.000000 0.000000 0.000000
# 4 0.000000 0.000000 0.000000 0.031141 0.000000 0.000000
# 5 0.000000 0.000000 0.000000 0.000000 0.052570 0.000000
# 6 0.000000 0.000000 0.000000 0.000000 0.000000 0.069742
#
#
# Mechanical properties :
#
#
# Convention : Reuss Voigt Hill
#
# Bulk Modulus (GPa) = 33.40464 48.65715 41.03090
# Shear Modulus (GPa) = 19.82873 23.16759 21.49816
#
# Velocity S-wave (km/s) = 3.23073 3.49216 3.36399
# Velocity P-wave (km/s) = 5.61255 6.47092 6.05696
#
# Compressibility (1/GPa) = 0.02993596
#
# Stress axis : x y z
#
# Youngs Moduli (GPa) = 47.75531 36.87046 88.73053
#
# Poissons Ratio (x) = 0.04241 0.51689
# Poissons Ratio (y) = 0.05493 0.68522
# Poissons Ratio (z) = 0.27820 0.28473
#
# Static dielectric constant tensor:
#      x y z
#    x 1.696060 0.000000 0.000000 
#    y 0.000000 1.701990 0.000000 
#    z 0.000000 0.000000 1.669260 
# 
# From -- ./inp_files/19011.got.cif
#   From: 2010.05.17/outbox.cif.g08.bks.cpg/sg44_10_cif.got.tgz:19011.got - 2010.06.03 19:37:08.
