data_PCOD9374096
_publ_section_title
;
Structure prediction by ZEFSAII (Michael W. Deem and Ramdas Pophale) SiO2 
 PCOD9374096
Probable space group: I M M 2
;
_chemical_formula_sum "Si O2"
_cell_formula_units_Z 64
_cell_length_a 25.758662
_cell_length_b 8.730018
_cell_length_c 15.438332
_cell_angle_alpha 90.000000
_cell_angle_beta 90.000000
_cell_angle_gamma 90.000000
_cell_volume 3471.673031
_symmetry_space_group_name_H-M "I M M 2"
_symmetry_group_IT_number 44
_symmetry_cell_setting 'orthorhombic'
loop_
_space_group_symop_operation_xyz
x,y,z
-x,-y,z
-x,y,z
x,-y,z
1/2+x,1/2+y,1/2+z
1/2-x,1/2-y,1/2+z
1/2-x,1/2+y,1/2+z
1/2+x,1/2-y,1/2+z
loop_
_atom_site_type_symbol
_atom_site_label
_atom_site_fract_x
_atom_site_fract_y
_atom_site_fract_z
Si Si1 0.278995 0.318033 0.347280
Si Si2 0.332006 0.317087 0.822068
Si Si3 0.387997 0.184891 0.315624
Si Si4 0.941638 0.684588 0.638105
Si Si5 0.265078 0.184724 0.537811
Si Si6 0.135974 0.315666 0.150152
Si Si7 0.940217 0.686822 0.996468
Si Si8 0.351621 0.316105 0.019985
O O1 0.277958 0.500000 0.341689
O O2 0.225563 0.251448 0.309962
O O3 0.330903 0.253576 0.304124
O O4 0.279968 0.262552 0.447183
O O5 0.328551 0.500000 0.820805
O O6 0.367505 0.257964 0.744329
O O7 0.350483 0.271041 0.918463
O O8 0.424361 0.228122 0.235324
O O9 0.412282 0.235195 0.407457
O O10 0.383858 0.000000 0.317926
O O11 0.941836 0.500000 0.634915
O O12 0.898611 0.744167 0.572088
O O13 0.000000 0.739176 0.619382
O O14 0.307947 0.224031 0.608734
O O15 0.205401 0.225891 0.557486
O O16 0.266991 0.000000 0.524619
O O17 0.133613 0.500000 0.158072
O O18 0.092788 0.266336 0.080433
O O19 0.939983 0.500000 0.995588
O O20 0.000000 0.736616 0.999189
O O21 0.355768 0.500000 0.024240
#
# Coordination Sequence:
#
# PCOD9374096 Si02
#       8
#     8   8   8   8   8   8   8   8
#     4  11  21  33  53  83 115 148 188 228 274 328
#     4  10  22  39  57  79 112 151 190 233 286 340
#     4  10  19  35  56  81 115 152 184 223 280 337
#     4  10  22  38  58  85 112 141 187 240 283 329
#     4   9  18  35  55  80 114 150 182 221 278 338
#     4  10  19  33  56  86 117 149 187 232 279 329
#     4   9  17  32  57  84 112 150 191 225 268 332
#     4   9  20  38  58  78 108 148 188 230 282 341
#
# _framework density 18.434915
#
# number of rings (size 3 to 8) (size 9 to 14) (size 15 to 20)
#    0.000    2.250    1.250    2.625    1.750    5.250 
#    0.000    0.625    0.000    4.500    0.000    0.000 
#    0.000    0.000    0.000    0.000    0.000    0.000 
#
# Total GULP energy -178625.148660 kJ/mol
# GULP energy per Si atom -5582.035896 kJ/mol
# Density = 1.839296 g / cm^3
# Si number density = 18.434915 Si / 1000 Ang^3
#
#
#
# Elastic Constant Matrix: (Units=GPa)
#
#
# Indices 1 2 3 4 5 6 
#
# 1 129.1665 25.2739 61.1428 0.0000 0.0000 0.0000
# 2 25.2739 15.3076 21.6099 0.0000 0.0000 0.0000
# 3 61.1428 21.6099 88.1169 0.0000 0.0000 0.0000
# 4 0.0000 0.0000 0.0000 25.2863 0.0000 0.0000
# 5 0.0000 0.0000 0.0000 0.0000 27.2235 0.0000
# 6 0.0000 0.0000 0.0000 0.0000 0.0000 20.2776
#
#
#
# Elastic Compliance Matrix: (Units=1/GPa)
#
#
# Indices 1 2 3 4 5 6 
#
# 1 0.013126 -0.013482 -0.005802 0.000000 0.000000 0.000000
# 2 -0.013482 0.113768 -0.018546 0.000000 0.000000 0.000000
# 3 -0.005802 -0.018546 0.019922 0.000000 0.000000 0.000000
# 4 0.000000 0.000000 0.000000 0.039547 0.000000 0.000000
# 5 0.000000 0.000000 0.000000 0.000000 0.036733 0.000000
# 6 0.000000 0.000000 0.000000 0.000000 0.000000 0.049316
#
#
# Mechanical properties :
#
#
# Convention : Reuss Voigt Hill
#
# Bulk Modulus (GPa) = 14.05326 49.84933 31.95129
# Shear Modulus (GPa) = 13.44843 22.86175 18.15509
#
# Velocity S-wave (km/s) = 2.70387 3.52537 3.14159
# Velocity P-wave (km/s) = 4.16985 6.60836 5.52531
#
# Compressibility (1/GPa) = 0.07115789
#
# Stress axis : x y z
#
# Youngs Moduli (GPa) = 76.18285 8.78982 50.19458
#
# Poissons Ratio (x) = 0.11850 0.29122
# Poissons Ratio (y) = 1.02710 0.93089
# Poissons Ratio (z) = 0.44200 0.16301
#
# Static dielectric constant tensor:
#      x y z
#    x 1.624550 0.000000 0.000000 
#    y 0.000000 1.622600 0.000000 
#    z 0.000000 0.000000 1.639810 
# 
# From -- ./inp_files/16829.got.cif
#   From: 2010.05.17/outbox.cif.g08.bks.cpg/sg44_9_cif.got.tgz:16829.got - 2010.06.03 19:37:08.
