data_PCOD9374012
_publ_section_title
;
Structure prediction by ZEFSAII (Michael W. Deem and Ramdas Pophale) SiO2 
 PCOD9374012
Probable space group: I M M 2
;
_chemical_formula_sum "Si O2"
_cell_formula_units_Z 48
_cell_length_a 8.658065
_cell_length_b 17.001900
_cell_length_c 19.047071
_cell_angle_alpha 90.000000
_cell_angle_beta 90.000000
_cell_angle_gamma 90.000000
_cell_volume 2803.796570
_symmetry_space_group_name_H-M "I M M 2"
_symmetry_group_IT_number 44
_symmetry_cell_setting 'orthorhombic'
loop_
_space_group_symop_operation_xyz
x,y,z
-x,-y,z
-x,y,z
x,-y,z
1/2+x,1/2+y,1/2+z
1/2-x,1/2-y,1/2+z
1/2-x,1/2+y,1/2+z
1/2+x,1/2-y,1/2+z
loop_
_atom_site_type_symbol
_atom_site_label
_atom_site_fract_x
_atom_site_fract_y
_atom_site_fract_z
Si Si1 0.815479 0.835558 0.807110
Si Si2 0.186453 0.911112 0.357601
Si Si3 0.313701 0.258124 0.938531
Si Si4 0.186347 0.319804 0.725439
Si Si5 0.183271 0.500000 0.331146
Si Si6 0.313186 0.153909 0.065582
Si Si7 0.315899 0.500000 0.489143
O O1 0.757195 0.801594 0.881656
O O2 0.772710 0.768211 0.751033
O O3 0.000000 0.842823 0.809031
O O4 0.742324 0.920381 0.795153
O O5 0.235122 0.845559 0.414852
O O6 0.244145 0.879355 0.282492
O O7 0.000000 0.911790 0.356779
O O8 0.240489 0.000000 0.370895
O O9 0.500000 0.254010 0.932270
O O10 0.272371 0.227874 0.015823
O O11 0.236338 0.336084 0.646037
O O12 0.000000 0.326147 0.728596
O O13 0.248959 0.500000 0.410500
O O14 0.000000 0.500000 0.334679
O O15 0.500000 0.146542 0.064912
O O16 0.242786 0.076734 0.030193
O O17 0.500000 0.500000 0.484982
#
# Coordination Sequence:
#
# PCOD9374012 Si02
#       7
#     8   8   8   8   4   8   4
#     4  10  19  33  52  76 104 133 172 216 255 299
#     4   9  18  32  50  74 101 129 170 218 255 298
#     4   9  17  31  52  72  98 136 174 209 253 302
#     4   9  20  35  52  74 104 137 170 209 256 310
#     4  12  22  34  54  78 104 135 172 213 260 315
#     4  10  20  35  53  74 105 140 172 205 253 313
#     4  12  24  34  50  80 110 135 168 213 260 305
#
# _framework density 17.119643
#
# number of rings (size 3 to 8) (size 9 to 14) (size 15 to 20)
#    0.000    2.167    1.667    2.000    1.167    1.667 
#    0.000    0.000    1.833    0.000    0.000    0.000 
#    0.000    0.000    0.000    0.000    0.000    0.000 
#
# Total GULP energy -133890.031097 kJ/mol
# GULP energy per Si atom -5578.751296 kJ/mol
# Density = 1.708068 g / cm^3
# Si number density = 17.119643 Si / 1000 Ang^3
#
#
#
# Elastic Constant Matrix: (Units=GPa)
#
#
# Indices 1 2 3 4 5 6 
#
# 1 22.7015 26.9786 16.6212 0.0000 0.0000 0.0000
# 2 26.9786 145.2344 40.6078 0.0000 0.0000 0.0000
# 3 16.6212 40.6078 71.2467 0.0000 0.0000 0.0000
# 4 0.0000 0.0000 0.0000 16.8243 0.0000 0.0000
# 5 0.0000 0.0000 0.0000 0.0000 20.2254 0.0000
# 6 0.0000 0.0000 0.0000 0.0000 0.0000 22.7558
#
#
#
# Elastic Compliance Matrix: (Units=1/GPa)
#
#
# Indices 1 2 3 4 5 6 
#
# 1 0.061297 -0.008789 -0.009291 0.000000 0.000000 0.000000
# 2 -0.008789 0.009451 -0.003336 0.000000 0.000000 0.000000
# 3 -0.009291 -0.003336 0.018105 0.000000 0.000000 0.000000
# 4 0.000000 0.000000 0.000000 0.059438 0.000000 0.000000
# 5 0.000000 0.000000 0.000000 0.000000 0.049443 0.000000
# 6 0.000000 0.000000 0.000000 0.000000 0.000000 0.043945
#
#
# Mechanical properties :
#
#
# Convention : Reuss Voigt Hill
#
# Bulk Modulus (GPa) = 21.72922 45.28864 33.50893
# Shear Modulus (GPa) = 16.67500 22.29276 19.48388
#
# Velocity S-wave (km/s) = 3.12433 3.61248 3.37724
# Velocity P-wave (km/s) = 5.07300 6.62659 5.90114
#
# Compressibility (1/GPa) = 0.04602098
#
# Stress axis : x y z
#
# Youngs Moduli (GPa) = 16.31400 105.81066 55.23415
#
# Poissons Ratio (x) = 0.92994 0.51317
# Poissons Ratio (y) = 0.14338 0.18428
# Poissons Ratio (z) = 0.15157 0.35301
#
# Static dielectric constant tensor:
#      x y z
#    x 1.578930 0.000000 0.000000 
#    y 0.000000 1.589720 0.000000 
#    z 0.000000 0.000000 1.559250 
# 
# From -- ./inp_files/20334.got.cif
#   From: 2010.05.17/outbox.cif.g08.bks.cpg/sg44_11_cif.got.tgz:20334.got - 2010.06.03 19:37:08.
