data_PCOD9374300
_publ_section_title
;
Structure prediction by ZEFSAII (Michael W. Deem and Ramdas Pophale) SiO2 
 PCOD9374300
Probable space group: I M M 2
;
_chemical_formula_sum "Si O2"
_cell_formula_units_Z 56
_cell_length_a 23.772396
_cell_length_b 14.023065
_cell_length_c 9.622241
_cell_angle_alpha 90.000000
_cell_angle_beta 90.000000
_cell_angle_gamma 90.000000
_cell_volume 3207.688102
_symmetry_space_group_name_H-M "I M M 2"
_symmetry_group_IT_number 44
_symmetry_cell_setting 'orthorhombic'
loop_
_space_group_symop_operation_xyz
x,y,z
-x,-y,z
-x,y,z
x,-y,z
1/2+x,1/2+y,1/2+z
1/2-x,1/2-y,1/2+z
1/2-x,1/2+y,1/2+z
1/2+x,1/2-y,1/2+z
loop_
_atom_site_type_symbol
_atom_site_label
_atom_site_fract_x
_atom_site_fract_y
_atom_site_fract_z
Si Si1 0.648321 0.610417 0.325330
Si Si2 0.845603 0.244089 0.091546
Si Si3 0.932525 0.189144 0.596434
Si Si4 0.146890 0.111431 0.361471
Si Si5 0.568124 0.104830 0.008116
Si Si6 0.257025 0.390555 0.091686
Si Si7 0.433110 0.890956 0.682228
O O1 0.643227 0.500000 0.366956
O O2 0.653707 0.678518 0.456314
O O3 0.595675 0.639470 0.228536
O O4 0.702759 0.619427 0.225741
O O5 0.847909 0.177422 0.227451
O O6 0.791641 0.313023 0.093878
O O7 0.899244 0.313795 0.096774
O O8 0.905522 0.142331 0.458629
O O9 0.914954 0.301134 0.591162
O O10 0.000000 0.182333 0.595934
O O11 0.201812 0.121980 0.459547
O O12 0.141504 0.000000 0.324757
O O13 0.500000 0.102351 0.011617
O O14 0.588348 0.000000 0.055046
O O15 0.583446 0.116947 0.845592
O O16 0.235384 0.500000 0.089803
O O17 0.500000 0.875969 0.674305
O O18 0.421486 0.000000 0.639351
#
# Coordination Sequence:
#
# PCOD9374300 Si02
#       7
#     8   8   8   8   8   8   8
#     4  10  23  39  54  78 115 148 177 224 277 321
#     4  12  20  34  59  83 106 141 183 223 272 326
#     4  10  19  36  58  78 105 151 191 216 264 328
#     4  10  21  35  54  80 108 138 182 233 266 305
#     4   8  14  28  51  78 106 134 171 221 266 307
#     4   9  20  39  58  78 104 140 181 221 274 332
#     4   9  18  32  51  80 114 141 171 221 279 323
#
# _framework density 17.458055000000002
#
# number of rings (size 3 to 8) (size 9 to 14) (size 15 to 20)
#    0.000    2.286    1.429    3.857    0.000    1.714 
#    0.000    1.429    0.000    7.714    0.000    0.000 
#    0.000    0.000    0.000    0.000    0.000    0.000 
#
# Total GULP energy -156189.393519 kJ/mol
# GULP energy per Si atom -5578.192626 kJ/mol
# Density = 1.741832 g / cm^3
# Si number density = 17.458055 Si / 1000 Ang^3
#
#
#
# Elastic Constant Matrix: (Units=GPa)
#
#
# Indices 1 2 3 4 5 6 
#
# 1 80.0404 73.3065 44.4093 0.0000 0.0000 0.0000
# 2 73.3065 161.1949 69.6101 0.0000 0.0000 0.0000
# 3 44.4093 69.6101 95.6626 0.0000 0.0000 0.0000
# 4 0.0000 0.0000 0.0000 35.4898 0.0000 0.0000
# 5 0.0000 0.0000 0.0000 0.0000 5.9136 0.0000
# 6 0.0000 0.0000 0.0000 0.0000 0.0000 30.4184
#
#
#
# Elastic Compliance Matrix: (Units=1/GPa)
#
#
# Indices 1 2 3 4 5 6 
#
# 1 0.022612 -0.008385 -0.004396 0.000000 0.000000 0.000000
# 2 -0.008385 0.012156 -0.004953 0.000000 0.000000 0.000000
# 3 -0.004396 -0.004953 0.016098 0.000000 0.000000 0.000000
# 4 0.000000 0.000000 0.000000 0.028177 0.000000 0.000000
# 5 0.000000 0.000000 0.000000 0.000000 0.169102 0.000000
# 6 0.000000 0.000000 0.000000 0.000000 0.000000 0.032875
#
#
# Mechanical properties :
#
#
# Convention : Reuss Voigt Hill
#
# Bulk Modulus (GPa) = 64.93975 79.06106 72.00041
# Shear Modulus (GPa) = 15.54631 24.33582 19.94107
#
# Velocity S-wave (km/s) = 2.98735 3.73763 3.38335
# Velocity P-wave (km/s) = 7.01266 8.00069 7.52291
#
# Compressibility (1/GPa) = 0.01539889
#
# Stress axis : x y z
#
# Youngs Moduli (GPa) = 44.22377 82.26593 62.11999
#
# Poissons Ratio (x) = 0.68981 0.27306
# Poissons Ratio (y) = 0.37082 0.30766
# Poissons Ratio (z) = 0.19440 0.40743
#
# Static dielectric constant tensor:
#      x y z
#    x 1.579270 0.000000 0.000000 
#    y 0.000000 1.606160 0.000000 
#    z 0.000000 0.000000 1.568680 
# 
# From -- ./inp_files/7398.got.cif
#   From: 2010.05.17/outbox.cif.g08.bks.cpg/sg44_4_cif.got.tgz:7398.got - 2010.06.03 19:37:08.
