data_PCOD9374853
_publ_section_title
;
Structure prediction by ZEFSAII (Michael W. Deem and Ramdas Pophale) SiO2 
 PCOD9374853
Probable space group: I M M 2
;
_chemical_formula_sum "Si O2"
_cell_formula_units_Z 48
_cell_length_a 30.676210
_cell_length_b 9.018449
_cell_length_c 10.224581
_cell_angle_alpha 90.000000
_cell_angle_beta 90.000000
_cell_angle_gamma 90.000000
_cell_volume 2828.649100
_symmetry_space_group_name_H-M "I M M 2"
_symmetry_group_IT_number 44
_symmetry_cell_setting 'orthorhombic'
loop_
_space_group_symop_operation_xyz
x,y,z
-x,-y,z
-x,y,z
x,-y,z
1/2+x,1/2+y,1/2+z
1/2-x,1/2-y,1/2+z
1/2-x,1/2+y,1/2+z
1/2+x,1/2-y,1/2+z
loop_
_atom_site_type_symbol
_atom_site_label
_atom_site_fract_x
_atom_site_fract_y
_atom_site_fract_z
Si Si1 0.449040 0.322192 0.408630
Si Si2 0.282887 0.821796 0.929504
Si Si3 0.118941 0.322515 0.713037
Si Si4 0.787417 0.177721 0.707778
Si Si5 0.883088 0.322913 0.410013
Si Si6 0.549890 0.678497 0.711264
O O1 0.500000 0.290292 0.381832
O O2 0.443123 0.500000 0.396423
O O3 0.417159 0.238928 0.310935
O O4 0.440490 0.281427 0.560224
O O5 0.248068 0.785081 0.818212
O O6 0.332329 0.782743 0.887599
O O7 0.282243 0.000000 0.951167
O O8 0.273905 0.741650 0.066599
O O9 0.122811 0.500000 0.722650
O O10 0.165777 0.248806 0.740364
O O11 0.107488 0.286177 0.561900
O O12 0.791356 0.000000 0.700823
O O13 0.887023 0.500000 0.394970
O O14 0.915764 0.245280 0.311179
O O15 0.500000 0.725238 0.740415
O O16 0.551065 0.500000 0.718456
#
# Coordination Sequence:
#
# PCOD9374853 Si02
#       6
#     8   8   8   8   8   8
#     4   9  19  36  55  76 104 136 172 214 258 308
#     4   9  20  37  53  75 107 136 168 214 260 304
#     4  10  21  36  53  76 107 138 172 215 259 305
#     4  10  20  35  56  79 104 137 175 212 256 310
#     4   9  19  35  52  73 103 135 167 207 254 303
#     4   9  19  35  53  75 103 133 168 211 255 301
#
# _framework density 16.969232000000002
#
# number of rings (size 3 to 8) (size 9 to 14) (size 15 to 20)
#    0.000    2.667    0.000    3.000    0.000    8.000 
#    0.000    8.333    0.000    0.000    0.000    0.000 
#    0.000    0.000    0.000    0.000    0.000    0.000 
#
# Total GULP energy -133872.867523 kJ/mol
# GULP energy per Si atom -5578.036147 kJ/mol
# Density = 1.693061 g / cm^3
# Si number density = 16.969232 Si / 1000 Ang^3
#
#
#
# Elastic Constant Matrix: (Units=GPa)
#
#
# Indices 1 2 3 4 5 6 
#
# 1 142.5888 66.1581 136.1583 0.0000 0.0000 0.0000
# 2 66.1581 44.5182 68.6019 0.0000 0.0000 0.0000
# 3 136.1583 68.6019 148.5974 0.0000 0.0000 0.0000
# 4 0.0000 0.0000 0.0000 35.4333 0.0000 0.0000
# 5 0.0000 0.0000 0.0000 0.0000 40.8418 0.0000
# 6 0.0000 0.0000 0.0000 0.0000 0.0000 31.4874
#
#
#
# Elastic Compliance Matrix: (Units=1/GPa)
#
#
# Indices 1 2 3 4 5 6 
#
# 1 0.058889 -0.015121 -0.046978 0.000000 0.000000 0.000000
# 2 -0.015121 0.081721 -0.023872 0.000000 0.000000 0.000000
# 3 -0.046978 -0.023872 0.060796 0.000000 0.000000 0.000000
# 4 0.000000 0.000000 0.000000 0.028222 0.000000 0.000000
# 5 0.000000 0.000000 0.000000 0.000000 0.024485 0.000000
# 6 0.000000 0.000000 0.000000 0.000000 0.000000 0.031759
#
#
# Mechanical properties :
#
#
# Convention : Reuss Voigt Hill
#
# Bulk Modulus (GPa) = 33.94135 97.50453 65.72294
# Shear Modulus (GPa) = 10.69210 25.87156 18.28183
#
# Velocity S-wave (km/s) = 2.51288 3.90887 3.28586
# Velocity P-wave (km/s) = 5.33522 8.82931 7.29456
#
# Compressibility (1/GPa) = 0.02946259
#
# Stress axis : x y z
#
# Youngs Moduli (GPa) = 16.98113 12.23683 16.44839
#
# Poissons Ratio (x) = 0.18504 0.77272
# Poissons Ratio (y) = 0.25678 0.39265
# Poissons Ratio (z) = 0.79775 0.29212
#
# Static dielectric constant tensor:
#      x y z
#    x 1.554930 0.000000 0.000000 
#    y 0.000000 1.565900 0.000000 
#    z 0.000000 0.000000 1.551510 
# 
# From -- ./inp_files/4868.got.cif
#   From: 2010.05.17/outbox.cif.g08.bks.cpg/sg44_3_cif.got.tgz:4868.got - 2010.06.03 19:37:08.
