data_PCOD9374509
_publ_section_title
;
Structure prediction by ZEFSAII (Michael W. Deem and Ramdas Pophale) SiO2 
 PCOD9374509
Probable space group: I M M 2
;
_chemical_formula_sum "Si O2"
_cell_formula_units_Z 64
_cell_length_a 7.415412
_cell_length_b 16.699184
_cell_length_c 23.405813
_cell_angle_alpha 90.000000
_cell_angle_beta 90.000000
_cell_angle_gamma 90.000000
_cell_volume 2898.372940
_symmetry_space_group_name_H-M "I M M 2"
_symmetry_group_IT_number 44
_symmetry_cell_setting 'orthorhombic'
loop_
_space_group_symop_operation_xyz
x,y,z
-x,-y,z
-x,y,z
x,-y,z
1/2+x,1/2+y,1/2+z
1/2-x,1/2-y,1/2+z
1/2-x,1/2+y,1/2+z
1/2+x,1/2-y,1/2+z
loop_
_atom_site_type_symbol
_atom_site_label
_atom_site_fract_x
_atom_site_fract_y
_atom_site_fract_z
Si Si1 0.716014 0.588510 0.840280
Si Si2 0.795370 0.909979 0.774040
Si Si3 0.286983 0.621738 0.967826
Si Si4 0.292867 0.907640 0.903552
Si Si5 0.286196 0.804746 0.004810
Si Si6 0.220232 0.739198 0.627540
Si Si7 0.280223 0.584758 0.093613
Si Si8 0.784033 0.731763 0.751536
O O1 0.500000 0.585418 0.844191
O O2 0.777175 0.500000 0.819408
O O3 0.785479 0.600083 0.905436
O O4 0.749949 0.665334 0.800017
O O5 0.801549 0.902565 0.842791
O O6 0.713634 0.823438 0.757859
O O7 0.000000 0.912275 0.750414
O O8 0.717354 0.000000 0.762855
O O9 0.500000 0.601218 0.966463
O O10 0.270981 0.716052 0.979065
O O11 0.218197 0.586098 0.027453
O O12 0.500000 0.878655 0.893999
O O13 0.300830 0.000000 0.919420
O O14 0.209398 0.861518 0.956475
O O15 0.500000 0.823983 0.009230
O O16 0.216118 0.803117 0.069462
O O17 0.275693 0.832708 0.622826
O O18 0.274866 0.704005 0.688357
O O19 0.000000 0.738662 0.625301
O O20 0.500000 0.586981 0.092830
O O21 0.225864 0.500000 0.120219
O O22 0.000000 0.740403 0.751121
#
# Coordination Sequence:
#
# PCOD9374509 Si02
#       8
#     8   8   8   8   8   8   8   8
#     4  10  20  33  50  71  94 122 156 193 233 276
#     4   9  18  31  46  67  97 129 156 184 224 275
#     4   8  13  22  39  64  91 114 137 174 227 279
#     4   9  16  26  43  67  90 112 145 189 231 271
#     4   8  13  23  40  62  87 112 140 180 228 272
#     4   8  15  26  39  58  85 116 148 181 220 266
#     4   8  12  19  35  61  90 114 137 173 222 272
#     4  10  20  33  48  67  94 127 160 193 227 266
#
# _framework density 22.081354999999999
#
# number of rings (size 3 to 8) (size 9 to 14) (size 15 to 20)
#    0.000    3.250    0.000    2.625    0.000    3.750 
#    0.000    3.125    0.000    3.000    0.000    4.375 
#    0.000    1.000    0.000    0.000    0.000    0.000 
#
# Total GULP energy -178263.706466 kJ/mol
# GULP energy per Si atom -5570.740827 kJ/mol
# Density = 2.203110 g / cm^3
# Si number density = 22.081355 Si / 1000 Ang^3
#
#
#
# Elastic Constant Matrix: (Units=GPa)
#
#
# Indices 1 2 3 4 5 6 
#
# 1 71.0618 8.5733 0.9589 0.0000 0.0000 0.0000
# 2 8.5733 46.0988 53.5151 0.0000 0.0000 0.0000
# 3 0.9589 53.5151 126.9500 0.0000 0.0000 0.0000
# 4 0.0000 0.0000 0.0000 9.4389 0.0000 0.0000
# 5 0.0000 0.0000 0.0000 0.0000 2.8875 0.0000
# 6 0.0000 0.0000 0.0000 0.0000 0.0000 3.6430
#
#
#
# Elastic Compliance Matrix: (Units=1/GPa)
#
#
# Indices 1 2 3 4 5 6 
#
# 1 0.014659 -0.005087 0.002034 0.000000 0.000000 0.000000
# 2 -0.005087 0.044247 -0.018613 0.000000 0.000000 0.000000
# 3 0.002034 -0.018613 0.015708 0.000000 0.000000 0.000000
# 4 0.000000 0.000000 0.000000 0.105944 0.000000 0.000000
# 5 0.000000 0.000000 0.000000 0.000000 0.346323 0.000000
# 6 0.000000 0.000000 0.000000 0.000000 0.000000 0.274496
#
#
# Mechanical properties :
#
#
# Convention : Reuss Voigt Hill
#
# Bulk Modulus (GPa) = 31.96963 41.13392 36.55178
# Shear Modulus (GPa) = 5.84702 15.26478 10.55590
#
# Velocity S-wave (km/s) = 1.62902 2.63211 2.18880
# Velocity P-wave (km/s) = 4.24827 5.28262 4.79343
#
# Compressibility (1/GPa) = 0.03127969
#
# Stress axis : x y z
#
# Youngs Moduli (GPa) = 68.21969 22.60065 63.66121
#
# Poissons Ratio (x) = 0.11497 -0.12946
# Poissons Ratio (y) = 0.34703 1.18495
# Poissons Ratio (z) = -0.13874 0.42068
#
# Static dielectric constant tensor:
#      x y z
#    x 1.945380 0.000000 0.000000 
#    y 0.000000 1.811510 0.000000 
#    z 0.000000 0.000000 1.816160 
# 
# From -- ./inp_files/25213.got.cif
#   From: 2010.05.17/outbox.cif.g08.bks.cpg/sg44_13_cif.got.tgz:25213.got - 2010.06.03 19:37:08.
