data_PCOD9374635
_publ_section_title
;
Structure prediction by ZEFSAII (Michael W. Deem and Ramdas Pophale) SiO2 
 PCOD9374635
Probable space group: I M M 2
;
_chemical_formula_sum "Si O2"
_cell_formula_units_Z 48
_cell_length_a 17.719139
_cell_length_b 7.464745
_cell_length_c 17.010330
_cell_angle_alpha 90.000000
_cell_angle_beta 90.000000
_cell_angle_gamma 90.000000
_cell_volume 2249.936860
_symmetry_space_group_name_H-M "I M M 2"
_symmetry_group_IT_number 44
_symmetry_cell_setting 'orthorhombic'
loop_
_space_group_symop_operation_xyz
x,y,z
-x,-y,z
-x,y,z
x,-y,z
1/2+x,1/2+y,1/2+z
1/2-x,1/2-y,1/2+z
1/2-x,1/2+y,1/2+z
1/2+x,1/2-y,1/2+z
loop_
_atom_site_type_symbol
_atom_site_label
_atom_site_fract_x
_atom_site_fract_y
_atom_site_fract_z
Si Si1 0.000000 0.782242 0.626511
Si Si2 0.817369 0.210564 0.201761
Si Si3 0.646103 0.715802 0.222814
Si Si4 0.586651 0.280986 0.553146
Si Si5 0.323493 0.719514 0.399324
Si Si6 0.500000 0.790516 0.942855
Si Si7 0.843618 0.294700 0.379875
O O1 0.924886 0.721464 0.672327
O O2 0.000000 0.722023 0.536643
O O3 0.000000 0.000000 0.626309
O O4 0.727922 0.234131 0.188931
O O5 0.865300 0.278536 0.128366
O O6 0.839084 0.294753 0.285295
O O7 0.832689 0.000000 0.210383
O O8 0.642884 0.500000 0.224020
O O9 0.645871 0.775936 0.313894
O O10 0.500000 0.224739 0.557897
O O11 0.587768 0.500000 0.553158
O O12 0.625799 0.224125 0.472155
O O13 0.322054 0.500000 0.398217
O O14 0.236802 0.782817 0.406991
O O15 0.421728 0.712158 0.909586
O O16 0.500000 0.000000 0.918164
O O17 0.843347 0.500000 0.408721
#
# Coordination Sequence:
#
# PCOD9374635 Si02
#       7
#     4   8   8   8   8   4   8
#     4  10  22  36  54  83 112 142 178 225 280 326
#     4  10  20  33  54  80 107 140 177 222 272 316
#     4   9  19  36  56  78 107 142 179 217 265 326
#     4   9  18  29  47  78 107 132 169 217 263 307
#     4   8  15  30  52  72  97 133 173 212 251 308
#     4  10  22  36  56  81 106 142 184 227 274 330
#     4   9  19  36  55  76 103 139 179 218 267 326
#
# _framework density 21.333932000000001
#
# number of rings (size 3 to 8) (size 9 to 14) (size 15 to 20)
#    0.000    2.833    0.000    1.500    4.667    1.333 
#    0.000    0.000    0.000    1.000    0.000    0.000 
#    0.000    0.000    0.000    0.000    0.000    0.000 
#
# Total GULP energy -133990.049783 kJ/mol
# GULP energy per Si atom -5582.918741 kJ/mol
# Density = 2.128538 g / cm^3
# Si number density = 21.333932 Si / 1000 Ang^3
#
#
#
# Elastic Constant Matrix: (Units=GPa)
#
#
# Indices 1 2 3 4 5 6 
#
# 1 201.5985 -7.9306 120.4853 0.0000 0.0000 0.0000
# 2 -7.9306 61.9305 -12.3536 0.0000 0.0000 0.0000
# 3 120.4853 -12.3536 112.3395 0.0000 0.0000 0.0000
# 4 0.0000 0.0000 0.0000 17.0318 0.0000 0.0000
# 5 0.0000 0.0000 0.0000 0.0000 33.8628 0.0000
# 6 0.0000 0.0000 0.0000 0.0000 0.0000 5.7164
#
#
#
# Elastic Compliance Matrix: (Units=1/GPa)
#
#
# Indices 1 2 3 4 5 6 
#
# 1 0.013906 -0.001221 -0.015049 0.000000 0.000000 0.000000
# 2 -0.001221 0.016617 0.003137 0.000000 0.000000 0.000000
# 3 -0.015049 0.003137 0.025387 0.000000 0.000000 0.000000
# 4 0.000000 0.000000 0.000000 0.058714 0.000000 0.000000
# 5 0.000000 0.000000 0.000000 0.000000 0.029531 0.000000
# 6 0.000000 0.000000 0.000000 0.000000 0.000000 0.174936
#
#
# Mechanical properties :
#
#
# Convention : Reuss Voigt Hill
#
# Bulk Modulus (GPa) = 33.73448 64.03008 48.88228
# Shear Modulus (GPa) = 14.07509 29.70002 21.88755
#
# Velocity S-wave (km/s) = 2.57135 3.73520 3.20652
# Velocity P-wave (km/s) = 4.96616 6.97716 6.05572
#
# Compressibility (1/GPa) = 0.02964326
#
# Stress axis : x y z
#
# Youngs Moduli (GPa) = 71.90966 60.18111 39.39064
#
# Poissons Ratio (x) = 0.07349 0.59279
# Poissons Ratio (y) = 0.08781 -0.12357
# Poissons Ratio (z) = 1.08217 -0.18878
#
# Static dielectric constant tensor:
#      x y z
#    x 1.756610 0.000000 0.000000 
#    y 0.000000 1.844580 0.000000 
#    z 0.000000 0.000000 1.714800 
# 
# From -- ./inp_files/16169.got.cif
#   From: 2010.05.17/outbox.cif.g08.bks.cpg/sg44_9_cif.got.tgz:16169.got - 2010.06.03 19:37:08.
