data_PCOD9374591
_publ_section_title
;
Structure prediction by ZEFSAII (Michael W. Deem and Ramdas Pophale) SiO2 
 PCOD9374591
Probable space group: I M M 2
;
_chemical_formula_sum "Si O2"
_cell_formula_units_Z 48
_cell_length_a 7.492077
_cell_length_b 9.390474
_cell_length_c 35.495912
_cell_angle_alpha 90.000000
_cell_angle_beta 90.000000
_cell_angle_gamma 90.000000
_cell_volume 2497.284869
_symmetry_space_group_name_H-M "I M M 2"
_symmetry_group_IT_number 44
_symmetry_cell_setting 'orthorhombic'
loop_
_space_group_symop_operation_xyz
x,y,z
-x,-y,z
-x,y,z
x,-y,z
1/2+x,1/2+y,1/2+z
1/2-x,1/2-y,1/2+z
1/2-x,1/2+y,1/2+z
1/2+x,1/2-y,1/2+z
loop_
_atom_site_type_symbol
_atom_site_label
_atom_site_fract_x
_atom_site_fract_y
_atom_site_fract_z
Si Si1 0.500000 0.169969 0.927830
Si Si2 0.213118 0.338816 0.216233
Si Si3 0.288996 0.168566 0.568721
Si Si4 0.288258 0.668532 0.365526
Si Si5 0.782064 0.163661 0.143842
Si Si6 0.714300 0.161703 0.291432
Si Si7 0.000000 0.170023 0.506584
O O1 0.671959 0.204688 0.902052
O O2 0.500000 0.000000 0.934276
O O3 0.500000 0.250120 0.967187
O O4 0.283630 0.500000 0.218299
O O5 0.281036 0.251536 0.180172
O O6 0.243468 0.252784 0.254527
O O7 0.000000 0.348932 0.211351
O O8 0.500000 0.191725 0.562169
O O9 0.232265 0.258496 0.605132
O O10 0.171492 0.204998 0.532429
O O11 0.263524 0.000000 0.576687
O O12 0.500000 0.691494 0.371614
O O13 0.262390 0.500000 0.357580
O O14 0.226923 0.758682 0.329406
O O15 0.000000 0.163247 0.144677
O O16 0.723619 0.000000 0.145124
O O17 0.500000 0.155161 0.293766
O O18 0.782270 0.000000 0.288621
O O19 0.000000 0.000000 0.500186
#
# Coordination Sequence:
#
# PCOD9374591 Si02
#       7
#     4   8   8   8   8   8   4
#     4  10  22  38  58  84 112 142 182 228 276 336
#     4  10  20  33  52  78 108 145 187 228 271 326
#     4   9  18  35  57  78 106 145 183 222 272 331
#     4   9  19  37  58  79 108 146 184 225 274 331
#     4   9  17  31  52  78 107 140 182 228 273 322
#     4  10  21  36  53  77 109 142 181 229 279 329
#     4  10  22  38  56  84 114 140 180 228 276 334
#
# _framework density 19.220874999999999
#
# number of rings (size 3 to 8) (size 9 to 14) (size 15 to 20)
#    0.000    2.500    0.000    1.500    1.167    6.000 
#    1.500    0.000    0.000    0.000    0.000    0.000 
#    0.000    0.000    0.000    0.000    0.000    0.000 
#
# Total GULP energy -134019.475645 kJ/mol
# GULP energy per Si atom -5584.144819 kJ/mol
# Density = 1.917713 g / cm^3
# Si number density = 19.220875 Si / 1000 Ang^3
#
#
#
# Elastic Constant Matrix: (Units=GPa)
#
#
# Indices 1 2 3 4 5 6 
#
# 1 69.3340 45.5454 53.3336 0.0000 0.0000 0.0000
# 2 45.5454 140.5092 127.8310 0.0000 0.0000 0.0000
# 3 53.3336 127.8310 221.9232 0.0000 0.0000 0.0000
# 4 0.0000 0.0000 0.0000 44.3067 0.0000 0.0000
# 5 0.0000 0.0000 0.0000 0.0000 39.0149 0.0000
# 6 0.0000 0.0000 0.0000 0.0000 0.0000 6.9880
#
#
#
# Elastic Compliance Matrix: (Units=1/GPa)
#
#
# Indices 1 2 3 4 5 6 
#
# 1 0.018786 -0.004164 -0.002116 0.000000 0.000000 0.000000
# 2 -0.004164 0.015876 -0.008144 0.000000 0.000000 0.000000
# 3 -0.002116 -0.008144 0.009706 0.000000 0.000000 0.000000
# 4 0.000000 0.000000 0.000000 0.022570 0.000000 0.000000
# 5 0.000000 0.000000 0.000000 0.000000 0.025631 0.000000
# 6 0.000000 0.000000 0.000000 0.000000 0.000000 0.143103
#
#
# Mechanical properties :
#
#
# Convention : Reuss Voigt Hill
#
# Bulk Modulus (GPa) = 64.43689 98.35404 81.39546
# Shear Modulus (GPa) = 18.53952 31.73234 25.13593
#
# Velocity S-wave (km/s) = 3.10909 4.06757 3.62019
# Velocity P-wave (km/s) = 6.81805 8.56398 7.74040
#
# Compressibility (1/GPa) = 0.01551906
#
# Stress axis : x y z
#
# Youngs Moduli (GPa) = 53.23054 62.98813 103.03241
#
# Poissons Ratio (x) = 0.26230 0.21802
# Poissons Ratio (y) = 0.22167 0.83910
# Poissons Ratio (z) = 0.11264 0.51298
#
# Static dielectric constant tensor:
#      x y z
#    x 1.709560 0.000000 0.000000 
#    y 0.000000 1.660820 0.000000 
#    z 0.000000 0.000000 1.612450 
# 
# From -- ./inp_files/26897.got.cif
#   From: 2010.05.17/outbox.cif.g08.bks.cpg/sg44_14_cif.got.tgz:26897.got - 2010.06.03 19:37:08.
