data_PCOD9374566
_publ_section_title
;
Structure prediction by ZEFSAII (Michael W. Deem and Ramdas Pophale) SiO2 
 PCOD9374566
Probable space group: I M M 2
;
_chemical_formula_sum "Si O2"
_cell_formula_units_Z 64
_cell_length_a 7.555706
_cell_length_b 9.527291
_cell_length_c 43.090571
_cell_angle_alpha 90.000000
_cell_angle_beta 90.000000
_cell_angle_gamma 90.000000
_cell_volume 3101.892411
_symmetry_space_group_name_H-M "I M M 2"
_symmetry_group_IT_number 44
_symmetry_cell_setting 'orthorhombic'
loop_
_space_group_symop_operation_xyz
x,y,z
-x,-y,z
-x,y,z
x,-y,z
1/2+x,1/2+y,1/2+z
1/2-x,1/2-y,1/2+z
1/2-x,1/2+y,1/2+z
1/2+x,1/2-y,1/2+z
loop_
_atom_site_type_symbol
_atom_site_label
_atom_site_fract_x
_atom_site_fract_y
_atom_site_fract_z
Si Si1 0.287474 0.162371 0.026780
Si Si2 0.287392 0.659479 0.153538
Si Si3 0.289800 0.339937 0.459108
Si Si4 0.782835 0.338938 0.900601
Si Si5 0.287481 0.658963 0.714476
Si Si6 0.787796 0.160012 0.841919
Si Si7 0.288001 0.839874 0.772094
Si Si8 0.216211 0.336126 0.594690
O O1 0.500000 0.161570 0.027452
O O2 0.236560 0.223493 0.993497
O O3 0.228399 0.217100 0.060415
O O4 0.225707 0.000000 0.025887
O O5 0.500000 0.652025 0.150689
O O6 0.220293 0.500000 0.155883
O O7 0.249279 0.749023 0.184153
O O8 0.221218 0.741527 0.123091
O O9 0.500000 0.351254 0.454627
O O10 0.217306 0.500000 0.458357
O O11 0.222328 0.245422 0.431047
O O12 0.726358 0.500000 0.901055
O O13 0.724062 0.258822 0.869519
O O14 0.000000 0.338807 0.900676
O O15 0.500000 0.650232 0.717364
O O16 0.219403 0.500000 0.711539
O O17 0.219673 0.739131 0.745069
O O18 0.748255 0.209718 0.807070
O O19 0.000000 0.153412 0.844749
O O20 0.719769 0.000000 0.844916
O O21 0.500000 0.847039 0.768689
O O22 0.219381 0.000000 0.769113
O O23 0.268240 0.500000 0.598194
O O24 0.000000 0.335553 0.595146
#
# Coordination Sequence:
#
# PCOD9374566 Si02
#       8
#     8   8   8   8   8   8   8   8
#     4   8  14  26  45  67  90 119 154 189 227 273
#     4  10  20  33  51  75 100 127 162 202 242 285
#     4   9  16  27  45  67  89 115 150 190 228 268
#     4   9  17  29  45  65  90 120 151 184 227 276
#     4  10  21  36  53  73  98 130 165 198 237 286
#     4   9  17  30  49  71  92 116 151 192 228 267
#     4   9  18  33  51  70  95 126 155 186 231 284
#     4   8  14  27  47  68  92 123 156 191 234 282
#
# _framework density 20.632567000000002
#
# number of rings (size 3 to 8) (size 9 to 14) (size 15 to 20)
#    0.000    3.000    0.000    1.875    0.000    4.000 
#    0.000    3.125    0.000    7.125    0.000    0.000 
#    0.000    0.000    0.000    0.000    0.000    0.000 
#
# Total GULP energy -178475.673522 kJ/mol
# GULP energy per Si atom -5577.364798 kJ/mol
# Density = 2.058561 g / cm^3
# Si number density = 20.632567 Si / 1000 Ang^3
#
#
#
# Elastic Constant Matrix: (Units=GPa)
#
#
# Indices 1 2 3 4 5 6 
#
# 1 47.1400 6.0759 0.7663 0.0000 0.0000 0.0000
# 2 6.0759 132.2094 130.6316 0.0000 0.0000 0.0000
# 3 0.7663 130.6316 247.5339 0.0000 0.0000 0.0000
# 4 0.0000 0.0000 0.0000 30.8630 0.0000 0.0000
# 5 0.0000 0.0000 0.0000 0.0000 18.3419 0.0000
# 6 0.0000 0.0000 0.0000 0.0000 0.0000 7.3076
#
#
#
# Elastic Compliance Matrix: (Units=1/GPa)
#
#
# Indices 1 2 3 4 5 6 
#
# 1 0.021446 -0.001922 0.000948 0.000000 0.000000 0.000000
# 2 -0.001922 0.015977 -0.008426 0.000000 0.000000 0.000000
# 3 0.000948 -0.008426 0.008483 0.000000 0.000000 0.000000
# 4 0.000000 0.000000 0.000000 0.032401 0.000000 0.000000
# 5 0.000000 0.000000 0.000000 0.000000 0.054520 0.000000
# 6 0.000000 0.000000 0.000000 0.000000 0.000000 0.136844
#
#
# Mechanical properties :
#
#
# Convention : Reuss Voigt Hill
#
# Bulk Modulus (GPa) = 36.89155 77.98122 57.43639
# Shear Modulus (GPa) = 16.80627 30.59646 23.70137
#
# Velocity S-wave (km/s) = 2.85713 3.85505 3.39298
# Velocity P-wave (km/s) = 5.36687 7.59556 6.57631
#
# Compressibility (1/GPa) = 0.02710648
#
# Stress axis : x y z
#
# Youngs Moduli (GPa) = 46.62919 62.58849 117.87599
#
# Poissons Ratio (x) = 0.12032 -0.11176
# Poissons Ratio (y) = 0.08964 0.99320
# Poissons Ratio (z) = -0.04421 0.52736
#
# Static dielectric constant tensor:
#      x y z
#    x 1.790400 0.000000 0.000000 
#    y 0.000000 1.721220 0.000000 
#    z 0.000000 0.000000 1.731810 
# 
# From -- ./inp_files/27447.got.cif
#   From: 2010.05.17/outbox.cif.g08.bks.cpg/sg44_14_cif.got.tgz:27447.got - 2010.06.03 19:37:08.
