data_PCOD9374211
_publ_section_title
;
Structure prediction by ZEFSAII (Michael W. Deem and Ramdas Pophale) SiO2 
 PCOD9374211
Probable space group: I M M 2
;
_chemical_formula_sum "Si O2"
_cell_formula_units_Z 48
_cell_length_a 20.204904
_cell_length_b 16.512757
_cell_length_c 7.817356
_cell_angle_alpha 90.000000
_cell_angle_beta 90.000000
_cell_angle_gamma 90.000000
_cell_volume 2608.172258
_symmetry_space_group_name_H-M "I M M 2"
_symmetry_group_IT_number 44
_symmetry_cell_setting 'orthorhombic'
loop_
_space_group_symop_operation_xyz
x,y,z
-x,-y,z
-x,y,z
x,-y,z
1/2+x,1/2+y,1/2+z
1/2-x,1/2-y,1/2+z
1/2-x,1/2+y,1/2+z
1/2+x,1/2-y,1/2+z
loop_
_atom_site_type_symbol
_atom_site_label
_atom_site_fract_x
_atom_site_fract_y
_atom_site_fract_z
Si Si1 0.922228 0.590900 0.844510
Si Si2 0.144945 0.747586 0.977418
Si Si3 0.283662 0.755649 0.845797
Si Si4 0.421682 0.589197 0.560105
Si Si5 0.186020 0.087251 0.346799
Si Si6 0.192646 0.588758 0.572501
O O1 0.911517 0.500000 0.919934
O O2 0.898467 0.667024 0.956239
O O3 0.875390 0.594031 0.678219
O O4 0.000000 0.598264 0.806108
O O5 0.204329 0.749180 0.841024
O O6 0.104453 0.831110 0.964716
O O7 0.181224 0.745279 0.161861
O O8 0.307043 0.672713 0.940516
O O9 0.300587 0.837267 0.944548
O O10 0.500000 0.595421 0.585351
O O11 0.407660 0.500000 0.480438
O O12 0.381575 0.588660 0.738544
O O13 0.246185 0.089749 0.207713
O O14 0.191322 0.000000 0.437432
O O15 0.195518 0.500000 0.487518
#
# Coordination Sequence:
#
# PCOD9374211 Si02
#       6
#     8   8   8   8   8   8
#     4  10  21  38  57  76 105 146 186 227 280 334
#     4  11  20  32  53  81 111 140 180 225 273 323
#     4  11  19  32  54  81 110 140 178 230 271 313
#     4   9  17  30  49  74 102 133 170 213 262 315
#     4   9  17  31  52  72 102 141 177 216 259 315
#     4  10  19  35  55  76 105 144 185 223 268 324
#
# _framework density 18.403690999999998
#
# number of rings (size 3 to 8) (size 9 to 14) (size 15 to 20)
#    0.000    2.000    5.000    0.500    0.000    0.667 
#    0.000    4.167    0.000    3.000    0.000    0.000 
#    0.000    2.667    0.000    0.000    0.000    0.000 
#
# Total GULP energy -133650.967017 kJ/mol
# GULP energy per Si atom -5568.790292 kJ/mol
# Density = 1.836180 g / cm^3
# Si number density = 18.403691 Si / 1000 Ang^3
#
#
#
# Elastic Constant Matrix: (Units=GPa)
#
#
# Indices 1 2 3 4 5 6 
#
# 1 114.4471 59.6036 13.4519 0.0000 0.0000 0.0000
# 2 59.6036 217.0353 29.1331 0.0000 0.0000 0.0000
# 3 13.4519 29.1331 20.9307 0.0000 0.0000 0.0000
# 4 0.0000 0.0000 0.0000 27.1456 0.0000 0.0000
# 5 0.0000 0.0000 0.0000 0.0000 20.2299 0.0000
# 6 0.0000 0.0000 0.0000 0.0000 0.0000 26.3187
#
#
#
# Elastic Compliance Matrix: (Units=1/GPa)
#
#
# Indices 1 2 3 4 5 6 
#
# 1 0.010381 -0.002405 -0.003325 0.000000 0.000000 0.000000
# 2 -0.002405 0.006223 -0.007117 0.000000 0.000000 0.000000
# 3 -0.003325 -0.007117 0.059819 0.000000 0.000000 0.000000
# 4 0.000000 0.000000 0.000000 0.036838 0.000000 0.000000
# 5 0.000000 0.000000 0.000000 0.000000 0.049432 0.000000
# 6 0.000000 0.000000 0.000000 0.000000 0.000000 0.037996
#
#
# Mechanical properties :
#
#
# Convention : Reuss Voigt Hill
#
# Bulk Modulus (GPa) = 19.71177 61.86557 40.78867
# Shear Modulus (GPa) = 20.55155 31.42048 25.98602
#
# Velocity S-wave (km/s) = 3.34534 4.13642 3.76174
# Velocity P-wave (km/s) = 5.06515 7.51679 6.40929
#
# Compressibility (1/GPa) = 0.05073112
#
# Stress axis : x y z
#
# Youngs Moduli (GPa) = 96.33256 160.69011 16.71715
#
# Poissons Ratio (x) = 0.38638 0.05558
# Poissons Ratio (y) = 0.23163 0.11897
# Poissons Ratio (z) = 0.32028 1.14356
#
# Static dielectric constant tensor:
#      x y z
#    x 1.619810 0.000000 0.000000 
#    y 0.000000 1.724440 0.000000 
#    z 0.000000 0.000000 1.618580 
# 
# From -- ./inp_files/8219.got.cif
#   From: 2010.05.17/outbox.cif.g08.bks.cpg/sg44_5_cif.got.tgz:8219.got - 2010.06.03 19:37:08.
