data_PCOD9374172
_publ_section_title
;
Structure prediction by ZEFSAII (Michael W. Deem and Ramdas Pophale) SiO2 
 PCOD9374172
Probable space group: I M M 2
;
_chemical_formula_sum "Si O2"
_cell_formula_units_Z 48
_cell_length_a 16.950877
_cell_length_b 8.786876
_cell_length_c 18.697086
_cell_angle_alpha 90.000000
_cell_angle_beta 90.000000
_cell_angle_gamma 90.000000
_cell_volume 2784.842229
_symmetry_space_group_name_H-M "I M M 2"
_symmetry_group_IT_number 44
_symmetry_cell_setting 'orthorhombic'
loop_
_space_group_symop_operation_xyz
x,y,z
-x,-y,z
-x,y,z
x,-y,z
1/2+x,1/2+y,1/2+z
1/2-x,1/2-y,1/2+z
1/2-x,1/2+y,1/2+z
1/2+x,1/2-y,1/2+z
loop_
_atom_site_type_symbol
_atom_site_label
_atom_site_fract_x
_atom_site_fract_y
_atom_site_fract_z
Si Si1 0.000000 0.316939 0.921800
Si Si2 0.826707 0.682109 0.116135
Si Si3 0.909000 0.316535 0.550729
Si Si4 0.763928 0.819604 0.468087
Si Si5 0.681142 0.818898 0.195440
Si Si6 0.843991 0.819140 0.850473
Si Si7 0.000000 0.315035 0.087694
O O1 0.922233 0.254936 0.883861
O O2 0.000000 0.500000 0.919409
O O3 0.000000 0.268765 0.004713
O O4 0.820947 0.500000 0.129437
O O5 0.796248 0.706553 0.034748
O O6 0.767057 0.770376 0.166991
O O7 0.917375 0.732151 0.122205
O O8 0.903439 0.500000 0.544365
O O9 0.847946 0.241998 0.495437
O O10 0.878487 0.277082 0.630691
O O11 0.000000 0.271854 0.540792
O O12 0.729079 0.738044 0.398708
O O13 0.767543 0.000000 0.455803
O O14 0.663534 0.735335 0.269076
O O15 0.676596 0.000000 0.206007
O O16 0.849166 0.000000 0.854060
O O17 0.000000 0.500000 0.088042
#
# Coordination Sequence:
#
# PCOD9374172 Si02
#       7
#     4   8   8   8   8   8   4
#     4  11  21  37  57  83 115 148 179 218 273 331
#     4   9  17  33  55  80 108 143 182 222 268 324
#     4   9  19  36  57  82 110 143 183 228 276 326
#     4  10  19  34  57  81 108 146 185 226 273 324
#     4  10  21  36  55  79 110 149 184 223 274 330
#     4  12  24  37  54  82 115 148 184 227 272 327
#     4   9  16  31  57  83 109 140 177 216 265 325
#
# _framework density 17.236163999999999
#
# number of rings (size 3 to 8) (size 9 to 14) (size 15 to 20)
#    0.000    2.000    1.667    2.750    1.167    1.667 
#    0.000    0.417    1.833    0.000    0.000    0.000 
#    0.000    0.000    0.000    0.000    0.000    0.000 
#
# Total GULP energy -133976.435854 kJ/mol
# GULP energy per Si atom -5582.351494 kJ/mol
# Density = 1.719693 g / cm^3
# Si number density = 17.236164 Si / 1000 Ang^3
#
#
#
# Elastic Constant Matrix: (Units=GPa)
#
#
# Indices 1 2 3 4 5 6 
#
# 1 136.5777 34.7298 32.6552 0.0000 0.0000 0.0000
# 2 34.7298 62.5935 32.7514 0.0000 0.0000 0.0000
# 3 32.6552 32.7514 64.7315 0.0000 0.0000 0.0000
# 4 0.0000 0.0000 0.0000 26.1419 0.0000 0.0000
# 5 0.0000 0.0000 0.0000 0.0000 13.5044 0.0000
# 6 0.0000 0.0000 0.0000 0.0000 0.0000 30.0254
#
#
#
# Elastic Compliance Matrix: (Units=1/GPa)
#
#
# Indices 1 2 3 4 5 6 
#
# 1 0.008857 -0.003504 -0.002695 0.000000 0.000000 0.000000
# 2 -0.003504 0.023115 -0.009927 0.000000 0.000000 0.000000
# 3 -0.002695 -0.009927 0.021831 0.000000 0.000000 0.000000
# 4 0.000000 0.000000 0.000000 0.038253 0.000000 0.000000
# 5 0.000000 0.000000 0.000000 0.000000 0.074050 0.000000
# 6 0.000000 0.000000 0.000000 0.000000 0.000000 0.033305
#
#
# Mechanical properties :
#
#
# Convention : Reuss Voigt Hill
#
# Bulk Modulus (GPa) = 46.40500 51.57506 48.99003
# Shear Modulus (GPa) = 20.93384 24.85210 22.89297
#
# Velocity S-wave (km/s) = 3.48879 3.80130 3.64839
# Velocity P-wave (km/s) = 6.57346 7.01812 6.79943
#
# Compressibility (1/GPa) = 0.02154940
#
# Stress axis : x y z
#
# Youngs Moduli (GPa) = 112.90066 43.26239 45.80655
#
# Poissons Ratio (x) = 0.15160 0.12346
# Poissons Ratio (y) = 0.39562 0.45474
# Poissons Ratio (z) = 0.30430 0.42948
#
# Static dielectric constant tensor:
#      x y z
#    x 1.583150 0.000000 0.000000 
#    y 0.000000 1.574580 0.000000 
#    z 0.000000 0.000000 1.558620 
# 
# From -- ./inp_files/16198.got.cif
#   From: 2010.05.17/outbox.cif.g08.bks.cpg/sg44_9_cif.got.tgz:16198.got - 2010.06.03 19:37:08.
