data_PCOD9374364
_publ_section_title
;
Structure prediction by ZEFSAII (Michael W. Deem and Ramdas Pophale) SiO2 
 PCOD9374364
Probable space group: I M M 2
;
_chemical_formula_sum "Si O2"
_cell_formula_units_Z 64
_cell_length_a 26.876465
_cell_length_b 13.239822
_cell_length_c 7.539551
_cell_angle_alpha 90.000000
_cell_angle_beta 90.000000
_cell_angle_gamma 90.000000
_cell_volume 2682.870907
_symmetry_space_group_name_H-M "I M M 2"
_symmetry_group_IT_number 44
_symmetry_cell_setting 'orthorhombic'
loop_
_space_group_symop_operation_xyz
x,y,z
-x,-y,z
-x,y,z
x,-y,z
1/2+x,1/2+y,1/2+z
1/2-x,1/2-y,1/2+z
1/2-x,1/2+y,1/2+z
1/2+x,1/2-y,1/2+z
loop_
_atom_site_type_symbol
_atom_site_label
_atom_site_fract_x
_atom_site_fract_y
_atom_site_fract_z
Si Si1 0.292279 0.880221 0.265990
Si Si2 0.794753 0.121611 0.545740
Si Si3 0.865339 0.250942 0.977757
Si Si4 0.059311 0.608302 0.628306
Si Si5 0.441385 0.190458 0.749477
Si Si6 0.944836 0.831590 0.783295
Si Si7 0.777572 0.879254 0.962128
Si Si8 0.404234 0.387200 0.921581
O O1 0.248392 0.853039 0.405944
O O2 0.340266 0.819678 0.326846
O O3 0.300051 0.000000 0.281568
O O4 0.273746 0.859354 0.066227
O O5 0.780783 0.144741 0.751431
O O6 0.849785 0.154251 0.481708
O O7 0.798414 0.000000 0.543740
O O8 0.899248 0.156775 0.913708
O O9 0.818634 0.190428 0.059040
O O10 0.900431 0.321213 0.097422
O O11 0.079466 0.500000 0.692538
O O12 0.074161 0.629098 0.424720
O O13 0.062669 0.712683 0.735044
O O14 0.000000 0.598092 0.618354
O O15 0.500000 0.171370 0.705926
O O16 0.433373 0.307695 0.801834
O O17 0.935621 0.889916 0.603368
O O18 0.000000 0.847952 0.853756
O O19 0.787152 0.000000 0.983429
O O20 0.399462 0.500000 0.847949
#
# Coordination Sequence:
#
# PCOD9374364 Si02
#       8
#     8   8   8   8   8   8   8   8
#     4  10  24  43  62  91 127 157 203 268 319 376
#     4   9  18  38  65  90 119 157 202 252 311 375
#     4  12  24  38  62  89 122 165 211 251 319 391
#     4   8  16  35  59  78 105 153 205 249 302 361
#     4  10  22  38  57  89 127 164 210 264 316 369
#     4  10  21  36  56  88 125 160 205 257 302 361
#     4  10  22  42  64  89 124 162 202 255 316 381
#     4  10  19  37  64  91 123 164 209 253 311 384
#
# _framework density 23.855042999999998
#
# number of rings (size 3 to 8) (size 9 to 14) (size 15 to 20)
#    0.000    2.125    1.250    2.250    1.750    3.500 
#    4.500    0.000    0.000    6.000    0.000    0.000 
#    0.000    0.000    0.000    0.000    0.000    0.000 
#
# Total GULP energy -178609.952563 kJ/mol
# GULP energy per Si atom -5581.561018 kJ/mol
# Density = 2.380075 g / cm^3
# Si number density = 23.855043 Si / 1000 Ang^3
#
#
#
# Elastic Constant Matrix: (Units=GPa)
#
#
# Indices 1 2 3 4 5 6 
#
# 1 107.2097 -3.3602 -0.6198 0.0000 0.0000 0.0000
# 2 -3.3602 73.9785 -10.2481 0.0000 0.0000 0.0000
# 3 -0.6198 -10.2481 33.9233 0.0000 0.0000 0.0000
# 4 0.0000 0.0000 0.0000 10.2575 0.0000 0.0000
# 5 0.0000 0.0000 0.0000 0.0000 40.8535 0.0000
# 6 0.0000 0.0000 0.0000 0.0000 0.0000 17.2771
#
#
#
# Elastic Compliance Matrix: (Units=1/GPa)
#
#
# Indices 1 2 3 4 5 6 
#
# 1 0.009344 0.000468 0.000312 0.000000 0.000000 0.000000
# 2 0.000468 0.014131 0.004278 0.000000 0.000000 0.000000
# 3 0.000312 0.004278 0.030776 0.000000 0.000000 0.000000
# 4 0.000000 0.000000 0.000000 0.097490 0.000000 0.000000
# 5 0.000000 0.000000 0.000000 0.000000 0.024478 0.000000
# 6 0.000000 0.000000 0.000000 0.000000 0.000000 0.057880
#
#
# Mechanical properties :
#
#
# Convention : Reuss Voigt Hill
#
# Bulk Modulus (GPa) = 15.53624 20.73950 18.13787
# Shear Modulus (GPa) = 20.37161 28.96694 24.66927
#
# Velocity S-wave (km/s) = 2.92546 3.48845 3.21928
# Velocity P-wave (km/s) = 4.23532 4.99385 4.63014
#
# Compressibility (1/GPa) = 0.06436563
#
# Stress axis : x y z
#
# Youngs Moduli (GPa) = 107.02083 70.76523 32.49269
#
# Poissons Ratio (x) = -0.03309 -0.01014
# Poissons Ratio (y) = -0.05005 -0.13899
# Poissons Ratio (z) = -0.03339 -0.30270
#
# Static dielectric constant tensor:
#      x y z
#    x 1.909610 0.000000 0.000000 
#    y 0.000000 1.979450 0.000000 
#    z 0.000000 0.000000 2.012010 
# 
# From -- ./inp_files/9459.got.cif
#   From: 2010.05.17/outbox.cif.g08.bks.cpg/sg44_5_cif.got.tgz:9459.got - 2010.06.03 19:37:08.
