data_PCOD9374242
_publ_section_title
;
Structure prediction by ZEFSAII (Michael W. Deem and Ramdas Pophale) SiO2 
 PCOD9374242
Probable space group: I M M 2
;
_chemical_formula_sum "Si O2"
_cell_formula_units_Z 46
_cell_length_a 7.578452
_cell_length_b 12.277063
_cell_length_c 26.881234
_cell_angle_alpha 90.000000
_cell_angle_beta 90.000000
_cell_angle_gamma 90.000000
_cell_volume 2501.060458
_symmetry_space_group_name_H-M "I M M 2"
_symmetry_group_IT_number 44
_symmetry_cell_setting 'orthorhombic'
loop_
_space_group_symop_operation_xyz
x,y,z
-x,-y,z
-x,y,z
x,-y,z
1/2+x,1/2+y,1/2+z
1/2-x,1/2-y,1/2+z
1/2-x,1/2+y,1/2+z
1/2+x,1/2-y,1/2+z
loop_
_atom_site_type_symbol
_atom_site_label
_atom_site_fract_x
_atom_site_fract_y
_atom_site_fract_z
Si Si1 0.000000 0.000000 0.844880
Si Si2 0.699749 0.000000 0.758528
Si Si3 0.801221 0.876603 0.411209
Si Si4 0.209760 0.379696 0.798634
Si Si5 0.500000 0.628907 0.538955
Si Si6 0.500000 0.300026 0.425585
Si Si7 0.786666 0.774129 0.711869
Si Si8 0.789517 0.370261 0.616979
O O1 0.834735 0.000000 0.805781
O O2 0.000000 0.107000 0.881743
O O3 0.728458 0.103939 0.722927
O O4 0.500000 0.000000 0.777792
O O5 0.802625 0.877137 0.351274
O O6 0.668496 0.779914 0.423204
O O7 0.000000 0.859587 0.429926
O O8 0.742843 0.000000 0.425877
O O9 0.227529 0.500000 0.776271
O O10 0.274748 0.292601 0.759945
O O11 0.000000 0.362593 0.808391
O O12 0.500000 0.500000 0.543371
O O13 0.500000 0.652543 0.480910
O O14 0.325961 0.664172 0.569377
O O15 0.735052 0.707484 0.662769
O O16 0.000000 0.772688 0.712157
O O17 0.759426 0.500000 0.627920
O O18 0.000000 0.358547 0.608788
#
# Coordination Sequence:
#
# PCOD9374242 Si02
#       8
#     2   4   8   8   4   4   8   8
#     4  12  26  44  58  90 130 178 220 266 292 384
#     4  12  26  40  56  82 128 172 216 248 292 367
#     4  10  21  37  59  89 122 155 199 258 316 372
#     4   9  16  29  53  85 117 148 185 231 291 356
#     4  10  22  41  61  92 118 152 203 269 309 364
#     4  12  23  40  65  84 120 169 216 255 322 361
#     4  10  19  35  58  84 117 162 194 235 292 361
#     4   9  19  37  63  91 119 145 188 253 322 370
#
# _framework density 18.392198
#
# number of rings (size 3 to 8) (size 9 to 14) (size 15 to 20)
#    0.000    1.913    2.174    1.826    1.217    5.565 
#    0.000    0.000    3.826    0.000    0.000    0.000 
#    0.000    0.000    0.000    0.000    0.000    0.000 
#
# Total GULP energy -128218.283692 kJ/mol
# GULP energy per Si atom -5574.707987 kJ/mol
# Density = 1.835034 g / cm^3
# Si number density = 18.392198 Si / 1000 Ang^3
#
#
#
# Elastic Constant Matrix: (Units=GPa)
#
#
# Indices 1 2 3 4 5 6 
#
# 1 91.7814 41.6403 36.4769 0.0000 0.0000 0.0000
# 2 41.6403 86.0386 36.0441 0.0000 0.0000 0.0000
# 3 36.4769 36.0441 84.4694 0.0000 0.0000 0.0000
# 4 0.0000 0.0000 0.0000 21.4868 0.0000 0.0000
# 5 0.0000 0.0000 0.0000 0.0000 -80.4411 0.0000
# 6 0.0000 0.0000 0.0000 0.0000 0.0000 -0.3496
#
#
#
# Elastic Compliance Matrix: (Units=1/GPa)
#
#
# Indices 1 2 3 4 5 6 
#
# 1 0.015059 -0.005557 -0.004132 0.000000 0.000000 0.000000
# 2 -0.005557 0.016203 -0.004514 0.000000 0.000000 0.000000
# 3 -0.004132 -0.004514 0.015549 0.000000 0.000000 0.000000
# 4 0.000000 0.000000 0.000000 0.046540 0.000000 0.000000
# 5 0.000000 0.000000 0.000000 0.000000 -0.012431 0.000000
# 6 0.000000 0.000000 0.000000 0.000000 0.000000 -2.860243
#
#
# Mechanical properties :
#
#
# Convention : Reuss Voigt Hill
#
# Bulk Modulus (GPa) = 54.33324 54.51247 54.42285
# Shear Modulus (GPa) = -1.82164 -1.98559 -1.90361
#
# Velocity S-wave (km/s) = -0.99629 -1.04016 -1.01846
# Velocity P-wave (km/s) = 5.31810 5.31608 5.31709
#
# Compressibility (1/GPa) = 0.01840494
#
# Stress axis : x y z
#
# Youngs Moduli (GPa) = 66.40680 61.71536 64.31227
#
# Poissons Ratio (x) = 0.34296 0.26571
# Poissons Ratio (y) = 0.36903 0.29033
# Poissons Ratio (z) = 0.27437 0.27861
#
# Static dielectric constant tensor:
#      x y z
#    x 1.717700 0.000000 0.000000 
#    y 0.000000 1.701200 0.000000 
#    z 0.000000 0.000000 1.605520 
# 
# From -- ./inp_files/26052.got.cif
#   From: 2010.05.17/outbox.cif.g08.bks.cpg/sg44_14_cif.got.tgz:26052.got - 2010.06.03 19:37:08.
