data_PCOD9374629
_publ_section_title
;
Structure prediction by ZEFSAII (Michael W. Deem and Ramdas Pophale) SiO2 
 PCOD9374629
Probable space group: I M M 2
;
_chemical_formula_sum "Si O2"
_cell_formula_units_Z 56
_cell_length_a 9.105889
_cell_length_b 14.423563
_cell_length_c 23.465973
_cell_angle_alpha 90.000000
_cell_angle_beta 90.000000
_cell_angle_gamma 90.000000
_cell_volume 3082.005962
_symmetry_space_group_name_H-M "I M M 2"
_symmetry_group_IT_number 44
_symmetry_cell_setting 'orthorhombic'
loop_
_space_group_symop_operation_xyz
x,y,z
-x,-y,z
-x,y,z
x,-y,z
1/2+x,1/2+y,1/2+z
1/2-x,1/2-y,1/2+z
1/2-x,1/2+y,1/2+z
1/2+x,1/2-y,1/2+z
loop_
_atom_site_type_symbol
_atom_site_label
_atom_site_fract_x
_atom_site_fract_y
_atom_site_fract_z
Si Si1 0.670621 0.111145 0.511190
Si Si2 0.825589 0.207557 0.406867
Si Si3 0.323869 0.107617 0.643639
Si Si4 0.176875 0.392160 0.800502
Si Si5 0.170546 0.111034 0.081239
Si Si6 0.324218 0.784426 0.185037
Si Si7 0.675604 0.893894 0.960982
O O1 0.500000 0.138408 0.502319
O O2 0.772311 0.160263 0.465459
O O3 0.709551 0.129747 0.577091
O O4 0.678539 0.000000 0.503556
O O5 0.746002 0.158590 0.354561
O O6 0.789463 0.316517 0.414144
O O7 0.000000 0.197565 0.400717
O O8 0.500000 0.116064 0.650041
O O9 0.241209 0.181200 0.682441
O O10 0.285127 0.000000 0.653851
O O11 0.222169 0.500000 0.798246
O O12 0.217138 0.338965 0.742492
O O13 0.000000 0.390090 0.805538
O O14 0.257509 0.161638 0.131095
O O15 0.000000 0.139479 0.081965
O O16 0.178321 0.000000 0.090008
O O17 0.240855 0.129313 0.019525
O O18 0.500000 0.782162 0.180953
O O19 0.500000 0.889354 0.971711
O O20 0.711681 0.000000 0.945105
#
# Coordination Sequence:
#
# PCOD9374629 Si02
#       7
#     8   8   8   8   8   8   8
#     4   9  18  33  53  77 108 145 177 207 254 317
#     4  11  22  34  53  81 107 135 176 224 268 308
#     4   9  19  36  57  82 112 145 180 218 263 317
#     4  10  23  42  59  75 101 140 180 216 262 321
#     4  10  20  33  53  83 114 143 178 221 269 321
#     4  11  22  36  56  80 107 142 183 225 269 319
#     4   9  19  36  55  77 109 144 175 212 263 322
#
# _framework density 18.169985
#
# number of rings (size 3 to 8) (size 9 to 14) (size 15 to 20)
#    0.000    2.143    0.000    3.857    0.000    9.143 
#    0.000    2.143    0.000    2.571    0.000    0.000 
#    0.000    0.000    0.000    0.000    0.000    0.000 
#
# Total GULP energy -156379.702974 kJ/mol
# GULP energy per Si atom -5584.989392 kJ/mol
# Density = 1.812863 g / cm^3
# Si number density = 18.169985 Si / 1000 Ang^3
#
#
#
# Elastic Constant Matrix: (Units=GPa)
#
#
# Indices 1 2 3 4 5 6 
#
# 1 39.2207 55.0017 46.6003 0.0000 0.0000 0.0000
# 2 55.0017 132.8823 97.4552 0.0000 0.0000 0.0000
# 3 46.6003 97.4552 90.8782 0.0000 0.0000 0.0000
# 4 0.0000 0.0000 0.0000 32.5219 0.0000 0.0000
# 5 0.0000 0.0000 0.0000 0.0000 15.4551 0.0000
# 6 0.0000 0.0000 0.0000 0.0000 0.0000 30.3453
#
#
#
# Elastic Compliance Matrix: (Units=1/GPa)
#
#
# Indices 1 2 3 4 5 6 
#
# 1 0.069282 -0.012279 -0.022358 0.000000 0.000000 0.000000
# 2 -0.012279 0.037420 -0.033831 0.000000 0.000000 0.000000
# 3 -0.022358 -0.033831 0.058748 0.000000 0.000000 0.000000
# 4 0.000000 0.000000 0.000000 0.030749 0.000000 0.000000
# 5 0.000000 0.000000 0.000000 0.000000 0.064703 0.000000
# 6 0.000000 0.000000 0.000000 0.000000 0.000000 0.032954
#
#
# Mechanical properties :
#
#
# Convention : Reuss Voigt Hill
#
# Bulk Modulus (GPa) = 35.07277 73.45508 54.26392
# Shear Modulus (GPa) = 11.35596 19.92605 15.64101
#
# Velocity S-wave (km/s) = 2.50268 3.31516 2.93715
# Velocity P-wave (km/s) = 5.26267 7.42752 6.43676
#
# Compressibility (1/GPa) = 0.02851215
#
# Stress axis : x y z
#
# Youngs Moduli (GPa) = 14.43386 26.72381 17.02173
#
# Poissons Ratio (x) = 0.32815 0.38057
# Poissons Ratio (y) = 0.17724 0.57587
# Poissons Ratio (z) = 0.32271 0.90411
#
# Static dielectric constant tensor:
#      x y z
#    x 1.603370 0.000000 0.000000 
#    y 0.000000 1.651940 0.000000 
#    z 0.000000 0.000000 1.584220 
# 
# From -- ./inp_files/23004.got.cif
#   From: 2010.05.17/outbox.cif.g08.bks.cpg/sg44_12_cif.got.tgz:23004.got - 2010.06.03 19:37:08.
