data_PCOD9374488
_publ_section_title
;
Structure prediction by ZEFSAII (Michael W. Deem and Ramdas Pophale) SiO2 
 PCOD9374488
Probable space group: I M M 2
;
_chemical_formula_sum "Si O2"
_cell_formula_units_Z 56
_cell_length_a 8.839261
_cell_length_b 24.047087
_cell_length_c 14.028956
_cell_angle_alpha 90.000000
_cell_angle_beta 90.000000
_cell_angle_gamma 90.000000
_cell_volume 2981.973539
_symmetry_space_group_name_H-M "I M M 2"
_symmetry_group_IT_number 44
_symmetry_cell_setting 'orthorhombic'
loop_
_space_group_symop_operation_xyz
x,y,z
-x,-y,z
-x,y,z
x,-y,z
1/2+x,1/2+y,1/2+z
1/2-x,1/2-y,1/2+z
1/2-x,1/2+y,1/2+z
1/2+x,1/2-y,1/2+z
loop_
_atom_site_type_symbol
_atom_site_label
_atom_site_fract_x
_atom_site_fract_y
_atom_site_fract_z
Si Si1 0.818440 0.936034 0.981340
Si Si2 0.681258 0.669598 0.779826
Si Si3 0.680123 0.064579 0.600693
Si Si4 0.679535 0.380477 0.282478
Si Si5 0.820027 0.670957 0.574655
Si Si6 0.819078 0.768121 0.895803
Si Si7 0.182123 0.063330 0.396215
O O1 0.783675 0.921363 0.871020
O O2 0.000000 0.927674 0.993332
O O3 0.782957 0.000000 0.002364
O O4 0.732570 0.891170 0.045074
O O5 0.500000 0.671934 0.769163
O O6 0.760357 0.682661 0.680088
O O7 0.736793 0.713706 0.857786
O O8 0.724850 0.608219 0.816998
O O9 0.500000 0.067336 0.592530
O O10 0.735479 0.102264 0.687392
O O11 0.752679 0.079627 0.499253
O O12 0.723511 0.000000 0.620382
O O13 0.500000 0.384523 0.265111
O O14 0.712140 0.318892 0.322172
O O15 0.742927 0.711336 0.497263
O O16 0.000000 0.675919 0.569403
O O17 0.000000 0.760559 0.900296
O O18 0.000000 0.063493 0.402640
O O19 0.231547 0.000000 0.375291
#
# Coordination Sequence:
#
# PCOD9374488 Si02
#       7
#     8   8   8   8   8   8   8
#     4   9  18  34  56  82 114 153 195 239 287 337
#     4  11  23  40  63  88 112 144 187 232 283 340
#     4  10  20  32  50  80 115 148 183 227 278 328
#     4   9  18  33  54  79 109 148 190 229 274 331
#     4  11  23  39  59  85 117 151 189 233 282 339
#     4  10  22  41  61  83 113 148 189 236 284 335
#     4   9  20  39  60  81 108 144 185 227 272 329
#
# _framework density 18.779509000000001
#
# number of rings (size 3 to 8) (size 9 to 14) (size 15 to 20)
#    0.000    2.143    0.000    3.857    0.000    7.429 
#    0.000    2.857    0.000    0.000    0.000    0.000 
#    0.000    0.000    0.000    0.000    0.000    0.000 
#
# Total GULP energy -156389.093492 kJ/mol
# GULP energy per Si atom -5585.324768 kJ/mol
# Density = 1.873677 g / cm^3
# Si number density = 18.779509 Si / 1000 Ang^3
#
#
#
# Elastic Constant Matrix: (Units=GPa)
#
#
# Indices 1 2 3 4 5 6 
#
# 1 35.4182 19.6180 21.6917 0.0000 0.0000 0.0000
# 2 19.6180 56.9682 32.4128 -0.0001 0.0000 0.0000
# 3 21.6917 32.4128 84.5337 -0.0001 0.0000 0.0000
# 4 0.0000 -0.0001 -0.0001 13.5518 0.0000 0.0000
# 5 0.0000 0.0000 0.0000 0.0000 22.6096 0.0000
# 6 0.0000 0.0000 0.0000 0.0000 0.0000 27.2883
#
#
#
# Elastic Compliance Matrix: (Units=1/GPa)
#
#
# Indices 1 2 3 4 5 6 
#
# 1 0.037058 -0.009402 -0.005904 0.000000 0.000000 0.000000
# 2 -0.009402 0.024837 -0.007111 0.000000 0.000000 0.000000
# 3 -0.005904 -0.007111 0.016071 0.000000 0.000000 0.000000
# 4 0.000000 0.000000 0.000000 0.073791 0.000000 0.000000
# 5 0.000000 0.000000 0.000000 0.000000 0.044229 0.000000
# 6 0.000000 0.000000 0.000000 0.000000 0.000000 0.036646
#
#
# Mechanical properties :
#
#
# Convention : Reuss Voigt Hill
#
# Bulk Modulus (GPa) = 30.18229 36.04057 33.11143
# Shear Modulus (GPa) = 17.33041 19.56977 18.45009
#
# Velocity S-wave (km/s) = 3.04112 3.23163 3.13782
# Velocity P-wave (km/s) = 5.33273 5.75827 5.54958
#
# Compressibility (1/GPa) = 0.03313201
#
# Stress axis : x y z
#
# Youngs Moduli (GPa) = 26.98482 40.26215 62.22375
#
# Poissons Ratio (x) = 0.37856 0.36737
# Poissons Ratio (y) = 0.25372 0.44245
# Poissons Ratio (z) = 0.15932 0.28629
#
# Static dielectric constant tensor:
#      x y z
#    x 1.626380 0.000000 0.000000 
#    y 0.000000 1.658640 0.000000 
#    z 0.000000 0.000000 1.619810 
# 
# From -- ./inp_files/16496.got.cif
#   From: 2010.05.17/outbox.cif.g08.bks.cpg/sg44_9_cif.got.tgz:16496.got - 2010.06.03 19:37:08.
