data_PCOD9374095
_publ_section_title
;
Structure prediction by ZEFSAII (Michael W. Deem and Ramdas Pophale) SiO2 
 PCOD9374095
Probable space group: I M M 2
;
_chemical_formula_sum "Si O2"
_cell_formula_units_Z 64
_cell_length_a 19.243544
_cell_length_b 19.101781
_cell_length_c 10.024559
_cell_angle_alpha 90.000000
_cell_angle_beta 90.000000
_cell_angle_gamma 90.000000
_cell_volume 3684.887175
_symmetry_space_group_name_H-M "I M M 2"
_symmetry_group_IT_number 44
_symmetry_cell_setting 'orthorhombic'
loop_
_space_group_symop_operation_xyz
x,y,z
-x,-y,z
-x,y,z
x,-y,z
1/2+x,1/2+y,1/2+z
1/2-x,1/2-y,1/2+z
1/2-x,1/2+y,1/2+z
1/2+x,1/2-y,1/2+z
loop_
_atom_site_type_symbol
_atom_site_label
_atom_site_fract_x
_atom_site_fract_y
_atom_site_fract_z
Si Si1 0.677525 0.326366 0.293570
Si Si2 0.146492 0.141938 0.208942
Si Si3 0.661330 0.170200 0.399589
Si Si4 0.667081 0.163716 0.899500
Si Si5 0.417673 0.205527 0.656724
Si Si6 0.300207 0.916753 0.156797
Si Si7 0.921980 0.918984 0.972365
Si Si8 0.680610 0.677456 0.991194
O O1 0.661350 0.245407 0.325855
O O2 0.758469 0.339293 0.325262
O O3 0.632138 0.373619 0.390369
O O4 0.661656 0.342552 0.140179
O O5 0.124843 0.220840 0.167157
O O6 0.225439 0.123106 0.166993
O O7 0.096552 0.091511 0.127288
O O8 0.143460 0.138480 0.368608
O O9 0.605194 0.170645 0.517429
O O10 0.657815 0.111372 0.285435
O O11 0.737142 0.165731 0.469067
O O12 0.608503 0.162212 0.785554
O O13 0.665782 0.107310 0.017588
O O14 0.665644 0.240232 0.968905
O O15 0.500000 0.218330 0.661171
O O16 0.289711 0.000000 0.161313
O O17 0.000000 0.894168 0.946988
O O18 0.916273 0.000000 0.936882
#
# Coordination Sequence:
#
# PCOD9374095 Si02
#       8
#     8   8   8   8   8   8   8   8
#     4  11  18  33  59  82 115 157 198 246 295 331
#     4  10  19  34  58  87 120 150 187 230 289 355
#     4  10  19  33  56  86 116 145 196 251 294 344
#     4  10  19  33  56  86 116 145 196 251 294 344
#     4  11  21  36  60  89 119 153 196 247 302 353
#     4  11  21  36  60  89 119 153 196 247 302 353
#     4  11  23  37  54  83 123 164 197 227 285 368
#     4   9  18  32  55  87 110 145 188 253 289 326
#
# _framework density 17.368238999999999
#
# number of rings (size 3 to 8) (size 9 to 14) (size 15 to 20)
#    0.000    1.625    5.000    2.250    0.000    0.000 
#    0.000    7.500    0.000    3.750    0.000    0.000 
#    0.000    0.000    0.000    0.000    0.000    0.000 
#
# Total GULP energy -178516.393306 kJ/mol
# GULP energy per Si atom -5578.637291 kJ/mol
# Density = 1.732871 g / cm^3
# Si number density = 17.368239 Si / 1000 Ang^3
#
#
#
# Elastic Constant Matrix: (Units=GPa)
#
#
# Indices 1 2 3 4 5 6 
#
# 1 60.2257 35.9681 38.9366 0.0000 0.0000 0.0000
# 2 35.9681 59.3867 42.0692 0.0000 0.0000 0.0000
# 3 38.9366 42.0692 136.5182 0.0000 0.0000 0.0000
# 4 0.0000 0.0000 0.0000 21.2779 0.0000 0.0000
# 5 0.0000 0.0000 0.0000 0.0000 19.3157 0.0000
# 6 0.0000 0.0000 0.0000 0.0000 0.0000 12.5358
#
#
#
# Elastic Compliance Matrix: (Units=1/GPa)
#
#
# Indices 1 2 3 4 5 6 
#
# 1 0.027215 -0.014052 -0.003432 0.000000 0.000000 0.000000
# 2 -0.014052 0.028797 -0.004866 0.000000 0.000000 0.000000
# 3 -0.003432 -0.004866 0.009803 0.000000 0.000000 0.000000
# 4 0.000000 0.000000 0.000000 0.046997 0.000000 0.000000
# 5 0.000000 0.000000 0.000000 0.000000 0.051771 0.000000
# 6 0.000000 0.000000 0.000000 0.000000 0.000000 0.079771
#
#
# Mechanical properties :
#
#
# Convention : Reuss Voigt Hill
#
# Bulk Modulus (GPa) = 47.35925 54.45316 50.90620
# Shear Modulus (GPa) = 16.88658 19.90300 18.39479
#
# Velocity S-wave (km/s) = 3.12150 3.38885 3.25792
# Velocity P-wave (km/s) = 6.34970 6.83613 6.59740
#
# Compressibility (1/GPa) = 0.02111520
#
# Stress axis : x y z
#
# Youngs Moduli (GPa) = 36.74438 34.72633 102.00585
#
# Poissons Ratio (x) = 0.48797 0.35007
# Poissons Ratio (y) = 0.51633 0.49637
# Poissons Ratio (z) = 0.12610 0.16898
#
# Static dielectric constant tensor:
#      x y z
#    x 1.583180 0.000000 0.000000 
#    y 0.000000 1.586040 0.000000 
#    z 0.000000 0.000000 1.606650 
# 
# From -- ./inp_files/9115.got.cif
#   From: 2010.05.17/outbox.cif.g08.bks.cpg/sg44_5_cif.got.tgz:9115.got - 2010.06.03 19:37:08.
