data_PCOD9374902
_publ_section_title
;
Structure prediction by ZEFSAII (Michael W. Deem and Ramdas Pophale) SiO2 
 PCOD9374902
Probable space group: I M M 2
;
_chemical_formula_sum "Si O2"
_cell_formula_units_Z 64
_cell_length_a 26.098822
_cell_length_b 14.743483
_cell_length_c 8.635942
_cell_angle_alpha 90.000000
_cell_angle_beta 90.000000
_cell_angle_gamma 90.000000
_cell_volume 3323.002865
_symmetry_space_group_name_H-M "I M M 2"
_symmetry_group_IT_number 44
_symmetry_cell_setting 'orthorhombic'
loop_
_space_group_symop_operation_xyz
x,y,z
-x,-y,z
-x,y,z
x,-y,z
1/2+x,1/2+y,1/2+z
1/2-x,1/2-y,1/2+z
1/2-x,1/2+y,1/2+z
1/2+x,1/2-y,1/2+z
loop_
_atom_site_type_symbol
_atom_site_label
_atom_site_fract_x
_atom_site_fract_y
_atom_site_fract_z
Si Si1 0.254895 0.397264 0.961900
Si Si2 0.873854 0.738286 0.321819
Si Si3 0.204702 0.849242 0.127114
Si Si4 0.108629 0.898325 0.920513
Si Si5 0.646400 0.107326 0.379307
Si Si6 0.313252 0.892958 0.032241
Si Si7 0.559008 0.779291 0.540267
Si Si8 0.138604 0.109098 0.566448
O O1 0.246762 0.500000 0.014713
O O2 0.276275 0.399885 0.784982
O O3 0.198874 0.354762 0.956873
O O4 0.301388 0.361688 0.064062
O O5 0.828370 0.770166 0.206712
O O6 0.851004 0.653424 0.412032
O O7 0.922139 0.713582 0.217188
O O8 0.884747 0.823184 0.438042
O O9 0.258379 0.841539 0.036819
O O10 0.162802 0.893152 0.012861
O O11 0.117588 0.879322 0.738675
O O12 0.088587 0.000000 0.936980
O O13 0.071208 0.823722 0.990345
O O14 0.658911 0.116338 0.198106
O O15 0.597137 0.159683 0.437852
O O16 0.641374 0.000000 0.412086
O O17 0.303658 0.000000 0.004568
O O18 0.500000 0.802250 0.519862
O O19 0.135633 0.000000 0.527651
#
# Coordination Sequence:
#
# PCOD9374902 Si02
#       8
#     8   8   8   8   8   8   8   8
#     4   8  14  28  51  81 116 146 169 200 251 319
#     4  10  22  36  55  81 113 152 191 227 273 330
#     4   9  18  31  52  83 120 153 178 208 254 322
#     4  10  20  35  57  85 114 145 183 224 271 330
#     4   9  19  37  60  84 111 144 182 224 273 329
#     4  10  20  36  58  87 122 153 181 219 271 334
#     4  11  25  42  58  76 101 140 192 247 292 328
#     4   9  18  33  56  87 120 149 177 215 267 334
#
# _framework density 19.259689000000002
#
# number of rings (size 3 to 8) (size 9 to 14) (size 15 to 20)
#    0.000    2.500    0.000    2.625    0.000   12.500 
#    0.000    3.750    0.000    1.500    0.000    0.000 
#    0.000    0.000    0.000    0.000    0.000    0.000 
#
# Total GULP energy -178378.998991 kJ/mol
# GULP energy per Si atom -5574.343718 kJ/mol
# Density = 1.921585 g / cm^3
# Si number density = 19.259689 Si / 1000 Ang^3
#
#
#
# Elastic Constant Matrix: (Units=GPa)
#
#
# Indices 1 2 3 4 5 6 
#
# 1 69.7785 -4.3806 -8.6558 0.0000 0.0000 0.0000
# 2 -4.3806 33.4269 8.5851 0.0000 0.0000 0.0000
# 3 -8.6558 8.5851 38.1113 0.0000 0.0000 0.0000
# 4 0.0000 0.0000 0.0000 16.3546 0.0000 0.0000
# 5 0.0000 0.0000 0.0000 0.0000 19.8189 0.0000
# 6 0.0000 0.0000 0.0000 0.0000 0.0000 8.7272
#
#
#
# Elastic Compliance Matrix: (Units=1/GPa)
#
#
# Indices 1 2 3 4 5 6 
#
# 1 0.014787 0.001141 0.003101 0.000000 0.000000 0.000000
# 2 0.001141 0.031841 -0.006913 0.000000 0.000000 0.000000
# 3 0.003101 -0.006913 0.028501 0.000000 0.000000 0.000000
# 4 0.000000 0.000000 0.000000 0.061145 0.000000 0.000000
# 5 0.000000 0.000000 0.000000 0.000000 0.050457 0.000000
# 6 0.000000 0.000000 0.000000 0.000000 0.000000 0.114585
#
#
# Mechanical properties :
#
#
# Convention : Reuss Voigt Hill
#
# Bulk Modulus (GPa) = 14.32911 14.71267 14.52089
# Shear Modulus (GPa) = 15.15520 18.69801 16.92660
#
# Velocity S-wave (km/s) = 2.80819 3.11920 2.96778
# Velocity P-wave (km/s) = 4.23919 4.54184 4.39312
#
# Compressibility (1/GPa) = 0.06978799
#
# Stress axis : x y z
#
# Youngs Moduli (GPa) = 67.62496 31.40584 35.08688
#
# Poissons Ratio (x) = -0.03584 -0.10882
# Poissons Ratio (y) = -0.07718 0.24257
# Poissons Ratio (z) = -0.20973 0.21712
#
# Static dielectric constant tensor:
#      x y z
#    x 1.654630 0.000000 0.000000 
#    y 0.000000 1.723880 0.000000 
#    z 0.000000 0.000000 1.692710 
# 
# From -- ./inp_files/9472.got.cif
#   From: 2010.05.17/outbox.cif.g08.bks.cpg/sg44_5_cif.got.tgz:9472.got - 2010.06.03 19:37:08.
