data_PCOD9374627
_publ_section_title
;
Structure prediction by ZEFSAII (Michael W. Deem and Ramdas Pophale) SiO2 
 PCOD9374627
Probable space group: I M M 2
;
_chemical_formula_sum "Si O2"
_cell_formula_units_Z 64
_cell_length_a 20.003340
_cell_length_b 8.867744
_cell_length_c 21.244204
_cell_angle_alpha 90.000000
_cell_angle_beta 90.000000
_cell_angle_gamma 90.000000
_cell_volume 3768.392468
_symmetry_space_group_name_H-M "I M M 2"
_symmetry_group_IT_number 44
_symmetry_cell_setting 'orthorhombic'
loop_
_space_group_symop_operation_xyz
x,y,z
-x,-y,z
-x,y,z
x,-y,z
1/2+x,1/2+y,1/2+z
1/2-x,1/2-y,1/2+z
1/2-x,1/2+y,1/2+z
1/2+x,1/2-y,1/2+z
loop_
_atom_site_type_symbol
_atom_site_label
_atom_site_fract_x
_atom_site_fract_y
_atom_site_fract_z
Si Si1 0.074836 0.681137 0.849450
Si Si2 0.204247 0.318014 0.278403
Si Si3 0.075600 0.318913 0.700500
Si Si4 0.576257 0.321341 0.723738
Si Si5 0.923882 0.319785 0.084959
Si Si6 0.790754 0.181355 0.898241
Si Si7 0.209836 0.180233 0.654099
Si Si8 0.709765 0.680359 0.538243
O O1 0.078213 0.500000 0.855650
O O2 0.082329 0.716729 0.775008
O O3 0.135475 0.754859 0.886110
O O4 0.000000 0.728709 0.869065
O O5 0.197426 0.500000 0.279083
O O6 0.132391 0.242654 0.269628
O O7 0.242672 0.269182 0.341435
O O8 0.248509 0.277310 0.217061
O O9 0.081493 0.500000 0.694502
O O10 0.134868 0.240065 0.663212
O O11 0.000000 0.276220 0.681478
O O12 0.500000 0.297587 0.745752
O O13 0.585856 0.500000 0.713391
O O14 0.583240 0.236121 0.656998
O O15 0.914937 0.500000 0.082529
O O16 0.865939 0.238987 0.046482
O O17 0.000000 0.284589 0.064754
O O18 0.794394 0.000000 0.895350
O O19 0.766912 0.223165 0.968064
O O20 0.246120 0.248675 0.593497
O O21 0.210255 0.000000 0.649823
O O22 0.710876 0.500000 0.544329
#
# Coordination Sequence:
#
# PCOD9374627 Si02
#       8
#     8   8   8   8   8   8   8   8
#     4   9  18  32  51  77 108 142 178 214 256 309
#     4  10  20  35  55  79 107 138 176 220 265 313
#     4   9  18  33  54  81 111 141 176 218 264 314
#     4  10  20  33  53  82 110 136 172 217 265 316
#     4  10  20  34  52  75 106 143 180 217 259 310
#     4  10  22  38  53  75 106 142 181 219 261 312
#     4  11  21  34  56  82 108 138 176 224 270 313
#     4  11  23  37  54  75 106 144 181 221 264 315
#
# _framework density 16.983369
#
# number of rings (size 3 to 8) (size 9 to 14) (size 15 to 20)
#    0.000    2.000    2.500    2.250    0.000    4.500 
#    0.000    3.750    0.000    0.750    0.000    1.750 
#    0.000    0.000    0.000    0.000    0.000    0.000 
#
# Total GULP energy -178615.218871 kJ/mol
# GULP energy per Si atom -5581.725590 kJ/mol
# Density = 1.694471 g / cm^3
# Si number density = 16.983369 Si / 1000 Ang^3
#
#
#
# Elastic Constant Matrix: (Units=GPa)
#
#
# Indices 1 2 3 4 5 6 
#
# 1 108.2009 37.5435 65.5180 0.0000 0.0000 0.0000
# 2 37.5435 30.6993 39.1374 0.0000 0.0000 0.0000
# 3 65.5180 39.1374 115.1747 0.0000 0.0000 0.0000
# 4 0.0000 0.0000 0.0000 20.6657 0.0000 0.0000
# 5 0.0000 0.0000 0.0000 0.0000 21.1048 0.0000
# 6 0.0000 0.0000 0.0000 0.0000 0.0000 33.1767
#
#
#
# Elastic Compliance Matrix: (Units=1/GPa)
#
#
# Indices 1 2 3 4 5 6 
#
# 1 0.017388 -0.015269 -0.004703 0.000000 0.000000 0.000000
# 2 -0.015269 0.070880 -0.015400 0.000000 0.000000 0.000000
# 3 -0.004703 -0.015400 0.016590 0.000000 0.000000 0.000000
# 4 0.000000 0.000000 0.000000 0.048389 0.000000 0.000000
# 5 0.000000 0.000000 0.000000 0.000000 0.047383 0.000000
# 6 0.000000 0.000000 0.000000 0.000000 0.000000 0.030142
#
#
# Mechanical properties :
#
#
# Convention : Reuss Voigt Hill
#
# Bulk Modulus (GPa) = 29.31227 59.83030 44.57129
# Shear Modulus (GPa) = 15.98027 22.44783 19.21405
#
# Velocity S-wave (km/s) = 3.07080 3.63954 3.36720
# Velocity P-wave (km/s) = 5.46534 7.27783 6.43571
#
# Compressibility (1/GPa) = 0.03411540
#
# Stress axis : x y z
#
# Youngs Moduli (GPa) = 57.51229 14.10839 60.27551
#
# Poissons Ratio (x) = 0.21542 0.28345
# Poissons Ratio (y) = 0.87816 0.92823
# Poissons Ratio (z) = 0.27045 0.21727
#
# Static dielectric constant tensor:
#      x y z
#    x 1.569190 0.000000 0.000000 
#    y 0.000000 1.566420 0.000000 
#    z 0.000000 0.000000 1.571510 
# 
# From -- ./inp_files/22297.got.cif
#   From: 2010.05.17/outbox.cif.g08.bks.cpg/sg44_12_cif.got.tgz:22297.got - 2010.06.03 19:37:08.
