data_PCOD9374413
_publ_section_title
;
Structure prediction by ZEFSAII (Michael W. Deem and Ramdas Pophale) SiO2 
 PCOD9374413
Probable space group: I M M 2
;
_chemical_formula_sum "Si O2"
_cell_formula_units_Z 56
_cell_length_a 19.056341
_cell_length_b 8.939671
_cell_length_c 21.287125
_cell_angle_alpha 90.000000
_cell_angle_beta 90.000000
_cell_angle_gamma 90.000000
_cell_volume 3626.419673
_symmetry_space_group_name_H-M "I M M 2"
_symmetry_group_IT_number 44
_symmetry_cell_setting 'orthorhombic'
loop_
_space_group_symop_operation_xyz
x,y,z
-x,-y,z
-x,y,z
x,-y,z
1/2+x,1/2+y,1/2+z
1/2-x,1/2-y,1/2+z
1/2-x,1/2+y,1/2+z
1/2+x,1/2-y,1/2+z
loop_
_atom_site_type_symbol
_atom_site_label
_atom_site_fract_x
_atom_site_fract_y
_atom_site_fract_z
Si Si1 0.218803 0.678300 0.419640
Si Si2 0.080260 0.179687 0.983120
Si Si3 0.082439 0.678672 0.725206
Si Si4 0.851071 0.821522 0.847803
Si Si5 0.651619 0.679684 0.102702
Si Si6 0.708957 0.822475 0.540287
Si Si7 0.079741 0.320529 0.479673
O O1 0.228559 0.500000 0.432743
O O2 0.268321 0.709428 0.360218
O O3 0.252077 0.771250 0.476520
O O4 0.135961 0.709074 0.424009
O O5 0.108926 0.217402 0.913058
O O6 0.000000 0.229629 0.990027
O O7 0.082542 0.000000 0.987233
O O8 0.133435 0.245895 0.034467
O O9 0.088101 0.500000 0.720005
O O10 0.117314 0.734713 0.789486
O O11 0.119907 0.754528 0.665997
O O12 0.000000 0.718630 0.725250
O O13 0.859714 0.000000 0.837949
O O14 0.646383 0.500000 0.102036
O O15 0.734032 0.720127 0.093195
O O16 0.609003 0.744583 0.042983
O O17 0.700132 0.000000 0.541466
O O18 0.079877 0.500000 0.489850
O O19 0.000000 0.273606 0.466728
#
# Coordination Sequence:
#
# PCOD9374413 Si02
#       7
#     8   8   8   8   8   8   8
#     4   8  15  28  44  62  86 116 146 176 214 261
#     4   9  17  29  46  68  92 118 146 175 213 261
#     4  11  23  34  44  62  87 115 148 184 220 257
#     4   9  17  30  46  62  85 118 150 178 209 251
#     4  10  20  32  45  62  87 119 151 181 214 256
#     4   9  17  28  43  64  87 112 144 181 219 256
#     4   9  16  27  45  68  92 116 143 178 218 258
#
# _framework density 15.442228999999999
#
# number of rings (size 3 to 8) (size 9 to 14) (size 15 to 20)
#    0.000    2.714    0.000    3.000    0.000    8.000 
#    0.000    0.000    0.000    0.000    0.000    1.000 
#    0.000    5.714    0.000    0.000    0.000    0.000 
#
# Total GULP energy -155888.484767 kJ/mol
# GULP energy per Si atom -5567.445885 kJ/mol
# Density = 1.540708 g / cm^3
# Si number density = 15.442229 Si / 1000 Ang^3
#
#
#
# Elastic Constant Matrix: (Units=GPa)
#
#
# Indices 1 2 3 4 5 6 
#
# 1 167.8693 43.4761 62.9670 0.0000 0.0000 0.0000
# 2 43.4761 24.9077 29.5237 0.0000 0.0000 0.0000
# 3 62.9670 29.5237 65.4989 0.0000 0.0000 0.0000
# 4 0.0000 0.0000 0.0000 18.8250 0.0000 0.0000
# 5 0.0000 0.0000 0.0000 0.0000 23.8457 0.0000
# 6 0.0000 0.0000 0.0000 0.0000 0.0000 21.9067
#
#
#
# Elastic Compliance Matrix: (Units=1/GPa)
#
#
# Indices 1 2 3 4 5 6 
#
# 1 0.011403 -0.014837 -0.004274 0.000000 0.000000 0.000000
# 2 -0.014837 0.105515 -0.033297 0.000000 0.000000 0.000000
# 3 -0.004274 -0.033297 0.034385 0.000000 0.000000 0.000000
# 4 0.000000 0.000000 0.000000 0.053121 0.000000 0.000000
# 5 0.000000 0.000000 0.000000 0.000000 0.041936 0.000000
# 6 0.000000 0.000000 0.000000 0.000000 0.000000 0.045648
#
#
# Mechanical properties :
#
#
# Convention : Reuss Voigt Hill
#
# Bulk Modulus (GPa) = 21.51211 58.91218 40.21214
# Shear Modulus (GPa) = 12.12650 21.06943 16.59797
#
# Velocity S-wave (km/s) = 2.80533 3.69779 3.28204
# Velocity P-wave (km/s) = 4.94511 7.51428 6.36076
#
# Compressibility (1/GPa) = 0.04648545
#
# Stress axis : x y z
#
# Youngs Moduli (GPa) = 87.69646 9.47736 29.08244
#
# Poissons Ratio (x) = 0.14062 0.12430
# Poissons Ratio (y) = 1.30120 0.96836
# Poissons Ratio (z) = 0.37483 0.31557
#
# Static dielectric constant tensor:
#      x y z
#    x 1.559510 0.000000 0.000000 
#    y 0.000000 1.515320 0.000000 
#    z 0.000000 0.000000 1.483680 
# 
# From -- ./inp_files/20677.got.cif
#   From: 2010.05.17/outbox.cif.g08.bks.cpg/sg44_11_cif.got.tgz:20677.got - 2010.06.03 19:37:08.
