data_PCOD9374580
_publ_section_title
;
Structure prediction by ZEFSAII (Michael W. Deem and Ramdas Pophale) SiO2 
 PCOD9374580
Probable space group: I M M 2
;
_chemical_formula_sum "Si O2"
_cell_formula_units_Z 56
_cell_length_a 8.717409
_cell_length_b 24.438397
_cell_length_c 14.227267
_cell_angle_alpha 90.000000
_cell_angle_beta 90.000000
_cell_angle_gamma 90.000000
_cell_volume 3030.969876
_symmetry_space_group_name_H-M "I M M 2"
_symmetry_group_IT_number 44
_symmetry_cell_setting 'orthorhombic'
loop_
_space_group_symop_operation_xyz
x,y,z
-x,-y,z
-x,y,z
x,-y,z
1/2+x,1/2+y,1/2+z
1/2-x,1/2-y,1/2+z
1/2-x,1/2+y,1/2+z
1/2+x,1/2-y,1/2+z
loop_
_atom_site_type_symbol
_atom_site_label
_atom_site_fract_x
_atom_site_fract_y
_atom_site_fract_z
Si Si1 0.314445 0.334390 0.626620
Si Si2 0.316413 0.617495 0.912940
Si Si3 0.815066 0.167636 0.913803
Si Si4 0.183198 0.563931 0.094856
Si Si5 0.683838 0.062087 0.231215
Si Si6 0.314692 0.437805 0.301146
Si Si7 0.315802 0.270629 0.809368
O O1 0.500000 0.336003 0.628207
O O2 0.262489 0.322889 0.520841
O O3 0.254596 0.392960 0.661973
O O4 0.266337 0.290222 0.705335
O O5 0.500000 0.612209 0.909390
O O6 0.243092 0.577581 0.835128
O O7 0.276690 0.678887 0.878958
O O8 0.255356 0.601663 0.014885
O O9 0.766052 0.108391 0.874821
O O10 0.756873 0.215174 0.845928
O O11 0.000000 0.168536 0.914229
O O12 0.219630 0.500000 0.073748
O O13 0.248547 0.575427 0.198304
O O14 0.000000 0.569896 0.095174
O O15 0.500000 0.066133 0.229937
O O16 0.728392 0.000000 0.207680
O O17 0.500000 0.437089 0.295656
O O18 0.267376 0.500000 0.325551
O O19 0.500000 0.265064 0.808780
#
# Coordination Sequence:
#
# PCOD9374580 Si02
#       7
#     8   8   8   8   8   8   8
#     4   9  20  38  56  77 106 140 180 221 263 316
#     4  10  20  34  53  78 108 144 184 221 263 316
#     4  10  21  37  59  83 104 135 179 221 265 316
#     4  10  20  33  51  78 110 143 180 222 268 316
#     4  10  20  33  51  79 112 143 178 220 266 316
#     4   9  19  36  55  77 107 140 176 219 264 315
#     4   9  20  37  54  76 107 139 173 216 265 318
#
# _framework density 18.475933999999999
#
# number of rings (size 3 to 8) (size 9 to 14) (size 15 to 20)
#    0.000    2.429    0.000    2.571    0.000    9.429 
#    0.000    4.286    0.000    1.714    0.000    0.000 
#    0.000    0.000    0.000    0.000    0.000    0.000 
#
# Total GULP energy -156266.756373 kJ/mol
# GULP energy per Si atom -5580.955585 kJ/mol
# Density = 1.843388 g / cm^3
# Si number density = 18.475934 Si / 1000 Ang^3
#
#
#
# Elastic Constant Matrix: (Units=GPa)
#
#
# Indices 1 2 3 4 5 6 
#
# 1 11.1099 22.2797 23.7265 0.0000 0.0000 0.0000
# 2 22.2797 113.9507 87.7475 0.0000 0.0000 0.0000
# 3 23.7265 87.7475 135.7817 0.0000 0.0000 0.0000
# 4 0.0000 0.0000 0.0000 16.1924 0.0000 0.0000
# 5 0.0000 0.0000 0.0000 0.0000 14.8471 0.0000
# 6 0.0000 0.0000 0.0000 0.0000 0.0000 24.9882
#
#
#
# Elastic Compliance Matrix: (Units=1/GPa)
#
#
# Indices 1 2 3 4 5 6 
#
# 1 0.163373 -0.019825 -0.015736 0.000000 0.000000 0.000000
# 2 -0.019825 0.019875 -0.009380 0.000000 0.000000 0.000000
# 3 -0.015736 -0.009380 0.016176 0.000000 0.000000 0.000000
# 4 0.000000 0.000000 0.000000 0.061757 0.000000 0.000000
# 5 0.000000 0.000000 0.000000 0.000000 0.067353 0.000000
# 6 0.000000 0.000000 0.000000 0.000000 0.000000 0.040019
#
#
# Mechanical properties :
#
#
# Convention : Reuss Voigt Hill
#
# Bulk Modulus (GPa) = 9.12894 58.70554 33.91724
# Shear Modulus (GPa) = 10.10207 19.67811 14.89009
#
# Velocity S-wave (km/s) = 2.34085 3.26708 2.84195
# Velocity P-wave (km/s) = 3.50111 6.78784 5.40058
#
# Compressibility (1/GPa) = 0.10954175
#
# Stress axis : x y z
#
# Youngs Moduli (GPa) = 6.12098 50.31532 61.82044
#
# Poissons Ratio (x) = 0.99752 0.97280
# Poissons Ratio (y) = 0.12135 0.57985
# Poissons Ratio (z) = 0.09632 0.47193
#
# Static dielectric constant tensor:
#      x y z
#    x 1.622450 0.000000 0.000000 
#    y 0.000000 1.627180 0.000000 
#    z 0.000000 0.000000 1.625550 
# 
# From -- ./inp_files/16507.got.cif
#   From: 2010.05.17/outbox.cif.g08.bks.cpg/sg44_9_cif.got.tgz:16507.got - 2010.06.03 19:37:08.
