data_PCOD9374372
_publ_section_title
;
Structure prediction by ZEFSAII (Michael W. Deem and Ramdas Pophale) SiO2 
 PCOD9374372
Probable space group: I M M 2
;
_chemical_formula_sum "Si O2"
_cell_formula_units_Z 42
_cell_length_a 24.258652
_cell_length_b 12.251354
_cell_length_c 7.250330
_cell_angle_alpha 90.000000
_cell_angle_beta 90.000000
_cell_angle_gamma 90.000000
_cell_volume 2154.807742
_symmetry_space_group_name_H-M "I M M 2"
_symmetry_group_IT_number 44
_symmetry_cell_setting 'orthorhombic'
loop_
_space_group_symop_operation_xyz
x,y,z
-x,-y,z
-x,y,z
x,-y,z
1/2+x,1/2+y,1/2+z
1/2-x,1/2-y,1/2+z
1/2-x,1/2+y,1/2+z
1/2+x,1/2-y,1/2+z
loop_
_atom_site_type_symbol
_atom_site_label
_atom_site_fract_x
_atom_site_fract_y
_atom_site_fract_z
Si Si1 0.830663 0.761698 0.488440
Si Si2 0.644225 0.619923 0.337581
Si Si3 0.563756 0.871769 0.859158
Si Si4 0.733913 0.374250 0.655423
Si Si5 0.000000 0.500000 0.763208
Si Si6 0.440962 0.194063 0.436982
O O1 0.840239 0.862564 0.625366
O O2 0.888424 0.704187 0.438595
O O3 0.792063 0.678163 0.601223
O O4 0.798138 0.803546 0.308560
O O5 0.619022 0.500000 0.366520
O O6 0.696908 0.626461 0.470669
O O7 0.605175 0.720359 0.388375
O O8 0.500000 0.842779 0.908697
O O9 0.567857 0.860416 0.636906
O O10 0.569568 0.000000 0.906581
O O11 0.739801 0.500000 0.716268
O O12 0.047352 0.403277 0.793848
O O13 0.500000 0.254374 0.450304
#
# Coordination Sequence:
#
# PCOD9374372 Si02
#       6
#     8   8   8   8   2   8
#     4  12  23  43  66  93 127 174 216 270 324 385
#     4  11  24  41  63  90 129 170 216 267 317 385
#     4  10  19  38  64 100 135 166 211 272 330 389
#     4  11  24  43  62  91 125 167 217 267 327 383
#     4   8  16  36  66  94 132 168 214 262 330 378
#     4   9  17  37  63  92 128 169 209 262 325 376
#
# _framework density 19.491296999999999
#
# number of rings (size 3 to 8) (size 9 to 14) (size 15 to 20)
#    0.571    0.952    4.762    1.143    0.000    1.143 
#    3.429    1.905    0.000    1.714    0.000    0.000 
#    0.000    0.000    0.000    0.000    0.000    0.000 
#
# Total GULP energy -116913.765130 kJ/mol
# GULP energy per Si atom -5567.322149 kJ/mol
# Density = 1.944693 g / cm^3
# Si number density = 19.491297 Si / 1000 Ang^3
#
#
#
# Elastic Constant Matrix: (Units=GPa)
#
#
# Indices 1 2 3 4 5 6 
#
# 1 91.8663 61.3641 31.3022 0.0000 0.0000 0.0000
# 2 61.3641 117.4834 20.2650 0.0000 0.0000 0.0000
# 3 31.3022 20.2650 89.5977 0.0000 0.0000 0.0000
# 4 0.0000 0.0000 0.0000 26.4165 0.0000 0.0000
# 5 0.0000 0.0000 0.0000 0.0000 26.4829 0.0000
# 6 0.0000 0.0000 0.0000 0.0000 0.0000 42.2242
#
#
#
# Elastic Compliance Matrix: (Units=1/GPa)
#
#
# Indices 1 2 3 4 5 6 
#
# 1 0.018238 -0.008769 -0.004388 0.000000 0.000000 0.000000
# 2 -0.008769 0.013074 0.000107 0.000000 0.000000 0.000000
# 3 -0.004388 0.000107 0.012670 0.000000 0.000000 0.000000
# 4 0.000000 0.000000 0.000000 0.037855 0.000000 0.000000
# 5 0.000000 0.000000 0.000000 0.000000 0.037760 0.000000
# 6 0.000000 0.000000 0.000000 0.000000 0.000000 0.023683
#
#
# Mechanical properties :
#
#
# Convention : Reuss Voigt Hill
#
# Bulk Modulus (GPa) = 55.92804 58.31225 57.12015
# Shear Modulus (GPa) = 28.51559 31.42580 29.97069
#
# Velocity S-wave (km/s) = 3.82906 4.01970 3.92554
# Velocity P-wave (km/s) = 6.95018 7.17816 7.06509
#
# Compressibility (1/GPa) = 0.01788012
#
# Stress axis : x y z
#
# Youngs Moduli (GPa) = 54.82958 76.48856 78.92645
#
# Poissons Ratio (x) = 0.67075 0.34636
# Poissons Ratio (y) = 0.48082 -0.00842
# Poissons Ratio (z) = 0.24061 -0.00816
#
# Static dielectric constant tensor:
#      x y z
#    x 1.657890 0.000000 0.000000 
#    y 0.000000 1.644620 0.000000 
#    z 0.000000 0.000000 1.755410 
# 
# From -- ./inp_files/9312.got.cif
#   From: 2010.05.17/outbox.cif.g08.bks.cpg/sg44_5_cif.got.tgz:9312.got - 2010.06.03 19:37:08.
