data_PCOD9374924
_publ_section_title
;
Structure prediction by ZEFSAII (Michael W. Deem and Ramdas Pophale) SiO2 
 PCOD9374924
Probable space group: I M M 2
;
_chemical_formula_sum "Si O2"
_cell_formula_units_Z 64
_cell_length_a 8.651191
_cell_length_b 31.703157
_cell_length_c 12.313888
_cell_angle_alpha 90.000000
_cell_angle_beta 90.000000
_cell_angle_gamma 90.000000
_cell_volume 3377.330881
_symmetry_space_group_name_H-M "I M M 2"
_symmetry_group_IT_number 44
_symmetry_cell_setting 'orthorhombic'
loop_
_space_group_symop_operation_xyz
x,y,z
-x,-y,z
-x,y,z
x,-y,z
1/2+x,1/2+y,1/2+z
1/2-x,1/2-y,1/2+z
1/2-x,1/2+y,1/2+z
1/2+x,1/2-y,1/2+z
loop_
_atom_site_type_symbol
_atom_site_label
_atom_site_fract_x
_atom_site_fract_y
_atom_site_fract_z
Si Si1 0.811241 0.126842 0.855700
Si Si2 0.814805 0.204789 0.004951
Si Si3 0.814055 0.953695 0.994548
Si Si4 0.317611 0.930416 0.225546
Si Si5 0.314919 0.296875 0.955270
Si Si6 0.817726 0.329483 0.729273
Si Si7 0.186857 0.125212 0.605282
Si Si8 0.686788 0.047105 0.468235
O O1 0.761704 0.125638 0.730543
O O2 0.000000 0.126419 0.856491
O O3 0.762909 0.169433 0.917669
O O4 0.757535 0.085734 0.922856
O O5 0.758023 0.189736 0.122318
O O6 0.000000 0.206004 0.002915
O O7 0.750687 0.250917 0.980395
O O8 0.766417 0.947712 0.119587
O O9 0.000000 0.953081 0.988627
O O10 0.760370 0.000000 0.956792
O O11 0.500000 0.940339 0.215461
O O12 0.299148 0.879944 0.227285
O O13 0.263787 0.947258 0.342425
O O14 0.500000 0.295194 0.958088
O O15 0.258872 0.311556 0.837426
O O16 0.263302 0.332508 0.041746
O O17 0.000000 0.319885 0.730366
O O18 0.246226 0.084295 0.541375
O O19 0.000000 0.124337 0.604203
O O20 0.500000 0.050463 0.469138
O O21 0.729828 0.000000 0.505395
#
# Coordination Sequence:
#
# PCOD9374924 Si02
#       8
#     8   8   8   8   8   8   8   8
#     4   9  20  39  59  83 116 155 195 239 292 347
#     4  11  23  40  64  90 121 159 198 246 303 356
#     4  10  20  35  58  86 116 152 196 244 292 350
#     4  10  20  36  59  85 118 155 192 240 295 351
#     4  11  24  40  61  91 123 155 200 251 300 357
#     4  11  22  39  64  90 120 158 201 245 297 356
#     4  10  22  40  61  84 115 155 197 245 292 347
#     4  10  21  38  59  85 118 154 193 241 297 354
#
# _framework density 18.949874999999999
#
# number of rings (size 3 to 8) (size 9 to 14) (size 15 to 20)
#    0.000    1.750    2.500    1.500    1.750    3.000 
#    0.000    3.125    0.000    0.000    0.000    0.000 
#    0.000    0.000    0.000    0.000    0.000    0.000 
#
# Total GULP energy -178764.144919 kJ/mol
# GULP energy per Si atom -5586.379529 kJ/mol
# Density = 1.890674 g / cm^3
# Si number density = 18.949875 Si / 1000 Ang^3
#
#
#
# Elastic Constant Matrix: (Units=GPa)
#
#
# Indices 1 2 3 4 5 6 
#
# 1 26.6281 42.0865 23.4131 0.0001 0.0000 0.0000
# 2 42.0865 177.4991 98.9746 0.0003 0.0000 0.0000
# 3 23.4131 98.9746 163.3279 0.0009 0.0000 0.0000
# 4 0.0001 0.0003 0.0009 39.8859 -0.0001 -0.0001
# 5 0.0000 0.0000 0.0000 -0.0001 19.9401 0.0000
# 6 0.0000 0.0000 0.0000 -0.0001 0.0000 16.7369
#
#
#
# Elastic Compliance Matrix: (Units=1/GPa)
#
#
# Indices 1 2 3 4 5 6 
#
# 1 0.060064 -0.014259 0.000030 0.000000 0.000000 0.000000
# 2 -0.014259 0.011894 -0.005164 0.000000 0.000000 0.000000
# 3 0.000030 -0.005164 0.009247 0.000000 0.000000 0.000000
# 4 0.000000 0.000000 0.000000 0.025072 0.000000 0.000000
# 5 0.000000 0.000000 0.000000 0.000000 0.050150 0.000000
# 6 0.000000 0.000000 0.000000 0.000000 0.000000 0.059748
#
#
# Mechanical properties :
#
#
# Convention : Reuss Voigt Hill
#
# Bulk Modulus (GPa) = 23.57300 77.37818 50.47559
# Shear Modulus (GPa) = 18.58054 28.84465 23.71260
#
# Velocity S-wave (km/s) = 3.13471 3.90571 3.54126
# Velocity P-wave (km/s) = 5.05653 7.82695 6.58899
#
# Compressibility (1/GPa) = 0.04242142
#
# Stress axis : x y z
#
# Youngs Moduli (GPa) = 16.64899 84.07671 108.13886
#
# Poissons Ratio (x) = 1.19881 -0.00328
# Poissons Ratio (y) = 0.23739 0.55838
# Poissons Ratio (z) = -0.00051 0.43414
#
# Static dielectric constant tensor:
#      x y z
#    x 1.648420 0.000000 0.000000 
#    y 0.000000 1.653000 0.000000 
#    z 0.000000 0.000000 1.624750 
# 
# From -- ./inp_files/11449.got.cif
#   From: 2010.05.17/outbox.cif.g08.bks.cpg/sg44_6_cif.got.tgz:11449.got - 2010.06.03 19:37:08.
