data_PCOD9374271
_publ_section_title
;
Structure prediction by ZEFSAII (Michael W. Deem and Ramdas Pophale) SiO2 
 PCOD9374271
Probable space group: I M M 2
;
_chemical_formula_sum "Si O2"
_cell_formula_units_Z 48
_cell_length_a 10.531983
_cell_length_b 8.691860
_cell_length_c 29.032258
_cell_angle_alpha 90.000000
_cell_angle_beta 90.000000
_cell_angle_gamma 90.000000
_cell_volume 2657.686110
_symmetry_space_group_name_H-M "I M M 2"
_symmetry_group_IT_number 44
_symmetry_cell_setting 'orthorhombic'
loop_
_space_group_symop_operation_xyz
x,y,z
-x,-y,z
-x,y,z
x,-y,z
1/2+x,1/2+y,1/2+z
1/2-x,1/2-y,1/2+z
1/2-x,1/2+y,1/2+z
1/2+x,1/2-y,1/2+z
loop_
_atom_site_type_symbol
_atom_site_label
_atom_site_fract_x
_atom_site_fract_y
_atom_site_fract_z
Si Si1 0.000000 0.316185 0.278780
Si Si2 0.000000 0.685047 0.386231
Si Si3 0.746316 0.682982 0.937928
Si Si4 0.500000 0.185598 0.289442
Si Si5 0.651794 0.815604 0.031156
Si Si6 0.853061 0.312682 0.634520
Si Si7 0.250393 0.314149 0.730996
Si Si8 0.000000 0.816487 0.892281
O O1 0.000000 0.270581 0.332538
O O2 0.875059 0.253411 0.253941
O O3 0.000000 0.500000 0.277077
O O4 0.125234 0.749747 0.410700
O O5 0.000000 0.500000 0.390183
O O6 0.748038 0.500000 0.933359
O O7 0.874542 0.752188 0.917002
O O8 0.726355 0.731345 0.990937
O O9 0.374484 0.227229 0.260537
O O10 0.500000 0.261842 0.339318
O O11 0.500000 0.000000 0.294926
O O12 0.500000 0.788075 0.025919
O O13 0.687444 0.766615 0.083123
O O14 0.670217 0.000000 0.026925
O O15 0.853448 0.500000 0.634494
O O16 0.771413 0.262670 0.678218
O O17 0.000000 0.265832 0.641352
O O18 0.259055 0.500000 0.731067
O O19 0.000000 0.000000 0.894272
#
# Coordination Sequence:
#
# PCOD9374271 Si02
#       8
#     4   4   8   4   8   8   8   4
#     4  11  25  39  52  77 116 155 193 233 278 333
#     4  11  23  41  62  83 112 156 201 236 280 345
#     4  12  24  39  60  88 119 148 189 243 293 339
#     4  10  20  36  61  90 115 141 185 241 289 334
#     4   9  17  32  58  87 116 149 188 231 279 339
#     4   8  14  29  56  88 114 142 185 232 274 329
#     4  10  19  35  60  87 115 147 187 232 282 335
#     4  12  26  42  59  80 115 158 197 234 285 352
#
# _framework density 18.060822999999999
#
# number of rings (size 3 to 8) (size 9 to 14) (size 15 to 20)
#    0.000    1.833    1.667    4.750    0.000    4.667 
#    0.000    1.667    0.000    3.000    0.000    0.000 
#    0.000    0.000    0.000    0.000    0.000    0.000 
#
# Total GULP energy -134046.157248 kJ/mol
# GULP energy per Si atom -5585.256552 kJ/mol
# Density = 1.801972 g / cm^3
# Si number density = 18.060823 Si / 1000 Ang^3
#
#
#
# Elastic Constant Matrix: (Units=GPa)
#
#
# Indices 1 2 3 4 5 6 
#
# 1 149.7355 49.7195 98.7868 0.0000 0.0000 0.0000
# 2 49.7195 58.6542 59.7908 0.0000 0.0000 0.0000
# 3 98.7868 59.7908 196.5880 0.0000 0.0000 0.0000
# 4 0.0000 0.0000 0.0000 29.4111 0.0000 0.0000
# 5 0.0000 0.0000 0.0000 0.0000 23.1041 0.0000
# 6 0.0000 0.0000 0.0000 0.0000 0.0000 17.1688
#
#
#
# Elastic Compliance Matrix: (Units=1/GPa)
#
#
# Indices 1 2 3 4 5 6 
#
# 1 0.011046 -0.005370 -0.003917 0.000000 0.000000 0.000000
# 2 -0.005370 0.027321 -0.005611 0.000000 0.000000 0.000000
# 3 -0.003917 -0.005611 0.008762 0.000000 0.000000 0.000000
# 4 0.000000 0.000000 0.000000 0.034001 0.000000 0.000000
# 5 0.000000 0.000000 0.000000 0.000000 0.043282 0.000000
# 6 0.000000 0.000000 0.000000 0.000000 0.000000 0.058245
#
#
# Mechanical properties :
#
#
# Convention : Reuss Voigt Hill
#
# Bulk Modulus (GPa) = 57.69737 91.28577 74.49157
# Shear Modulus (GPa) = 22.91148 27.04884 24.98016
#
# Velocity S-wave (km/s) = 3.56557 3.87415 3.72306
# Velocity P-wave (km/s) = 6.99761 8.40627 7.73407
#
# Compressibility (1/GPa) = 0.01733181
#
# Stress axis : x y z
#
# Youngs Moduli (GPa) = 90.52979 36.60212 114.13117
#
# Poissons Ratio (x) = 0.19656 0.44710
# Poissons Ratio (y) = 0.48615 0.64038
# Poissons Ratio (z) = 0.35465 0.20537
#
# Static dielectric constant tensor:
#      x y z
#    x 1.577360 0.000000 0.000000 
#    y 0.000000 1.611350 0.000000 
#    z 0.000000 0.000000 1.626790 
# 
# From -- ./inp_files/26997.got.cif
#   From: 2010.05.17/outbox.cif.g08.bks.cpg/sg44_14_cif.got.tgz:26997.got - 2010.06.03 19:37:08.
