data_PCOD9374553
_publ_section_title
;
Structure prediction by ZEFSAII (Michael W. Deem and Ramdas Pophale) SiO2 
 PCOD9374553
Probable space group: I M M 2
;
_chemical_formula_sum "Si O2"
_cell_formula_units_Z 64
_cell_length_a 17.767854
_cell_length_b 8.515642
_cell_length_c 19.472353
_cell_angle_alpha 90.000000
_cell_angle_beta 90.000000
_cell_angle_gamma 90.000000
_cell_volume 2946.258213
_symmetry_space_group_name_H-M "I M M 2"
_symmetry_group_IT_number 44
_symmetry_cell_setting 'orthorhombic'
loop_
_space_group_symop_operation_xyz
x,y,z
-x,-y,z
-x,y,z
x,-y,z
1/2+x,1/2+y,1/2+z
1/2-x,1/2-y,1/2+z
1/2-x,1/2+y,1/2+z
1/2+x,1/2-y,1/2+z
loop_
_atom_site_type_symbol
_atom_site_label
_atom_site_fract_x
_atom_site_fract_y
_atom_site_fract_z
Si Si1 0.914530 0.689376 0.508680
Si Si2 0.807054 0.309078 0.783272
Si Si3 0.911487 0.324664 0.258254
Si Si4 0.085867 0.691540 0.900203
Si Si5 0.310733 0.811377 0.126299
Si Si6 0.910714 0.828532 0.124038
Si Si7 0.184065 0.677343 0.025281
Si Si8 0.166525 0.186911 0.378885
O O1 0.914986 0.500000 0.503909
O O2 0.886465 0.733484 0.584972
O O3 0.852472 0.748931 0.454025
O O4 0.000000 0.744929 0.494703
O O5 0.803144 0.500000 0.780751
O O6 0.883153 0.268554 0.824661
O O7 0.804246 0.251233 0.704602
O O8 0.738584 0.259312 0.833668
O O9 0.879056 0.500000 0.254772
O O10 0.879930 0.210873 0.199552
O O11 0.900839 0.248741 0.331750
O O12 0.000000 0.337712 0.244998
O O13 0.085313 0.500000 0.905973
O O14 0.149609 0.745942 0.954916
O O15 0.000000 0.745451 0.913032
O O16 0.309115 0.000000 0.130306
O O17 0.244892 0.759009 0.074205
O O18 0.000000 0.838673 0.126610
O O19 0.882751 0.000000 0.100788
O O20 0.888499 0.688674 0.074410
O O21 0.209077 0.500000 0.011608
O O22 0.169324 0.000000 0.382403
#
# Coordination Sequence:
#
# PCOD9374553 Si02
#       8
#     8   8   8   8   8   8   8   8
#     4  10  22  39  58  83 115 150 191 240 292 348
#     4   9  19  35  55  81 111 142 182 233 283 335
#     4  10  20  33  50  75 109 148 191 239 287 337
#     4   9  18  33  55  83 112 142 180 230 285 336
#     4  10  21  38  60  84 112 149 191 238 294 350
#     4  10  20  33  50  75 110 152 195 236 281 339
#     4  11  21  34  55  83 115 148 185 232 287 347
#     4  11  21  34  55  82 114 150 187 230 283 344
#
# _framework density 21.722467000000002
#
# number of rings (size 3 to 8) (size 9 to 14) (size 15 to 20)
#    0.000    2.000    0.000    3.750    0.000    6.750 
#    0.000    3.125    0.000    1.500    0.000    0.000 
#    0.000    0.000    0.000    0.000    0.000    0.000 
#
# Total GULP energy -178390.050522 kJ/mol
# GULP energy per Si atom -5574.689079 kJ/mol
# Density = 2.167303 g / cm^3
# Si number density = 21.722467 Si / 1000 Ang^3
#
#
#
# Elastic Constant Matrix: (Units=GPa)
#
#
# Indices 1 2 3 4 5 6 
#
# 1 60.3557 11.3941 54.3799 0.0000 0.0000 0.0000
# 2 11.3941 26.7363 17.1687 0.0000 0.0000 0.0000
# 3 54.3799 17.1687 148.8095 0.0000 0.0000 0.0000
# 4 0.0000 0.0000 0.0000 19.3146 0.0000 0.0000
# 5 0.0000 0.0000 0.0000 0.0000 -185.2100 0.0000
# 6 0.0000 0.0000 0.0000 0.0000 0.0000 17.7468
#
#
#
# Elastic Compliance Matrix: (Units=1/GPa)
#
#
# Indices 1 2 3 4 5 6 
#
# 1 0.025365 -0.005246 -0.008664 0.000000 0.000000 0.000000
# 2 -0.005246 0.041480 -0.002869 0.000000 0.000000 0.000000
# 3 -0.008664 -0.002869 0.010217 0.000000 0.000000 0.000000
# 4 0.000000 0.000000 0.000000 0.051774 0.000000 0.000000
# 5 0.000000 0.000000 0.000000 0.000000 -0.005399 0.000000
# 6 0.000000 0.000000 0.000000 0.000000 0.000000 0.056348
#
#
# Mechanical properties :
#
#
# Convention : Reuss Voigt Hill
#
# Bulk Modulus (GPa) = 22.98596 44.64297 33.81447
# Shear Modulus (GPa) = 21.94483 -19.43246 1.25619
#
# Velocity S-wave (km/s) = 3.18187 -2.99420 0.76128
# Velocity P-wave (km/s) = 4.90955 2.93982 4.04637
#
# Compressibility (1/GPa) = 0.04350482
#
# Stress axis : x y z
#
# Youngs Moduli (GPa) = 39.42458 24.10793 97.87574
#
# Poissons Ratio (x) = 0.12647 0.84799
# Poissons Ratio (y) = 0.20683 0.28077
# Poissons Ratio (z) = 0.34157 0.06916
#
# Static dielectric constant tensor:
#      x y z
#    x 2.272230 0.000000 0.000000 
#    y 0.000000 1.804070 0.000000 
#    z 0.000000 0.000000 1.814120 
# 
# From -- ./inp_files/22280.got.cif
#   From: 2010.05.17/outbox.cif.g08.bks.cpg/sg44_12_cif.got.tgz:22280.got - 2010.06.03 19:37:08.
