data_PCOD9374970
_publ_section_title
;
Structure prediction by ZEFSAII (Michael W. Deem and Ramdas Pophale) SiO2 
 PCOD9374970
Probable space group: I M M 2
;
_chemical_formula_sum "Si O2"
_cell_formula_units_Z 40
_cell_length_a 7.409115
_cell_length_b 8.184511
_cell_length_c 29.805951
_cell_angle_alpha 90.000000
_cell_angle_beta 90.000000
_cell_angle_gamma 90.000000
_cell_volume 1807.432368
_symmetry_space_group_name_H-M "I M M 2"
_symmetry_group_IT_number 44
_symmetry_cell_setting 'orthorhombic'
loop_
_space_group_symop_operation_xyz
x,y,z
-x,-y,z
-x,y,z
x,-y,z
1/2+x,1/2+y,1/2+z
1/2-x,1/2-y,1/2+z
1/2-x,1/2+y,1/2+z
1/2+x,1/2-y,1/2+z
loop_
_atom_site_type_symbol
_atom_site_label
_atom_site_fract_x
_atom_site_fract_y
_atom_site_fract_z
Si Si1 0.778574 0.500000 0.800630
Si Si2 0.211581 0.500000 0.902003
Si Si3 0.779910 0.820196 0.745800
Si Si4 0.715660 0.177627 0.960111
Si Si5 0.719838 0.187721 0.151127
Si Si6 0.720191 0.688495 0.054157
O O1 0.712125 0.500000 0.851768
O O2 0.721836 0.664997 0.775040
O O3 0.000000 0.500000 0.799564
O O4 0.251991 0.664505 0.929523
O O5 0.000000 0.500000 0.895665
O O6 0.724097 0.791644 0.694169
O O7 0.000000 0.818803 0.746362
O O8 0.722356 0.000000 0.761488
O O9 0.500000 0.167449 0.963211
O O10 0.781974 0.000000 0.943815
O O11 0.782194 0.212336 0.010680
O O12 0.500000 0.193041 0.150328
O O13 0.781227 0.248226 0.102521
O O14 0.771993 0.000000 0.158143
O O15 0.500000 0.695717 0.054624
O O16 0.770788 0.500000 0.048243
#
# Coordination Sequence:
#
# PCOD9374970 Si02
#       6
#     4   4   8   8   8   8
#     4   9  18  31  43  61  91 133 173 209 256 309
#     4  11  23  37  55  77 107 145 187 229 270 317
#     4   9  15  24  38  56  85 126 165 200 246 308
#     4  10  20  36  57  79 107 142 179 224 276 324
#     4   9  14  20  33  58  92 126 160 198 245 309
#     4   9  15  24  41  67  98 131 166 205 255 314
#
# _framework density 22.130842000000001
#
# number of rings (size 3 to 8) (size 9 to 14) (size 15 to 20)
#    0.000    2.600    2.000    1.500    0.000    6.000 
#    0.000    2.000    0.000    0.000    0.000    0.000 
#    0.000    3.200    1.200    0.000    0.800    0.800 
#
# Total GULP energy -111689.875096 kJ/mol
# GULP energy per Si atom -5584.493755 kJ/mol
# Density = 2.208047 g / cm^3
# Si number density = 22.130842 Si / 1000 Ang^3
#
#
#
# Elastic Constant Matrix: (Units=GPa)
#
#
# Indices 1 2 3 4 5 6 
#
# 1 71.8886 6.0973 4.8391 0.0000 0.0000 0.0000
# 2 6.0973 222.4658 105.4600 0.0000 0.0000 0.0000
# 3 4.8391 105.4600 169.5662 0.0000 0.0000 0.0000
# 4 0.0000 0.0000 0.0000 29.4727 0.0000 0.0000
# 5 0.0000 0.0000 0.0000 0.0000 -8.5282 0.0000
# 6 0.0000 0.0000 0.0000 0.0000 0.0000 -20.3267
#
#
#
# Elastic Compliance Matrix: (Units=1/GPa)
#
#
# Indices 1 2 3 4 5 6 
#
# 1 0.013949 -0.000275 -0.000227 0.000000 0.000000 0.000000
# 2 -0.000275 0.006380 -0.003960 0.000000 0.000000 0.000000
# 3 -0.000227 -0.003960 0.008367 0.000000 0.000000 0.000000
# 4 0.000000 0.000000 0.000000 0.033930 0.000000 0.000000
# 5 0.000000 0.000000 0.000000 0.000000 -0.117258 0.000000
# 6 0.000000 0.000000 0.000000 0.000000 0.000000 -0.049196
#
#
# Mechanical properties :
#
#
# Convention : Reuss Voigt Hill
#
# Bulk Modulus (GPa) = 50.57710 77.41263 63.99486
# Shear Modulus (GPa) = -56.61574 23.29185 -16.66194
#
# Velocity S-wave (km/s) = -5.06338 3.24769 -2.74685
# Velocity P-wave (km/s) = 3.35864 7.00848 4.34961
#
# Compressibility (1/GPa) = 0.01977179
#
# Stress axis : x y z
#
# Youngs Moduli (GPa) = 71.68977 156.74320 119.51995
#
# Poissons Ratio (x) = 0.04303 0.02717
# Poissons Ratio (y) = 0.01968 0.47331
# Poissons Ratio (z) = 0.01630 0.62071
#
# Static dielectric constant tensor:
#      x y z
#    x 1.964140 0.000000 0.000000 
#    y 0.000000 1.768890 0.000000 
#    z 0.000000 0.000000 1.792010 
# 
# From -- ./inp_files/25954.got.cif
#   From: 2010.05.17/outbox.cif.g08.bks.cpg/sg44_13_cif.got.tgz:25954.got - 2010.06.03 19:37:08.
