data_PCOD9374653
_publ_section_title
;
Structure prediction by ZEFSAII (Michael W. Deem and Ramdas Pophale) SiO2 
 PCOD9374653
Probable space group: I M M 2
;
_chemical_formula_sum "Si O2"
_cell_formula_units_Z 64
_cell_length_a 20.182307
_cell_length_b 7.619057
_cell_length_c 21.596160
_cell_angle_alpha 90.000000
_cell_angle_beta 90.000000
_cell_angle_gamma 90.000000
_cell_volume 3320.844707
_symmetry_space_group_name_H-M "I M M 2"
_symmetry_group_IT_number 44
_symmetry_cell_setting 'orthorhombic'
loop_
_space_group_symop_operation_xyz
x,y,z
-x,-y,z
-x,y,z
x,-y,z
1/2+x,1/2+y,1/2+z
1/2-x,1/2-y,1/2+z
1/2-x,1/2+y,1/2+z
1/2+x,1/2-y,1/2+z
loop_
_atom_site_type_symbol
_atom_site_label
_atom_site_fract_x
_atom_site_fract_y
_atom_site_fract_z
Si Si1 0.712305 0.704755 0.496430
Si Si2 0.072629 0.709795 0.410620
Si Si3 0.207080 0.206890 0.615744
Si Si4 0.074113 0.711764 0.943213
Si Si5 0.926960 0.211745 0.556301
Si Si6 0.925470 0.287677 0.799759
Si Si7 0.214571 0.284030 0.372130
Si Si8 0.213732 0.204403 0.749279
O O1 0.728201 0.500000 0.499018
O O2 0.741344 0.779495 0.559702
O O3 0.634235 0.727371 0.485504
O O4 0.748310 0.776524 0.434661
O O5 0.070856 0.500000 0.402302
O O6 0.081362 0.743852 0.483846
O O7 0.138182 0.772979 0.376043
O O8 0.000000 0.780370 0.392760
O O9 0.136279 0.280813 0.593324
O O10 0.229521 0.281326 0.681867
O O11 0.195970 0.000000 0.626476
O O12 0.074460 0.500000 0.943195
O O13 0.085085 0.767233 0.871603
O O14 0.000000 0.769411 0.961315
O O15 0.000000 0.275056 0.576120
O O16 0.927191 0.000000 0.560595
O O17 0.923389 0.500000 0.798163
O O18 0.865254 0.217490 0.759568
O O19 0.000000 0.233434 0.781475
O O20 0.216919 0.500000 0.373040
O O21 0.251252 0.220251 0.310380
O O22 0.233400 0.000000 0.749067
#
# Coordination Sequence:
#
# PCOD9374653 Si02
#       8
#     8   8   8   8   8   8   8   8
#     4  11  20  32  53  77 102 131 169 216 256 297
#     4   9  16  28  48  71  94 121 154 196 247 295
#     4  10  21  34  49  70 100 138 172 205 253 306
#     4   9  18  33  53  77 105 134 166 207 255 308
#     4   9  17  29  44  65  94 125 160 198 235 286
#     4   9  18  32  49  72 103 135 167 206 251 302
#     4   9  17  30  48  73  98 123 162 211 254 289
#     4  10  20  34  50  70 100 136 172 212 252 298
#
# _framework density 19.272203999999999
#
# number of rings (size 3 to 8) (size 9 to 14) (size 15 to 20)
#    0.000    2.500    2.500    1.125    0.000    1.500 
#    0.000    3.125    0.000    2.250    0.000    3.500 
#    0.000    0.000    0.000    0.000    0.000    0.000 
#
# Total GULP energy -178498.332654 kJ/mol
# GULP energy per Si atom -5578.072895 kJ/mol
# Density = 1.922834 g / cm^3
# Si number density = 19.272204 Si / 1000 Ang^3
#
#
#
# Elastic Constant Matrix: (Units=GPa)
#
#
# Indices 1 2 3 4 5 6 
#
# 1 115.0815 -4.8176 71.9747 0.0000 0.0000 0.0000
# 2 -4.8176 35.7044 -0.6776 0.0000 0.0000 0.0000
# 3 71.9747 -0.6776 126.8403 0.0000 0.0000 0.0000
# 4 0.0000 0.0000 0.0000 0.8725 0.0000 0.0000
# 5 0.0000 0.0000 0.0000 0.0000 17.3875 0.0000
# 6 0.0000 0.0000 0.0000 0.0000 0.0000 10.9860
#
#
#
# Elastic Compliance Matrix: (Units=1/GPa)
#
#
# Indices 1 2 3 4 5 6 
#
# 1 0.013570 0.001685 -0.007691 0.000000 0.000000 0.000000
# 2 0.001685 0.028220 -0.000805 0.000000 0.000000 0.000000
# 3 -0.007691 -0.000805 0.012244 0.000000 0.000000 0.000000
# 4 0.000000 0.000000 0.000000 1.146102 0.000000 0.000000
# 5 0.000000 0.000000 0.000000 0.000000 0.057513 0.000000
# 6 0.000000 0.000000 0.000000 0.000000 0.000000 0.091025
#
#
# Mechanical properties :
#
#
# Convention : Reuss Voigt Hill
#
# Bulk Modulus (GPa) = 24.74588 45.62059 35.18323
# Shear Modulus (GPa) = 3.63433 19.92564 11.77999
#
# Velocity S-wave (km/s) = 1.37473 3.21893 2.47501
# Velocity P-wave (km/s) = 3.92274 6.12686 5.14424
#
# Compressibility (1/GPa) = 0.04041077
#
# Stress axis : x y z
#
# Youngs Moduli (GPa) = 73.68950 35.43605 81.67202
#
# Poissons Ratio (x) = -0.05971 0.62818
# Poissons Ratio (y) = -0.12417 0.06578
# Poissons Ratio (z) = 0.56678 0.02854
#
# Static dielectric constant tensor:
#      x y z
#    x 1.688100 0.000000 0.000000 
#    y 0.000000 1.718370 0.000000 
#    z 0.000000 0.000000 1.667210 
# 
# From -- ./inp_files/20733.got.cif
#   From: 2010.05.17/outbox.cif.g08.bks.cpg/sg44_11_cif.got.tgz:20733.got - 2010.06.03 19:37:08.
