data_PCOD9374176
_publ_section_title
;
Structure prediction by ZEFSAII (Michael W. Deem and Ramdas Pophale) SiO2 
 PCOD9374176
Probable space group: I M M 2
;
_chemical_formula_sum "Si O2"
_cell_formula_units_Z 64
_cell_length_a 29.229559
_cell_length_b 8.319881
_cell_length_c 12.898799
_cell_angle_alpha 90.000000
_cell_angle_beta 90.000000
_cell_angle_gamma 90.000000
_cell_volume 3136.813171
_symmetry_space_group_name_H-M "I M M 2"
_symmetry_group_IT_number 44
_symmetry_cell_setting 'orthorhombic'
loop_
_space_group_symop_operation_xyz
x,y,z
-x,-y,z
-x,y,z
x,-y,z
1/2+x,1/2+y,1/2+z
1/2-x,1/2-y,1/2+z
1/2-x,1/2+y,1/2+z
1/2+x,1/2-y,1/2+z
loop_
_atom_site_type_symbol
_atom_site_label
_atom_site_fract_x
_atom_site_fract_y
_atom_site_fract_z
Si Si1 0.948307 0.306733 0.561740
Si Si2 0.693866 0.812319 0.325145
Si Si3 0.930248 0.182837 0.003311
Si Si4 0.118871 0.187466 0.383622
Si Si5 0.449400 0.187310 0.721301
Si Si6 0.321725 0.315347 0.541664
Si Si7 0.293107 0.302602 0.770362
Si Si8 0.908964 0.694848 0.783231
O O1 0.950380 0.500000 0.564720
O O2 0.910716 0.262982 0.475768
O O3 0.932080 0.252680 0.676078
O O4 0.000000 0.247662 0.538696
O O5 0.696978 0.791402 0.448776
O O6 0.741308 0.743281 0.282971
O O7 0.644210 0.746932 0.290083
O O8 0.693092 0.000000 0.297160
O O9 0.934897 0.247255 0.886708
O O10 0.946751 0.000000 0.010488
O O11 0.949531 0.284941 0.098176
O O12 0.876024 0.183090 0.025914
O O13 0.088836 0.210543 0.279332
O O14 0.169499 0.252093 0.355324
O O15 0.123388 0.000000 0.407022
O O16 0.500000 0.228904 0.761575
O O17 0.440774 0.000000 0.743604
O O18 0.305304 0.500000 0.529952
O O19 0.310106 0.257940 0.656106
O O20 0.293122 0.500000 0.775213
O O21 0.908400 0.500000 0.786335
#
# Coordination Sequence:
#
# PCOD9374176 Si02
#       8
#     8   8   8   8   8   8   8   8
#     4  10  22  40  59  81 114 154 194 240 292 344
#     4   9  18  33  54  80 108 144 189 233 278 332
#     4  10  19  34  57  83 110 143 182 228 281 335
#     4  11  22  38  58  81 110 147 190 236 289 343
#     4  11  23  37  55  81 112 144 180 226 281 340
#     4   9  17  33  53  74 107 145 177 220 279 332
#     4   9  18  34  54  77 109 147 182 228 287 338
#     4   9  19  36  57  81 112 152 193 233 282 339
#
# _framework density 20.402871999999999
#
# number of rings (size 3 to 8) (size 9 to 14) (size 15 to 20)
#    0.000    2.250    1.250    1.500    0.000    5.250 
#    0.000    4.375    0.000    0.000    0.000    0.000 
#    0.000    0.000    0.000    0.000    0.000    0.000 
#
# Total GULP energy -178490.201701 kJ/mol
# GULP energy per Si atom -5577.818803 kJ/mol
# Density = 2.035643 g / cm^3
# Si number density = 20.402872 Si / 1000 Ang^3
#
#
#
# Elastic Constant Matrix: (Units=GPa)
#
#
# Indices 1 2 3 4 5 6 
#
# 1 60.9227 4.3138 13.7699 0.0000 0.0000 0.0000
# 2 4.3138 7.6069 -6.1029 0.0000 0.0000 0.0000
# 3 13.7699 -6.1029 88.9869 0.0000 0.0000 0.0000
# 4 0.0000 0.0000 0.0000 27.0693 0.0000 0.0000
# 5 0.0000 0.0000 0.0000 0.0000 11.6043 0.0000
# 6 0.0000 0.0000 0.0000 0.0000 0.0000 12.2276
#
#
#
# Elastic Compliance Matrix: (Units=1/GPa)
#
#
# Indices 1 2 3 4 5 6 
#
# 1 0.018200 -0.013313 -0.003729 0.000000 0.000000 0.000000
# 2 -0.013313 0.148851 0.012268 0.000000 0.000000 0.000000
# 3 -0.003729 0.012268 0.012656 0.000000 0.000000 0.000000
# 4 0.000000 0.000000 0.000000 0.036942 0.000000 0.000000
# 5 0.000000 0.000000 0.000000 0.000000 0.086175 0.000000
# 6 0.000000 0.000000 0.000000 0.000000 0.000000 0.081782
#
#
# Mechanical properties :
#
#
# Convention : Reuss Voigt Hill
#
# Bulk Modulus (GPa) = 5.87683 20.16425 13.02054
# Shear Modulus (GPa) = 11.08957 19.88262 15.48610
#
# Velocity S-wave (km/s) = 2.33390 3.12509 2.75801
# Velocity P-wave (km/s) = 3.18582 4.78812 4.06666
#
# Compressibility (1/GPa) = 0.17015980
#
# Stress axis : x y z
#
# Youngs Moduli (GPa) = 54.94569 6.71812 79.01355
#
# Poissons Ratio (x) = 0.08944 0.29466
# Poissons Ratio (y) = 0.73148 -0.96937
# Poissons Ratio (z) = 0.20491 -0.08242
#
# Static dielectric constant tensor:
#      x y z
#    x 1.755820 0.000000 0.000000 
#    y 0.000000 1.721660 0.000000 
#    z 0.000000 0.000000 1.707090 
# 
# From -- ./inp_files/11527.got.cif
#   From: 2010.05.17/outbox.cif.g08.bks.cpg/sg44_6_cif.got.tgz:11527.got - 2010.06.03 19:37:08.
