data_PCOD9374089
_publ_section_title
;
Structure prediction by ZEFSAII (Michael W. Deem and Ramdas Pophale) SiO2 
 PCOD9374089
Probable space group: I M M 2
;
_chemical_formula_sum "Si O2"
_cell_formula_units_Z 56
_cell_length_a 22.748022
_cell_length_b 8.761992
_cell_length_c 14.878352
_cell_angle_alpha 90.000000
_cell_angle_beta 90.000000
_cell_angle_gamma 90.000000
_cell_volume 2965.523167
_symmetry_space_group_name_H-M "I M M 2"
_symmetry_group_IT_number 44
_symmetry_cell_setting 'orthorhombic'
loop_
_space_group_symop_operation_xyz
x,y,z
-x,-y,z
-x,y,z
x,-y,z
1/2+x,1/2+y,1/2+z
1/2-x,1/2-y,1/2+z
1/2-x,1/2+y,1/2+z
1/2+x,1/2-y,1/2+z
loop_
_atom_site_type_symbol
_atom_site_label
_atom_site_fract_x
_atom_site_fract_y
_atom_site_fract_z
Si Si1 0.216774 0.317091 0.414300
Si Si2 0.645309 0.317541 0.425792
Si Si3 0.114961 0.317616 0.108024
Si Si4 0.000000 0.313913 0.218775
Si Si5 0.350096 0.317395 0.222776
Si Si6 0.111449 0.683736 0.543971
Si Si7 0.500000 0.814113 0.925111
Si Si8 0.719857 0.681306 0.721863
O O1 0.212048 0.500000 0.398745
O O2 0.284771 0.284229 0.435930
O O3 0.172202 0.275993 0.493400
O O4 0.200925 0.233126 0.321901
O O5 0.637954 0.500000 0.435057
O O6 0.611310 0.233790 0.504805
O O7 0.629927 0.273057 0.323476
O O8 0.119245 0.500000 0.113537
O O9 0.173096 0.245196 0.151500
O O10 0.058413 0.266951 0.165497
O O11 0.000000 0.500000 0.220308
O O12 0.000000 0.261083 0.322067
O O13 0.346178 0.500000 0.221061
O O14 0.389625 0.257304 0.141893
O O15 0.284738 0.250372 0.208717
O O16 0.109866 0.500000 0.553146
O O17 0.057835 0.731539 0.480126
O O18 0.500000 0.000000 0.922140
O O19 0.723156 0.500000 0.714776
#
# Coordination Sequence:
#
# PCOD9374089 Si02
#       8
#     8   8   8   4   8   8   4   8
#     4   9  18  33  53  78 110 146 181 219 267 322
#     4   9  19  35  53  77 108 140 177 223 273 322
#     4  11  21  35  57  81 107 142 183 225 268 316
#     4   9  20  38  58  81 108 140 179 219 262 315
#     4  10  21  37  56  78 108 144 181 223 270 322
#     4  10  19  33  56  82 109 144 184 225 268 316
#     4   9  18  34  56  81 110 144 179 217 264 317
#     4  11  21  33  53  82 114 144 177 220 270 325
#
# _framework density 18.883683999999999
#
# number of rings (size 3 to 8) (size 9 to 14) (size 15 to 20)
#    0.000    2.143    0.000    4.714    0.000    6.857 
#    0.000    2.500    0.000    6.000    0.000    0.000 
#    0.000    0.000    0.000    0.000    0.000    0.000 
#
# Total GULP energy -156373.591727 kJ/mol
# GULP energy per Si atom -5584.771133 kJ/mol
# Density = 1.884070 g / cm^3
# Si number density = 18.883684 Si / 1000 Ang^3
#
#
#
# Elastic Constant Matrix: (Units=GPa)
#
#
# Indices 1 2 3 4 5 6 
#
# 1 45.5384 19.4481 68.3032 0.0000 0.0000 0.0000
# 2 19.4481 35.6572 46.0844 0.0000 0.0000 0.0000
# 3 68.3032 46.0844 181.6379 0.0000 0.0000 0.0000
# 4 0.0000 0.0000 0.0000 35.7570 0.0000 0.0000
# 5 0.0000 0.0000 0.0000 0.0000 30.9731 0.0000
# 6 0.0000 0.0000 0.0000 0.0000 0.0000 10.7655
#
#
#
# Elastic Compliance Matrix: (Units=1/GPa)
#
#
# Indices 1 2 3 4 5 6 
#
# 1 0.050848 -0.004495 -0.017981 0.000000 0.000000 0.000000
# 2 -0.004495 0.042125 -0.008998 0.000000 0.000000 0.000000
# 3 -0.017981 -0.008998 0.014550 0.000000 0.000000 0.000000
# 4 0.000000 0.000000 0.000000 0.027967 0.000000 0.000000
# 5 0.000000 0.000000 0.000000 0.000000 0.032286 0.000000
# 6 0.000000 0.000000 0.000000 0.000000 0.000000 0.092889
#
#
# Mechanical properties :
#
#
# Convention : Reuss Voigt Hill
#
# Bulk Modulus (GPa) = 22.43309 58.94498 40.68904
# Shear Modulus (GPa) = 14.77235 24.09896 19.43566
#
# Velocity S-wave (km/s) = 2.79996 3.57624 3.21164
# Velocity P-wave (km/s) = 4.72847 6.95235 5.94532
#
# Compressibility (1/GPa) = 0.04457700
#
# Stress axis : x y z
#
# Youngs Moduli (GPa) = 19.66636 23.73880 68.72992
#
# Poissons Ratio (x) = 0.10670 1.23580
# Poissons Ratio (y) = 0.08840 0.61840
# Poissons Ratio (z) = 0.35361 0.21359
#
# Static dielectric constant tensor:
#      x y z
#    x 1.638250 0.000000 0.000000 
#    y 0.000000 1.636430 0.000000 
#    z 0.000000 0.000000 1.663480 
# 
# From -- ./inp_files/19226.got.cif
#   From: 2010.05.17/outbox.cif.g08.bks.cpg/sg44_10_cif.got.tgz:19226.got - 2010.06.03 19:37:08.
