data_PCOD9374512
_publ_section_title
;
Structure prediction by ZEFSAII (Michael W. Deem and Ramdas Pophale) SiO2 
 PCOD9374512
Probable space group: I M M 2
;
_chemical_formula_sum "Si O2"
_cell_formula_units_Z 64
_cell_length_a 18.859838
_cell_length_b 8.959560
_cell_length_c 21.554289
_cell_angle_alpha 90.000000
_cell_angle_beta 90.000000
_cell_angle_gamma 90.000000
_cell_volume 3642.154308
_symmetry_space_group_name_H-M "I M M 2"
_symmetry_group_IT_number 44
_symmetry_cell_setting 'orthorhombic'
loop_
_space_group_symop_operation_xyz
x,y,z
-x,-y,z
-x,y,z
x,-y,z
1/2+x,1/2+y,1/2+z
1/2-x,1/2-y,1/2+z
1/2-x,1/2+y,1/2+z
1/2+x,1/2-y,1/2+z
loop_
_atom_site_type_symbol
_atom_site_label
_atom_site_fract_x
_atom_site_fract_y
_atom_site_fract_z
Si Si1 0.583891 0.678189 0.807500
Si Si2 0.166508 0.680825 0.192594
Si Si3 0.083496 0.179644 0.565414
Si Si4 0.913816 0.328214 0.436501
Si Si5 0.582143 0.682357 0.306932
Si Si6 0.417826 0.179263 0.569946
Si Si7 0.913677 0.172875 0.942926
Si Si8 0.830611 0.818163 0.687088
O O1 0.500000 0.714584 0.799750
O O2 0.590803 0.500000 0.807127
O O3 0.627658 0.750420 0.751818
O O4 0.607603 0.742212 0.874192
O O5 0.162766 0.500000 0.196823
O O6 0.127008 0.727300 0.129367
O O7 0.248666 0.725288 0.189082
O O8 0.108149 0.252049 0.500910
O O9 0.128936 0.229325 0.624673
O O10 0.000000 0.215100 0.575125
O O11 0.088549 0.000000 0.559997
O O12 0.891053 0.500000 0.433791
O O13 0.000000 0.324891 0.437121
O O14 0.500000 0.726684 0.298656
O O15 0.582723 0.500000 0.308433
O O16 0.608599 0.730908 0.375076
O O17 0.628618 0.732000 0.248953
O O18 0.500000 0.226792 0.577630
O O19 0.390919 0.240262 0.504137
O O20 0.416694 0.000000 0.567660
O O21 0.000000 0.177589 0.941189
O O22 0.892818 0.000000 0.948782
O O23 0.833035 0.000000 0.687068
#
# Coordination Sequence:
#
# PCOD9374512 Si02
#       8
#     8   8   8   8   8   8   8   8
#     4  10  20  34  53  75  96 121 158 203 247 292
#     4  10  20  33  48  68  97 130 161 195 238 288
#     4   9  16  28  49  75 100 128 165 206 243 281
#     4   9  17  30  50  75 100 125 156 198 247 295
#     4   8  13  24  45  72  97 120 152 195 237 275
#     4   9  17  29  45  64  87 117 151 185 225 276
#     4   8  14  25  44  69  91 111 143 190 234 268
#     4   9  17  29  46  69  98 131 164 197 235 282
#
# _framework density 17.572016999999999
#
# number of rings (size 3 to 8) (size 9 to 14) (size 15 to 20)
#    0.000    3.000    0.000    2.250    0.000    4.750 
#    0.000    3.125    0.000    4.500    0.000    3.500 
#    0.000    0.000    0.000    0.000    0.000    0.000 
#
# Total GULP energy -178310.805437 kJ/mol
# GULP energy per Si atom -5572.212670 kJ/mol
# Density = 1.753202 g / cm^3
# Si number density = 17.572017 Si / 1000 Ang^3
#
#
#
# Elastic Constant Matrix: (Units=GPa)
#
#
# Indices 1 2 3 4 5 6 
#
# 1 76.2832 28.6547 90.7440 0.0000 0.0000 0.0000
# 2 28.6547 21.1977 46.5675 0.0000 0.0000 0.0000
# 3 90.7440 46.5675 225.3888 0.0000 0.0000 0.0000
# 4 0.0000 0.0000 0.0000 20.2660 0.0000 0.0000
# 5 0.0000 0.0000 0.0000 0.0000 -3.2847 0.0000
# 6 0.0000 0.0000 0.0000 0.0000 0.0000 10.8847
#
#
#
# Elastic Compliance Matrix: (Units=1/GPa)
#
#
# Indices 1 2 3 4 5 6 
#
# 1 0.031978 -0.027364 -0.007221 0.000000 0.000000 0.000000
# 2 -0.027364 0.109798 -0.011668 0.000000 0.000000 0.000000
# 3 -0.007221 -0.011668 0.009755 0.000000 0.000000 0.000000
# 4 0.000000 0.000000 0.000000 0.049344 0.000000 0.000000
# 5 0.000000 0.000000 0.000000 0.000000 -0.304446 0.000000
# 6 0.000000 0.000000 0.000000 0.000000 0.000000 0.091872
#
#
# Mechanical properties :
#
#
# Convention : Reuss Voigt Hill
#
# Bulk Modulus (GPa) = 16.94217 72.75578 44.84897
# Shear Modulus (GPa) = 49.76071 16.03345 32.89708
#
# Velocity S-wave (km/s) = 5.32725 3.02394 4.33150
# Velocity P-wave (km/s) = 6.89217 7.32711 7.11296
#
# Compressibility (1/GPa) = 0.05902433
#
# Stress axis : x y z
#
# Youngs Moduli (GPa) = 31.27184 9.10764 102.51366
#
# Poissons Ratio (x) = 0.24922 0.74025
# Poissons Ratio (y) = 0.85572 1.19617
# Poissons Ratio (z) = 0.22581 0.10627
#
# Static dielectric constant tensor:
#      x y z
#    x 1.582280 0.000000 0.000000 
#    y 0.000000 1.593450 0.000000 
#    z 0.000000 0.000000 1.596210 
# 
# From -- ./inp_files/24475.got.cif
#   From: 2010.05.17/outbox.cif.g08.bks.cpg/sg44_13_cif.got.tgz:24475.got - 2010.06.03 19:37:08.
