data_PCOD9374989
_publ_section_title
;
Structure prediction by ZEFSAII (Michael W. Deem and Ramdas Pophale) SiO2 
 PCOD9374989
Probable space group: I M M 2
;
_chemical_formula_sum "Si O2"
_cell_formula_units_Z 48
_cell_length_a 7.472053
_cell_length_b 19.042361
_cell_length_c 15.036542
_cell_angle_alpha 90.000000
_cell_angle_beta 90.000000
_cell_angle_gamma 90.000000
_cell_volume 2139.482357
_symmetry_space_group_name_H-M "I M M 2"
_symmetry_group_IT_number 44
_symmetry_cell_setting 'orthorhombic'
loop_
_space_group_symop_operation_xyz
x,y,z
-x,-y,z
-x,y,z
x,-y,z
1/2+x,1/2+y,1/2+z
1/2-x,1/2-y,1/2+z
1/2-x,1/2+y,1/2+z
1/2+x,1/2-y,1/2+z
loop_
_atom_site_type_symbol
_atom_site_label
_atom_site_fract_x
_atom_site_fract_y
_atom_site_fract_z
Si Si1 0.793380 0.576120 0.676090
Si Si2 0.219566 0.847954 0.566897
Si Si3 0.292535 0.739370 0.905739
Si Si4 0.282246 0.500000 0.335623
Si Si5 0.218846 0.000000 0.632592
Si Si6 0.215252 0.111589 0.978456
Si Si7 0.206088 0.730332 0.706728
O O1 0.715051 0.500000 0.702952
O O2 0.788548 0.579791 0.569076
O O3 0.712267 0.651724 0.702707
O O4 0.000000 0.575862 0.706861
O O5 0.277883 0.822043 0.469497
O O6 0.276068 0.926928 0.588680
O O7 0.279186 0.791278 0.642122
O O8 0.000000 0.847285 0.567947
O O9 0.500000 0.725784 0.887589
O O10 0.206766 0.751700 0.809929
O O11 0.274130 0.809018 0.964839
O O12 0.500000 0.500000 0.333397
O O13 0.221558 0.500000 0.235014
O O14 0.227114 0.432784 0.392869
O O15 0.000000 0.000000 0.631900
O O16 0.000000 0.108779 0.984002
O O17 0.000000 0.721548 0.677392
#
# Coordination Sequence:
#
# PCOD9374989 Si02
#       7
#     8   8   8   4   4   8   8
#     4  10  20  36  58  82 114 153 189 231 288 347
#     4   9  18  34  56  78 109 145 181 228 282 339
#     4  11  22  37  55  83 113 148 193 237 284 339
#     4   9  18  30  51  84 111 134 180 235 281 336
#     4   9  16  30  52  76 103 140 182 223 275 332
#     4  11  20  33  55  84 115 147 185 233 288 344
#     4  10  20  38  59  81 110 150 192 232 283 346
#
# _framework density 22.435333
#
# number of rings (size 3 to 8) (size 9 to 14) (size 15 to 20)
#    0.000    2.000    2.500    2.000    0.000    3.333 
#    1.500    0.000    0.000    0.000    0.000    2.333 
#    0.000    0.000    0.000    0.000    0.000    0.000 
#
# Total GULP energy -134007.227950 kJ/mol
# GULP energy per Si atom -5583.634498 kJ/mol
# Density = 2.238427 g / cm^3
# Si number density = 22.435333 Si / 1000 Ang^3
#
#
#
# Elastic Constant Matrix: (Units=GPa)
#
#
# Indices 1 2 3 4 5 6 
#
# 1 70.4014 2.9786 -0.6331 0.0000 0.0000 0.0000
# 2 2.9786 143.1582 13.3568 0.0000 0.0000 0.0000
# 3 -0.6331 13.3568 52.4257 0.0000 0.0000 0.0000
# 4 0.0000 0.0000 0.0000 28.3297 0.0000 0.0000
# 5 0.0000 0.0000 0.0000 0.0000 16.8924 0.0000
# 6 0.0000 0.0000 0.0000 0.0000 0.0000 -6.1214
#
#
#
# Elastic Compliance Matrix: (Units=1/GPa)
#
#
# Indices 1 2 3 4 5 6 
#
# 1 0.014220 -0.000319 0.000253 0.000000 0.000000 0.000000
# 2 -0.000319 0.007163 -0.001829 0.000000 0.000000 0.000000
# 3 0.000253 -0.001829 0.019544 0.000000 0.000000 0.000000
# 4 0.000000 0.000000 0.000000 0.035299 0.000000 0.000000
# 5 0.000000 0.000000 0.000000 0.000000 0.059198 0.000000
# 6 0.000000 0.000000 0.000000 0.000000 0.000000 -0.163361
#
#
# Mechanical properties :
#
#
# Convention : Reuss Voigt Hill
#
# Bulk Modulus (GPa) = 26.92799 33.04332 29.98565
# Shear Modulus (GPa) = -424.83346 24.50566 -200.16390
#
# Velocity S-wave (km/s) = -13.77571 3.30855 -9.45578
# Velocity P-wave (km/s) = 15.52412 5.41808 10.28695
#
# Compressibility (1/GPa) = 0.03713608
#
# Stress axis : x y z
#
# Youngs Moduli (GPa) = 70.32316 139.61518 51.16765
#
# Poissons Ratio (x) = 0.04461 -0.01295
# Poissons Ratio (y) = 0.02247 0.09357
# Poissons Ratio (z) = -0.01780 0.25532
#
# Static dielectric constant tensor:
#      x y z
#    x 1.852090 0.000000 0.000000 
#    y 0.000000 1.853530 0.000000 
#    z 0.000000 0.000000 1.777270 
# 
# From -- ./inp_files/16152.got.cif
#   From: 2010.05.17/outbox.cif.g08.bks.cpg/sg44_9_cif.got.tgz:16152.got - 2010.06.03 19:37:08.
