data_PCOD9374124
_publ_section_title
;
Structure prediction by ZEFSAII (Michael W. Deem and Ramdas Pophale) SiO2 
 PCOD9374124
Probable space group: I M M 2
;
_chemical_formula_sum "Si O2"
_cell_formula_units_Z 52
_cell_length_a 11.381733
_cell_length_b 15.853562
_cell_length_c 16.858225
_cell_angle_alpha 90.000000
_cell_angle_beta 90.000000
_cell_angle_gamma 90.000000
_cell_volume 3041.915142
_symmetry_space_group_name_H-M "I M M 2"
_symmetry_group_IT_number 44
_symmetry_cell_setting 'orthorhombic'
loop_
_space_group_symop_operation_xyz
x,y,z
-x,-y,z
-x,y,z
x,-y,z
1/2+x,1/2+y,1/2+z
1/2-x,1/2-y,1/2+z
1/2-x,1/2+y,1/2+z
1/2+x,1/2-y,1/2+z
loop_
_atom_site_type_symbol
_atom_site_label
_atom_site_fract_x
_atom_site_fract_y
_atom_site_fract_z
Si Si1 0.238291 0.654014 0.423000
Si Si2 0.862661 0.284711 0.737668
Si Si3 0.192612 0.500000 0.191618
Si Si4 0.143439 0.500000 0.009551
Si Si5 0.636842 0.167855 0.414463
Si Si6 0.860957 0.594167 0.589025
Si Si7 0.627134 0.824139 0.762208
Si Si8 0.137195 0.000000 0.834949
O O1 0.297039 0.745400 0.433566
O O2 0.198851 0.621670 0.507884
O O3 0.136507 0.663774 0.357159
O O4 0.320222 0.583223 0.381985
O O5 0.855131 0.338849 0.818858
O O6 0.844071 0.341720 0.660888
O O7 0.751358 0.221164 0.740881
O O8 0.000000 0.251006 0.736192
O O9 0.199888 0.500000 0.096809
O O10 0.129605 0.414461 0.219368
O O11 0.308545 0.500000 0.246686
O O12 0.000000 0.500000 0.018157
O O13 0.176630 0.584282 0.960648
O O14 0.500000 0.179559 0.434414
O O15 0.822023 0.500000 0.611460
O O16 0.000000 0.591967 0.573827
O O17 0.500000 0.782948 0.743195
O O18 0.000000 0.000000 0.829973
#
# Coordination Sequence:
#
# PCOD9374124 Si02
#       8
#     8   8   4   4   8   8   8   4
#     4  10  19  34  54  82 109 143 180 226 280 340
#     4   9  20  37  57  83 110 144 186 229 279 334
#     4  10  22  34  52  78 109 143 186 229 274 331
#     4  10  20  34  53  79 105 138 186 237 275 316
#     4   9  19  34  55  77 106 143 185 232 276 324
#     4  10  20  34  56  83 110 139 181 229 275 331
#     4  10  20  35  56  79 108 145 185 230 280 332
#     4  10  20  36  57  79 113 149 182 228 288 349
#
# _framework density 17.094494999999998
#
# number of rings (size 3 to 8) (size 9 to 14) (size 15 to 20)
#    0.000    2.308    0.769    1.615    3.231    3.692 
#    0.000    0.769    0.000    0.923    0.000    0.000 
#    0.000    0.000    0.000    0.000    0.000    0.000 
#
# Total GULP energy -144763.305102 kJ/mol
# GULP energy per Si atom -5567.819427 kJ/mol
# Density = 1.705559 g / cm^3
# Si number density = 17.094495 Si / 1000 Ang^3
#
#
#
# Elastic Constant Matrix: (Units=GPa)
#
#
# Indices 1 2 3 4 5 6 
#
# 1 108.6992 59.4569 56.6793 0.0000 0.0000 0.0000
# 2 59.4569 111.1172 55.1771 0.0000 0.0000 0.0000
# 3 56.6793 55.1771 96.9711 0.0000 0.0000 0.0000
# 4 0.0000 0.0000 0.0000 15.6369 0.0000 0.0000
# 5 0.0000 0.0000 0.0000 0.0000 4.8513 0.0000
# 6 0.0000 0.0000 0.0000 0.0000 0.0000 20.3251
#
#
#
# Elastic Compliance Matrix: (Units=1/GPa)
#
#
# Indices 1 2 3 4 5 6 
#
# 1 0.015086 -0.005148 -0.005888 0.000000 0.000000 0.000000
# 2 -0.005148 0.014301 -0.005128 0.000000 0.000000 0.000000
# 3 -0.005888 -0.005128 0.016672 0.000000 0.000000 0.000000
# 4 0.000000 0.000000 0.000000 0.063951 0.000000 0.000000
# 5 0.000000 0.000000 0.000000 0.000000 0.206131 0.000000
# 6 0.000000 0.000000 0.000000 0.000000 0.000000 0.049200
#
#
# Mechanical properties :
#
#
# Convention : Reuss Voigt Hill
#
# Bulk Modulus (GPa) = 72.83654 73.26823 73.05238
# Shear Modulus (GPa) = 12.43015 17.86094 15.14554
#
# Velocity S-wave (km/s) = 2.69949 3.23590 2.97979
# Velocity P-wave (km/s) = 7.23996 7.54421 7.39365
#
# Compressibility (1/GPa) = 0.01372937
#
# Stress axis : x y z
#
# Youngs Moduli (GPa) = 66.28589 69.92667 59.98113
#
# Poissons Ratio (x) = 0.36001 0.35319
# Poissons Ratio (y) = 0.34127 0.30758
# Poissons Ratio (z) = 0.39031 0.35858
#
# Static dielectric constant tensor:
#      x y z
#    x 1.594980 0.000000 0.000000 
#    y 0.000000 1.589150 0.000000 
#    z 0.000000 0.000000 1.570180 
# 
# From -- ./inp_files/17884.got.cif
#   From: 2010.05.17/outbox.cif.g08.bks.cpg/sg44_9_cif.got.tgz:17884.got - 2010.06.03 19:37:08.
