data_PCOD9374037
_publ_section_title
;
Structure prediction by ZEFSAII (Michael W. Deem and Ramdas Pophale) SiO2 
 PCOD9374037
Probable space group: I M M 2
;
_chemical_formula_sum "Si O2"
_cell_formula_units_Z 64
_cell_length_a 7.855584
_cell_length_b 25.636055
_cell_length_c 15.471774
_cell_angle_alpha 90.000000
_cell_angle_beta 90.000000
_cell_angle_gamma 90.000000
_cell_volume 3115.801518
_symmetry_space_group_name_H-M "I M M 2"
_symmetry_group_IT_number 44
_symmetry_cell_setting 'orthorhombic'
loop_
_space_group_symop_operation_xyz
x,y,z
-x,-y,z
-x,y,z
x,-y,z
1/2+x,1/2+y,1/2+z
1/2-x,1/2-y,1/2+z
1/2-x,1/2+y,1/2+z
1/2+x,1/2-y,1/2+z
loop_
_atom_site_type_symbol
_atom_site_label
_atom_site_fract_x
_atom_site_fract_y
_atom_site_fract_z
Si Si1 0.802096 0.342016 0.004750
Si Si2 0.705132 0.941551 0.821585
Si Si3 0.703049 0.615541 0.494721
Si Si4 0.299380 0.770897 0.021331
Si Si5 0.295819 0.766722 0.219632
Si Si6 0.294938 0.559509 0.668018
Si Si7 0.205518 0.348642 0.200114
Si Si8 0.705950 0.866630 0.323215
O O1 0.728146 0.349264 0.100917
O O2 0.000000 0.356836 0.011853
O O3 0.790645 0.280158 0.984262
O O4 0.728740 0.371173 0.921342
O O5 0.500000 0.942522 0.814321
O O6 0.768767 0.897361 0.755602
O O7 0.768850 0.000000 0.804786
O O8 0.748989 0.923131 0.917886
O O9 0.500000 0.619163 0.499582
O O10 0.770269 0.673664 0.477374
O O11 0.768969 0.593299 0.586337
O O12 0.500000 0.759551 0.022150
O O13 0.237165 0.776363 0.120835
O O14 0.500000 0.770519 0.219171
O O15 0.249800 0.707352 0.241111
O O16 0.229965 0.812428 0.280923
O O17 0.500000 0.558166 0.661359
O O18 0.232699 0.500000 0.663815
O O19 0.249891 0.587594 0.757272
O O20 0.000000 0.350762 0.197164
O O21 0.500000 0.863629 0.327911
#
# Coordination Sequence:
#
# PCOD9374037 Si02
#       8
#     8   8   8   8   8   8   8   8
#     4   9  19  35  55  81 114 147 183 226 272 324
#     4  10  22  39  57  79 108 144 188 235 279 325
#     4  11  22  36  56  81 111 145 182 225 275 330
#     4  10  19  33  53  80 113 147 183 219 267 326
#     4   9  18  32  51  78 112 144 176 220 269 320
#     4  10  22  39  57  79 110 147 186 227 273 327
#     4   9  19  36  56  79 108 144 186 227 272 324
#     4  10  20  35  55  82 114 146 183 225 272 323
#
# _framework density 20.540462000000002
#
# number of rings (size 3 to 8) (size 9 to 14) (size 15 to 20)
#    0.000    2.250    1.250    1.125    1.750    3.500 
#    0.000    0.625    0.000    2.250    0.000    0.000 
#    0.000    0.000    0.000    0.000    0.000    0.000 
#
# Total GULP energy -178651.403581 kJ/mol
# GULP energy per Si atom -5582.856362 kJ/mol
# Density = 2.049371 g / cm^3
# Si number density = 20.540462 Si / 1000 Ang^3
#
#
#
# Elastic Constant Matrix: (Units=GPa)
#
#
# Indices 1 2 3 4 5 6 
#
# 1 20.7976 -10.3214 -3.1594 0.0000 0.0000 0.0000
# 2 -10.3214 86.1968 27.3694 0.0000 0.0000 0.0000
# 3 -3.1594 27.3694 66.1053 0.0001 0.0000 -0.0001
# 4 0.0000 0.0000 0.0001 31.6455 0.0000 0.0000
# 5 0.0000 0.0000 0.0000 0.0000 13.7371 0.0000
# 6 0.0000 0.0000 -0.0001 0.0000 0.0000 17.8827
#
#
#
# Elastic Compliance Matrix: (Units=1/GPa)
#
#
# Indices 1 2 3 4 5 6 
#
# 1 0.051121 0.006155 -0.000105 0.000000 0.000000 0.000000
# 2 0.006155 0.014098 -0.005543 0.000000 0.000000 0.000000
# 3 -0.000105 -0.005543 0.017417 0.000000 0.000000 0.000000
# 4 0.000000 0.000000 0.000000 0.031600 0.000000 0.000000
# 5 0.000000 0.000000 0.000000 0.000000 0.072796 0.000000
# 6 0.000000 0.000000 0.000000 0.000000 0.000000 0.055920
#
#
# Mechanical properties :
#
#
# Convention : Reuss Voigt Hill
#
# Bulk Modulus (GPa) = 11.95457 22.31966 17.13711
# Shear Modulus (GPa) = 18.53073 23.26713 20.89893
#
# Velocity S-wave (km/s) = 3.00685 3.36928 3.19321
# Velocity P-wave (km/s) = 4.22936 5.10155 4.68580
#
# Compressibility (1/GPa) = 0.08365003
#
# Stress axis : x y z
#
# Youngs Moduli (GPa) = 19.56147 70.93037 57.41421
#
# Poissons Ratio (x) = -0.43655 0.00603
# Poissons Ratio (y) = -0.12039 0.31824
# Poissons Ratio (z) = 0.00205 0.39316
#
# Static dielectric constant tensor:
#      x y z
#    x 1.748340 0.000000 0.000000 
#    y 0.000000 1.707860 0.000000 
#    z 0.000000 0.000000 1.757790 
# 
# From -- ./inp_files/16771.got.cif
#   From: 2010.05.17/outbox.cif.g08.bks.cpg/sg44_9_cif.got.tgz:16771.got - 2010.06.03 19:37:08.
