data_PCOD9374946
_publ_section_title
;
Structure prediction by ZEFSAII (Michael W. Deem and Ramdas Pophale) SiO2 
 PCOD9374946
Probable space group: I M M 2
;
_chemical_formula_sum "Si O2"
_cell_formula_units_Z 34
_cell_length_a 7.798066
_cell_length_b 23.785898
_cell_length_c 6.962022
_cell_angle_alpha 90.000000
_cell_angle_beta 90.000000
_cell_angle_gamma 90.000000
_cell_volume 1291.343706
_symmetry_space_group_name_H-M "I M M 2"
_symmetry_group_IT_number 44
_symmetry_cell_setting 'orthorhombic'
loop_
_space_group_symop_operation_xyz
x,y,z
-x,-y,z
-x,y,z
x,-y,z
1/2+x,1/2+y,1/2+z
1/2-x,1/2-y,1/2+z
1/2-x,1/2+y,1/2+z
1/2+x,1/2-y,1/2+z
loop_
_atom_site_type_symbol
_atom_site_label
_atom_site_fract_x
_atom_site_fract_y
_atom_site_fract_z
Si Si1 0.000000 0.500000 0.906641
Si Si2 0.194359 0.674644 0.234773
Si Si3 0.692667 0.416860 0.799780
Si Si4 0.288621 0.062515 0.854154
Si Si5 0.192144 0.699356 0.686114
O O1 0.849169 0.450781 0.892785
O O2 0.278127 0.613153 0.220141
O O3 0.194007 0.679935 0.466516
O O4 0.258840 0.735396 0.174149
O O5 0.000000 0.670225 0.167387
O O6 0.500000 0.433020 0.853259
O O7 0.719658 0.431416 0.570945
O O8 0.708078 0.348134 0.805654
O O9 0.500000 0.065388 0.863507
O O10 0.247835 0.000000 0.785775
O O11 0.000000 0.697384 0.758596
#
# Coordination Sequence:
#
# PCOD9374946 Si02
#       5
#     2   8   8   8   8
#     4  12  18  32  44  78 108 138 172 228 264 328
#     4   9  19  32  52  77 106 141 183 224 276 328
#     4  11  19  29  50  73 107 141 173 218 278 321
#     4   9  15  29  47  73 107 136 170 227 272 315
#     4  10  20  36  51  77 112 143 179 232 270 319
#
# _framework density 26.329166000000001
#
# number of rings (size 3 to 8) (size 9 to 14) (size 15 to 20)
#    0.000    2.118    3.529    2.471    0.000    4.706 
#    0.000    0.000    0.000    0.000    3.059    0.000 
#    0.000    0.000    0.000    0.000    0.000    0.235 
#
# Total GULP energy -94794.948039 kJ/mol
# GULP energy per Si atom -5576.173414 kJ/mol
# Density = 2.626924 g / cm^3
# Si number density = 26.329166 Si / 1000 Ang^3
#
#
#
# Elastic Constant Matrix: (Units=GPa)
#
#
# Indices 1 2 3 4 5 6 
#
# 1 167.2138 74.9718 8.4249 0.0005 -0.0004 -0.0007
# 2 74.9718 275.7538 37.4608 -0.0001 -0.0016 -0.0001
# 3 8.4249 37.4608 64.5456 0.0097 0.0039 -0.0002
# 4 0.0005 -0.0001 0.0097 37.6398 0.0007 0.0005
# 5 -0.0004 -0.0016 0.0039 0.0007 6.2904 0.0007
# 6 -0.0007 -0.0001 -0.0002 0.0005 0.0007 40.5795
#
#
#
# Elastic Compliance Matrix: (Units=1/GPa)
#
#
# Indices 1 2 3 4 5 6 
#
# 1 0.006813 -0.001880 0.000202 0.000000 0.000000 0.000000
# 2 -0.001880 0.004455 -0.002340 0.000001 0.000002 0.000000
# 3 0.000202 -0.002340 0.016825 -0.000004 -0.000011 0.000000
# 4 0.000000 0.000001 -0.000004 0.026568 -0.000003 0.000000
# 5 0.000000 0.000002 -0.000011 -0.000003 0.158972 -0.000003
# 6 0.000000 0.000000 0.000000 0.000000 -0.000003 0.024643
#
#
# Mechanical properties :
#
#
# Convention : Reuss Voigt Hill
#
# Bulk Modulus (GPa) = 49.85953 83.24759 66.55356
# Shear Modulus (GPa) = 19.76300 42.67900 31.22100
#
# Velocity S-wave (km/s) = 2.74270 4.03050 3.44727
# Velocity P-wave (km/s) = 5.38591 7.30388 6.41695
#
# Compressibility (1/GPa) = 0.02005635
#
# Stress axis : x y z
#
# Youngs Moduli (GPa) = 146.77845 224.44532 59.43546
#
# Poissons Ratio (x) = 0.42189 -0.01199
# Poissons Ratio (y) = 0.27590 0.13911
# Poissons Ratio (z) = -0.02960 0.52531
#
# Static dielectric constant tensor:
#      x y z
#    x 1.965260 0.000000 0.000000 
#    y 0.000000 2.196010 0.000000 
#    z 0.000000 0.000000 2.155760 
# 
# From -- ./inp_files/4283.got.cif
#   From: 2010.05.17/outbox.cif.g08.bks.cpg/sg44_3_cif.got.tgz:4283.got - 2010.06.03 19:37:08.
