data_PCOD9374481
_publ_section_title
;
Structure prediction by ZEFSAII (Michael W. Deem and Ramdas Pophale) SiO2 
 PCOD9374481
Probable space group: I M M 2
;
_chemical_formula_sum "Si O2"
_cell_formula_units_Z 64
_cell_length_a 9.064438
_cell_length_b 15.778573
_cell_length_c 23.587752
_cell_angle_alpha 90.000000
_cell_angle_beta 90.000000
_cell_angle_gamma 90.000000
_cell_volume 3373.612205
_symmetry_space_group_name_H-M "I M M 2"
_symmetry_group_IT_number 44
_symmetry_cell_setting 'orthorhombic'
loop_
_space_group_symop_operation_xyz
x,y,z
-x,-y,z
-x,y,z
x,-y,z
1/2+x,1/2+y,1/2+z
1/2-x,1/2-y,1/2+z
1/2-x,1/2+y,1/2+z
1/2+x,1/2-y,1/2+z
loop_
_atom_site_type_symbol
_atom_site_label
_atom_site_fract_x
_atom_site_fract_y
_atom_site_fract_z
Si Si1 0.831340 0.174926 0.156130
Si Si2 0.179803 0.402628 0.431208
Si Si3 0.176803 0.901313 0.487197
Si Si4 0.170549 0.364682 0.107304
Si Si5 0.178099 0.775767 0.384047
Si Si6 0.163513 0.400297 0.555930
Si Si7 0.676486 0.227348 0.267961
Si Si8 0.677238 0.590623 0.222909
O O1 0.825804 0.265859 0.124522
O O2 0.764938 0.113984 0.109283
O O3 0.734162 0.178856 0.212530
O O4 0.000000 0.156391 0.170824
O O5 0.229452 0.500000 0.419009
O O6 0.223884 0.322958 0.392965
O O7 0.224432 0.373622 0.494840
O O8 0.000000 0.405436 0.431664
O O9 0.255051 0.880766 0.546801
O O10 0.219327 0.835852 0.437182
O O11 0.000000 0.893114 0.495192
O O12 0.207329 0.000000 0.472275
O O13 0.256550 0.406310 0.159787
O O14 0.000000 0.392123 0.106114
O O15 0.250688 0.804684 0.325536
O O16 0.000000 0.778017 0.379781
O O17 0.145654 0.500000 0.548405
O O18 0.000000 0.361407 0.565020
O O19 0.500000 0.224186 0.271341
O O20 0.724663 0.325422 0.256309
O O21 0.500000 0.594348 0.218678
O O22 0.719145 0.500000 0.249510
#
# Coordination Sequence:
#
# PCOD9374481 Si02
#       8
#     8   8   8   8   8   8   8   8
#     4  10  20  34  52  75 104 136 170 209 256 309
#     4   8  15  29  51  79 107 135 167 202 247 308
#     4  10  21  36  54  76 102 136 176 213 256 313
#     4  10  20  32  50  79 109 134 165 209 258 306
#     4  10  20  35  54  74 100 135 174 216 257 300
#     4   9  17  31  53  80 107 134 168 209 252 304
#     4  10  21  36  53  72  97 132 174 216 257 305
#     4   9  18  33  52  74 102 135 167 201 249 312
#
# _framework density 18.970763000000002
#
# number of rings (size 3 to 8) (size 9 to 14) (size 15 to 20)
#    0.000    2.500    0.000    3.000    0.000    6.250 
#    0.000    1.250    0.000    3.000    0.000    0.000 
#    0.000    0.000    0.000    0.000    0.000    0.000 
#
# Total GULP energy -178364.340196 kJ/mol
# GULP energy per Si atom -5573.885631 kJ/mol
# Density = 1.892759 g / cm^3
# Si number density = 18.970763 Si / 1000 Ang^3
#
#
#
# Elastic Constant Matrix: (Units=GPa)
#
#
# Indices 1 2 3 4 5 6 
#
# 1 21.0638 11.2948 18.6509 0.0000 0.0000 0.0000
# 2 11.2948 24.3702 26.3272 0.0000 0.0000 0.0000
# 3 18.6509 26.3272 96.3273 0.0000 0.0000 0.0000
# 4 0.0000 0.0000 0.0000 11.3916 0.0000 0.0000
# 5 0.0000 0.0000 0.0000 0.0000 28.1148 0.0000
# 6 0.0000 0.0000 0.0000 0.0000 0.0000 11.0582
#
#
#
# Elastic Compliance Matrix: (Units=1/GPa)
#
#
# Indices 1 2 3 4 5 6 
#
# 1 0.065719 -0.023714 -0.006243 0.000000 0.000000 0.000000
# 2 -0.023714 0.066782 -0.013661 0.000000 0.000000 0.000000
# 3 -0.006243 -0.013661 0.015324 0.000000 0.000000 0.000000
# 4 0.000000 0.000000 0.000000 0.087784 0.000000 0.000000
# 5 0.000000 0.000000 0.000000 0.000000 0.035569 0.000000
# 6 0.000000 0.000000 0.000000 0.000000 0.000000 0.090431
#
#
# Mechanical properties :
#
#
# Convention : Reuss Voigt Hill
#
# Bulk Modulus (GPa) = 16.50472 28.25636 22.38054
# Shear Modulus (GPa) = 10.66006 15.81213 13.23610
#
# Velocity S-wave (km/s) = 2.37306 2.89017 2.64429
# Velocity P-wave (km/s) = 4.02834 5.10534 4.59848
#
# Compressibility (1/GPa) = 0.06058873
#
# Stress axis : x y z
#
# Youngs Moduli (GPa) = 15.21634 14.97405 65.25840
#
# Poissons Ratio (x) = 0.35510 0.40742
# Poissons Ratio (y) = 0.36084 0.89148
# Poissons Ratio (z) = 0.09500 0.20456
#
# Static dielectric constant tensor:
#      x y z
#    x 1.639660 0.000000 0.000000 
#    y 0.000000 1.726330 0.000000 
#    z 0.000000 0.000000 1.632850 
# 
# From -- ./inp_files/23249.got.cif
#   From: 2010.05.17/outbox.cif.g08.bks.cpg/sg44_12_cif.got.tgz:23249.got - 2010.06.03 19:37:08.
