data_PCOD9374537
_publ_section_title
;
Structure prediction by ZEFSAII (Michael W. Deem and Ramdas Pophale) SiO2 
 PCOD9374537
Probable space group: I M M 2
;
_chemical_formula_sum "Si O2"
_cell_formula_units_Z 64
_cell_length_a 9.736555
_cell_length_b 7.541377
_cell_length_c 42.525811
_cell_angle_alpha 90.000000
_cell_angle_beta 90.000000
_cell_angle_gamma 90.000000
_cell_volume 3122.544082
_symmetry_space_group_name_H-M "I M M 2"
_symmetry_group_IT_number 44
_symmetry_cell_setting 'orthorhombic'
loop_
_space_group_symop_operation_xyz
x,y,z
-x,-y,z
-x,y,z
x,-y,z
1/2+x,1/2+y,1/2+z
1/2-x,1/2-y,1/2+z
1/2-x,1/2+y,1/2+z
1/2+x,1/2-y,1/2+z
loop_
_atom_site_type_symbol
_atom_site_label
_atom_site_fract_x
_atom_site_fract_y
_atom_site_fract_z
Si Si1 0.656324 0.212788 0.767390
Si Si2 0.843741 0.787492 0.337106
Si Si3 0.658403 0.217455 0.022471
Si Si4 0.844271 0.210307 0.080406
Si Si5 0.843039 0.788002 0.964531
Si Si6 0.655973 0.787012 0.393579
Si Si7 0.843173 0.786304 0.639491
Si Si8 0.342244 0.283580 0.210317
O O1 0.500000 0.281248 0.766188
O O2 0.712633 0.251331 0.802199
O O3 0.745636 0.279875 0.738327
O O4 0.650603 0.000000 0.764553
O O5 0.751995 0.718973 0.365698
O O6 0.000000 0.717942 0.338363
O O7 0.850882 0.000000 0.340321
O O8 0.500000 0.274880 0.023694
O O9 0.738578 0.275778 0.991094
O O10 0.656208 0.000000 0.022684
O O11 0.747089 0.278604 0.052435
O O12 0.765292 0.234238 0.113189
O O13 0.000000 0.282181 0.080503
O O14 0.855669 0.000000 0.074954
O O15 0.795865 0.751706 0.928970
O O16 0.000000 0.719082 0.968115
O O17 0.850925 0.000000 0.968176
O O18 0.500000 0.718885 0.390860
O O19 0.650491 0.000000 0.390659
O O20 0.805143 0.727344 0.674847
O O21 0.000000 0.725357 0.632532
O O22 0.847516 0.000000 0.639969
O O23 0.500000 0.232289 0.215863
O O24 0.338226 0.500000 0.210406
#
# Coordination Sequence:
#
# PCOD9374537 Si02
#       8
#     8   8   8   8   8   8   8   8
#     4   9  17  29  46  68  91 116 150 190 228 268
#     4   9  18  32  47  63  88 122 153 182 223 272
#     4   9  17  30  49  71  94 123 158 194 234 279
#     4  10  20  33  50  73 100 130 164 200 239 285
#     4   9  17  30  48  69  92 117 148 188 231 274
#     4   9  18  32  48  66  90 120 151 183 223 272
#     4   9  18  33  52  73  98 128 162 200 242 288
#     4   8  15  29  48  69  93 121 152 188 232 279
#
# _framework density 20.496110000000002
#
# number of rings (size 3 to 8) (size 9 to 14) (size 15 to 20)
#    0.000    3.000    0.000    1.500    0.000    4.500 
#    0.000    2.500    0.000    4.500    0.000    0.000 
#    0.000    0.000    0.000    0.000    0.000    0.000 
#
# Total GULP energy -178522.950045 kJ/mol
# GULP energy per Si atom -5578.842189 kJ/mol
# Density = 2.044946 g / cm^3
# Si number density = 20.496110 Si / 1000 Ang^3
#
#
#
# Elastic Constant Matrix: (Units=GPa)
#
#
# Indices 1 2 3 4 5 6 
#
# 1 140.3718 5.2461 138.4105 0.0000 0.0000 0.0000
# 2 5.2461 49.2656 -1.4875 0.0000 0.0000 0.0000
# 3 138.4105 -1.4875 216.3161 0.0000 0.0000 0.0000
# 4 0.0000 0.0000 0.0000 16.8502 0.0000 0.0000
# 5 0.0000 0.0000 0.0000 0.0000 38.6693 0.0000
# 6 0.0000 0.0000 0.0000 0.0000 0.0000 -0.8968
#
#
#
# Elastic Compliance Matrix: (Units=1/GPa)
#
#
# Indices 1 2 3 4 5 6 
#
# 1 0.019596 -0.002466 -0.012556 0.000000 0.000000 0.000000
# 2 -0.002466 0.020613 0.001720 0.000000 0.000000 0.000000
# 3 -0.012556 0.001720 0.012669 0.000000 0.000000 0.000000
# 4 0.000000 0.000000 0.000000 0.059346 0.000000 0.000000
# 5 0.000000 0.000000 0.000000 0.000000 0.025860 0.000000
# 6 0.000000 0.000000 0.000000 0.000000 0.000000 -1.115128
#
#
# Mechanical properties :
#
#
# Convention : Reuss Voigt Hill
#
# Bulk Modulus (GPa) = 38.06133 76.69908 57.38021
# Shear Modulus (GPa) = -5.30965 28.51018 11.60027
#
# Velocity S-wave (km/s) = -1.61127 3.73366 2.38160
# Velocity P-wave (km/s) = 3.89214 7.48929 5.96818
#
# Compressibility (1/GPa) = 0.02627338
#
# Stress axis : x y z
#
# Youngs Moduli (GPa) = 51.02958 48.51393 78.93555
#
# Poissons Ratio (x) = 0.11963 0.99110
# Poissons Ratio (y) = 0.12583 -0.13573
# Poissons Ratio (z) = 0.64072 -0.08342
#
# Static dielectric constant tensor:
#      x y z
#    x 1.714990 0.000000 0.000000 
#    y 0.000000 1.786220 0.000000 
#    z 0.000000 0.000000 1.707710 
# 
# From -- ./inp_files/27202.got.cif
#   From: 2010.05.17/outbox.cif.g08.bks.cpg/sg44_14_cif.got.tgz:27202.got - 2010.06.03 19:37:08.
