data_PCOD9374395
_publ_section_title
;
Structure prediction by ZEFSAII (Michael W. Deem and Ramdas Pophale) SiO2 
 PCOD9374395
Probable space group: I M M 2
;
_chemical_formula_sum "Si O2"
_cell_formula_units_Z 64
_cell_length_a 7.741657
_cell_length_b 14.259568
_cell_length_c 25.372242
_cell_angle_alpha 90.000000
_cell_angle_beta 90.000000
_cell_angle_gamma 90.000000
_cell_volume 2800.909904
_symmetry_space_group_name_H-M "I M M 2"
_symmetry_group_IT_number 44
_symmetry_cell_setting 'orthorhombic'
loop_
_space_group_symop_operation_xyz
x,y,z
-x,-y,z
-x,y,z
x,-y,z
1/2+x,1/2+y,1/2+z
1/2-x,1/2-y,1/2+z
1/2-x,1/2+y,1/2+z
1/2+x,1/2-y,1/2+z
loop_
_atom_site_type_symbol
_atom_site_label
_atom_site_fract_x
_atom_site_fract_y
_atom_site_fract_z
Si Si1 0.707888 0.607406 0.126370
Si Si2 0.695011 0.390736 0.619764
Si Si3 0.208079 0.391212 0.244702
Si Si4 0.288187 0.103804 0.959465
Si Si5 0.192356 0.751716 0.541175
Si Si6 0.791807 0.604757 0.848152
Si Si7 0.194525 0.612696 0.732046
Si Si8 0.293426 0.193386 0.854106
O O1 0.500000 0.608673 0.121518
O O2 0.769310 0.500000 0.124314
O O3 0.745671 0.642589 0.185764
O O4 0.776269 0.665840 0.076142
O O5 0.500000 0.378570 0.600446
O O6 0.740199 0.500000 0.616882
O O7 0.819059 0.329200 0.585237
O O8 0.703664 0.359863 0.680470
O O9 0.266605 0.500000 0.249106
O O10 0.273605 0.333280 0.295586
O O11 0.000000 0.391140 0.247024
O O12 0.500000 0.105211 0.962692
O O13 0.237750 0.120389 0.898894
O O14 0.233042 0.000000 0.977949
O O15 0.225882 0.193014 0.993412
O O16 0.000000 0.782762 0.524208
O O17 0.733465 0.500000 0.865245
O O18 0.723180 0.625735 0.789052
O O19 0.748581 0.702169 0.875592
O O20 0.000000 0.599325 0.844270
O O21 0.178993 0.500000 0.729228
O O22 0.000000 0.651891 0.730003
O O23 0.500000 0.187643 0.851052
#
# Coordination Sequence:
#
# PCOD9374395 Si02
#       8
#     8   8   8   8   8   8   8   8
#     4   9  19  35  53  76 107 138 173 222 271 316
#     4  10  20  31  45  71 106 138 169 213 267 316
#     4   9  18  33  53  78 109 143 176 214 267 330
#     4   9  18  35  58  82 109 140 178 225 271 321
#     4  10  20  34  55  78 101 139 184 220 264 320
#     4   9  19  35  52  72 104 145 183 219 263 317
#     4   8  15  29  47  66  93 133 176 211 248 304
#     4  10  20  33  54  83 109 139 182 228 274 319
#
# _framework density 22.849717999999999
#
# number of rings (size 3 to 8) (size 9 to 14) (size 15 to 20)
#    0.000    2.750    0.000    1.875    1.750    4.500 
#    0.000    2.500    0.000    4.125    0.000    1.750 
#    0.000    0.000    0.000    0.000    0.000    0.000 
#
# Total GULP energy -178341.780172 kJ/mol
# GULP energy per Si atom -5573.180630 kJ/mol
# Density = 2.279771 g / cm^3
# Si number density = 22.849718 Si / 1000 Ang^3
#
#
#
# Elastic Constant Matrix: (Units=GPa)
#
#
# Indices 1 2 3 4 5 6 
#
# 1 24.8365 0.8366 0.5669 0.0000 0.0000 0.0000
# 2 0.8366 129.2242 53.7364 0.0000 0.0000 0.0000
# 3 0.5669 53.7364 90.0421 0.0000 0.0000 0.0000
# 4 0.0000 0.0000 0.0000 36.4627 0.0000 0.0000
# 5 0.0000 0.0000 0.0000 0.0000 11.2461 0.0000
# 6 0.0000 0.0000 0.0000 0.0000 0.0000 13.2305
#
#
#
# Elastic Compliance Matrix: (Units=1/GPa)
#
#
# Indices 1 2 3 4 5 6 
#
# 1 0.040273 -0.000207 -0.000130 0.000000 0.000000 0.000000
# 2 -0.000207 0.010294 -0.006142 0.000000 0.000000 0.000000
# 3 -0.000130 -0.006142 0.014772 0.000000 0.000000 0.000000
# 4 0.000000 0.000000 0.000000 0.027425 0.000000 0.000000
# 5 0.000000 0.000000 0.000000 0.000000 0.088919 0.000000
# 6 0.000000 0.000000 0.000000 0.000000 0.000000 0.075583
#
#
# Mechanical properties :
#
#
# Convention : Reuss Voigt Hill
#
# Bulk Modulus (GPa) = 19.09066 39.37586 29.23326
# Shear Modulus (GPa) = 17.38009 24.78538 21.08273
#
# Velocity S-wave (km/s) = 2.76094 3.29707 3.04084
# Velocity P-wave (km/s) = 4.30543 5.63597 5.01502
#
# Compressibility (1/GPa) = 0.05238165
#
# Stress axis : x y z
#
# Youngs Moduli (GPa) = 24.83038 97.14467 67.69449
#
# Poissons Ratio (x) = 0.02007 0.00882
# Poissons Ratio (y) = 0.00513 0.41578
# Poissons Ratio (z) = 0.00324 0.59667
#
# Static dielectric constant tensor:
#      x y z
#    x 1.903270 0.000000 0.000000 
#    y 0.000000 2.000170 0.000000 
#    z 0.000000 0.000000 1.894800 
# 
# From -- ./inp_files/25184.got.cif
#   From: 2010.05.17/outbox.cif.g08.bks.cpg/sg44_13_cif.got.tgz:25184.got - 2010.06.03 19:37:08.
