data_PCOD9374221
_publ_section_title
;
Structure prediction by ZEFSAII (Michael W. Deem and Ramdas Pophale) SiO2 
 PCOD9374221
Probable space group: I M M 2
;
_chemical_formula_sum "Si O2"
_cell_formula_units_Z 58
_cell_length_a 23.051557
_cell_length_b 7.583381
_cell_length_c 15.226031
_cell_angle_alpha 90.000000
_cell_angle_beta 90.000000
_cell_angle_gamma 90.000000
_cell_volume 2661.643285
_symmetry_space_group_name_H-M "I M M 2"
_symmetry_group_IT_number 44
_symmetry_cell_setting 'orthorhombic'
loop_
_space_group_symop_operation_xyz
x,y,z
-x,-y,z
-x,y,z
x,-y,z
1/2+x,1/2+y,1/2+z
1/2-x,1/2-y,1/2+z
1/2-x,1/2+y,1/2+z
1/2+x,1/2-y,1/2+z
loop_
_atom_site_type_symbol
_atom_site_label
_atom_site_fract_x
_atom_site_fract_y
_atom_site_fract_z
Si Si1 0.404176 0.304242 0.168650
Si Si2 0.500000 0.000000 0.206002
Si Si3 0.935229 0.797015 0.099667
Si Si4 0.879808 0.286589 0.471040
Si Si5 0.684032 0.283047 0.535098
Si Si6 0.771566 0.296741 0.687807
Si Si7 0.760016 0.288591 0.380134
Si Si8 0.568847 0.801458 0.791828
O O1 0.423170 0.500000 0.194683
O O2 0.336063 0.283034 0.195230
O O3 0.448302 0.154935 0.201381
O O4 0.401093 0.289511 0.062258
O O5 0.880790 0.715891 0.050841
O O6 0.916911 0.795260 0.202181
O O7 0.000000 0.718030 0.091656
O O8 0.939888 0.000000 0.071876
O O9 0.886036 0.500000 0.478731
O O10 0.814192 0.245433 0.443049
O O11 0.913807 0.224757 0.384880
O O12 0.683304 0.500000 0.539786
O O13 0.728990 0.224981 0.611542
O O14 0.705541 0.233932 0.438620
O O15 0.782218 0.500000 0.663707
O O16 0.740335 0.285946 0.782330
O O17 0.760111 0.500000 0.370012
O O18 0.500000 0.814642 0.792402
O O19 0.594181 0.000000 0.786318
#
# Coordination Sequence:
#
# PCOD9374221 Si02
#       8
#     8   2   8   8   8   8   8   8
#     4  12  25  42  69  96 128 176 228 274 339 411
#     4  12  26  48  68  94 136 180 218 288 336 402
#     4   9  17  31  51  77 111 154 206 261 315 382
#     4  10  19  35  56  85 128 168 204 266 329 392
#     4   9  18  34  58  83 118 166 207 259 337 395
#     4  11  21  40  63  89 129 171 215 286 345 393
#     4  10  20  35  58  88 122 163 213 267 335 402
#     4   9  18  29  47  74 110 154 193 237 305 378
#
# _framework density 21.791048
#
# number of rings (size 3 to 8) (size 9 to 14) (size 15 to 20)
#    0.000    1.931    2.759    1.448    0.966    1.103 
#    0.000    1.379    1.517    0.000    0.000    0.000 
#    0.000    0.000    0.000    0.000    0.000    0.000 
#
# Total GULP energy -161567.630721 kJ/mol
# GULP energy per Si atom -5571.297611 kJ/mol
# Density = 2.174145 g / cm^3
# Si number density = 21.791048 Si / 1000 Ang^3
#
#
#
# Elastic Constant Matrix: (Units=GPa)
#
#
# Indices 1 2 3 4 5 6 
#
# 1 68.1968 22.5837 0.3569 0.0000 0.0000 0.0000
# 2 22.5837 95.8446 -10.6897 0.0000 0.0000 0.0000
# 3 0.3569 -10.6897 44.4978 0.0000 0.0000 0.0000
# 4 0.0000 0.0000 0.0000 21.2612 0.0000 0.0000
# 5 0.0000 0.0000 0.0000 0.0000 35.3121 0.0000
# 6 0.0000 0.0000 0.0000 0.0000 0.0000 -17.5561
#
#
#
# Elastic Compliance Matrix: (Units=1/GPa)
#
#
# Indices 1 2 3 4 5 6 
#
# 1 0.015953 -0.003877 -0.001059 0.000000 0.000000 0.000000
# 2 -0.003877 0.011663 0.002833 0.000000 0.000000 0.000000
# 3 -0.001059 0.002833 0.023162 0.000000 0.000000 0.000000
# 4 0.000000 0.000000 0.000000 0.047034 0.000000 0.000000
# 5 0.000000 0.000000 0.000000 0.000000 0.028319 0.000000
# 6 0.000000 0.000000 0.000000 0.000000 0.000000 -0.056960
#
#
# Mechanical properties :
#
#
# Convention : Reuss Voigt Hill
#
# Bulk Modulus (GPa) = 21.47259 25.89343 23.68301
# Shear Modulus (GPa) = 56.24202 20.88932 38.56567
#
# Velocity S-wave (km/s) = 5.08584 3.09952 4.21146
# Velocity P-wave (km/s) = 6.66055 4.97169 5.87710
#
# Compressibility (1/GPa) = 0.04657100
#
# Stress axis : x y z
#
# Youngs Moduli (GPa) = 62.68446 85.74072 43.17401
#
# Poissons Ratio (x) = 0.33243 0.04574
# Poissons Ratio (y) = 0.24303 -0.12231
# Poissons Ratio (z) = 0.06640 -0.24290
#
# Static dielectric constant tensor:
#      x y z
#    x 1.885780 0.000000 0.000000 
#    y 0.000000 1.834490 0.000000 
#    z 0.000000 0.000000 1.768010 
# 
# From -- ./inp_files/19422.got.cif
#   From: 2010.05.17/outbox.cif.g08.bks.cpg/sg44_10_cif.got.tgz:19422.got - 2010.06.03 19:37:08.
