data_PCOD9374695
_publ_section_title
;
Structure prediction by ZEFSAII (Michael W. Deem and Ramdas Pophale) SiO2 
 PCOD9374695
Probable space group: I M M 2
;
_chemical_formula_sum "Si O2"
_cell_formula_units_Z 56
_cell_length_a 14.115139
_cell_length_b 11.703473
_cell_length_c 17.706130
_cell_angle_alpha 90.000000
_cell_angle_beta 90.000000
_cell_angle_gamma 90.000000
_cell_volume 2924.984475
_symmetry_space_group_name_H-M "I M M 2"
_symmetry_group_IT_number 44
_symmetry_cell_setting 'orthorhombic'
loop_
_space_group_symop_operation_xyz
x,y,z
-x,-y,z
-x,y,z
x,-y,z
1/2+x,1/2+y,1/2+z
1/2-x,1/2-y,1/2+z
1/2-x,1/2+y,1/2+z
1/2+x,1/2-y,1/2+z
loop_
_atom_site_type_symbol
_atom_site_label
_atom_site_fract_x
_atom_site_fract_y
_atom_site_fract_z
Si Si1 0.103501 0.631326 0.873280
Si Si2 0.192042 0.375890 0.320770
Si Si3 0.107981 0.172442 0.760303
Si Si4 0.612467 0.630547 0.561793
Si Si5 0.742587 0.756146 0.963964
Si Si6 0.610815 0.364859 0.083588
Si Si7 0.386954 0.132937 0.654958
O O1 0.107654 0.500000 0.855550
O O2 0.110625 0.701686 0.796015
O O3 0.184190 0.663225 0.931874
O O4 0.000000 0.658582 0.907289
O O5 0.154200 0.500000 0.341064
O O6 0.304919 0.382685 0.304377
O O7 0.181328 0.294140 0.391808
O O8 0.146856 0.344299 0.240547
O O9 0.127932 0.163522 0.671637
O O10 0.000000 0.129585 0.772400
O O11 0.500000 0.636995 0.541890
O O12 0.625018 0.500000 0.594313
O O13 0.687588 0.644014 0.493777
O O14 0.634322 0.748849 0.608911
O O15 0.676935 0.707177 0.029136
O O16 0.500000 0.342008 0.068728
O O17 0.626996 0.500000 0.073271
O O18 0.500000 0.124572 0.652184
O O19 0.352358 0.000000 0.634659
#
# Coordination Sequence:
#
# PCOD9374695 Si02
#       7
#     8   8   8   8   8   8   8
#     4   9  18  33  53  78 107 138 175 222 275 328
#     4  10  20  34  53  77 104 135 174 222 272 323
#     4   9  18  33  53  76 101 132 173 219 267 320
#     4  10  21  37  57  84 118 150 181 225 282 339
#     4  11  21  34  52  79 111 145 180 219 270 334
#     4  10  21  37  56  78 106 143 188 235 279 325
#     4   9  19  37  60  82 104 138 187 235 274 319
#
# _framework density 19.145401
#
# number of rings (size 3 to 8) (size 9 to 14) (size 15 to 20)
#    0.000    2.286    0.000    2.571    0.000    4.286 
#    0.000    9.286    0.000    4.714    0.000    0.000 
#    0.000    0.000    0.000    0.000    0.000    0.000 
#
# Total GULP energy -155878.998938 kJ/mol
# GULP energy per Si atom -5567.107105 kJ/mol
# Density = 1.910183 g / cm^3
# Si number density = 19.145401 Si / 1000 Ang^3
#
#
#
# Elastic Constant Matrix: (Units=GPa)
#
#
# Indices 1 2 3 4 5 6 
#
# 1 46.4133 26.5872 31.7597 0.0000 0.0000 0.0000
# 2 26.5872 119.0892 44.9475 0.0000 0.0000 0.0000
# 3 31.7597 44.9475 60.0879 0.0000 0.0000 0.0000
# 4 0.0000 0.0000 0.0000 -13.1001 0.0000 0.0000
# 5 0.0000 0.0000 0.0000 0.0000 25.5565 0.0000
# 6 0.0000 0.0000 0.0000 0.0000 0.0000 22.7071
#
#
#
# Elastic Compliance Matrix: (Units=1/GPa)
#
#
# Indices 1 2 3 4 5 6 
#
# 1 0.033861 -0.001121 -0.017058 0.000000 0.000000 0.000000
# 2 -0.001121 0.011738 -0.008187 0.000000 0.000000 0.000000
# 3 -0.017058 -0.008187 0.031783 0.000000 0.000000 0.000000
# 4 0.000000 0.000000 0.000000 -0.076335 0.000000 0.000000
# 5 0.000000 0.000000 0.000000 0.000000 0.039129 0.000000
# 6 0.000000 0.000000 0.000000 0.000000 0.000000 0.044039
#
#
# Mechanical properties :
#
#
# Convention : Reuss Voigt Hill
#
# Bulk Modulus (GPa) = 40.57285 48.01991 44.29638
# Shear Modulus (GPa) = 34.44376 15.18574 24.81475
#
# Velocity S-wave (km/s) = 4.24614 2.81940 3.60407
# Velocity P-wave (km/s) = 6.72886 5.97786 6.36445
#
# Compressibility (1/GPa) = 0.02464702
#
# Stress axis : x y z
#
# Youngs Moduli (GPa) = 29.53282 85.19676 31.46331
#
# Poissons Ratio (x) = 0.09552 0.53672
# Poissons Ratio (y) = 0.03311 0.25760
# Poissons Ratio (z) = 0.50379 0.69754
#
# Static dielectric constant tensor:
#      x y z
#    x 1.698070 0.000000 0.000000 
#    y 0.000000 1.717210 0.000000 
#    z 0.000000 0.000000 1.667290 
# 
# From -- ./inp_files/17764.got.cif
#   From: 2010.05.17/outbox.cif.g08.bks.cpg/sg44_9_cif.got.tgz:17764.got - 2010.06.03 19:37:08.
