data_PCOD9374302
_publ_section_title
;
Structure prediction by ZEFSAII (Michael W. Deem and Ramdas Pophale) SiO2 
 PCOD9374302
Probable space group: I M M 2
;
_chemical_formula_sum "Si O2"
_cell_formula_units_Z 48
_cell_length_a 15.493221
_cell_length_b 8.569775
_cell_length_c 19.450659
_cell_angle_alpha 90.000000
_cell_angle_beta 90.000000
_cell_angle_gamma 90.000000
_cell_volume 2582.530478
_symmetry_space_group_name_H-M "I M M 2"
_symmetry_group_IT_number 44
_symmetry_cell_setting 'orthorhombic'
loop_
_space_group_symop_operation_xyz
x,y,z
-x,-y,z
-x,y,z
x,-y,z
1/2+x,1/2+y,1/2+z
1/2-x,1/2-y,1/2+z
1/2-x,1/2+y,1/2+z
1/2+x,1/2-y,1/2+z
loop_
_atom_site_type_symbol
_atom_site_label
_atom_site_fract_x
_atom_site_fract_y
_atom_site_fract_z
Si Si1 0.846040 0.186639 0.689790
Si Si2 0.153777 0.187990 0.186529
Si Si3 0.500000 0.313957 0.438892
Si Si4 0.350551 0.812057 0.342126
Si Si5 0.500000 0.813830 0.097277
Si Si6 0.500000 0.813969 0.593352
Si Si7 0.846966 0.810910 0.343465
Si Si8 0.500000 0.309948 0.942950
O O1 0.750495 0.251180 0.673444
O O2 0.870042 0.248637 0.765855
O O3 0.916085 0.247544 0.636054
O O4 0.844718 0.000000 0.690285
O O5 0.131235 0.236002 0.265196
O O6 0.083998 0.253785 0.134119
O O7 0.153668 0.000000 0.183616
O O8 0.500000 0.500000 0.439792
O O9 0.583021 0.252994 0.397239
O O10 0.500000 0.250139 0.516087
O O11 0.251656 0.764626 0.358061
O O12 0.355140 0.000000 0.340565
O O13 0.500000 0.000000 0.101596
O O14 0.500000 0.758640 0.018699
O O15 0.500000 0.000000 0.591980
O O16 0.916264 0.759334 0.399225
O O17 0.848716 0.000000 0.343678
O O18 0.500000 0.500000 0.947134
#
# Coordination Sequence:
#
# PCOD9374302 Si02
#       8
#     8   8   4   8   4   4   8   4
#     4  11  22  39  62  89 116 150 195 244 293 349
#     4  10  20  39  64  90 117 152 194 241 292 347
#     4  12  25  40  57  82 115 156 199 244 293 348
#     4  10  20  38  61  87 116 150 190 238 291 348
#     4  12  25  40  55  80 117 158 197 240 293 348
#     4  12  25  40  58  86 121 160 198 240 293 352
#     4   8  17  34  61  88 113 146 186 228 281 341
#     4  10  19  36  58  84 115 150 188 230 279 342
#
# _framework density 18.586421999999999
#
# number of rings (size 3 to 8) (size 9 to 14) (size 15 to 20)
#    0.000    1.667    0.000    6.750    0.000    2.667 
#    0.000   10.833    0.000    0.000    0.000    0.000 
#    0.000    0.000    0.000    0.000    0.000    0.000 
#
# Total GULP energy -134142.745612 kJ/mol
# GULP energy per Si atom -5589.281067 kJ/mol
# Density = 1.854412 g / cm^3
# Si number density = 18.586422 Si / 1000 Ang^3
#
#
#
# Elastic Constant Matrix: (Units=GPa)
#
#
# Indices 1 2 3 4 5 6 
#
# 1 141.3186 58.7395 141.8623 0.0000 0.0000 0.0000
# 2 58.7395 129.3529 69.7292 0.0000 0.0000 0.0000
# 3 141.8623 69.7292 191.3567 0.0000 0.0000 0.0000
# 4 0.0000 0.0000 0.0000 33.1231 0.0000 0.0000
# 5 0.0000 0.0000 0.0000 0.0000 -20.2949 0.0000
# 6 0.0000 0.0000 0.0000 0.0000 0.0000 26.7248
#
#
#
# Elastic Compliance Matrix: (Units=1/GPa)
#
#
# Indices 1 2 3 4 5 6 
#
# 1 0.028034 -0.001900 -0.020090 0.000000 0.000000 0.000000
# 2 -0.001900 0.009749 -0.002144 0.000000 0.000000 0.000000
# 3 -0.020090 -0.002144 0.020901 0.000000 0.000000 0.000000
# 4 0.000000 0.000000 0.000000 0.030190 0.000000 0.000000
# 5 0.000000 0.000000 0.000000 0.000000 -0.049273 0.000000
# 6 0.000000 0.000000 0.000000 0.000000 0.000000 0.037418
#
#
# Mechanical properties :
#
#
# Convention : Reuss Voigt Hill
#
# Bulk Modulus (GPa) = 96.01358 111.41003 103.71181
# Shear Modulus (GPa) = 38.83194 20.69041 29.76118
#
# Velocity S-wave (km/s) = 4.57581 3.34009 4.00588
# Velocity P-wave (km/s) = 8.92678 8.65717 8.79301
#
# Compressibility (1/GPa) = 0.01041519
#
# Stress axis : x y z
#
# Youngs Moduli (GPa) = 35.67143 102.57077 47.84459
#
# Poissons Ratio (x) = 0.19491 0.96121
# Poissons Ratio (y) = 0.06778 0.10257
# Poissons Ratio (z) = 0.71665 0.21990
#
# Static dielectric constant tensor:
#      x y z
#    x 1.631340 0.000000 0.000000 
#    y 0.000000 1.625520 0.000000 
#    z 0.000000 0.000000 1.606960 
# 
# From -- ./inp_files/20386.got.cif
#   From: 2010.05.17/outbox.cif.g08.bks.cpg/sg44_11_cif.got.tgz:20386.got - 2010.06.03 19:37:08.
