data_PCOD9374883
_publ_section_title
;
Structure prediction by ZEFSAII (Michael W. Deem and Ramdas Pophale) SiO2 
 PCOD9374883
Probable space group: I M M 2
;
_chemical_formula_sum "Si O2"
_cell_formula_units_Z 48
_cell_length_a 8.665817
_cell_length_b 38.793123
_cell_length_c 7.817864
_cell_angle_alpha 90.000000
_cell_angle_beta 90.000000
_cell_angle_gamma 90.000000
_cell_volume 2628.163431
_symmetry_space_group_name_H-M "I M M 2"
_symmetry_group_IT_number 44
_symmetry_cell_setting 'orthorhombic'
loop_
_space_group_symop_operation_xyz
x,y,z
-x,-y,z
-x,y,z
x,-y,z
1/2+x,1/2+y,1/2+z
1/2-x,1/2-y,1/2+z
1/2-x,1/2+y,1/2+z
1/2+x,1/2-y,1/2+z
loop_
_atom_site_type_symbol
_atom_site_label
_atom_site_fract_x
_atom_site_fract_y
_atom_site_fract_z
Si Si1 0.814071 0.960149 0.076590
Si Si2 0.315344 0.039874 0.703522
Si Si3 0.686353 0.212683 0.089913
Si Si4 0.313346 0.837544 0.395307
Si Si5 0.813633 0.286988 0.200044
Si Si6 0.184945 0.914414 0.398677
O O1 0.764196 0.935101 0.228715
O O2 0.000000 0.958488 0.061806
O O3 0.772862 0.000000 0.116371
O O4 0.741319 0.951184 0.894022
O O5 0.500000 0.041589 0.697148
O O6 0.245115 0.064907 0.562814
O O7 0.267810 0.000000 0.670870
O O8 0.500000 0.214285 0.094322
O O9 0.734914 0.183983 0.227203
O O10 0.749880 0.249813 0.145570
O O11 0.734131 0.205156 0.894832
O O12 0.500000 0.839544 0.395666
O O13 0.265224 0.815561 0.562057
O O14 0.246460 0.875656 0.396954
O O15 0.000000 0.285334 0.195752
O O16 0.000000 0.914239 0.401259
#
# Coordination Sequence:
#
# PCOD9374883 Si02
#       6
#     8   8   8   8   8   8
#     4   9  19  37  60  85 115 152 194 239 286 337
#     4  10  21  37  60  89 118 152 194 238 286 342
#     4  10  20  35  57  81 106 139 181 229 280 333
#     4  10  22  38  53  79 116 151 188 234 287 341
#     4  10  20  35  57  82 108 139 180 228 279 335
#     4  11  23  38  58  85 119 156 195 240 289 342
#
# _framework density 18.263703
#
# number of rings (size 3 to 8) (size 9 to 14) (size 15 to 20)
#    0.000    2.000    1.667    1.500    0.000    5.667 
#    0.000    3.333    0.000    0.000    0.000    0.000 
#    0.000    0.000    0.000    0.000    0.000    0.000 
#
# Total GULP energy -134036.140539 kJ/mol
# GULP energy per Si atom -5584.839189 kJ/mol
# Density = 1.822213 g / cm^3
# Si number density = 18.263703 Si / 1000 Ang^3
#
#
#
# Elastic Constant Matrix: (Units=GPa)
#
#
# Indices 1 2 3 4 5 6 
#
# 1 16.6971 40.3665 41.5415 0.0008 0.0001 0.0007
# 2 40.3665 172.2502 136.3384 0.0010 -0.0017 -0.0024
# 3 41.5415 136.3384 206.1569 0.0000 -0.0017 -0.0010
# 4 0.0008 0.0010 0.0000 -10.8410 -0.0002 -0.0013
# 5 0.0001 -0.0017 -0.0017 -0.0002 17.4339 0.0002
# 6 0.0007 -0.0024 -0.0010 -0.0013 0.0002 24.2798
#
#
#
# Elastic Compliance Matrix: (Units=1/GPa)
#
#
# Indices 1 2 3 4 5 6 
#
# 1 0.158706 -0.024929 -0.015493 0.000009 -0.000005 -0.000008
# 2 -0.024929 0.016098 -0.005623 0.000000 0.000001 0.000002
# 3 -0.015493 -0.005623 0.011691 -0.000002 0.000001 0.000000
# 4 0.000009 0.000000 -0.000002 -0.092242 -0.000001 -0.000005
# 5 -0.000005 0.000001 0.000001 -0.000001 0.057359 0.000000
# 6 -0.000008 0.000002 0.000000 -0.000005 0.000000 0.041186
#
#
# Mechanical properties :
#
#
# Convention : Reuss Voigt Hill
#
# Bulk Modulus (GPa) = 10.59274 92.39967 51.49620
# Shear Modulus (GPa) = 15.80487 17.96507 16.88497
#
# Velocity S-wave (km/s) = 2.94491 3.13972 3.04387
# Velocity P-wave (km/s) = 4.16843 7.99034 6.37265
#
# Compressibility (1/GPa) = 0.09440432
#
# Stress axis : x y z
#
# Youngs Moduli (GPa) = 6.30096 62.11834 85.53340
#
# Poissons Ratio (x) = 1.54856 1.32520
# Poissons Ratio (y) = 0.15708 0.48095
# Poissons Ratio (z) = 0.09762 0.34929
#
# Static dielectric constant tensor:
#      x y z
#    x 1.621590 0.000000 0.000000 
#    y 0.000000 1.587240 0.000000 
#    z 0.000000 0.000000 1.623750 
# 
# From -- ./inp_files/4907.got.cif
#   From: 2010.05.17/outbox.cif.g08.bks.cpg/sg44_3_cif.got.tgz:4907.got - 2010.06.03 19:37:08.
