data_PCOD9374279
_publ_section_title
;
Structure prediction by ZEFSAII (Michael W. Deem and Ramdas Pophale) SiO2 
 PCOD9374279
Probable space group: I M M 2
;
_chemical_formula_sum "Si O2"
_cell_formula_units_Z 58
_cell_length_a 8.396827
_cell_length_b 18.289700
_cell_length_c 17.908759
_cell_angle_alpha 90.000000
_cell_angle_beta 90.000000
_cell_angle_gamma 90.000000
_cell_volume 2750.345665
_symmetry_space_group_name_H-M "I M M 2"
_symmetry_group_IT_number 44
_symmetry_cell_setting 'orthorhombic'
loop_
_space_group_symop_operation_xyz
x,y,z
-x,-y,z
-x,y,z
x,-y,z
1/2+x,1/2+y,1/2+z
1/2-x,1/2-y,1/2+z
1/2-x,1/2+y,1/2+z
1/2+x,1/2-y,1/2+z
loop_
_atom_site_type_symbol
_atom_site_label
_atom_site_fract_x
_atom_site_fract_y
_atom_site_fract_z
Si Si1 0.317437 0.638663 0.750000
Si Si2 0.820556 0.787696 0.705734
Si Si3 0.309980 0.830088 0.408115
Si Si4 0.000000 0.500000 0.116978
Si Si5 0.810810 0.415761 0.305045
Si Si6 0.194042 0.082571 0.093466
Si Si7 0.693424 0.664112 0.446506
Si Si8 0.176386 0.641399 0.070767
O O1 0.500000 0.616298 0.753871
O O2 0.298356 0.724270 0.730258
O O3 0.249887 0.632320 0.833043
O O4 0.245216 0.599256 0.677089
O O5 0.784761 0.859045 0.754590
O O6 0.790193 0.810321 0.620767
O O7 0.000000 0.762078 0.719221
O O8 0.500000 0.828747 0.401572
O O9 0.257687 0.745562 0.420266
O O10 0.269376 0.869479 0.485983
O O11 0.864141 0.435145 0.109836
O O12 0.769708 0.500000 0.290891
O O13 0.770339 0.393193 0.389427
O O14 0.000000 0.408036 0.289894
O O15 0.000000 0.085634 0.096382
O O16 0.238058 0.000000 0.071173
O O17 0.240864 0.141166 0.030402
O O18 0.500000 0.659924 0.441184
O O19 0.000000 0.679574 0.066457
#
# Coordination Sequence:
#
# PCOD9374279 Si02
#       8
#     8   8   8   2   8   8   8   8
#     4  11  22  38  61  89 122 163 203 248 302 361
#     4  12  24  38  59  88 121 156 202 252 303 361
#     4  10  20  37  59  88 119 153 200 251 297 355
#     4   8  20  40  66  88 116 160 206 248 304 380
#     4  11  24  38  56  84 121 159 194 241 304 370
#     4   9  19  37  61  89 120 157 202 247 298 358
#     4  10  19  35  61  86 114 152 198 247 293 347
#     4   9  20  39  62  85 116 156 201 244 303 365
#
# _framework density 21.088258
#
# number of rings (size 3 to 8) (size 9 to 14) (size 15 to 20)
#    0.414    1.379    1.379    3.310    0.966    4.414 
#    1.241    2.759    0.000    2.897    0.000    0.000 
#    0.000    0.000    0.000    0.000    0.000    0.000 
#
# Total GULP energy -161595.320892 kJ/mol
# GULP energy per Si atom -5572.252445 kJ/mol
# Density = 2.104026 g / cm^3
# Si number density = 21.088258 Si / 1000 Ang^3
#
#
#
# Elastic Constant Matrix: (Units=GPa)
#
#
# Indices 1 2 3 4 5 6 
#
# 1 10.8417 -5.7505 7.1148 0.0000 0.0000 0.0000
# 2 -5.7505 24.6663 -9.5163 0.0000 0.0000 0.0000
# 3 7.1148 -9.5163 122.5135 0.0000 0.0000 0.0000
# 4 0.0000 0.0000 0.0000 24.1740 0.0000 0.0000
# 5 0.0000 0.0000 0.0000 0.0000 28.3958 0.0000
# 6 0.0000 0.0000 0.0000 0.0000 0.0000 13.9147
#
#
#
# Elastic Compliance Matrix: (Units=1/GPa)
#
#
# Indices 1 2 3 4 5 6 
#
# 1 0.107535 0.023361 -0.004430 0.000000 0.000000 0.000000
# 2 0.023361 0.046868 0.002284 0.000000 0.000000 0.000000
# 3 -0.004430 0.002284 0.008597 0.000000 0.000000 0.000000
# 4 0.000000 0.000000 0.000000 0.041367 0.000000 0.000000
# 5 0.000000 0.000000 0.000000 0.000000 0.035216 0.000000
# 6 0.000000 0.000000 0.000000 0.000000 0.000000 0.071866
#
#
# Mechanical properties :
#
#
# Convention : Reuss Voigt Hill
#
# Bulk Modulus (GPa) = 4.86787 15.74637 10.30712
# Shear Modulus (GPa) = 14.81492 24.37515 19.59504
#
# Velocity S-wave (km/s) = 2.65338 3.40349 3.05157
# Velocity P-wave (km/s) = 3.42062 4.78833 4.16105
#
# Compressibility (1/GPa) = 0.20542862
#
# Stress axis : x y z
#
# Youngs Moduli (GPa) = 9.29932 21.33633 116.31882
#
# Poissons Ratio (x) = -0.49843 0.51534
# Poissons Ratio (y) = -0.21724 -0.26566
# Poissons Ratio (z) = 0.04120 -0.04873
#
# Static dielectric constant tensor:
#      x y z
#    x 1.745670 0.000000 0.000000 
#    y 0.000000 1.733660 0.000000 
#    z 0.000000 0.000000 1.816980 
# 
# From -- ./inp_files/20592.got.cif
#   From: 2010.05.17/outbox.cif.g08.bks.cpg/sg44_11_cif.got.tgz:20592.got - 2010.06.03 19:37:08.
