data_PCOD9374030
_publ_section_title
;
Structure prediction by ZEFSAII (Michael W. Deem and Ramdas Pophale) SiO2 
 PCOD9374030
Probable space group: I M M 2
;
_chemical_formula_sum "Si O2"
_cell_formula_units_Z 64
_cell_length_a 7.851911
_cell_length_b 27.539412
_cell_length_c 13.504771
_cell_angle_alpha 90.000000
_cell_angle_beta 90.000000
_cell_angle_gamma 90.000000
_cell_volume 2920.231329
_symmetry_space_group_name_H-M "I M M 2"
_symmetry_group_IT_number 44
_symmetry_cell_setting 'orthorhombic'
loop_
_space_group_symop_operation_xyz
x,y,z
-x,-y,z
-x,y,z
x,-y,z
1/2+x,1/2+y,1/2+z
1/2-x,1/2-y,1/2+z
1/2-x,1/2+y,1/2+z
1/2+x,1/2-y,1/2+z
loop_
_atom_site_type_symbol
_atom_site_label
_atom_site_fract_x
_atom_site_fract_y
_atom_site_fract_z
Si Si1 0.199755 0.553306 0.042070
Si Si2 0.799846 0.759629 0.691230
Si Si3 0.209149 0.121818 0.925069
Si Si4 0.792226 0.056268 0.109941
Si Si5 0.202737 0.130856 0.705388
Si Si6 0.697905 0.274904 0.497936
Si Si7 0.195535 0.086537 0.327374
Si Si8 0.699136 0.808001 0.378116
O O1 0.274367 0.500000 0.065213
O O2 0.267658 0.595982 0.112349
O O3 0.000000 0.551874 0.062134
O O4 0.222857 0.563473 0.925334
O O5 0.728685 0.814316 0.691917
O O6 0.710494 0.723423 0.615201
O O7 0.788786 0.734301 0.796981
O O8 0.000000 0.760761 0.665444
O O9 0.261670 0.110000 0.812286
O O10 0.268642 0.176714 0.949088
O O11 0.000000 0.121495 0.928202
O O12 0.266073 0.087439 0.015131
O O13 0.732468 0.074212 0.218548
O O14 0.000000 0.059727 0.110995
O O15 0.746646 0.000000 0.098050
O O16 0.000000 0.136826 0.715778
O O17 0.500000 0.272843 0.468082
O O18 0.769315 0.221493 0.472026
O O19 0.205881 0.144117 0.345377
O O20 0.000000 0.070030 0.327359
O O21 0.500000 0.822356 0.391830
#
# Coordination Sequence:
#
# PCOD9374030 Si02
#       8
#     8   8   8   8   8   8   8   8
#     4  11  25  43  61  83 115 156 198 244 303 362
#     4  10  20  34  52  80 116 152 188 232 281 335
#     4   9  17  33  56  82 115 150 186 231 286 344
#     4   9  18  32  53  83 114 142 179 235 295 342
#     4  10  20  37  61  87 117 152 195 244 289 342
#     4  10  19  33  53  77 108 149 187 226 277 334
#     4  11  22  37  59  88 118 148 193 248 294 344
#     4  10  20  35  54  78 114 154 185 219 281 346
#
# _framework density 21.916072
#
# number of rings (size 3 to 8) (size 9 to 14) (size 15 to 20)
#    0.000    2.000    1.250    2.625    0.000    6.500 
#    0.000    1.875    0.000    1.500    0.000    1.750 
#    0.000    0.000    0.000    0.000    0.000    0.000 
#
# Total GULP energy -178566.181893 kJ/mol
# GULP energy per Si atom -5580.193184 kJ/mol
# Density = 2.186619 g / cm^3
# Si number density = 21.916072 Si / 1000 Ang^3
#
#
#
# Elastic Constant Matrix: (Units=GPa)
#
#
# Indices 1 2 3 4 5 6 
#
# 1 17.3483 -1.5991 -1.2944 0.0000 0.0000 0.0000
# 2 -1.5991 93.8217 21.1975 0.0000 0.0000 0.0000
# 3 -1.2944 21.1975 107.3750 -0.0001 0.0001 0.0000
# 4 0.0000 0.0000 -0.0001 32.0834 0.0000 0.0000
# 5 0.0000 0.0000 0.0001 0.0000 15.3306 0.0000
# 6 0.0000 0.0000 0.0000 0.0000 0.0000 9.2544
#
#
#
# Elastic Compliance Matrix: (Units=1/GPa)
#
#
# Indices 1 2 3 4 5 6 
#
# 1 0.057762 0.000866 0.000525 0.000000 0.000000 0.000000
# 2 0.000866 0.011169 -0.002195 0.000000 0.000000 0.000000
# 3 0.000525 -0.002195 0.009753 0.000000 0.000000 0.000000
# 4 0.000000 0.000000 0.000000 0.031169 0.000000 0.000000
# 5 0.000000 0.000000 0.000000 0.000000 0.065229 0.000000
# 6 0.000000 0.000000 0.000000 0.000000 0.000000 0.108056
#
#
# Mechanical properties :
#
#
# Convention : Reuss Voigt Hill
#
# Bulk Modulus (GPa) = 12.97407 28.35034 20.66220
# Shear Modulus (GPa) = 16.10635 24.68308 20.39471
#
# Velocity S-wave (km/s) = 2.71386 3.35961 3.05385
# Velocity P-wave (km/s) = 3.96898 5.29276 4.67793
#
# Compressibility (1/GPa) = 0.07707684
#
# Stress axis : x y z
#
# Youngs Moduli (GPa) = 17.31251 89.53286 102.53550
#
# Poissons Ratio (x) = -0.07752 -0.05387
# Poissons Ratio (y) = -0.01499 0.22502
# Poissons Ratio (z) = -0.00910 0.19648
#
# Static dielectric constant tensor:
#      x y z
#    x 1.823490 0.000000 0.000000 
#    y 0.000000 1.823620 0.000000 
#    z 0.000000 0.000000 1.819700 
# 
# From -- ./inp_files/11510.got.cif
#   From: 2010.05.17/outbox.cif.g08.bks.cpg/sg44_6_cif.got.tgz:11510.got - 2010.06.03 19:37:08.
