data_PCOD9374848
_publ_section_title
;
Structure prediction by ZEFSAII (Michael W. Deem and Ramdas Pophale) SiO2 
 PCOD9374848
Probable space group: I M M 2
;
_chemical_formula_sum "Si O2"
_cell_formula_units_Z 48
_cell_length_a 10.589144
_cell_length_b 8.469511
_cell_length_c 29.188472
_cell_angle_alpha 90.000000
_cell_angle_beta 90.000000
_cell_angle_gamma 90.000000
_cell_volume 2617.764363
_symmetry_space_group_name_H-M "I M M 2"
_symmetry_group_IT_number 44
_symmetry_cell_setting 'orthorhombic'
loop_
_space_group_symop_operation_xyz
x,y,z
-x,-y,z
-x,y,z
x,-y,z
1/2+x,1/2+y,1/2+z
1/2-x,1/2-y,1/2+z
1/2-x,1/2+y,1/2+z
1/2+x,1/2-y,1/2+z
loop_
_atom_site_type_symbol
_atom_site_label
_atom_site_fract_x
_atom_site_fract_y
_atom_site_fract_z
Si Si1 0.247994 0.189894 0.388950
Si Si2 0.500000 0.191063 0.541100
Si Si3 0.352942 0.690376 0.690613
Si Si4 0.000000 0.812433 0.937412
Si Si5 0.746443 0.809797 0.597214
Si Si6 0.500000 0.188258 0.941408
Si Si7 0.646495 0.307864 0.793002
Si Si8 0.500000 0.308157 0.045226
O O1 0.374809 0.253885 0.411569
O O2 0.228497 0.243574 0.336261
O O3 0.124887 0.244535 0.416934
O O4 0.251927 0.000000 0.389757
O O5 0.500000 0.247572 0.489107
O O6 0.375073 0.245133 0.568078
O O7 0.500000 0.000000 0.541016
O O8 0.500000 0.738474 0.683721
O O9 0.350036 0.500000 0.689756
O O10 0.270424 0.753972 0.649153
O O11 0.314834 0.742740 0.741891
O O12 0.000000 0.000000 0.938972
O O13 0.874962 0.758487 0.572735
O O14 0.745147 0.000000 0.597036
O O15 0.500000 0.000000 0.937889
O O16 0.500000 0.240162 0.994276
O O17 0.500000 0.260777 0.800151
O O18 0.647396 0.500000 0.792838
O O19 0.500000 0.500000 0.041951
#
# Coordination Sequence:
#
# PCOD9374848 Si02
#       8
#     8   4   8   4   8   4   8   4
#     4  11  21  39  64  85 112 156 199 231 277 347
#     4  10  20  36  57  78 103 145 196 233 269 338
#     4   9  17  31  55  84 111 138 176 230 284 327
#     4  12  26  40  55  84 123 151 186 245 297 336
#     4  10  20  35  55  80 109 141 186 231 271 327
#     4  12  24  38  59  90 119 145 188 247 297 334
#     4   8  15  31  57  86 108 136 185 234 270 326
#     4  10  22  38  55  76 109 155 192 225 273 338
#
# _framework density 18.336255999999999
#
# number of rings (size 3 to 8) (size 9 to 14) (size 15 to 20)
#    0.000    2.000    1.667    4.000    0.000    2.667 
#    0.000    2.500    0.000    3.000    0.000    0.000 
#    0.000    0.000    0.000    0.000    0.000    0.000 
#
# Total GULP energy -133994.076106 kJ/mol
# GULP energy per Si atom -5583.086504 kJ/mol
# Density = 1.829452 g / cm^3
# Si number density = 18.336256 Si / 1000 Ang^3
#
#
#
# Elastic Constant Matrix: (Units=GPa)
#
#
# Indices 1 2 3 4 5 6 
#
# 1 141.1616 23.0525 87.9595 0.0000 0.0000 0.0000
# 2 23.0525 21.8798 17.5003 0.0000 0.0000 0.0000
# 3 87.9595 17.5003 184.4843 0.0000 0.0000 0.0000
# 4 0.0000 0.0000 0.0000 26.3546 0.0000 0.0000
# 5 0.0000 0.0000 0.0000 0.0000 7.6052 0.0000
# 6 0.0000 0.0000 0.0000 0.0000 0.0000 21.0265
#
#
#
# Elastic Compliance Matrix: (Units=1/GPa)
#
#
# Indices 1 2 3 4 5 6 
#
# 1 0.011296 -0.008217 -0.004606 0.000000 0.000000 0.000000
# 2 -0.008217 0.055434 -0.001341 0.000000 0.000000 0.000000
# 3 -0.004606 -0.001341 0.007744 0.000000 0.000000 0.000000
# 4 0.000000 0.000000 0.000000 0.037944 0.000000 0.000000
# 5 0.000000 0.000000 0.000000 0.000000 0.131490 0.000000
# 6 0.000000 0.000000 0.000000 0.000000 0.000000 0.047559
#
#
# Mechanical properties :
#
#
# Convention : Reuss Voigt Hill
#
# Bulk Modulus (GPa) = 21.67041 67.17227 44.42134
# Shear Modulus (GPa) = 14.91743 25.59815 20.25779
#
# Velocity S-wave (km/s) = 2.85537 3.74042 3.32745
# Velocity P-wave (km/s) = 4.76601 7.44093 6.24829
#
# Compressibility (1/GPa) = 0.04614588
#
# Stress axis : x y z
#
# Youngs Moduli (GPa) = 88.52412 18.03932 129.13276
#
# Poissons Ratio (x) = 0.14824 0.59484
# Poissons Ratio (y) = 0.72744 0.17311
# Poissons Ratio (z) = 0.40778 0.02418
#
# Static dielectric constant tensor:
#      x y z
#    x 1.569630 0.000000 0.000000 
#    y 0.000000 1.630780 0.000000 
#    z 0.000000 0.000000 1.628170 
# 
# From -- ./inp_files/27079.got.cif
#   From: 2010.05.17/outbox.cif.g08.bks.cpg/sg44_14_cif.got.tgz:27079.got - 2010.06.03 19:37:08.
