data_PCOD9374243
_publ_section_title
;
Structure prediction by ZEFSAII (Michael W. Deem and Ramdas Pophale) SiO2 
 PCOD9374243
Probable space group: I M M 2
;
_chemical_formula_sum "Si O2"
_cell_formula_units_Z 64
_cell_length_a 13.328196
_cell_length_b 13.172957
_cell_length_c 15.410842
_cell_angle_alpha 90.000000
_cell_angle_beta 90.000000
_cell_angle_gamma 90.000000
_cell_volume 2705.708542
_symmetry_space_group_name_H-M "I M M 2"
_symmetry_group_IT_number 44
_symmetry_cell_setting 'orthorhombic'
loop_
_space_group_symop_operation_xyz
x,y,z
-x,-y,z
-x,y,z
x,-y,z
1/2+x,1/2+y,1/2+z
1/2-x,1/2-y,1/2+z
1/2-x,1/2+y,1/2+z
1/2+x,1/2-y,1/2+z
loop_
_atom_site_type_symbol
_atom_site_label
_atom_site_fract_x
_atom_site_fract_y
_atom_site_fract_z
Si Si1 0.782980 0.384814 0.364730
Si Si2 0.893408 0.117278 0.979436
Si Si3 0.382463 0.882972 0.596510
Si Si4 0.173140 0.167562 0.163112
Si Si5 0.888242 0.107823 0.718555
Si Si6 0.327183 0.882620 0.397813
Si Si7 0.389587 0.319184 0.854566
Si Si8 0.889359 0.330040 0.707912
O O1 0.818296 0.500000 0.380672
O O2 0.710302 0.343240 0.440907
O O3 0.703571 0.389240 0.285592
O O4 0.868826 0.302269 0.353071
O O5 0.883772 0.121691 0.082173
O O6 0.000000 0.164545 0.954266
O O7 0.894686 0.000000 0.950575
O O8 0.500000 0.877634 0.619003
O O9 0.329776 0.789734 0.645262
O O10 0.371017 0.863784 0.493240
O O11 0.349329 0.000000 0.614293
O O12 0.121276 0.147357 0.254530
O O13 0.286869 0.125873 0.169759
O O14 0.889324 0.215002 0.671333
O O15 0.000000 0.106460 0.761471
O O16 0.881257 0.000000 0.670063
O O17 0.207105 0.867008 0.400856
O O18 0.370242 0.825179 0.312684
O O19 0.349495 0.000000 0.377748
O O20 0.500000 0.342614 0.888533
O O21 0.000000 0.374257 0.692637
#
# Coordination Sequence:
#
# PCOD9374243 Si02
#       8
#     8   8   8   8   8   8   8   8
#     4  10  19  35  58  85 112 140 181 234 284 333
#     4  10  21  37  59  85 111 143 185 234 285 332
#     4  10  21  37  59  85 112 144 184 233 286 333
#     4  11  22  36  54  82 117 151 182 223 274 339
#     4   9  16  29  53  83 110 135 170 221 279 331
#     4  10  21  39  61  85 108 141 195 249 286 322
#     4  11  23  38  55  83 116 152 191 226 277 341
#     4  10  21  37  57  83 114 149 187 231 283 332
#
# _framework density 23.653693000000001
#
# number of rings (size 3 to 8) (size 9 to 14) (size 15 to 20)
#    0.000    1.875    2.500    2.625    0.000    5.750 
#    0.000    2.500    0.000    1.500    0.000    0.000 
#    0.000    0.000    0.000    0.000    0.000    0.000 
#
# Total GULP energy -178626.113618 kJ/mol
# GULP energy per Si atom -5582.066051 kJ/mol
# Density = 2.359986 g / cm^3
# Si number density = 23.653693 Si / 1000 Ang^3
#
#
#
# Elastic Constant Matrix: (Units=GPa)
#
#
# Indices 1 2 3 4 5 6 
#
# 1 136.4741 -3.6933 13.2359 0.0000 0.0000 0.0000
# 2 -3.6933 72.3491 -9.3141 0.0000 0.0000 0.0000
# 3 13.2359 -9.3141 30.3289 0.0000 0.0000 0.0000
# 4 0.0000 0.0000 0.0000 14.6846 0.0000 0.0000
# 5 0.0000 0.0000 0.0000 0.0000 12.8188 0.0000
# 6 0.0000 0.0000 0.0000 0.0000 0.0000 13.3926
#
#
#
# Elastic Compliance Matrix: (Units=1/GPa)
#
#
# Indices 1 2 3 4 5 6 
#
# 1 0.007651 -0.000041 -0.003352 0.000000 0.000000 0.000000
# 2 -0.000041 0.014391 0.004437 0.000000 0.000000 0.000000
# 3 -0.003352 0.004437 0.035797 0.000000 0.000000 0.000000
# 4 0.000000 0.000000 0.000000 0.068099 0.000000 0.000000
# 5 0.000000 0.000000 0.000000 0.000000 0.078010 0.000000
# 6 0.000000 0.000000 0.000000 0.000000 0.000000 0.074668
#
#
# Mechanical properties :
#
#
# Convention : Reuss Voigt Hill
#
# Bulk Modulus (GPa) = 16.68635 26.62324 21.65480
# Shear Modulus (GPa) = 16.86322 24.10746 20.48534
#
# Velocity S-wave (km/s) = 2.67296 3.19593 2.94607
# Velocity P-wave (km/s) = 4.07382 4.98984 4.55491
#
# Compressibility (1/GPa) = 0.05992921
#
# Stress axis : x y z
#
# Youngs Moduli (GPa) = 130.69580 69.48766 27.93509
#
# Poissons Ratio (x) = 0.00284 0.09363
# Poissons Ratio (y) = 0.00535 -0.12396
# Poissons Ratio (z) = 0.43805 -0.30834
#
# Static dielectric constant tensor:
#      x y z
#    x 1.885420 0.000000 0.000000 
#    y 0.000000 2.008480 0.000000 
#    z 0.000000 0.000000 1.875290 
# 
# From -- ./inp_files/21438.got.cif
#   From: 2010.05.17/outbox.cif.g08.bks.cpg/sg44_11_cif.got.tgz:21438.got - 2010.06.03 19:37:08.
