data_PCOD9374605
_publ_section_title
;
Structure prediction by ZEFSAII (Michael W. Deem and Ramdas Pophale) SiO2 
 PCOD9374605
Probable space group: I M M 2
;
_chemical_formula_sum "Si O2"
_cell_formula_units_Z 56
_cell_length_a 9.238722
_cell_length_b 24.032774
_cell_length_c 14.005616
_cell_angle_alpha 90.000000
_cell_angle_beta 90.000000
_cell_angle_gamma 90.000000
_cell_volume 3109.696583
_symmetry_space_group_name_H-M "I M M 2"
_symmetry_group_IT_number 44
_symmetry_cell_setting 'orthorhombic'
loop_
_space_group_symop_operation_xyz
x,y,z
-x,-y,z
-x,y,z
x,-y,z
1/2+x,1/2+y,1/2+z
1/2-x,1/2-y,1/2+z
1/2-x,1/2+y,1/2+z
1/2+x,1/2-y,1/2+z
loop_
_atom_site_type_symbol
_atom_site_label
_atom_site_fract_x
_atom_site_fract_y
_atom_site_fract_z
Si Si1 0.171476 0.383445 0.398210
Si Si2 0.172811 0.064483 0.296832
Si Si3 0.327851 0.833821 0.391594
Si Si4 0.329161 0.767260 0.793713
Si Si5 0.326885 0.838048 0.611745
Si Si6 0.828583 0.065624 0.072639
Si Si7 0.327551 0.564310 0.218953
O O1 0.193963 0.319870 0.364204
O O2 0.235847 0.397395 0.501190
O O3 0.254263 0.420996 0.320255
O O4 0.000000 0.394502 0.394473
O O5 0.258612 0.107911 0.360268
O O6 0.202087 0.075348 0.184422
O O7 0.000000 0.070846 0.310686
O O8 0.209338 0.000000 0.316457
O O9 0.500000 0.835713 0.380378
O O10 0.260815 0.785148 0.327718
O O11 0.295055 0.822870 0.503064
O O12 0.500000 0.753600 0.794373
O O13 0.290597 0.790219 0.688553
O O14 0.500000 0.848149 0.621458
O O15 0.242557 0.893208 0.643942
O O16 0.000000 0.075353 0.057226
O O17 0.801352 0.000000 0.053575
O O18 0.500000 0.572973 0.225302
O O19 0.300827 0.500000 0.194610
#
# Coordination Sequence:
#
# PCOD9374605 Si02
#       7
#     8   8   8   8   8   8   8
#     4  10  20  33  52  80 112 146 183 224 272 321
#     4   9  20  39  59  79 108 146 183 219 264 320
#     4  11  23  38  59  85 109 137 176 223 275 323
#     4   9  20  39  57  75 105 143 181 218 261 321
#     4   9  21  40  57  77 108 143 179 222 271 321
#     4   9  18  33  53  78 109 146 186 224 264 316
#     4  10  20  33  52  80 111 144 184 226 267 317
#
# _framework density 18.008189000000002
#
# number of rings (size 3 to 8) (size 9 to 14) (size 15 to 20)
#    0.000    2.429    0.000    3.429    0.000    9.714 
#    0.000    8.571    0.000    0.000    0.000    0.000 
#    0.000    0.000    0.000    0.000    0.000    0.000 
#
# Total GULP energy -156300.374754 kJ/mol
# GULP energy per Si atom -5582.156241 kJ/mol
# Density = 1.796720 g / cm^3
# Si number density = 18.008189 Si / 1000 Ang^3
#
#
#
# Elastic Constant Matrix: (Units=GPa)
#
#
# Indices 1 2 3 4 5 6 
#
# 1 56.7353 64.4772 59.9688 0.0000 0.0000 0.0000
# 2 64.4772 103.0521 79.2447 0.0001 0.0000 0.0000
# 3 59.9688 79.2447 105.9428 0.0001 0.0000 0.0000
# 4 0.0000 0.0001 0.0001 13.6034 0.0000 0.0000
# 5 0.0000 0.0000 0.0000 0.0000 31.5575 0.0000
# 6 0.0000 0.0000 0.0000 0.0000 0.0000 32.9042
#
#
#
# Elastic Compliance Matrix: (Units=1/GPa)
#
#
# Indices 1 2 3 4 5 6 
#
# 1 0.071448 -0.032023 -0.016491 0.000000 0.000000 0.000000
# 2 -0.032023 0.037195 -0.009695 0.000000 0.000000 0.000000
# 3 -0.016491 -0.009695 0.026026 0.000000 0.000000 0.000000
# 4 0.000000 0.000000 0.000000 0.073511 0.000000 0.000000
# 5 0.000000 0.000000 0.000000 0.000000 0.031688 0.000000
# 6 0.000000 0.000000 0.000000 0.000000 0.000000 0.030391
#
#
# Mechanical properties :
#
#
# Convention : Reuss Voigt Hill
#
# Bulk Modulus (GPa) = 54.78843 74.79018 64.78930
# Shear Modulus (GPa) = 12.73038 19.74899 16.23969
#
# Velocity S-wave (km/s) = 2.66168 3.31519 3.00625
# Velocity P-wave (km/s) = 6.31952 7.50169 6.93584
#
# Compressibility (1/GPa) = 0.01825203
#
# Stress axis : x y z
#
# Youngs Moduli (GPa) = 13.99610 26.88524 38.42369
#
# Poissons Ratio (x) = 0.86094 0.63363
# Poissons Ratio (y) = 0.44819 0.37253
# Poissons Ratio (z) = 0.23080 0.26066
#
# Static dielectric constant tensor:
#      x y z
#    x 1.594200 0.000000 0.000000 
#    y 0.000000 1.595940 0.000000 
#    z 0.000000 0.000000 1.613540 
# 
# From -- ./inp_files/16470.got.cif
#   From: 2010.05.17/outbox.cif.g08.bks.cpg/sg44_9_cif.got.tgz:16470.got - 2010.06.03 19:37:08.
