data_PCOD9374232
_publ_section_title
;
Structure prediction by ZEFSAII (Michael W. Deem and Ramdas Pophale) SiO2 
 PCOD9374232
Probable space group: I M M 2
;
_chemical_formula_sum "Si O2"
_cell_formula_units_Z 64
_cell_length_a 25.493255
_cell_length_b 8.140036
_cell_length_c 15.390934
_cell_angle_alpha 90.000000
_cell_angle_beta 90.000000
_cell_angle_gamma 90.000000
_cell_volume 3193.865267
_symmetry_space_group_name_H-M "I M M 2"
_symmetry_group_IT_number 44
_symmetry_cell_setting 'orthorhombic'
loop_
_space_group_symop_operation_xyz
x,y,z
-x,-y,z
-x,y,z
x,-y,z
1/2+x,1/2+y,1/2+z
1/2-x,1/2-y,1/2+z
1/2-x,1/2+y,1/2+z
1/2+x,1/2-y,1/2+z
loop_
_atom_site_type_symbol
_atom_site_label
_atom_site_fract_x
_atom_site_fract_y
_atom_site_fract_z
Si Si1 0.058312 0.193134 0.454760
Si Si2 0.782845 0.699525 0.674752
Si Si3 0.270903 0.192581 0.375804
Si Si4 0.834104 0.800399 0.152615
Si Si5 0.842574 0.690922 0.348230
Si Si6 0.896003 0.694965 0.629662
Si Si7 0.368239 0.307793 0.473772
Si Si8 0.438581 0.301294 0.315573
O O1 0.105389 0.276429 0.402811
O O2 0.069684 0.218524 0.556662
O O3 0.000000 0.256570 0.434063
O O4 0.059769 0.000000 0.434836
O O5 0.783260 0.500000 0.672177
O O6 0.784224 0.745038 0.776698
O O7 0.726506 0.754456 0.639962
O O8 0.835529 0.755079 0.627573
O O9 0.208770 0.218035 0.385619
O O10 0.308733 0.289987 0.439586
O O11 0.283071 0.000000 0.384429
O O12 0.850387 0.745370 0.248426
O O13 0.834187 0.000000 0.152193
O O14 0.868453 0.739794 0.071600
O O15 0.829412 0.500000 0.350004
O O16 0.896865 0.500000 0.612311
O O17 0.917072 0.727081 0.726226
O O18 0.381746 0.500000 0.480414
O O19 0.405657 0.238803 0.398610
O O20 0.500000 0.265147 0.325391
O O21 0.432453 0.500000 0.309762
#
# Coordination Sequence:
#
# PCOD9374232 Si02
#       8
#     8   8   8   8   8   8   8   8
#     4  11  25  44  63  85 115 153 198 245 297 355
#     4   8  16  31  51  78 114 152 184 226 283 342
#     4  10  19  35  57  84 119 154 189 235 292 350
#     4   9  19  37  58  83 120 157 192 237 293 349
#     4  11  23  40  62  88 117 150 195 244 294 351
#     4  11  21  35  57  87 119 154 196 242 293 348
#     4  10  20  34  57  86 116 156 202 245 288 344
#     4  10  21  37  55  80 118 159 199 244 291 344
#
# _framework density 20.038415000000001
#
# number of rings (size 3 to 8) (size 9 to 14) (size 15 to 20)
#    0.000    2.000    1.250    3.375    1.750    3.250 
#    0.000    1.250    0.000    2.250    0.000    0.000 
#    0.000    0.000    0.000    0.000    0.000    0.000 
#
# Total GULP energy -178693.994395 kJ/mol
# GULP energy per Si atom -5584.187325 kJ/mol
# Density = 1.999281 g / cm^3
# Si number density = 20.038415 Si / 1000 Ang^3
#
#
#
# Elastic Constant Matrix: (Units=GPa)
#
#
# Indices 1 2 3 4 5 6 
#
# 1 78.5175 -6.2669 30.1875 0.0000 0.0000 0.0000
# 2 -6.2669 19.9714 -7.8733 0.0000 0.0000 0.0000
# 3 30.1875 -7.8733 70.3153 0.0000 0.0000 0.0000
# 4 0.0000 0.0000 0.0000 14.5352 0.0000 0.0000
# 5 0.0000 0.0000 0.0000 0.0000 26.7761 0.0000
# 6 0.0000 0.0000 0.0000 0.0000 0.0000 18.4222
#
#
#
# Elastic Compliance Matrix: (Units=1/GPa)
#
#
# Indices 1 2 3 4 5 6 
#
# 1 0.015356 0.002322 -0.006333 0.000000 0.000000 0.000000
# 2 0.002322 0.052735 0.004908 0.000000 0.000000 0.000000
# 3 -0.006333 0.004908 0.017490 0.000000 0.000000 0.000000
# 4 0.000000 0.000000 0.000000 0.068799 0.000000 0.000000
# 5 0.000000 0.000000 0.000000 0.000000 0.037347 0.000000
# 6 0.000000 0.000000 0.000000 0.000000 0.000000 0.054282
#
#
# Mechanical properties :
#
#
# Convention : Reuss Voigt Hill
#
# Bulk Modulus (GPa) = 11.44480 22.32210 16.88345
# Shear Modulus (GPa) = 18.29228 22.13048 20.21138
#
# Velocity S-wave (km/s) = 3.02464 3.32686 3.17934
# Velocity P-wave (km/s) = 4.23341 5.09128 4.68203
#
# Compressibility (1/GPa) = 0.08737594
#
# Stress axis : x y z
#
# Youngs Moduli (GPa) = 65.12098 18.96267 57.17590
#
# Poissons Ratio (x) = -0.04403 0.36207
# Poissons Ratio (y) = -0.15122 -0.28061
# Poissons Ratio (z) = 0.41238 -0.09307
#
# Static dielectric constant tensor:
#      x y z
#    x 1.702710 0.000000 0.000000 
#    y 0.000000 1.696640 0.000000 
#    z 0.000000 0.000000 1.710710 
# 
# From -- ./inp_files/16873.got.cif
#   From: 2010.05.17/outbox.cif.g08.bks.cpg/sg44_9_cif.got.tgz:16873.got - 2010.06.03 19:37:08.
