data_PCOD9374811
_publ_section_title
;
Structure prediction by ZEFSAII (Michael W. Deem and Ramdas Pophale) SiO2 
 PCOD9374811
Probable space group: I M M 2
;
_chemical_formula_sum "Si O2"
_cell_formula_units_Z 40
_cell_length_a 8.854663
_cell_length_b 11.871407
_cell_length_c 20.429973
_cell_angle_alpha 90.000000
_cell_angle_beta 90.000000
_cell_angle_gamma 90.000000
_cell_volume 2147.543771
_symmetry_space_group_name_H-M "I M M 2"
_symmetry_group_IT_number 44
_symmetry_cell_setting 'orthorhombic'
loop_
_space_group_symop_operation_xyz
x,y,z
-x,-y,z
-x,y,z
x,-y,z
1/2+x,1/2+y,1/2+z
1/2-x,1/2-y,1/2+z
1/2-x,1/2+y,1/2+z
1/2+x,1/2-y,1/2+z
loop_
_atom_site_type_symbol
_atom_site_label
_atom_site_fract_x
_atom_site_fract_y
_atom_site_fract_z
Si Si1 0.681135 0.130966 0.175440
Si Si2 0.321922 0.000000 0.703376
Si Si3 0.316965 0.250483 0.040062
Si Si4 0.680855 0.630618 0.415352
Si Si5 0.819189 0.000000 0.561735
Si Si6 0.179184 0.275303 0.286792
O O1 0.500000 0.141888 0.182137
O O2 0.726727 0.204091 0.111898
O O3 0.757471 0.176637 0.241139
O O4 0.716691 0.000000 0.163842
O O5 0.290407 0.110265 0.746049
O O6 0.500000 0.000000 0.686416
O O7 0.226157 0.000000 0.637685
O O8 0.500000 0.245295 0.036132
O O9 0.266791 0.380691 0.032729
O O10 0.247059 0.174501 0.983576
O O11 0.500000 0.635101 0.416490
O O12 0.726886 0.500000 0.404449
O O13 0.743140 0.707298 0.356602
O O14 0.000000 0.000000 0.556854
O O15 0.000000 0.263655 0.295574
#
# Coordination Sequence:
#
# PCOD9374811 Si02
#       6
#     8   4   8   8   4   8
#     4  10  21  38  61  89 120 155 194 237 287 343
#     4  10  20  34  58  90 118 145 184 237 290 342
#     4  10  21  38  61  88 118 153 192 237 290 346
#     4  11  24  40  60  86 116 153 197 244 292 344
#     4  10  20  36  62  90 116 149 190 237 286 344
#     4  11  22  38  61  88 118 152 191 239 293 347
#
# _framework density 18.625931000000001
#
# number of rings (size 3 to 8) (size 9 to 14) (size 15 to 20)
#    0.000    1.600    3.000    1.800    0.000    4.800 
#    1.800    0.000    0.000    0.000    0.000    0.000 
#    0.000    0.000    0.000    0.000    0.000    0.000 
#
# Total GULP energy -111707.249344 kJ/mol
# GULP energy per Si atom -5585.362467 kJ/mol
# Density = 1.858354 g / cm^3
# Si number density = 18.625931 Si / 1000 Ang^3
#
#
#
# Elastic Constant Matrix: (Units=GPa)
#
#
# Indices 1 2 3 4 5 6 
#
# 1 14.9335 24.0494 27.9085 0.0000 0.0000 0.0000
# 2 24.0494 83.1812 30.7514 0.0000 0.0000 0.0000
# 3 27.9085 30.7514 107.9902 0.0000 0.0000 0.0000
# 4 0.0000 0.0000 0.0000 28.1973 0.0000 0.0000
# 5 0.0000 0.0000 0.0000 0.0000 36.5251 0.0000
# 6 0.0000 0.0000 0.0000 0.0000 0.0000 23.7138
#
#
#
# Elastic Compliance Matrix: (Units=1/GPa)
#
#
# Indices 1 2 3 4 5 6 
#
# 1 0.236004 -0.051061 -0.046452 0.000000 0.000000 0.000000
# 2 -0.051061 0.024484 0.006224 0.000000 0.000000 0.000000
# 3 -0.046452 0.006224 0.019493 0.000000 0.000000 0.000000
# 4 0.000000 0.000000 0.000000 0.035464 0.000000 0.000000
# 5 0.000000 0.000000 0.000000 0.000000 0.027378 0.000000
# 6 0.000000 0.000000 0.000000 0.000000 0.000000 0.042170
#
#
# Mechanical properties :
#
#
# Convention : Reuss Voigt Hill
#
# Bulk Modulus (GPa) = 10.26659 41.28038 25.77349
# Shear Modulus (GPa) = 8.33282 25.91363 17.12322
#
# Velocity S-wave (km/s) = 2.11742 3.73401 3.03532
# Velocity P-wave (km/s) = 3.39145 6.38760 5.11387
#
# Compressibility (1/GPa) = 0.09740329
#
# Stress axis : x y z
#
# Youngs Moduli (GPa) = 4.23722 40.84353 51.30173
#
# Poissons Ratio (x) = 2.08550 2.38305
# Poissons Ratio (y) = 0.21636 -0.31929
# Poissons Ratio (z) = 0.19683 -0.25420
#
# Static dielectric constant tensor:
#      x y z
#    x 1.622110 0.000000 0.000000 
#    y 0.000000 1.648510 0.000000 
#    z 0.000000 0.000000 1.598000 
# 
# From -- ./inp_files/22779.got.cif
#   From: 2010.05.17/outbox.cif.g08.bks.cpg/sg44_12_cif.got.tgz:22779.got - 2010.06.03 19:37:08.
