data_PCOD9374401
_publ_section_title
;
Structure prediction by ZEFSAII (Michael W. Deem and Ramdas Pophale) SiO2 
 PCOD9374401
Probable space group: I M M 2
;
_chemical_formula_sum "Si O2"
_cell_formula_units_Z 40
_cell_length_a 7.481219
_cell_length_b 10.623198
_cell_length_c 23.800060
_cell_angle_alpha 90.000000
_cell_angle_beta 90.000000
_cell_angle_gamma 90.000000
_cell_volume 1891.497172
_symmetry_space_group_name_H-M "I M M 2"
_symmetry_group_IT_number 44
_symmetry_cell_setting 'orthorhombic'
loop_
_space_group_symop_operation_xyz
x,y,z
-x,-y,z
-x,y,z
x,-y,z
1/2+x,1/2+y,1/2+z
1/2-x,1/2-y,1/2+z
1/2-x,1/2+y,1/2+z
1/2+x,1/2-y,1/2+z
loop_
_atom_site_type_symbol
_atom_site_label
_atom_site_fract_x
_atom_site_fract_y
_atom_site_fract_z
Si Si1 0.287976 0.500000 0.010180
Si Si2 0.287704 0.733328 0.454287
Si Si3 0.781859 0.853304 0.833551
Si Si4 0.281513 0.500000 0.138127
Si Si5 0.788740 0.500000 0.660992
Si Si6 0.218881 0.238952 0.712121
Si Si7 0.283734 0.500000 0.529125
O O1 0.500000 0.500000 0.014902
O O2 0.239000 0.627403 0.977880
O O3 0.217074 0.500000 0.073997
O O4 0.500000 0.712540 0.451086
O O5 0.219532 0.711480 0.391081
O O6 0.219431 0.624943 0.496446
O O7 0.724102 0.788102 0.775871
O O8 0.000000 0.850883 0.833016
O O9 0.729971 0.000000 0.833729
O O10 0.500000 0.500000 0.137630
O O11 0.225943 0.375846 0.171960
O O12 0.717353 0.628313 0.687915
O O13 0.767854 0.500000 0.594044
O O14 0.000000 0.500000 0.673052
O O15 0.000000 0.238883 0.711727
O O16 0.500000 0.500000 0.527906
#
# Coordination Sequence:
#
# PCOD9374401 Si02
#       7
#     4   8   8   4   4   8   4
#     4  11  23  36  51  78 113 145 174 209 262 320
#     4  10  20  35  56  81 106 136 177 222 263 308
#     4   9  15  28  52  77 100 129 170 220 269 310
#     4   9  16  28  46  68  98 135 168 203 252 308
#     4  10  20  31  46  76 110 136 169 212 258 310
#     4   9  16  27  47  74 102 129 163 213 265 305
#     4  10  20  35  55  78 107 144 181 214 254 310
#
# _framework density 21.147269000000001
#
# number of rings (size 3 to 8) (size 9 to 14) (size 15 to 20)
#    0.000    2.400    2.000    1.500    0.000    3.200 
#    0.000    3.000    0.000    2.400    0.000    0.000 
#    0.000    0.000    0.000    0.000    0.000    0.000 
#
# Total GULP energy -111735.815951 kJ/mol
# GULP energy per Si atom -5586.790798 kJ/mol
# Density = 2.109914 g / cm^3
# Si number density = 21.147269 Si / 1000 Ang^3
#
#
#
# Elastic Constant Matrix: (Units=GPa)
#
#
# Indices 1 2 3 4 5 6 
#
# 1 55.2395 -2.6034 -2.8899 0.0000 0.0000 0.0000
# 2 -2.6034 230.2636 151.2027 0.0000 0.0000 0.0000
# 3 -2.8899 151.2027 246.6990 0.0000 0.0000 0.0000
# 4 0.0000 0.0000 0.0000 -4.5304 0.0000 0.0000
# 5 0.0000 0.0000 0.0000 0.0000 13.8080 0.0000
# 6 0.0000 0.0000 0.0000 0.0000 0.0000 -27.3084
#
#
#
# Elastic Compliance Matrix: (Units=1/GPa)
#
#
# Indices 1 2 3 4 5 6 
#
# 1 0.018116 0.000110 0.000145 0.000000 0.000000 0.000000
# 2 0.000110 0.007269 -0.004454 0.000000 0.000000 0.000000
# 3 0.000145 -0.004454 0.006785 0.000000 0.000000 0.000000
# 4 0.000000 0.000000 0.000000 -0.220733 0.000000 0.000000
# 5 0.000000 0.000000 0.000000 0.000000 0.072422 0.000000
# 6 0.000000 0.000000 0.000000 0.000000 0.000000 -0.036619
#
#
# Mechanical properties :
#
#
# Convention : Reuss Voigt Hill
#
# Bulk Modulus (GPa) = 42.06782 91.51342 66.79062
# Shear Modulus (GPa) = -36.64635 22.16004 -7.24315
#
# Velocity S-wave (km/s) = -4.16734 3.24063 -1.85271
# Velocity P-wave (km/s) = 1.79434 7.57433 5.20340
#
# Compressibility (1/GPa) = 0.02377114
#
# Stress axis : x y z
#
# Youngs Moduli (GPa) = 55.20066 137.57841 147.38646
#
# Poissons Ratio (x) = -0.01507 -0.02138
# Poissons Ratio (y) = -0.00605 0.65641
# Poissons Ratio (z) = -0.00801 0.61273
#
# Static dielectric constant tensor:
#      x y z
#    x 1.831470 0.000000 0.000000 
#    y 0.000000 1.664010 0.000000 
#    z 0.000000 0.000000 1.730440 
# 
# From -- ./inp_files/22837.got.cif
#   From: 2010.05.17/outbox.cif.g08.bks.cpg/sg44_12_cif.got.tgz:22837.got - 2010.06.03 19:37:08.
