data_PCOD9374657
_publ_section_title
;
Structure prediction by ZEFSAII (Michael W. Deem and Ramdas Pophale) SiO2 
 PCOD9374657
Probable space group: I M M 2
;
_chemical_formula_sum "Si O2"
_cell_formula_units_Z 58
_cell_length_a 27.618469
_cell_length_b 7.954749
_cell_length_c 13.712375
_cell_angle_alpha 90.000000
_cell_angle_beta 90.000000
_cell_angle_gamma 90.000000
_cell_volume 3012.581207
_symmetry_space_group_name_H-M "I M M 2"
_symmetry_group_IT_number 44
_symmetry_cell_setting 'orthorhombic'
loop_
_space_group_symop_operation_xyz
x,y,z
-x,-y,z
-x,y,z
x,-y,z
1/2+x,1/2+y,1/2+z
1/2-x,1/2-y,1/2+z
1/2-x,1/2+y,1/2+z
1/2+x,1/2-y,1/2+z
loop_
_atom_site_type_symbol
_atom_site_label
_atom_site_fract_x
_atom_site_fract_y
_atom_site_fract_z
Si Si1 0.000000 0.000000 0.078210
Si Si2 0.758948 0.309753 0.967094
Si Si3 0.579685 0.803919 0.588141
Si Si4 0.860657 0.804377 0.905022
Si Si5 0.855327 0.701043 0.278830
Si Si6 0.648865 0.196513 0.987475
Si Si7 0.158117 0.197499 0.699045
Si Si8 0.764967 0.812528 0.170470
O O1 0.041588 0.847633 0.078768
O O2 0.754246 0.500000 0.930717
O O3 0.774193 0.311629 0.081048
O O4 0.802645 0.217090 0.914214
O O5 0.706639 0.222690 0.970856
O O6 0.613594 0.793703 0.491999
O O7 0.610427 0.766947 0.686627
O O8 0.562212 0.000000 0.595780
O O9 0.872367 0.749998 0.793925
O O10 0.873231 0.000000 0.916425
O O11 0.849432 0.500000 0.286249
O O12 0.873432 0.759906 0.385348
O O13 0.802970 0.777424 0.254791
O O14 0.638633 0.000000 0.998694
O O15 0.636426 0.279114 0.091015
O O16 0.209272 0.293380 0.699358
O O17 0.168857 0.000000 0.711144
O O18 0.773407 0.000000 0.132312
#
# Coordination Sequence:
#
# PCOD9374657 Si02
#       8
#     2   8   8   8   8   8   8   8
#     4  12  26  48  68  98 126 144 194 252 328 376
#     4  11  20  30  46  73 111 155 204 248 288 340
#     4  11  24  43  68  95 121 154 188 243 315 380
#     4  11  21  36  55  81 114 152 200 246 296 356
#     4  10  21  36  54  80 112 149 195 242 294 355
#     4  10  20  34  50  74 113 159 203 245 285 333
#     4  10  21  34  49  74 115 160 202 246 283 328
#     4  11  20  29  47  73 109 155 203 245 285 337
#
# _framework density 19.252593000000001
#
# number of rings (size 3 to 8) (size 9 to 14) (size 15 to 20)
#    0.000    1.379    2.069    6.414    0.966    6.621 
#    0.000    0.000    0.000    0.000    0.000    1.931 
#    0.000    2.207    0.000    0.000    0.000    0.000 
#
# Total GULP energy -161519.522248 kJ/mol
# GULP energy per Si atom -5569.638698 kJ/mol
# Density = 1.920877 g / cm^3
# Si number density = 19.252593 Si / 1000 Ang^3
#
#
#
# Elastic Constant Matrix: (Units=GPa)
#
#
# Indices 1 2 3 4 5 6 
#
# 1 32.8801 18.9156 26.8117 0.0000 0.0000 0.0000
# 2 18.9156 79.3789 24.9371 0.0000 0.0000 0.0000
# 3 26.8117 24.9371 159.0182 0.0000 0.0000 0.0000
# 4 0.0000 0.0000 0.0000 23.7394 0.0000 0.0000
# 5 0.0000 0.0000 0.0000 0.0000 -5.7801 0.0000
# 6 0.0000 0.0000 0.0000 0.0000 0.0000 220.7532
#
#
#
# Elastic Compliance Matrix: (Units=1/GPa)
#
#
# Indices 1 2 3 4 5 6 
#
# 1 0.039228 -0.007647 -0.005415 0.000000 0.000000 0.000000
# 2 -0.007647 0.014741 -0.001022 0.000000 0.000000 0.000000
# 3 -0.005415 -0.001022 0.007362 0.000000 0.000000 0.000000
# 4 0.000000 0.000000 0.000000 0.042124 0.000000 0.000000
# 5 0.000000 0.000000 0.000000 0.000000 -0.173006 0.000000
# 6 0.000000 0.000000 0.000000 0.000000 0.000000 0.004530
#
#
# Mechanical properties :
#
#
# Convention : Reuss Voigt Hill
#
# Bulk Modulus (GPa) = 30.15409 45.84512 37.99960
# Shear Modulus (GPa) = -193.81000 61.11669 -66.34665
#
# Velocity S-wave (km/s) = -10.04418 5.64035 -5.87673
# Velocity P-wave (km/s) = 10.90035 8.14139 5.12520
#
# Compressibility (1/GPa) = 0.03316300
#
# Stress axis : x y z
#
# Youngs Moduli (GPa) = 25.49183 67.83716 135.83394
#
# Poissons Ratio (x) = 0.51874 0.73554
# Poissons Ratio (y) = 0.19493 0.13888
# Poissons Ratio (z) = 0.13804 0.06936
#
# Static dielectric constant tensor:
#      x y z
#    x 1.628990 0.000000 0.000000 
#    y 0.000000 1.665400 0.000000 
#    z 0.000000 0.000000 1.783620 
# 
# From -- ./inp_files/19642.got.cif
#   From: 2010.05.17/outbox.cif.g08.bks.cpg/sg44_10_cif.got.tgz:19642.got - 2010.06.03 19:37:08.
