data_PCOD9374735
_publ_section_title
;
Structure prediction by ZEFSAII (Michael W. Deem and Ramdas Pophale) SiO2 
 PCOD9374735
Probable space group: I M M 2
;
_chemical_formula_sum "Si O2"
_cell_formula_units_Z 56
_cell_length_a 14.570570
_cell_length_b 8.729856
_cell_length_c 23.592762
_cell_angle_alpha 90.000000
_cell_angle_beta 90.000000
_cell_angle_gamma 90.000000
_cell_volume 3000.975213
_symmetry_space_group_name_H-M "I M M 2"
_symmetry_group_IT_number 44
_symmetry_cell_setting 'orthorhombic'
loop_
_space_group_symop_operation_xyz
x,y,z
-x,-y,z
-x,y,z
x,-y,z
1/2+x,1/2+y,1/2+z
1/2-x,1/2-y,1/2+z
1/2-x,1/2+y,1/2+z
1/2+x,1/2-y,1/2+z
loop_
_atom_site_type_symbol
_atom_site_label
_atom_site_fract_x
_atom_site_fract_y
_atom_site_fract_z
Si Si1 0.609197 0.319559 0.394760
Si Si2 0.396222 0.815035 0.518922
Si Si3 0.714668 0.181619 0.288192
Si Si4 0.790008 0.813529 0.567893
Si Si5 0.109223 0.178947 0.453544
Si Si6 0.106701 0.814390 0.681314
Si Si7 0.894310 0.682338 0.331502
O O1 0.500000 0.301848 0.383910
O O2 0.630648 0.500000 0.394499
O O3 0.626840 0.249879 0.456757
O O4 0.665261 0.236957 0.345755
O O5 0.500000 0.766176 0.533505
O O6 0.316495 0.768790 0.562329
O O7 0.395588 0.000000 0.515233
O O8 0.660335 0.253119 0.235610
O O9 0.819218 0.239731 0.291894
O O10 0.712192 0.000000 0.284892
O O11 0.839428 0.765457 0.509639
O O12 0.842876 0.761631 0.623794
O O13 0.794301 0.000000 0.568436
O O14 0.128182 0.271472 0.396418
O O15 0.000000 0.185128 0.464058
O O16 0.133985 0.000000 0.443629
O O17 0.000000 0.767535 0.681828
O O18 0.108726 0.000000 0.682562
O O19 0.888854 0.500000 0.325589
O O20 0.000000 0.730677 0.321126
#
# Coordination Sequence:
#
# PCOD9374735 Si02
#       7
#     8   8   8   8   8   8   8
#     4  10  20  34  54  81 112 145 181 223 272 324
#     4   9  17  30  50  78 110 141 175 217 265 320
#     4  12  24  37  55  78 107 143 181 223 272 325
#     4   9  17  31  52  76 103 139 181 221 263 313
#     4   9  16  28  50  80 110 139 173 214 262 315
#     4  10  21  38  58  78 103 138 182 229 271 316
#     4  10  21  37  57  82 111 142 178 220 265 316
#
# _framework density 18.660599000000001
#
# number of rings (size 3 to 8) (size 9 to 14) (size 15 to 20)
#    0.000    2.143    0.000    3.857    0.000    6.571 
#    0.000    2.143    0.000    4.286    0.000    0.000 
#    0.000    0.000    0.000    0.000    0.000    0.000 
#
# Total GULP energy -156357.022745 kJ/mol
# GULP energy per Si atom -5584.179384 kJ/mol
# Density = 1.861813 g / cm^3
# Si number density = 18.660599 Si / 1000 Ang^3
#
#
#
# Elastic Constant Matrix: (Units=GPa)
#
#
# Indices 1 2 3 4 5 6 
#
# 1 143.7098 38.3895 101.0781 0.0000 0.0000 0.0000
# 2 38.3895 33.1334 23.8390 0.0000 0.0000 0.0000
# 3 101.0781 23.8390 88.7582 0.0000 0.0000 0.0000
# 4 0.0000 0.0000 0.0000 23.8631 0.0000 0.0000
# 5 0.0000 0.0000 0.0000 0.0000 34.8853 0.0000
# 6 0.0000 0.0000 0.0000 0.0000 0.0000 19.3481
#
#
#
# Elastic Compliance Matrix: (Units=1/GPa)
#
#
# Indices 1 2 3 4 5 6 
#
# 1 0.041887 -0.017615 -0.042969 0.000000 0.000000 0.000000
# 2 -0.017615 0.044818 0.008023 0.000000 0.000000 0.000000
# 3 -0.042969 0.008023 0.058045 0.000000 0.000000 0.000000
# 4 0.000000 0.000000 0.000000 0.041906 0.000000 0.000000
# 5 0.000000 0.000000 0.000000 0.000000 0.028665 0.000000
# 6 0.000000 0.000000 0.000000 0.000000 0.000000 0.051685
#
#
# Mechanical properties :
#
#
# Convention : Reuss Voigt Hill
#
# Bulk Modulus (GPa) = 25.23542 65.80162 45.51852
# Shear Modulus (GPa) = 12.97560 22.43893 17.70727
#
# Velocity S-wave (km/s) = 2.63980 3.47144 3.08378
# Velocity P-wave (km/s) = 4.77956 7.16985 6.09306
#
# Compressibility (1/GPa) = 0.03962684
#
# Stress axis : x y z
#
# Youngs Moduli (GPa) = 23.87400 22.31228 17.22788
#
# Poissons Ratio (x) = 0.39304 0.74027
# Poissons Ratio (y) = 0.42055 -0.13822
# Poissons Ratio (z) = 1.02585 -0.17901
#
# Static dielectric constant tensor:
#      x y z
#    x 1.675270 0.000000 0.000000 
#    y 0.000000 1.632180 0.000000 
#    z 0.000000 0.000000 1.606240 
# 
# From -- ./inp_files/23028.got.cif
#   From: 2010.05.17/outbox.cif.g08.bks.cpg/sg44_12_cif.got.tgz:23028.got - 2010.06.03 19:37:08.
