data_PCOD9374285
_publ_section_title
;
Structure prediction by ZEFSAII (Michael W. Deem and Ramdas Pophale) SiO2 
 PCOD9374285
Probable space group: I M M 2
;
_chemical_formula_sum "Si O2"
_cell_formula_units_Z 64
_cell_length_a 18.239793
_cell_length_b 15.198585
_cell_length_c 11.749748
_cell_angle_alpha 90.000000
_cell_angle_beta 90.000000
_cell_angle_gamma 90.000000
_cell_volume 3257.253911
_symmetry_space_group_name_H-M "I M M 2"
_symmetry_group_IT_number 44
_symmetry_cell_setting 'orthorhombic'
loop_
_space_group_symop_operation_xyz
x,y,z
-x,-y,z
-x,y,z
x,-y,z
1/2+x,1/2+y,1/2+z
1/2-x,1/2-y,1/2+z
1/2-x,1/2+y,1/2+z
1/2+x,1/2-y,1/2+z
loop_
_atom_site_type_symbol
_atom_site_label
_atom_site_fract_x
_atom_site_fract_y
_atom_site_fract_z
Si Si1 0.190131 0.653123 0.144650
Si Si2 0.294291 0.902184 0.090264
Si Si3 0.879027 0.403005 0.366110
Si Si4 0.419355 0.701521 0.875584
Si Si5 0.715491 0.400445 0.940906
Si Si6 0.192738 0.277276 0.772242
Si Si7 0.120882 0.101866 0.141605
Si Si8 0.915615 0.762168 0.971895
O O1 0.147142 0.597100 0.236604
O O2 0.245356 0.712605 0.221391
O O3 0.132601 0.705839 0.063899
O O4 0.240548 0.600575 0.057736
O O5 0.336810 0.829436 0.162512
O O6 0.208088 0.891809 0.115616
O O7 0.315852 0.000000 0.127740
O O8 0.312688 0.895164 0.957367
O O9 0.913136 0.500000 0.390269
O O10 0.917479 0.307728 0.376345
O O11 0.500000 0.671993 0.908642
O O12 0.356731 0.658629 0.952242
O O13 0.401482 0.661219 0.750148
O O14 0.698860 0.500000 0.904123
O O15 0.765412 0.350240 0.848775
O O16 0.130481 0.238636 0.854589
O O17 0.083778 0.142269 0.030192
O O18 0.102718 0.000000 0.161968
O O19 0.000000 0.731201 0.959807
#
# Coordination Sequence:
#
# PCOD9374285 Si02
#       8
#     8   8   8   8   8   8   8   8
#     4  11  21  38  63  91 124 161 211 261 310 371
#     4  10  19  35  62  93 118 151 206 267 314 365
#     4  11  22  38  62  91 123 162 208 261 313 366
#     4  12  24  37  57  88 127 166 210 258 311 372
#     4  11  22  38  63  91 121 163 209 261 315 374
#     4  11  20  37  64  89 126 163 209 260 314 374
#     4  11  21  35  61  94 125 159 206 260 317 376
#     4  11  23  38  61  92 129 168 205 257 327 383
#
# _framework density 19.648453
#
# number of rings (size 3 to 8) (size 9 to 14) (size 15 to 20)
#    0.000    1.000    5.000    3.000    0.000    2.000 
#    0.000    3.125    0.000   13.875    0.000    0.000 
#    0.000    0.000    0.000    0.000    0.000    0.000 
#
# Total GULP energy -178458.591387 kJ/mol
# GULP energy per Si atom -5576.830981 kJ/mol
# Density = 1.960373 g / cm^3
# Si number density = 19.648453 Si / 1000 Ang^3
#
#
#
# Elastic Constant Matrix: (Units=GPa)
#
#
# Indices 1 2 3 4 5 6 
#
# 1 95.8986 27.7344 23.3127 0.0000 0.0000 0.0000
# 2 27.7344 111.1830 7.9559 0.0000 0.0000 0.0000
# 3 23.3127 7.9559 57.0687 0.0000 0.0000 0.0000
# 4 0.0000 0.0000 0.0000 27.0927 0.0000 0.0000
# 5 0.0000 0.0000 0.0000 0.0000 7.9843 0.0000
# 6 0.0000 0.0000 0.0000 0.0000 0.0000 5.5719
#
#
#
# Elastic Compliance Matrix: (Units=1/GPa)
#
#
# Indices 1 2 3 4 5 6 
#
# 1 0.012356 -0.002749 -0.004664 0.000000 0.000000 0.000000
# 2 -0.002749 0.009696 -0.000229 0.000000 0.000000 0.000000
# 3 -0.004664 -0.000229 0.019460 0.000000 0.000000 0.000000
# 4 0.000000 0.000000 0.000000 0.036910 0.000000 0.000000
# 5 0.000000 0.000000 0.000000 0.000000 0.125246 0.000000
# 6 0.000000 0.000000 0.000000 0.000000 0.000000 0.179473
#
#
# Mechanical properties :
#
#
# Convention : Reuss Voigt Hill
#
# Bulk Modulus (GPa) = 38.12595 42.46179 40.29387
# Shear Modulus (GPa) = 12.27992 21.80625 17.04309
#
# Velocity S-wave (km/s) = 2.50267 3.33501 2.94836
# Velocity P-wave (km/s) = 5.27232 6.04048 5.66942
#
# Compressibility (1/GPa) = 0.02622885
#
# Stress axis : x y z
#
# Youngs Moduli (GPa) = 80.92913 103.13340 51.38719
#
# Poissons Ratio (x) = 0.28347 0.23969
# Poissons Ratio (y) = 0.22244 0.01177
# Poissons Ratio (z) = 0.37749 0.02361
#
# Static dielectric constant tensor:
#      x y z
#    x 1.695990 0.000000 0.000000 
#    y 0.000000 1.742340 0.000000 
#    z 0.000000 0.000000 1.703640 
# 
# From -- ./inp_files/14009.got.cif
#   From: 2010.05.17/outbox.cif.g08.bks.cpg/sg44_8_cif.got.tgz:14009.got - 2010.06.03 19:37:08.
