data_PCOD9374624
_publ_section_title
;
Structure prediction by ZEFSAII (Michael W. Deem and Ramdas Pophale) SiO2 
 PCOD9374624
Probable space group: I M M 2
;
_chemical_formula_sum "Si O2"
_cell_formula_units_Z 48
_cell_length_a 8.013813
_cell_length_b 9.224379
_cell_length_c 35.079360
_cell_angle_alpha 90.000000
_cell_angle_beta 90.000000
_cell_angle_gamma 90.000000
_cell_volume 2593.152178
_symmetry_space_group_name_H-M "I M M 2"
_symmetry_group_IT_number 44
_symmetry_cell_setting 'orthorhombic'
loop_
_space_group_symop_operation_xyz
x,y,z
-x,-y,z
-x,y,z
x,-y,z
1/2+x,1/2+y,1/2+z
1/2-x,1/2-y,1/2+z
1/2-x,1/2+y,1/2+z
1/2+x,1/2-y,1/2+z
loop_
_atom_site_type_symbol
_atom_site_label
_atom_site_fract_x
_atom_site_fract_y
_atom_site_fract_z
Si Si1 0.185967 0.825812 0.529960
Si Si2 0.314085 0.325655 0.840870
Si Si3 0.802400 0.167342 0.104499
Si Si4 0.000000 0.323225 0.979142
Si Si5 0.701942 0.331908 0.179905
Si Si6 0.500000 0.823193 0.391653
Si Si7 0.800182 0.827304 0.765348
O O1 0.211813 0.755528 0.571247
O O2 0.334343 0.777750 0.501982
O O3 0.000000 0.791697 0.515533
O O4 0.198183 0.000000 0.533914
O O5 0.500000 0.289494 0.854994
O O6 0.302965 0.500000 0.837626
O O7 0.165360 0.277220 0.868757
O O8 0.286378 0.256786 0.799434
O O9 0.768337 0.236088 0.145654
O O10 0.000000 0.174912 0.096833
O O11 0.749707 0.000000 0.103996
O O12 0.000000 0.274374 0.935397
O O13 0.000000 0.500000 0.978707
O O14 0.500000 0.328507 0.179176
O O15 0.752529 0.500000 0.174587
O O16 0.753552 0.285020 0.222516
O O17 0.500000 0.000000 0.392085
O O18 0.000000 0.802888 0.768246
O O19 0.772363 0.000000 0.768949
#
# Coordination Sequence:
#
# PCOD9374624 Si02
#       7
#     8   8   8   4   8   4   8
#     4  10  20  35  58  84 108 140 181 224 272 325
#     4  10  20  33  53  81 111 146 184 221 268 327
#     4  11  23  36  51  75 109 147 184 222 270 326
#     4   9  18  34  57  85 113 141 179 227 275 325
#     4   9  19  35  54  77 104 138 183 231 275 321
#     4   9  18  34  55  81 115 147 177 223 279 325
#     4   9  18  34  55  77 105 143 185 228 274 322
#
# _framework density 18.510290999999999
#
# number of rings (size 3 to 8) (size 9 to 14) (size 15 to 20)
#    0.000    2.333    1.667    2.000    0.000    6.000 
#    0.000    8.333    0.000    2.000    0.000    2.333 
#    0.000    0.000    0.000    0.000    0.000    0.000 
#
# Total GULP energy -133929.786911 kJ/mol
# GULP energy per Si atom -5580.407788 kJ/mol
# Density = 1.846816 g / cm^3
# Si number density = 18.510291 Si / 1000 Ang^3
#
#
#
# Elastic Constant Matrix: (Units=GPa)
#
#
# Indices 1 2 3 4 5 6 
#
# 1 123.1776 35.0912 76.9395 0.0000 0.0000 0.0000
# 2 35.0912 17.1563 30.6554 0.0000 0.0000 0.0000
# 3 76.9395 30.6554 139.7214 0.0000 0.0000 0.0000
# 4 0.0000 0.0000 0.0000 20.2878 0.0000 0.0000
# 5 0.0000 0.0000 0.0000 0.0000 19.9344 0.0000
# 6 0.0000 0.0000 0.0000 0.0000 0.0000 19.3226
#
#
#
# Elastic Compliance Matrix: (Units=1/GPa)
#
#
# Indices 1 2 3 4 5 6 
#
# 1 0.020401 -0.035619 -0.003419 0.000000 0.000000 0.000000
# 2 -0.035619 0.158061 -0.015065 0.000000 0.000000 0.000000
# 3 -0.003419 -0.015065 0.012345 0.000000 0.000000 0.000000
# 4 0.000000 0.000000 0.000000 0.049291 0.000000 0.000000
# 5 0.000000 0.000000 0.000000 0.000000 0.050165 0.000000
# 6 0.000000 0.000000 0.000000 0.000000 0.000000 0.051753
#
#
# Mechanical properties :
#
#
# Convention : Reuss Voigt Hill
#
# Bulk Modulus (GPa) = 12.10640 62.82527 37.46584
# Shear Modulus (GPa) = 10.46558 21.06690 15.76624
#
# Velocity S-wave (km/s) = 2.38038 3.37726 2.92165
# Velocity P-wave (km/s) = 3.75626 7.01586 5.62724
#
# Compressibility (1/GPa) = 0.08260092
#
# Stress axis : x y z
#
# Youngs Moduli (GPa) = 49.01624 6.32667 81.00191
#
# Poissons Ratio (x) = 0.22535 0.27698
# Poissons Ratio (y) = 1.74590 1.22031
# Poissons Ratio (z) = 0.16761 0.09531
#
# Static dielectric constant tensor:
#      x y z
#    x 1.666530 0.000000 0.000000 
#    y 0.000000 1.615410 0.000000 
#    z 0.000000 0.000000 1.607990 
# 
# From -- ./inp_files/26880.got.cif
#   From: 2010.05.17/outbox.cif.g08.bks.cpg/sg44_14_cif.got.tgz:26880.got - 2010.06.03 19:37:08.
