data_PCOD9374776
_publ_section_title
;
Structure prediction by ZEFSAII (Michael W. Deem and Ramdas Pophale) SiO2 
 PCOD9374776
Probable space group: I M M 2
;
_chemical_formula_sum "Si O2"
_cell_formula_units_Z 48
_cell_length_a 7.568546
_cell_length_b 8.955473
_cell_length_c 36.660821
_cell_angle_alpha 90.000000
_cell_angle_beta 90.000000
_cell_angle_gamma 90.000000
_cell_volume 2484.867124
_symmetry_space_group_name_H-M "I M M 2"
_symmetry_group_IT_number 44
_symmetry_cell_setting 'orthorhombic'
loop_
_space_group_symop_operation_xyz
x,y,z
-x,-y,z
-x,y,z
x,-y,z
1/2+x,1/2+y,1/2+z
1/2-x,1/2-y,1/2+z
1/2-x,1/2+y,1/2+z
1/2+x,1/2-y,1/2+z
loop_
_atom_site_type_symbol
_atom_site_label
_atom_site_fract_x
_atom_site_fract_y
_atom_site_fract_z
Si Si1 0.209025 0.680547 0.501810
Si Si2 0.500000 0.178320 0.553070
Si Si3 0.288323 0.829344 0.269235
Si Si4 0.703147 0.817756 0.190260
Si Si5 0.715521 0.171546 0.920683
Si Si6 0.211808 0.830881 0.347787
Si Si7 0.500000 0.680777 0.632834
O O1 0.230669 0.500000 0.503443
O O2 0.330007 0.758395 0.531538
O O3 0.264160 0.729850 0.460799
O O4 0.000000 0.711026 0.506620
O O5 0.500000 0.241704 0.593941
O O6 0.500000 0.000000 0.552981
O O7 0.500000 0.837951 0.266302
O O8 0.231025 0.764500 0.230243
O O9 0.248608 0.757633 0.308378
O O10 0.217114 0.000000 0.271299
O O11 0.500000 0.771451 0.184516
O O12 0.830462 0.777248 0.157319
O O13 0.704023 0.000000 0.192533
O O14 0.500000 0.173262 0.920423
O O15 0.778322 0.253977 0.884482
O O16 0.771264 0.000000 0.918580
O O17 0.000000 0.837040 0.350869
O O18 0.281960 0.000000 0.346577
O O19 0.500000 0.500000 0.628216
#
# Coordination Sequence:
#
# PCOD9374776 Si02
#       7
#     8   4   8   8   8   8   4
#     4   9  19  39  65  85 106 145 193 238 280 326
#     4  12  26  40  56  86 122 148 178 226 288 360
#     4   8  14  25  40  63  98 132 163 208 261 307
#     4   8  15  28  48  75 102 130 171 222 269 310
#     4   8  15  30  51  73  99 133 173 216 265 315
#     4   9  16  24  40  68  99 131 168 209 253 308
#     4  10  20  34  56  80 102 134 180 230 272 324
#
# _framework density 19.316928000000001
#
# number of rings (size 3 to 8) (size 9 to 14) (size 15 to 20)
#    0.000    3.167    0.000    2.750    1.167    1.667 
#    1.500    3.333    0.000    1.000    0.000    2.333 
#    0.000    0.000    0.000    0.000    0.000    0.000 
#
# Total GULP energy -133705.800570 kJ/mol
# GULP energy per Si atom -5571.075024 kJ/mol
# Density = 1.927296 g / cm^3
# Si number density = 19.316928 Si / 1000 Ang^3
#
#
#
# Elastic Constant Matrix: (Units=GPa)
#
#
# Indices 1 2 3 4 5 6 
#
# 1 81.0725 25.5567 72.7589 0.0000 0.0000 0.0000
# 2 25.5567 29.0992 59.2882 0.0000 0.0000 0.0000
# 3 72.7589 59.2882 243.4524 0.0000 0.0000 0.0000
# 4 0.0000 0.0000 0.0000 23.9250 0.0000 0.0000
# 5 0.0000 0.0000 0.0000 0.0000 42.9192 0.0000
# 6 0.0000 0.0000 0.0000 0.0000 0.0000 8.9402
#
#
#
# Elastic Compliance Matrix: (Units=1/GPa)
#
#
# Indices 1 2 3 4 5 6 
#
# 1 0.018136 -0.009696 -0.003059 0.000000 0.000000 0.000000
# 2 -0.009696 0.073393 -0.014976 0.000000 0.000000 0.000000
# 3 -0.003059 -0.014976 0.008669 0.000000 0.000000 0.000000
# 4 0.000000 0.000000 0.000000 0.041797 0.000000 0.000000
# 5 0.000000 0.000000 0.000000 0.000000 0.023300 0.000000
# 6 0.000000 0.000000 0.000000 0.000000 0.000000 0.111855
#
#
# Mechanical properties :
#
#
# Convention : Reuss Voigt Hill
#
# Bulk Modulus (GPa) = 22.35287 74.31463 48.33375
# Shear Modulus (GPa) = 14.38752 28.22490 21.30621
#
# Velocity S-wave (km/s) = 2.73209 3.82664 3.32472
# Velocity P-wave (km/s) = 4.64211 7.62096 6.30984
#
# Compressibility (1/GPa) = 0.04473699
#
# Stress axis : x y z
#
# Youngs Moduli (GPa) = 55.13755 13.62530 115.35528
#
# Poissons Ratio (x) = 0.13211 0.35288
# Poissons Ratio (y) = 0.53460 1.72753
# Poissons Ratio (z) = 0.16867 0.20405
#
# Static dielectric constant tensor:
#      x y z
#    x 1.698890 0.000000 0.000000 
#    y 0.000000 1.666040 0.000000 
#    z 0.000000 0.000000 1.701240 
# 
# From -- ./inp_files/26969.got.cif
#   From: 2010.05.17/outbox.cif.g08.bks.cpg/sg44_14_cif.got.tgz:26969.got - 2010.06.03 19:37:08.
