data_PCOD9374763
_publ_section_title
;
Structure prediction by ZEFSAII (Michael W. Deem and Ramdas Pophale) SiO2 
 PCOD9374763
Probable space group: I M M 2
;
_chemical_formula_sum "Si O2"
_cell_formula_units_Z 64
_cell_length_a 20.011508
_cell_length_b 8.757589
_cell_length_c 21.118267
_cell_angle_alpha 90.000000
_cell_angle_beta 90.000000
_cell_angle_gamma 90.000000
_cell_volume 3701.030404
_symmetry_space_group_name_H-M "I M M 2"
_symmetry_group_IT_number 44
_symmetry_cell_setting 'orthorhombic'
loop_
_space_group_symop_operation_xyz
x,y,z
-x,-y,z
-x,y,z
x,-y,z
1/2+x,1/2+y,1/2+z
1/2-x,1/2-y,1/2+z
1/2-x,1/2+y,1/2+z
1/2+x,1/2-y,1/2+z
loop_
_atom_site_type_symbol
_atom_site_label
_atom_site_fract_x
_atom_site_fract_y
_atom_site_fract_z
Si Si1 0.705595 0.682832 0.314200
Si Si2 0.423322 0.818210 0.256878
Si Si3 0.714002 0.816423 0.685064
Si Si4 0.424035 0.317155 0.115797
Si Si5 0.284837 0.683331 0.932869
Si Si6 0.426100 0.684170 0.880199
Si Si7 0.925463 0.316252 0.239099
Si Si8 0.709413 0.181208 0.065280
O O1 0.704731 0.500000 0.320247
O O2 0.631586 0.747153 0.302776
O O3 0.747345 0.720809 0.250367
O O4 0.741019 0.755697 0.374780
O O5 0.500000 0.792215 0.277265
O O6 0.415668 0.741196 0.187850
O O7 0.412957 0.000000 0.250504
O O8 0.636739 0.771668 0.695491
O O9 0.748721 0.737757 0.625774
O O10 0.718159 0.000000 0.676669
O O11 0.500000 0.279463 0.095880
O O12 0.416605 0.500000 0.114430
O O13 0.365931 0.242502 0.075104
O O14 0.282647 0.500000 0.934271
O O15 0.361728 0.733249 0.919744
O O16 0.263198 0.749524 0.000146
O O17 0.500000 0.733921 0.902788
O O18 0.425864 0.500000 0.879278
O O19 0.417848 0.743533 0.808528
O O20 0.922091 0.500000 0.246588
O O21 0.000000 0.277033 0.215545
O O22 0.709362 0.000000 0.062690
#
# Coordination Sequence:
#
# PCOD9374763 Si02
#       8
#     8   8   8   8   8   8   8   8
#     4  11  21  35  58  85 113 146 186 230 280 332
#     4  10  20  34  55  84 114 144 183 230 278 328
#     4  10  20  35  56  82 112 145 183 226 277 332
#     4  10  20  35  55  79 110 148 187 227 276 332
#     4  11  23  38  56  78 112 151 189 232 281 331
#     4   9  18  32  51  77 108 143 181 218 261 318
#     4   9  17  31  54  82 110 140 176 221 269 318
#     4  12  25  38  55  79 111 148 191 234 280 335
#
# _framework density 17.292482
#
# number of rings (size 3 to 8) (size 9 to 14) (size 15 to 20)
#    0.000    1.750    2.500    2.625    0.000    3.500 
#    0.000    1.250    0.000    0.750    0.000    1.750 
#    0.000    0.000    0.000    0.000    0.000    0.000 
#
# Total GULP energy -178680.915779 kJ/mol
# GULP energy per Si atom -5583.778618 kJ/mol
# Density = 1.725312 g / cm^3
# Si number density = 17.292482 Si / 1000 Ang^3
#
#
#
# Elastic Constant Matrix: (Units=GPa)
#
#
# Indices 1 2 3 4 5 6 
#
# 1 100.2132 40.8039 56.3447 0.0000 0.0000 0.0000
# 2 40.8039 56.3136 45.7420 0.0000 0.0000 0.0000
# 3 56.3447 45.7420 110.5492 0.0000 0.0000 0.0000
# 4 0.0000 0.0000 0.0000 27.0086 0.0000 0.0000
# 5 0.0000 0.0000 0.0000 0.0000 19.1931 0.0000
# 6 0.0000 0.0000 0.0000 0.0000 0.0000 23.8483
#
#
#
# Elastic Compliance Matrix: (Units=1/GPa)
#
#
# Indices 1 2 3 4 5 6 
#
# 1 0.015794 -0.007389 -0.004993 0.000000 0.000000 0.000000
# 2 -0.007389 0.030204 -0.008732 0.000000 0.000000 0.000000
# 3 -0.004993 -0.008732 0.015203 0.000000 0.000000 0.000000
# 4 0.000000 0.000000 0.000000 0.037025 0.000000 0.000000
# 5 0.000000 0.000000 0.000000 0.000000 0.052102 0.000000
# 6 0.000000 0.000000 0.000000 0.000000 0.000000 0.041932
#
#
# Mechanical properties :
#
#
# Convention : Reuss Voigt Hill
#
# Bulk Modulus (GPa) = 52.70014 61.42859 57.06436
# Shear Modulus (GPa) = 20.76305 22.28903 21.52604
#
# Velocity S-wave (km/s) = 3.46887 3.59408 3.53203
# Velocity P-wave (km/s) = 6.82539 7.26799 7.05016
#
# Compressibility (1/GPa) = 0.01897528
#
# Stress axis : x y z
#
# Youngs Moduli (GPa) = 63.31323 33.10816 65.77491
#
# Poissons Ratio (x) = 0.24463 0.32840
# Poissons Ratio (y) = 0.46782 0.57432
# Poissons Ratio (z) = 0.31611 0.28909
#
# Static dielectric constant tensor:
#      x y z
#    x 1.612070 0.000000 0.000000 
#    y 0.000000 1.573660 0.000000 
#    z 0.000000 0.000000 1.557680 
# 
# From -- ./inp_files/20736.got.cif
#   From: 2010.05.17/outbox.cif.g08.bks.cpg/sg44_11_cif.got.tgz:20736.got - 2010.06.03 19:37:08.
