data_PCOD9374809
_publ_section_title
;
Structure prediction by ZEFSAII (Michael W. Deem and Ramdas Pophale) SiO2 
 PCOD9374809
Probable space group: I M M 2
;
_chemical_formula_sum "Si O2"
_cell_formula_units_Z 64
_cell_length_a 18.861422
_cell_length_b 21.544692
_cell_length_c 7.529816
_cell_angle_alpha 90.000000
_cell_angle_beta 90.000000
_cell_angle_gamma 90.000000
_cell_volume 3059.842592
_symmetry_space_group_name_H-M "I M M 2"
_symmetry_group_IT_number 44
_symmetry_cell_setting 'orthorhombic'
loop_
_space_group_symop_operation_xyz
x,y,z
-x,-y,z
-x,y,z
x,-y,z
1/2+x,1/2+y,1/2+z
1/2-x,1/2-y,1/2+z
1/2-x,1/2+y,1/2+z
1/2+x,1/2-y,1/2+z
loop_
_atom_site_type_symbol
_atom_site_label
_atom_site_fract_x
_atom_site_fract_y
_atom_site_fract_z
Si Si1 0.584765 0.650063 0.608100
Si Si2 0.705548 0.570505 0.699542
Si Si3 0.272913 0.157921 0.496280
Si Si4 0.583478 0.866590 0.954998
Si Si5 0.655700 0.266659 0.890891
Si Si6 0.422668 0.167860 0.350984
Si Si7 0.283176 0.928775 0.821642
Si Si8 0.420522 0.689084 0.221563
O O1 0.500000 0.655406 0.636379
O O2 0.623293 0.589514 0.683300
O O3 0.627063 0.705724 0.706557
O O4 0.598579 0.652074 0.397521
O O5 0.714266 0.500000 0.754476
O O6 0.742810 0.614791 0.840275
O O7 0.742264 0.579022 0.507867
O O8 0.238654 0.224764 0.440214
O O9 0.357291 0.159334 0.478924
O O10 0.258351 0.123741 0.682250
O O11 0.500000 0.865276 0.906181
O O12 0.622273 0.800841 0.913820
O O13 0.633585 0.917163 0.864265
O O14 0.585779 0.871634 0.170064
O O15 0.625117 0.311633 0.045293
O O16 0.500000 0.155618 0.430688
O O17 0.421722 0.239200 0.285480
O O18 0.272184 0.000000 0.759224
O O19 0.500000 0.671507 0.169213
#
# Coordination Sequence:
#
# PCOD9374809 Si02
#       8
#     8   8   8   8   8   8   8   8
#     4  10  20  34  58  88 114 153 194 229 293 360
#     4  10  22  41  58  79 116 151 194 251 291 340
#     4  11  22  37  61  89 112 152 198 242 299 359
#     4  10  21  39  61  86 121 160 195 241 301 354
#     4  10  21  35  57  88 124 151 187 240 297 361
#     4   9  19  37  57  82 116 151 186 233 293 346
#     4  11  24  41  61  84 116 160 206 249 294 346
#     4   9  18  34  53  78 118 153 180 223 282 348
#
# _framework density 20.916108000000001
#
# number of rings (size 3 to 8) (size 9 to 14) (size 15 to 20)
#    0.000    2.000    1.250    3.000    1.750    4.000 
#    0.000    0.000    0.000    1.125    0.000    3.500 
#    0.000    0.000    0.000    0.000    0.000    0.000 
#
# Total GULP energy -178563.034132 kJ/mol
# GULP energy per Si atom -5580.094817 kJ/mol
# Density = 2.086850 g / cm^3
# Si number density = 20.916108 Si / 1000 Ang^3
#
#
#
# Elastic Constant Matrix: (Units=GPa)
#
#
# Indices 1 2 3 4 5 6 
#
# 1 94.7422 9.8193 26.7828 0.0000 0.0000 0.0000
# 2 9.8193 32.7887 5.9090 0.0000 0.0000 0.0000
# 3 26.7828 5.9090 50.5029 0.0000 0.0000 0.0000
# 4 0.0000 0.0000 0.0000 19.4390 0.0000 0.0000
# 5 0.0000 0.0000 0.0000 0.0000 24.1866 0.0000
# 6 0.0000 0.0000 0.0000 0.0000 0.0000 14.1191
#
#
#
# Elastic Compliance Matrix: (Units=1/GPa)
#
#
# Indices 1 2 3 4 5 6 
#
# 1 0.012635 -0.002632 -0.006393 0.000000 0.000000 0.000000
# 2 -0.002632 0.031703 -0.002314 0.000000 0.000000 0.000000
# 3 -0.006393 -0.002314 0.023462 0.000000 0.000000 0.000000
# 4 0.000000 0.000000 0.000000 0.051443 0.000000 0.000000
# 5 0.000000 0.000000 0.000000 0.000000 0.041345 0.000000
# 6 0.000000 0.000000 0.000000 0.000000 0.000000 0.070826
#
#
# Mechanical properties :
#
#
# Convention : Reuss Voigt Hill
#
# Bulk Modulus (GPa) = 22.16126 29.22845 25.69486
# Shear Modulus (GPa) = 18.57824 20.58376 19.58100
#
# Velocity S-wave (km/s) = 2.98355 3.14046 3.06301
# Velocity P-wave (km/s) = 4.74205 5.21099 4.98204
#
# Compressibility (1/GPa) = 0.04512378
#
# Stress axis : x y z
#
# Youngs Moduli (GPa) = 79.14606 31.54234 42.62264
#
# Poissons Ratio (x) = 0.08301 0.27247
# Poissons Ratio (y) = 0.20829 0.09862
# Poissons Ratio (z) = 0.50595 0.07298
#
# Static dielectric constant tensor:
#      x y z
#    x 1.818020 0.000000 0.000000 
#    y 0.000000 1.737100 0.000000 
#    z 0.000000 0.000000 1.762020 
# 
# From -- ./inp_files/8525.got.cif
#   From: 2010.05.17/outbox.cif.g08.bks.cpg/sg44_5_cif.got.tgz:8525.got - 2010.06.03 19:37:08.
