data_PCOD9374768
_publ_section_title
;
Structure prediction by ZEFSAII (Michael W. Deem and Ramdas Pophale) SiO2 
 PCOD9374768
Probable space group: I M M 2
;
_chemical_formula_sum "Si O2"
_cell_formula_units_Z 40
_cell_length_a 9.339704
_cell_length_b 29.928381
_cell_length_c 7.597147
_cell_angle_alpha 90.000000
_cell_angle_beta 90.000000
_cell_angle_gamma 90.000000
_cell_volume 2123.571393
_symmetry_space_group_name_H-M "I M M 2"
_symmetry_group_IT_number 44
_symmetry_cell_setting 'orthorhombic'
loop_
_space_group_symop_operation_xyz
x,y,z
-x,-y,z
-x,y,z
x,-y,z
1/2+x,1/2+y,1/2+z
1/2-x,1/2-y,1/2+z
1/2-x,1/2+y,1/2+z
1/2+x,1/2-y,1/2+z
loop_
_atom_site_type_symbol
_atom_site_label
_atom_site_fract_x
_atom_site_fract_y
_atom_site_fract_z
Si Si1 0.336170 0.203171 0.769810
Si Si2 0.335621 0.698240 0.615049
Si Si3 0.834308 0.394996 0.221944
Si Si4 0.830833 0.946844 0.426877
Si Si5 0.330155 0.888357 0.143623
O O1 0.500000 0.200967 0.845957
O O2 0.321847 0.251122 0.681470
O O3 0.322592 0.157124 0.662620
O O4 0.213898 0.200498 0.914315
O O5 0.500000 0.684358 0.636513
O O6 0.233643 0.660216 0.694232
O O7 0.805157 0.395623 0.432957
O O8 0.000000 0.408632 0.197076
O O9 0.732393 0.425085 0.104511
O O10 0.748561 0.924629 0.262985
O O11 0.000000 0.937700 0.413460
O O12 0.809251 0.000000 0.428800
O O13 0.500000 0.889432 0.172300
#
# Coordination Sequence:
#
# PCOD9374768 Si02
#       5
#     8   8   8   8   8
#     4   9  20  36  53  82 118 154 196 239 290 352
#     4  10  20  34  55  85 118 155 197 240 294 350
#     4   9  20  40  62  86 119 157 199 248 297 354
#     4  11  25  42  62  91 122 155 199 251 309 366
#     4  10  22  41  63  87 120 159 202 250 299 357
#
# _framework density 18.836193999999999
#
# number of rings (size 3 to 8) (size 9 to 14) (size 15 to 20)
#    0.000    2.200    0.000    3.000    2.800    8.000 
#    0.000    4.000    0.000    0.000    0.000    0.000 
#    0.000    0.000    0.000    0.000    0.000    0.000 
#
# Total GULP energy -111524.714761 kJ/mol
# GULP energy per Si atom -5576.235738 kJ/mol
# Density = 1.879332 g / cm^3
# Si number density = 18.836194 Si / 1000 Ang^3
#
#
#
# Elastic Constant Matrix: (Units=GPa)
#
#
# Indices 1 2 3 4 5 6 
#
# 1 127.3240 101.5718 67.5903 0.0006 -0.0006 0.0003
# 2 101.5718 133.0520 62.3034 0.0014 0.0004 0.0004
# 3 67.5903 62.3034 74.1958 0.0013 0.0013 0.0018
# 4 0.0006 0.0014 0.0013 28.6379 0.0006 0.0003
# 5 -0.0006 0.0004 0.0013 0.0006 29.9422 0.0003
# 6 0.0003 0.0004 0.0018 0.0003 0.0003 33.5978
#
#
#
# Elastic Compliance Matrix: (Units=1/GPa)
#
#
# Indices 1 2 3 4 5 6 
#
# 1 0.024465 -0.013580 -0.010883 0.000001 0.000001 0.000001
# 2 -0.013580 0.019925 -0.004360 0.000000 0.000000 0.000000
# 3 -0.010883 -0.004360 0.027053 -0.000001 -0.000001 -0.000001
# 4 0.000001 0.000000 -0.000001 0.034919 -0.000001 0.000000
# 5 0.000001 0.000000 -0.000001 -0.000001 0.033398 0.000000
# 6 0.000001 0.000000 -0.000001 0.000000 0.000000 0.029764
#
#
# Mechanical properties :
#
#
# Convention : Reuss Voigt Hill
#
# Bulk Modulus (GPa) = 72.48444 88.61142 80.54793
# Shear Modulus (GPa) = 21.57327 25.30935 23.44131
#
# Velocity S-wave (km/s) = 3.38791 3.66957 3.53155
# Velocity P-wave (km/s) = 7.33955 8.06843 7.71260
#
# Compressibility (1/GPa) = 0.01379606
#
# Stress axis : x y z
#
# Youngs Moduli (GPa) = 40.87466 50.18942 36.96423
#
# Poissons Ratio (x) = 0.68159 0.40230
# Poissons Ratio (y) = 0.55509 0.16115
# Poissons Ratio (z) = 0.44485 0.21881
#
# Static dielectric constant tensor:
#      x y z
#    x 1.638150 0.000000 0.000000 
#    y 0.000000 1.669620 0.000000 
#    z 0.000000 0.000000 1.660430 
# 
# From -- ./inp_files/4460.got.cif
#   From: 2010.05.17/outbox.cif.g08.bks.cpg/sg44_3_cif.got.tgz:4460.got - 2010.06.03 19:37:08.
