data_PCOD9374529
_publ_section_title
;
Structure prediction by ZEFSAII (Michael W. Deem and Ramdas Pophale) SiO2 
 PCOD9374529
Probable space group: I M M 2
;
_chemical_formula_sum "Si O2"
_cell_formula_units_Z 64
_cell_length_a 8.346550
_cell_length_b 20.291429
_cell_length_c 21.421642
_cell_angle_alpha 90.000000
_cell_angle_beta 90.000000
_cell_angle_gamma 90.000000
_cell_volume 3628.042695
_symmetry_space_group_name_H-M "I M M 2"
_symmetry_group_IT_number 44
_symmetry_cell_setting 'orthorhombic'
loop_
_space_group_symop_operation_xyz
x,y,z
-x,-y,z
-x,y,z
x,-y,z
1/2+x,1/2+y,1/2+z
1/2-x,1/2-y,1/2+z
1/2-x,1/2+y,1/2+z
1/2+x,1/2-y,1/2+z
loop_
_atom_site_type_symbol
_atom_site_label
_atom_site_fract_x
_atom_site_fract_y
_atom_site_fract_z
Si Si1 0.806143 0.073362 0.250000
Si Si2 0.308318 0.426373 0.371265
Si Si3 0.808318 0.426373 0.607460
Si Si4 0.806143 0.573362 0.228726
Si Si5 0.804402 0.210283 0.301544
Si Si6 0.309184 0.209655 0.921989
Si Si7 0.804402 0.710283 0.177181
Si Si8 0.690816 0.709655 0.556737
O O1 0.744446 0.083017 0.179468
O O2 0.754042 0.134552 0.292382
O O3 0.000000 0.074696 0.247235
O O4 0.756379 0.000000 0.270648
O O5 0.500000 0.424866 0.374538
O O6 0.253237 0.500000 0.390354
O O7 0.255556 0.416983 0.299258
O O8 0.240661 0.365914 0.410303
O O9 0.753238 0.500000 0.588372
O O10 0.740663 0.365914 0.568422
O O11 0.000000 0.424866 0.604188
O O12 0.756380 0.500000 0.208077
O O13 0.754043 0.634552 0.186343
O O14 0.000000 0.574696 0.231491
O O15 0.747350 0.246548 0.363980
O O16 0.755618 0.250000 0.239363
O O17 0.000000 0.211555 0.302705
O O18 0.500000 0.212795 0.920973
O O19 0.249999 0.232149 0.989363
O O20 0.747350 0.746548 0.114745
O O21 0.000000 0.711555 0.176021
O O22 0.500000 0.712794 0.557752
#
# Coordination Sequence:
#
# PCOD9374529 Si02
#       8
#     8   8   8   8   8   8   8   8
#     4   9  16  29  52  78 101 130 169 208 248 293
#     4  10  20  33  49  73 105 136 167 203 246 297
#     4  10  20  33  49  73 105 136 167 203 246 297
#     4   9  16  29  52  78 101 130 169 208 248 293
#     4   9  16  30  52  77 101 128 165 210 252 292
#     4  11  22  36  53  72 101 135 170 210 251 298
#     4   9  16  30  52  77 101 128 165 210 252 292
#     4  11  22  36  53  72 101 135 170 210 251 298
#
# _framework density 17.640366
#
# number of rings (size 3 to 8) (size 9 to 14) (size 15 to 20)
#    0.000    2.250    2.500    1.500    0.000    2.000 
#    0.000    3.750    0.000    0.750    0.000    0.000 
#    0.000    0.000    0.000    0.000    0.000    0.250 
#
# Total GULP energy -178500.212763 kJ/mol
# GULP energy per Si atom -5578.131649 kJ/mol
# Density = 1.760022 g / cm^3
# Si number density = 17.640366 Si / 1000 Ang^3
#
#
#
# Elastic Constant Matrix: (Units=GPa)
#
#
# Indices 1 2 3 4 5 6 
#
# 1 16.3313 16.6470 14.2469 0.0000 0.0000 0.0000
# 2 16.6470 120.8941 73.2049 0.0000 0.0000 0.0000
# 3 14.2469 73.2049 122.9254 0.0000 0.0000 0.0000
# 4 0.0000 0.0000 0.0000 28.7544 0.0000 0.0000
# 5 0.0000 0.0000 0.0000 0.0000 20.6635 0.0000
# 6 0.0000 0.0000 0.0000 0.0000 0.0000 10.4942
#
#
#
# Elastic Compliance Matrix: (Units=1/GPa)
#
#
# Indices 1 2 3 4 5 6 
#
# 1 0.072369 -0.007642 -0.003836 0.000000 0.000000 0.000000
# 2 -0.007642 0.013744 -0.007299 0.000000 0.000000 0.000000
# 3 -0.003836 -0.007299 0.012926 0.000000 0.000000 0.000000
# 4 0.000000 0.000000 0.000000 0.034777 0.000000 0.000000
# 5 0.000000 0.000000 0.000000 0.000000 0.048394 0.000000
# 6 0.000000 0.000000 0.000000 0.000000 0.000000 0.095291
#
#
# Mechanical properties :
#
#
# Convention : Reuss Voigt Hill
#
# Bulk Modulus (GPa) = 16.26446 52.03870 34.15158
# Shear Modulus (GPa) = 14.90088 22.38590 18.64339
#
# Velocity S-wave (km/s) = 2.90953 3.56619 3.25446
# Velocity P-wave (km/s) = 4.53070 6.82061 5.78999
#
# Compressibility (1/GPa) = 0.06148377
#
# Stress axis : x y z
#
# Youngs Moduli (GPa) = 13.81815 72.76017 77.36110
#
# Poissons Ratio (x) = 0.55604 0.29679
# Poissons Ratio (y) = 0.10560 0.56466
# Poissons Ratio (z) = 0.05301 0.53108
#
# Static dielectric constant tensor:
#      x y z
#    x 1.609030 0.000000 0.000000 
#    y 0.000000 1.632780 0.000000 
#    z 0.000000 0.000000 1.584260 
# 
# From -- ./inp_files/20793.got.cif
#   From: 2010.05.17/outbox.cif.g08.bks.cpg/sg44_11_cif.got.tgz:20793.got - 2010.06.03 19:37:08.
