data_PCOD9374449
_publ_section_title
;
Structure prediction by ZEFSAII (Michael W. Deem and Ramdas Pophale) SiO2 
 PCOD9374449
Probable space group: I M M 2
;
_chemical_formula_sum "Si O2"
_cell_formula_units_Z 64
_cell_length_a 8.710669
_cell_length_b 31.233900
_cell_length_c 14.786192
_cell_angle_alpha 90.000000
_cell_angle_beta 90.000000
_cell_angle_gamma 90.000000
_cell_volume 4022.852117
_symmetry_space_group_name_H-M "I M M 2"
_symmetry_group_IT_number 44
_symmetry_cell_setting 'orthorhombic'
loop_
_space_group_symop_operation_xyz
x,y,z
-x,-y,z
-x,y,z
x,-y,z
1/2+x,1/2+y,1/2+z
1/2-x,1/2-y,1/2+z
1/2-x,1/2+y,1/2+z
1/2+x,1/2-y,1/2+z
loop_
_atom_site_type_symbol
_atom_site_label
_atom_site_fract_x
_atom_site_fract_y
_atom_site_fract_z
Si Si1 0.320002 0.324791 0.443050
Si Si2 0.686243 0.787347 0.647641
Si Si3 0.816658 0.048679 0.835088
Si Si4 0.682859 0.268092 0.953090
Si Si5 0.818277 0.632126 0.269321
Si Si6 0.184450 0.451782 0.535763
Si Si7 0.816922 0.800056 0.256556
Si Si8 0.183053 0.635247 0.622099
O O1 0.500000 0.332042 0.428508
O O2 0.276508 0.275321 0.437626
O O3 0.223823 0.349266 0.367478
O O4 0.269446 0.340612 0.541177
O O5 0.500000 0.786904 0.639925
O O6 0.761865 0.785997 0.549083
O O7 0.732248 0.830790 0.699819
O O8 0.728361 0.744548 0.705442
O O9 0.756571 0.085294 0.768183
O O10 0.000000 0.050290 0.837548
O O11 0.768420 0.000000 0.811811
O O12 0.755970 0.057162 0.937110
O O13 0.500000 0.258777 0.956341
O O14 0.710926 0.296099 0.863575
O O15 0.000000 0.627501 0.260662
O O16 0.230550 0.500000 0.562481
O O17 0.223547 0.414661 0.607006
O O18 0.000000 0.451166 0.524636
O O19 0.733692 0.840411 0.212070
O O20 0.000000 0.804351 0.242561
O O21 0.000000 0.639636 0.610561
#
# Coordination Sequence:
#
# PCOD9374449 Si02
#       8
#     8   8   8   8   8   8   8   8
#     4  12  22  31  48  72 103 137 169 209 252 294
#     4  10  21  36  52  73 102 133 168 210 253 297
#     4  10  20  32  48  74 105 134 167 207 251 301
#     4  11  22  37  53  71  99 134 174 213 249 297
#     4  11  21  35  52  72 101 137 175 210 249 301
#     4   9  18  32  49  70 100 135 167 204 250 298
#     4  10  21  36  51  71 102 135 167 207 252 295
#     4  11  21  32  50  75 100 133 175 208 243 300
#
# _framework density 15.90911
#
# number of rings (size 3 to 8) (size 9 to 14) (size 15 to 20)
#    0.000    1.500    3.750    2.625    0.000    3.250 
#    0.000    0.000    0.000    0.000    0.000    0.875 
#    0.000    3.000    0.000    0.000    0.000    0.000 
#
# Total GULP energy -178550.722594 kJ/mol
# GULP energy per Si atom -5579.710081 kJ/mol
# Density = 1.587290 g / cm^3
# Si number density = 15.909110 Si / 1000 Ang^3
#
#
#
# Elastic Constant Matrix: (Units=GPa)
#
#
# Indices 1 2 3 4 5 6 
#
# 1 15.6575 24.8580 10.7573 0.0000 0.0000 0.0000
# 2 24.8580 99.4681 15.8762 0.0000 0.0000 -0.0001
# 3 10.7573 15.8762 47.2923 0.0002 0.0000 0.0001
# 4 0.0000 0.0000 0.0002 19.2030 0.0000 0.0000
# 5 0.0000 0.0000 0.0000 0.0000 25.5288 0.0000
# 6 0.0000 -0.0001 0.0001 0.0000 0.0000 30.9799
#
#
#
# Elastic Compliance Matrix: (Units=1/GPa)
#
#
# Indices 1 2 3 4 5 6 
#
# 1 0.118832 -0.026820 -0.018026 0.000000 0.000000 0.000000
# 2 -0.026820 0.016676 0.000502 0.000000 0.000000 0.000000
# 3 -0.018026 0.000502 0.025077 0.000000 0.000000 0.000000
# 4 0.000000 0.000000 0.000000 0.052075 0.000000 0.000000
# 5 0.000000 0.000000 0.000000 0.000000 0.039171 0.000000
# 6 0.000000 0.000000 0.000000 0.000000 0.000000 0.032279
#
#
# Mechanical properties :
#
#
# Convention : Reuss Voigt Hill
#
# Bulk Modulus (GPa) = 13.90888 29.48899 21.69893
# Shear Modulus (GPa) = 12.60198 22.53743 17.56971
#
# Velocity S-wave (km/s) = 2.81752 3.76791 3.32683
# Velocity P-wave (km/s) = 4.39844 6.12419 5.33160
#
# Compressibility (1/GPa) = 0.07189654
#
# Stress axis : x y z
#
# Youngs Moduli (GPa) = 8.41527 59.96716 39.87752
#
# Poissons Ratio (x) = 1.60831 0.71885
# Poissons Ratio (y) = 0.22570 -0.02004
# Poissons Ratio (z) = 0.15170 -0.03013
#
# Static dielectric constant tensor:
#      x y z
#    x 1.538790 0.000000 0.000000 
#    y 0.000000 1.563790 0.000000 
#    z 0.000000 0.000000 1.514110 
# 
# From -- ./inp_files/17085.got.cif
#   From: 2010.05.17/outbox.cif.g08.bks.cpg/sg44_9_cif.got.tgz:17085.got - 2010.06.03 19:37:08.
