data_PCOD9374038
_publ_section_title
;
Structure prediction by ZEFSAII (Michael W. Deem and Ramdas Pophale) SiO2 
 PCOD9374038
Probable space group: I M M 2
;
_chemical_formula_sum "Si O2"
_cell_formula_units_Z 64
_cell_length_a 8.705643
_cell_length_b 25.734531
_cell_length_c 15.502024
_cell_angle_alpha 90.000000
_cell_angle_beta 90.000000
_cell_angle_gamma 90.000000
_cell_volume 3473.005863
_symmetry_space_group_name_H-M "I M M 2"
_symmetry_group_IT_number 44
_symmetry_cell_setting 'orthorhombic'
loop_
_space_group_symop_operation_xyz
x,y,z
-x,-y,z
-x,y,z
x,-y,z
1/2+x,1/2+y,1/2+z
1/2-x,1/2-y,1/2+z
1/2-x,1/2+y,1/2+z
1/2+x,1/2-y,1/2+z
loop_
_atom_site_type_symbol
_atom_site_label
_atom_site_fract_x
_atom_site_fract_y
_atom_site_fract_z
Si Si1 0.183789 0.389659 0.978650
Si Si2 0.185429 0.440981 0.158228
Si Si3 0.683526 0.351776 0.278510
Si Si4 0.319120 0.278760 0.953741
Si Si5 0.818352 0.241371 0.250065
Si Si6 0.685243 0.667109 0.473312
Si Si7 0.814049 0.060077 0.304768
Si Si8 0.812724 0.862604 0.155352
O O1 0.240460 0.330584 0.988234
O O2 0.253200 0.413446 0.891579
O O3 0.000000 0.390425 0.972608
O O4 0.231191 0.422831 0.062142
O O5 0.236655 0.500000 0.174831
O O6 0.248294 0.399412 0.225732
O O7 0.000000 0.439946 0.161363
O O8 0.500000 0.354671 0.277310
O O9 0.734821 0.296241 0.239694
O O10 0.737239 0.351387 0.378762
O O11 0.500000 0.279784 0.972387
O O12 0.300065 0.276691 0.849564
O O13 0.244581 0.225647 0.986701
O O14 0.763914 0.193732 0.191471
O O15 0.000000 0.249514 0.234806
O O16 0.500000 0.668549 0.471499
O O17 0.734037 0.633231 0.555650
O O18 0.761892 0.092988 0.221448
O O19 0.000000 0.061920 0.307009
O O20 0.766587 0.000000 0.300300
O O21 0.000000 0.862715 0.157705
#
# Coordination Sequence:
#
# PCOD9374038 Si02
#       8
#     8   8   8   8   8   8   8   8
#     4  11  22  36  56  81 111 145 182 224 275 332
#     4  10  23  42  60  77 102 144 194 230 270 336
#     4  10  21  36  55  83 114 139 178 235 286 321
#     4  10  19  33  53  81 114 145 183 223 267 322
#     4   9  17  32  54  77 109 149 184 215 259 327
#     4   9  19  35  55  80 114 150 184 223 271 327
#     4  10  20  36  58  83 112 147 187 228 270 320
#     4   9  17  33  55  80 111 149 188 220 261 324
#
# _framework density 18.42784
#
# number of rings (size 3 to 8) (size 9 to 14) (size 15 to 20)
#    0.000    2.250    1.250    1.500    1.750    3.000 
#    0.000    1.250    0.000    2.250    0.000    0.000 
#    0.000    0.000    0.000    0.000    0.000    0.000 
#
# Total GULP energy -178623.104774 kJ/mol
# GULP energy per Si atom -5581.972024 kJ/mol
# Density = 1.838590 g / cm^3
# Si number density = 18.427840 Si / 1000 Ang^3
#
#
#
# Elastic Constant Matrix: (Units=GPa)
#
#
# Indices 1 2 3 4 5 6 
#
# 1 10.6169 21.1882 15.0597 0.0000 0.0000 0.0000
# 2 21.1882 129.9889 65.4890 0.0000 0.0000 0.0000
# 3 15.0597 65.4890 94.5330 0.0001 0.0000 0.0000
# 4 0.0000 0.0000 0.0001 25.9069 0.0000 0.0000
# 5 0.0000 0.0000 0.0000 0.0000 19.5670 0.0000
# 6 0.0000 0.0000 0.0000 0.0000 0.0000 20.0991
#
#
#
# Elastic Compliance Matrix: (Units=1/GPa)
#
#
# Indices 1 2 3 4 5 6 
#
# 1 0.145969 -0.018553 -0.010401 0.000000 0.000000 0.000000
# 2 -0.018553 0.014176 -0.006865 0.000000 0.000000 0.000000
# 3 -0.010401 -0.006865 0.016991 0.000000 0.000000 0.000000
# 4 0.000000 0.000000 0.000000 0.038600 0.000000 0.000000
# 5 0.000000 0.000000 0.000000 0.000000 0.051106 0.000000
# 6 0.000000 0.000000 0.000000 0.000000 0.000000 0.049753
#
#
# Mechanical properties :
#
#
# Convention : Reuss Voigt Hill
#
# Bulk Modulus (GPa) = 9.47886 48.73473 29.10680
# Shear Modulus (GPa) = 11.80923 22.00808 16.90865
#
# Velocity S-wave (km/s) = 2.53422 3.45959 3.03241
# Velocity P-wave (km/s) = 3.70378 6.51629 5.30000
#
# Compressibility (1/GPa) = 0.10549788
#
# Stress axis : x y z
#
# Youngs Moduli (GPa) = 6.85079 70.54406 58.85505
#
# Poissons Ratio (x) = 1.30879 0.61216
# Poissons Ratio (y) = 0.12710 0.40402
# Poissons Ratio (z) = 0.07126 0.48426
#
# Static dielectric constant tensor:
#      x y z
#    x 1.622920 0.000000 0.000000 
#    y 0.000000 1.605110 0.000000 
#    z 0.000000 0.000000 1.656110 
# 
# From -- ./inp_files/16813.got.cif
#   From: 2010.05.17/outbox.cif.g08.bks.cpg/sg44_9_cif.got.tgz:16813.got - 2010.06.03 19:37:08.
