data_PCOD9374105
_publ_section_title
;
Structure prediction by ZEFSAII (Michael W. Deem and Ramdas Pophale) SiO2 
 PCOD9374105
Probable space group: I M M 2
;
_chemical_formula_sum "Si O2"
_cell_formula_units_Z 58
_cell_length_a 15.181341
_cell_length_b 12.218407
_cell_length_c 17.185457
_cell_angle_alpha 90.000000
_cell_angle_beta 90.000000
_cell_angle_gamma 90.000000
_cell_volume 3187.761407
_symmetry_space_group_name_H-M "I M M 2"
_symmetry_group_IT_number 44
_symmetry_cell_setting 'orthorhombic'
loop_
_space_group_symop_operation_xyz
x,y,z
-x,-y,z
-x,y,z
x,-y,z
1/2+x,1/2+y,1/2+z
1/2-x,1/2-y,1/2+z
1/2-x,1/2+y,1/2+z
1/2+x,1/2-y,1/2+z
loop_
_atom_site_type_symbol
_atom_site_label
_atom_site_fract_x
_atom_site_fract_y
_atom_site_fract_z
Si Si1 0.395826 0.620834 0.264060
Si Si2 0.858738 0.699486 0.883744
Si Si3 0.402315 0.623350 0.512794
Si Si4 0.500000 0.000000 0.365796
Si Si5 0.834653 0.869994 0.439916
Si Si6 0.096506 0.866724 0.273895
Si Si7 0.262777 0.372839 0.651427
Si Si8 0.102323 0.226921 0.603153
O O1 0.500000 0.626719 0.284275
O O2 0.362631 0.500000 0.285731
O O3 0.351505 0.722244 0.308204
O O4 0.390328 0.636109 0.171091
O O5 0.765339 0.658186 0.916210
O O6 0.922963 0.597556 0.867983
O O7 0.895386 0.782747 0.949057
O O8 0.500000 0.628431 0.549157
O O9 0.393752 0.500000 0.479042
O O10 0.326939 0.635815 0.576838
O O11 0.890781 0.837822 0.363989
O O12 0.867111 0.813779 0.518765
O O13 0.842940 0.000000 0.450458
O O14 0.177961 0.826765 0.221984
O O15 0.000000 0.830323 0.246451
O O16 0.098008 0.000000 0.268803
O O17 0.246349 0.500000 0.668340
O O18 0.170809 0.317750 0.631859
O O19 0.000000 0.261890 0.601026
#
# Coordination Sequence:
#
# PCOD9374105 Si02
#       8
#     8   8   8   2   8   8   8   8
#     4  10  21  38  59  83 111 150 201 249 293 349
#     4  12  21  37  56  87 123 159 194 245 303 365
#     4  10  19  33  58  86 117 157 200 245 292 346
#     4  12  24  36  58  92 130 160 202 242 312 388
#     4  11  22  36  57  83 117 154 195 245 303 357
#     4   9  18  34  57  83 110 143 188 244 301 353
#     4  10  20  36  56  85 119 150 196 247 305 365
#     4  11  23  39  57  83 116 157 203 250 301 356
#
# _framework density 18.194586000000001
#
# number of rings (size 3 to 8) (size 9 to 14) (size 15 to 20)
#    0.000    1.517    3.448    2.483    0.000    4.414 
#    1.241    0.000    0.000    0.000    0.000    0.000 
#    0.000    4.414    0.000    0.000    0.000    0.000 
#
# Total GULP energy -161509.221810 kJ/mol
# GULP energy per Si atom -5569.283511 kJ/mol
# Density = 1.815317 g / cm^3
# Si number density = 18.194586 Si / 1000 Ang^3
#
#
#
# Elastic Constant Matrix: (Units=GPa)
#
#
# Indices 1 2 3 4 5 6 
#
# 1 141.3765 43.5641 49.3561 0.0000 0.0000 0.0000
# 2 43.5641 92.8303 42.8931 0.0000 0.0000 0.0000
# 3 49.3561 42.8931 104.2145 0.0000 0.0000 0.0000
# 4 0.0000 0.0000 0.0000 18.5622 0.0000 0.0000
# 5 0.0000 0.0000 0.0000 0.0000 20.1711 0.0000
# 6 0.0000 0.0000 0.0000 0.0000 0.0000 25.6463
#
#
#
# Elastic Compliance Matrix: (Units=1/GPa)
#
#
# Indices 1 2 3 4 5 6 
#
# 1 0.009024 -0.002791 -0.003125 0.000000 0.000000 0.000000
# 2 -0.002791 0.014165 -0.004508 0.000000 0.000000 0.000000
# 3 -0.003125 -0.004508 0.012931 0.000000 0.000000 0.000000
# 4 0.000000 0.000000 0.000000 0.053873 0.000000 0.000000
# 5 0.000000 0.000000 0.000000 0.000000 0.049576 0.000000
# 6 0.000000 0.000000 0.000000 0.000000 0.000000 0.038992
#
#
# Mechanical properties :
#
#
# Convention : Reuss Voigt Hill
#
# Bulk Modulus (GPa) = 65.48050 67.78309 66.63179
# Shear Modulus (GPa) = 24.44969 26.38313 25.41641
#
# Velocity S-wave (km/s) = 3.66975 3.81209 3.74160
# Velocity P-wave (km/s) = 7.35005 7.53070 7.44092
#
# Compressibility (1/GPa) = 0.01527172
#
# Stress axis : x y z
#
# Youngs Moduli (GPa) = 110.81096 70.59522 77.33185
#
# Poissons Ratio (x) = 0.19703 0.24168
# Poissons Ratio (y) = 0.30927 0.34864
# Poissons Ratio (z) = 0.34631 0.31827
#
# Static dielectric constant tensor:
#      x y z
#    x 1.637310 0.000000 0.000000 
#    y 0.000000 1.608340 0.000000 
#    z 0.000000 0.000000 1.654110 
# 
# From -- ./inp_files/21426.got.cif
#   From: 2010.05.17/outbox.cif.g08.bks.cpg/sg44_11_cif.got.tgz:21426.got - 2010.06.03 19:37:08.
