data_PCOD9374632
_publ_section_title
;
Structure prediction by ZEFSAII (Michael W. Deem and Ramdas Pophale) SiO2 
 PCOD9374632
Probable space group: I M M 2
;
_chemical_formula_sum "Si O2"
_cell_formula_units_Z 56
_cell_length_a 14.424080
_cell_length_b 8.992033
_cell_length_c 23.629994
_cell_angle_alpha 90.000000
_cell_angle_beta 90.000000
_cell_angle_gamma 90.000000
_cell_volume 3064.852835
_symmetry_space_group_name_H-M "I M M 2"
_symmetry_group_IT_number 44
_symmetry_cell_setting 'orthorhombic'
loop_
_space_group_symop_operation_xyz
x,y,z
-x,-y,z
-x,y,z
x,-y,z
1/2+x,1/2+y,1/2+z
1/2-x,1/2-y,1/2+z
1/2-x,1/2+y,1/2+z
1/2+x,1/2-y,1/2+z
loop_
_atom_site_type_symbol
_atom_site_label
_atom_site_fract_x
_atom_site_fract_y
_atom_site_fract_z
Si Si1 0.291004 0.178601 0.189690
Si Si2 0.107450 0.179361 0.796135
Si Si3 0.389045 0.826073 0.513923
Si Si4 0.107752 0.822894 0.453688
Si Si5 0.716680 0.678070 0.409668
Si Si6 0.893979 0.821400 0.134749
Si Si7 0.610708 0.827485 0.072431
O O1 0.340814 0.255818 0.241766
O O2 0.182877 0.217402 0.181248
O O3 0.339752 0.218711 0.130132
O O4 0.299326 0.000000 0.195957
O O5 0.161269 0.222922 0.853278
O O6 0.000000 0.227841 0.797787
O O7 0.108309 0.000000 0.793191
O O8 0.500000 0.813699 0.505207
O O9 0.337016 0.741145 0.464126
O O10 0.369702 0.755068 0.575172
O O11 0.363862 0.000000 0.513491
O O12 0.180086 0.744087 0.412449
O O13 0.131864 0.769977 0.517469
O O14 0.000000 0.781639 0.443799
O O15 0.116096 0.000000 0.449685
O O16 0.719843 0.500000 0.412493
O O17 0.000000 0.781723 0.149425
O O18 0.889788 0.000000 0.126563
O O19 0.500000 0.821602 0.081425
O O20 0.636205 0.000000 0.060510
#
# Coordination Sequence:
#
# PCOD9374632 Si02
#       7
#     8   8   8   8   8   8   8
#     4  10  20  34  54  79 106 140 181 221 262 310
#     4  10  23  41  58  78 104 135 174 220 269 320
#     4  10  20  33  53  84 116 143 176 222 274 323
#     4  10  21  36  55  82 113 142 176 221 270 317
#     4  11  22  37  57  78 105 144 185 222 265 322
#     4   9  18  33  53  79 112 147 180 215 260 317
#     4   9  17  30  50  78 110 142 177 217 264 320
#
# _framework density 18.271675999999999
#
# number of rings (size 3 to 8) (size 9 to 14) (size 15 to 20)
#    0.000    2.143    0.000    3.000    0.000    6.571 
#    0.000    2.143    0.000    2.571    0.000    0.000 
#    0.000    0.000    0.000    0.000    0.000    0.000 
#
# Total GULP energy -156370.440198 kJ/mol
# GULP energy per Si atom -5584.658579 kJ/mol
# Density = 1.823009 g / cm^3
# Si number density = 18.271676 Si / 1000 Ang^3
#
#
#
# Elastic Constant Matrix: (Units=GPa)
#
#
# Indices 1 2 3 4 5 6 
#
# 1 135.0546 50.8832 100.5351 0.0000 0.0000 0.0000
# 2 50.8832 41.7063 40.9793 0.0000 0.0000 0.0000
# 3 100.5351 40.9793 101.6222 0.0000 0.0000 0.0000
# 4 0.0000 0.0000 0.0000 31.4784 0.0000 0.0000
# 5 0.0000 0.0000 0.0000 0.0000 34.1280 0.0000
# 6 0.0000 0.0000 0.0000 0.0000 0.0000 27.7145
#
#
#
# Elastic Compliance Matrix: (Units=1/GPa)
#
#
# Indices 1 2 3 4 5 6 
#
# 1 0.031901 -0.013102 -0.026276 0.000000 0.000000 0.000000
# 2 -0.013102 0.045093 -0.005222 0.000000 0.000000 0.000000
# 3 -0.026276 -0.005222 0.037941 0.000000 0.000000 0.000000
# 4 0.000000 0.000000 0.000000 0.031768 0.000000 0.000000
# 5 0.000000 0.000000 0.000000 0.000000 0.029301 0.000000
# 6 0.000000 0.000000 0.000000 0.000000 0.000000 0.036082
#
#
# Mechanical properties :
#
#
# Convention : Reuss Voigt Hill
#
# Bulk Modulus (GPa) = 38.85794 73.68646 56.27220
# Shear Modulus (GPa) = 16.13609 24.39656 20.26632
#
# Velocity S-wave (km/s) = 2.97496 3.65802 3.33403
# Velocity P-wave (km/s) = 5.75443 7.63264 6.75909
#
# Compressibility (1/GPa) = 0.02573477
#
# Stress axis : x y z
#
# Youngs Moduli (GPa) = 31.34727 22.17640 26.35664
#
# Poissons Ratio (x) = 0.29055 0.69255
# Poissons Ratio (y) = 0.41071 0.13763
# Poissons Ratio (z) = 0.82368 0.11580
#
# Static dielectric constant tensor:
#      x y z
#    x 1.662240 0.000000 0.000000 
#    y 0.000000 1.615780 0.000000 
#    z 0.000000 0.000000 1.581820 
# 
# From -- ./inp_files/23042.got.cif
#   From: 2010.05.17/outbox.cif.g08.bks.cpg/sg44_12_cif.got.tgz:23042.got - 2010.06.03 19:37:08.
