data_PCOD9374581
_publ_section_title
;
Structure prediction by ZEFSAII (Michael W. Deem and Ramdas Pophale) SiO2 
 PCOD9374581
Probable space group: I M M 2
;
_chemical_formula_sum "Si O2"
_cell_formula_units_Z 48
_cell_length_a 9.468154
_cell_length_b 7.898819
_cell_length_c 31.583209
_cell_angle_alpha 90.000000
_cell_angle_beta 90.000000
_cell_angle_gamma 90.000000
_cell_volume 2362.020864
_symmetry_space_group_name_H-M "I M M 2"
_symmetry_group_IT_number 44
_symmetry_cell_setting 'orthorhombic'
loop_
_space_group_symop_operation_xyz
x,y,z
-x,-y,z
-x,y,z
x,-y,z
1/2+x,1/2+y,1/2+z
1/2-x,1/2-y,1/2+z
1/2-x,1/2+y,1/2+z
1/2+x,1/2-y,1/2+z
loop_
_atom_site_type_symbol
_atom_site_label
_atom_site_fract_x
_atom_site_fract_y
_atom_site_fract_z
Si Si1 0.337365 0.207714 0.570470
Si Si2 0.161026 0.204319 0.908783
Si Si3 0.661912 0.295380 0.312973
Si Si4 0.340185 0.299404 0.732194
Si Si5 0.159715 0.202778 0.489555
Si Si6 0.840222 0.798088 0.651327
O O1 0.500000 0.262497 0.571305
O O2 0.256984 0.264910 0.528119
O O3 0.251712 0.265982 0.611805
O O4 0.338454 0.000000 0.570579
O O5 0.197019 0.260004 0.860917
O O6 0.267177 0.261299 0.944844
O O7 0.000000 0.260988 0.918082
O O8 0.159946 0.000000 0.908457
O O9 0.500000 0.241470 0.303735
O O10 0.662459 0.500000 0.312588
O O11 0.768791 0.235592 0.277356
O O12 0.500000 0.230209 0.729965
O O13 0.347142 0.500000 0.726309
O O14 0.241507 0.230311 0.694999
O O15 0.000000 0.269971 0.491607
O O16 0.151948 0.000000 0.494330
O O17 0.000000 0.729335 0.652327
O O18 0.851077 0.000000 0.645395
#
# Coordination Sequence:
#
# PCOD9374581 Si02
#       6
#     8   8   8   8   8   8
#     4   9  17  31  53  79 106 138 176 216 258 306
#     4   9  19  36  56  78 105 137 175 219 264 311
#     4   9  19  37  59  80 102 133 176 221 263 311
#     4  11  24  38  52  76 110 142 173 213 261 312
#     4  10  20  33  51  78 111 143 176 216 260 307
#     4  10  20  35  57  82 106 135 174 218 262 310
#
# _framework density 20.321580999999998
#
# number of rings (size 3 to 8) (size 9 to 14) (size 15 to 20)
#    0.000    2.333    0.000    3.500    0.000    9.333 
#    0.000    5.833    0.000    5.000    0.000    0.000 
#    0.000    0.000    0.000    0.000    0.000    0.000 
#
# Total GULP energy -134032.110172 kJ/mol
# GULP energy per Si atom -5584.671257 kJ/mol
# Density = 2.027533 g / cm^3
# Si number density = 20.321581 Si / 1000 Ang^3
#
#
#
# Elastic Constant Matrix: (Units=GPa)
#
#
# Indices 1 2 3 4 5 6 
#
# 1 211.1680 8.0372 125.6427 0.0000 0.0000 0.0000
# 2 8.0372 16.6760 -2.1014 0.0000 0.0000 0.0000
# 3 125.6427 -2.1014 152.4825 0.0000 0.0000 0.0000
# 4 0.0000 0.0000 0.0000 19.7458 0.0000 0.0000
# 5 0.0000 0.0000 0.0000 0.0000 40.9934 0.0000
# 6 0.0000 0.0000 0.0000 0.0000 0.0000 16.4307
#
#
#
# Elastic Compliance Matrix: (Units=1/GPa)
#
#
# Indices 1 2 3 4 5 6 
#
# 1 0.009813 -0.005758 -0.008165 0.000000 0.000000 0.000000
# 2 -0.005758 0.063450 0.005619 0.000000 0.000000 0.000000
# 3 -0.008165 0.005619 0.013363 0.000000 0.000000 0.000000
# 4 0.000000 0.000000 0.000000 0.050644 0.000000 0.000000
# 5 0.000000 0.000000 0.000000 0.000000 0.024394 0.000000
# 6 0.000000 0.000000 0.000000 0.000000 0.000000 0.060862
#
#
# Mechanical properties :
#
#
# Convention : Reuss Voigt Hill
#
# Bulk Modulus (GPa) = 14.28207 71.49815 42.89011
# Shear Modulus (GPa) = 19.04959 32.01716 25.53338
#
# Velocity S-wave (km/s) = 3.06503 3.97359 3.54851
# Velocity P-wave (km/s) = 4.42371 7.50416 6.15961
#
# Compressibility (1/GPa) = 0.07001784
#
# Stress axis : x y z
#
# Youngs Moduli (GPa) = 101.90837 15.76048 74.83201
#
# Poissons Ratio (x) = 0.09075 0.61099
# Poissons Ratio (y) = 0.58682 -0.42049
# Poissons Ratio (z) = 0.83207 -0.08856
#
# Static dielectric constant tensor:
#      x y z
#    x 1.712980 0.000000 0.000000 
#    y 0.000000 1.748950 0.000000 
#    z 0.000000 0.000000 1.684620 
# 
# From -- ./inp_files/26856.got.cif
#   From: 2010.05.17/outbox.cif.g08.bks.cpg/sg44_14_cif.got.tgz:26856.got - 2010.06.03 19:37:08.
