data_PCOD9374920
_publ_section_title
;
Structure prediction by ZEFSAII (Michael W. Deem and Ramdas Pophale) SiO2 
 PCOD9374920
Probable space group: I M M 2
;
_chemical_formula_sum "Si O2"
_cell_formula_units_Z 64
_cell_length_a 7.656940
_cell_length_b 24.403468
_cell_length_c 16.017774
_cell_angle_alpha 90.000000
_cell_angle_beta 90.000000
_cell_angle_gamma 90.000000
_cell_volume 2993.015421
_symmetry_space_group_name_H-M "I M M 2"
_symmetry_group_IT_number 44
_symmetry_cell_setting 'orthorhombic'
loop_
_space_group_symop_operation_xyz
x,y,z
-x,-y,z
-x,y,z
x,-y,z
1/2+x,1/2+y,1/2+z
1/2-x,1/2-y,1/2+z
1/2-x,1/2+y,1/2+z
1/2+x,1/2-y,1/2+z
loop_
_atom_site_type_symbol
_atom_site_label
_atom_site_fract_x
_atom_site_fract_y
_atom_site_fract_z
Si Si1 0.286223 0.863735 0.625000
Si Si2 0.710107 0.370387 0.625625
Si Si3 0.200181 0.876887 0.943018
Si Si4 0.710241 0.937847 0.289871
Si Si5 0.205762 0.438558 0.276048
Si Si6 0.793570 0.740588 0.383906
Si Si7 0.210893 0.638505 0.940629
Si Si8 0.286856 0.746831 0.691909
O O1 0.500000 0.863837 0.626664
O O2 0.222174 0.902161 0.699990
O O3 0.231770 0.880836 0.532237
O O4 0.232712 0.801163 0.642987
O O5 0.500000 0.366111 0.617702
O O6 0.778281 0.387457 0.534600
O O7 0.748065 0.411789 0.700393
O O8 0.775030 0.310074 0.652480
O O9 0.280124 0.906840 0.863413
O O10 0.207920 0.811545 0.927568
O O11 0.000000 0.895149 0.944022
O O12 0.500000 0.939352 0.297096
O O13 0.776418 0.898293 0.363831
O O14 0.775248 0.000000 0.297211
O O15 0.279176 0.500000 0.280713
O O16 0.000000 0.443412 0.258778
O O17 0.762099 0.798349 0.428049
O O18 0.731664 0.747220 0.288254
O O19 0.000000 0.728999 0.381563
O O20 0.000000 0.636553 0.938965
O O21 0.500000 0.745268 0.692142
#
# Coordination Sequence:
#
# PCOD9374920 Si02
#       8
#     8   8   8   8   8   8   8   8
#     4   9  17  33  57  83 111 145 183 224 272 332
#     4  10  21  38  59  82 108 146 191 231 275 335
#     4  11  23  38  59  85 114 147 186 232 284 336
#     4  10  22  38  55  81 116 149 185 235 287 327
#     4  10  21  38  60  84 111 149 195 235 275 327
#     4  11  20  34  59  86 115 147 184 229 278 336
#     4  10  20  35  58  85 115 148 185 230 280 333
#     4   9  16  30  55  81 107 138 177 223 270 323
#
# _framework density 21.383116999999999
#
# number of rings (size 3 to 8) (size 9 to 14) (size 15 to 20)
#    0.000    2.000    2.500    1.500    0.000    4.500 
#    0.000    5.625    0.000    0.000    0.000    1.750 
#    0.000    0.000    0.000    0.000    0.000    0.000 
#
# Total GULP energy -178784.008102 kJ/mol
# GULP energy per Si atom -5587.000253 kJ/mol
# Density = 2.133445 g / cm^3
# Si number density = 21.383117 Si / 1000 Ang^3
#
#
#
# Elastic Constant Matrix: (Units=GPa)
#
#
# Indices 1 2 3 4 5 6 
#
# 1 39.0767 -9.5615 -4.4145 0.0000 0.0000 0.0000
# 2 -9.5615 121.6246 50.3034 0.0000 0.0000 0.0000
# 3 -4.4145 50.3034 160.6448 0.0000 0.0000 0.0000
# 4 0.0000 0.0000 0.0000 -2.5070 0.0000 0.0000
# 5 0.0000 0.0000 0.0000 0.0000 6.5746 0.0000
# 6 0.0000 0.0000 0.0000 0.0000 0.0000 17.5077
#
#
#
# Elastic Compliance Matrix: (Units=1/GPa)
#
#
# Indices 1 2 3 4 5 6 
#
# 1 0.026094 0.002016 0.000086 0.000000 0.000000 0.000000
# 2 0.002016 0.009601 -0.002951 0.000000 0.000000 0.000000
# 3 0.000086 -0.002951 0.007151 0.000000 0.000000 0.000000
# 4 0.000000 0.000000 0.000000 -0.398884 0.000000 0.000000
# 5 0.000000 0.000000 0.000000 0.000000 0.152101 0.000000
# 6 0.000000 0.000000 0.000000 0.000000 0.000000 0.057118
#
#
# Mechanical properties :
#
#
# Convention : Reuss Voigt Hill
#
# Bulk Modulus (GPa) = 24.30291 43.77786 34.04039
# Shear Modulus (GPa) = -38.05034 23.31631 -7.36702
#
# Velocity S-wave (km/s) = -4.22294 3.30571 -1.85815
# Velocity P-wave (km/s) = 3.51958 5.92350 3.36901
#
# Compressibility (1/GPa) = 0.04114733
#
# Stress axis : x y z
#
# Youngs Moduli (GPa) = 38.32351 104.15554 139.83405
#
# Poissons Ratio (x) = -0.20996 -0.01200
# Poissons Ratio (y) = -0.07725 0.41265
# Poissons Ratio (z) = -0.00329 0.30736
#
# Static dielectric constant tensor:
#      x y z
#    x 1.810990 0.000000 0.000000 
#    y 0.000000 1.736820 0.000000 
#    z 0.000000 0.000000 1.771520 
# 
# From -- ./inp_files/16782.got.cif
#   From: 2010.05.17/outbox.cif.g08.bks.cpg/sg44_9_cif.got.tgz:16782.got - 2010.06.03 19:37:08.
