data_PCOD9374238
_publ_section_title
;
Structure prediction by ZEFSAII (Michael W. Deem and Ramdas Pophale) SiO2 
 PCOD9374238
Probable space group: I M M 2
;
_chemical_formula_sum "Si O2"
_cell_formula_units_Z 64
_cell_length_a 7.762567
_cell_length_b 32.174917
_cell_length_c 12.267127
_cell_angle_alpha 90.000000
_cell_angle_beta 90.000000
_cell_angle_gamma 90.000000
_cell_volume 3063.837013
_symmetry_space_group_name_H-M "I M M 2"
_symmetry_group_IT_number 44
_symmetry_cell_setting 'orthorhombic'
loop_
_space_group_symop_operation_xyz
x,y,z
-x,-y,z
-x,y,z
x,-y,z
1/2+x,1/2+y,1/2+z
1/2-x,1/2-y,1/2+z
1/2-x,1/2+y,1/2+z
1/2+x,1/2-y,1/2+z
loop_
_atom_site_type_symbol
_atom_site_label
_atom_site_fract_x
_atom_site_fract_y
_atom_site_fract_z
Si Si1 0.711979 0.373364 0.814310
Si Si2 0.292261 0.954392 0.706413
Si Si3 0.205557 0.794686 0.174714
Si Si4 0.793686 0.702339 0.218237
Si Si5 0.295426 0.455216 0.687483
Si Si6 0.791839 0.665853 0.445963
Si Si7 0.704186 0.373760 0.063461
Si Si8 0.291362 0.929674 0.947764
O O1 0.500000 0.373322 0.812082
O O2 0.770593 0.331108 0.754665
O O3 0.771813 0.414032 0.747554
O O4 0.770317 0.375360 0.939534
O O5 0.500000 0.954910 0.709489
O O6 0.244941 0.915311 0.631778
O O7 0.233332 0.947627 0.831500
O O8 0.232870 0.000000 0.667700
O O9 0.275201 0.748309 0.193183
O O10 0.000000 0.793057 0.191621
O O11 0.238125 0.809003 0.051788
O O12 0.727198 0.685738 0.333975
O O13 0.762722 0.667267 0.127731
O O14 0.000000 0.705861 0.228148
O O15 0.500000 0.455665 0.708037
O O16 0.224217 0.500000 0.724183
O O17 0.268885 0.451266 0.557924
O O18 0.734117 0.618231 0.454024
O O19 0.000000 0.665032 0.442249
O O20 0.500000 0.370985 0.055808
O O21 0.500000 0.931219 0.947999
#
# Coordination Sequence:
#
# PCOD9374238 Si02
#       8
#     8   8   8   8   8   8   8   8
#     4   9  20  38  56  79 111 148 187 229 283 337
#     4  10  21  39  61  83 114 154 189 228 284 344
#     4  10  21  38  61  84 111 149 190 233 282 336
#     4  10  22  40  60  83 115 154 189 228 284 345
#     4  10  20  35  57  82 110 145 183 229 282 335
#     4  10  20  36  60  85 113 147 184 231 285 335
#     4  11  23  38  60  85 113 149 191 241 282 327
#     4  10  19  35  58  83 112 147 182 223 280 338
#
# _framework density 20.888839999999998
#
# number of rings (size 3 to 8) (size 9 to 14) (size 15 to 20)
#    0.000    2.000    2.500    0.750    1.750    3.000 
#    0.000    3.750    0.000    0.000    0.000    0.000 
#    0.000    0.000    0.000    0.000    0.000    0.000 
#
# Total GULP energy -178723.315170 kJ/mol
# GULP energy per Si atom -5585.103599 kJ/mol
# Density = 2.084130 g / cm^3
# Si number density = 20.888840 Si / 1000 Ang^3
#
#
#
# Elastic Constant Matrix: (Units=GPa)
#
#
# Indices 1 2 3 4 5 6 
#
# 1 25.1621 3.4650 -5.5785 0.0000 -0.0001 0.0000
# 2 3.4650 209.0009 88.0685 -0.0005 -0.0009 0.0002
# 3 -5.5785 88.0685 151.3332 -0.0006 -0.0011 0.0006
# 4 0.0000 -0.0005 -0.0006 40.1879 -0.0010 -0.0004
# 5 -0.0001 -0.0009 -0.0011 -0.0010 74.0670 -0.0001
# 6 0.0000 0.0002 0.0006 -0.0004 -0.0001 11.3221
#
#
#
# Elastic Compliance Matrix: (Units=1/GPa)
#
#
# Indices 1 2 3 4 5 6 
#
# 1 0.040534 -0.001724 0.002498 0.000000 0.000000 0.000000
# 2 -0.001724 0.006413 -0.003795 0.000000 0.000000 0.000000
# 3 0.002498 -0.003795 0.008909 0.000000 0.000000 0.000000
# 4 0.000000 0.000000 0.000000 0.024883 0.000000 0.000001
# 5 0.000000 0.000000 0.000000 0.000000 0.013501 0.000000
# 6 0.000000 0.000000 0.000000 0.000001 0.000000 0.088323
#
#
# Mechanical properties :
#
#
# Convention : Reuss Voigt Hill
#
# Bulk Modulus (GPa) = 20.07603 61.93402 41.00502
# Shear Modulus (GPa) = 24.36527 45.08481 34.72504
#
# Velocity S-wave (km/s) = 3.41900 4.65081 4.08164
# Velocity P-wave (km/s) = 5.02174 7.65204 6.47193
#
# Compressibility (1/GPa) = 0.04981065
#
# Stress axis : x y z
#
# Youngs Moduli (GPa) = 24.67088 155.94445 112.24956
#
# Poissons Ratio (x) = 0.26892 -0.28037
# Poissons Ratio (y) = 0.04254 0.42603
# Poissons Ratio (z) = -0.06162 0.59186
#
# Static dielectric constant tensor:
#      x y z
#    x 1.762910 0.000000 0.000000 
#    y 0.000000 1.773210 0.000000 
#    z 0.000000 0.000000 1.714430 
# 
# From -- ./inp_files/11452.got.cif
#   From: 2010.05.17/outbox.cif.g08.bks.cpg/sg44_6_cif.got.tgz:11452.got - 2010.06.03 19:37:08.
