data_PCOD9374954
_publ_section_title
;
Structure prediction by ZEFSAII (Michael W. Deem and Ramdas Pophale) SiO2 
 PCOD9374954
Probable space group: I M M 2
;
_chemical_formula_sum "Si O2"
_cell_formula_units_Z 56
_cell_length_a 7.844707
_cell_length_b 23.698468
_cell_length_c 14.670832
_cell_angle_alpha 90.000000
_cell_angle_beta 90.000000
_cell_angle_gamma 90.000000
_cell_volume 2727.418255
_symmetry_space_group_name_H-M "I M M 2"
_symmetry_group_IT_number 44
_symmetry_cell_setting 'orthorhombic'
loop_
_space_group_symop_operation_xyz
x,y,z
-x,-y,z
-x,y,z
x,-y,z
1/2+x,1/2+y,1/2+z
1/2-x,1/2-y,1/2+z
1/2-x,1/2+y,1/2+z
1/2+x,1/2-y,1/2+z
loop_
_atom_site_type_symbol
_atom_site_label
_atom_site_fract_x
_atom_site_fract_y
_atom_site_fract_z
Si Si1 0.796298 0.885393 0.348130
Si Si2 0.702964 0.500000 0.150083
Si Si3 0.709554 0.500000 0.941328
Si Si4 0.807597 0.768339 0.408626
Si Si5 0.209980 0.352723 0.449528
Si Si6 0.296807 0.854933 0.144286
Si Si7 0.202455 0.616107 0.247143
Si Si8 0.698538 0.735847 0.214898
O O1 0.726299 0.830165 0.401508
O O2 0.767941 0.879544 0.239777
O O3 0.000000 0.883066 0.361528
O O4 0.732994 0.943706 0.389473
O O5 0.500000 0.500000 0.145329
O O6 0.755657 0.443339 0.202295
O O7 0.766910 0.500000 0.046037
O O8 0.500000 0.500000 0.940077
O O9 0.727914 0.712332 0.450439
O O10 0.812500 0.749413 0.302669
O O11 0.000000 0.773552 0.446387
O O12 0.264059 0.378369 0.546684
O O13 0.263777 0.379465 0.353003
O O14 0.000000 0.351842 0.448559
O O15 0.500000 0.862562 0.146723
O O16 0.264678 0.787203 0.147287
O O17 0.273252 0.670448 0.192105
O O18 0.000000 0.622456 0.248883
O O19 0.500000 0.742106 0.241175
#
# Coordination Sequence:
#
# PCOD9374954 Si02
#       8
#     8   4   4   8   8   8   8   8
#     4   9  17  32  52  73 100 133 170 210 254 304
#     4  11  23  39  58  77  96 124 169 219 262 301
#     4   9  20  37  56  75  96 130 173 213 254 307
#     4   8  14  26  46  69  95 130 167 203 246 297
#     4   8  15  29  50  74 100 133 169 200 241 305
#     4   9  17  30  50  78 108 136 169 208 250 297
#     4  10  20  36  55  74 102 138 173 209 251 302
#     4   9  16  27  47  74 103 132 164 206 250 289
#
# _framework density 20.532236999999999
#
# number of rings (size 3 to 8) (size 9 to 14) (size 15 to 20)
#    0.000    3.000    0.000    1.929    0.000    1.714 
#    0.000   10.357    0.000    9.429    0.000    0.000 
#    0.000    0.000    0.000    0.000    0.000    0.000 
#
# Total GULP energy -155883.993973 kJ/mol
# GULP energy per Si atom -5567.285499 kJ/mol
# Density = 2.048551 g / cm^3
# Si number density = 20.532237 Si / 1000 Ang^3
#
#
#
# Elastic Constant Matrix: (Units=GPa)
#
#
# Indices 1 2 3 4 5 6 
#
# 1 32.1272 5.1664 9.8452 0.0000 0.0000 0.0000
# 2 5.1664 148.3810 64.5093 0.0000 0.0000 0.0000
# 3 9.8452 64.5093 120.6693 -0.0001 0.0000 0.0000
# 4 0.0000 0.0000 -0.0001 17.6104 0.0000 0.0000
# 5 0.0000 0.0000 0.0000 0.0000 14.4536 0.0000
# 6 0.0000 0.0000 0.0000 0.0000 0.0000 15.0419
#
#
#
# Elastic Compliance Matrix: (Units=1/GPa)
#
#
# Indices 1 2 3 4 5 6 
#
# 1 0.031925 0.000027 -0.002619 0.000000 0.000000 0.000000
# 2 0.000027 0.008780 -0.004696 0.000000 0.000000 0.000000
# 3 -0.002619 -0.004696 0.011011 0.000000 0.000000 0.000000
# 4 0.000000 0.000000 0.000000 0.056785 0.000000 0.000000
# 5 0.000000 0.000000 0.000000 0.000000 0.069187 0.000000
# 6 0.000000 0.000000 0.000000 0.000000 0.000000 0.066481
#
#
# Mechanical properties :
#
#
# Convention : Reuss Voigt Hill
#
# Bulk Modulus (GPa) = 26.92532 51.13549 39.03040
# Shear Modulus (GPa) = 18.44174 24.19830 21.32002
#
# Velocity S-wave (km/s) = 3.00022 3.43673 3.22587
# Velocity P-wave (km/s) = 5.01437 6.38022 5.73808
#
# Compressibility (1/GPa) = 0.03713976
#
# Stress axis : x y z
#
# Youngs Moduli (GPa) = 31.32389 113.89431 90.81604
#
# Poissons Ratio (x) = -0.00309 0.23786
# Poissons Ratio (y) = -0.00085 0.42647
# Poissons Ratio (z) = 0.08204 0.53485
#
# Static dielectric constant tensor:
#      x y z
#    x 1.771960 0.000000 0.000000 
#    y 0.000000 1.774670 0.000000 
#    z 0.000000 0.000000 1.753110 
# 
# From -- ./inp_files/16581.got.cif
#   From: 2010.05.17/outbox.cif.g08.bks.cpg/sg44_9_cif.got.tgz:16581.got - 2010.06.03 19:37:08.
