data_PCOD9374913
_publ_section_title
;
Structure prediction by ZEFSAII (Michael W. Deem and Ramdas Pophale) SiO2 
 PCOD9374913
Probable space group: I M M 2
;
_chemical_formula_sum "Si O2"
_cell_formula_units_Z 48
_cell_length_a 14.840389
_cell_length_b 7.751200
_cell_length_c 21.228619
_cell_angle_alpha 90.000000
_cell_angle_beta 90.000000
_cell_angle_gamma 90.000000
_cell_volume 2441.945519
_symmetry_space_group_name_H-M "I M M 2"
_symmetry_group_IT_number 44
_symmetry_cell_setting 'orthorhombic'
loop_
_space_group_symop_operation_xyz
x,y,z
-x,-y,z
-x,y,z
x,-y,z
1/2+x,1/2+y,1/2+z
1/2-x,1/2-y,1/2+z
1/2-x,1/2+y,1/2+z
1/2+x,1/2-y,1/2+z
loop_
_atom_site_type_symbol
_atom_site_label
_atom_site_fract_x
_atom_site_fract_y
_atom_site_fract_z
Si Si1 0.500000 0.288537 0.441870
Si Si2 0.304842 0.297036 0.641670
Si Si3 0.693959 0.291586 0.883982
Si Si4 0.000000 0.206022 0.796688
Si Si5 0.687132 0.293520 0.502294
Si Si6 0.000000 0.790847 0.337700
Si Si7 0.500000 0.796846 0.689917
Si Si8 0.197988 0.294230 0.761489
O O1 0.500000 0.500000 0.441623
O O2 0.500000 0.230966 0.369204
O O3 0.590858 0.229255 0.476260
O O4 0.281865 0.500000 0.638323
O O5 0.291489 0.223424 0.571759
O O6 0.409459 0.280659 0.660491
O O7 0.246213 0.222422 0.699124
O O8 0.693877 0.500000 0.882418
O O9 0.591865 0.232946 0.871272
O O10 0.755824 0.227479 0.825782
O O11 0.737712 0.239591 0.949817
O O12 0.091842 0.263620 0.763921
O O13 0.000000 0.000000 0.798617
O O14 0.677195 0.500000 0.508336
O O15 0.000000 0.735125 0.264890
O O16 0.000000 0.000000 0.337332
O O17 0.500000 0.000000 0.677864
O O18 0.213917 0.500000 0.761964
#
# Coordination Sequence:
#
# PCOD9374913 Si02
#       8
#     4   8   8   4   8   4   4   8
#     4   9  17  30  50  80 110 136 170 214 271 329
#     4  10  21  39  60  80 111 155 193 225 278 349
#     4  10  20  35  58  82 110 148 187 231 275 329
#     4  11  21  34  55  83 114 144 175 226 284 331
#     4  10  20  36  58  82 111 146 185 230 278 334
#     4  10  20  39  60  81 111 153 195 224 277 351
#     4  12  23  33  55  90 121 145 180 242 292 329
#     4  10  20  36  58  82 107 146 193 230 265 326
#
# _framework density 19.656459000000002
#
# number of rings (size 3 to 8) (size 9 to 14) (size 15 to 20)
#    0.000    1.833    3.333    1.500    0.000    3.333 
#    0.000    1.250    0.000    3.000    0.000    0.000 
#    0.000    0.000    0.000    0.000    0.000    0.000 
#
# Total GULP energy -134045.026103 kJ/mol
# GULP energy per Si atom -5585.209421 kJ/mol
# Density = 1.961172 g / cm^3
# Si number density = 19.656459 Si / 1000 Ang^3
#
#
#
# Elastic Constant Matrix: (Units=GPa)
#
#
# Indices 1 2 3 4 5 6 
#
# 1 127.5021 -16.9503 85.6077 0.0000 0.0000 0.0000
# 2 -16.9503 23.0876 -2.4850 0.0000 0.0000 0.0000
# 3 85.6077 -2.4850 190.5046 0.0000 0.0000 0.0000
# 4 0.0000 0.0000 0.0000 15.0965 0.0000 0.0000
# 5 0.0000 0.0000 0.0000 0.0000 4.3561 0.0000
# 6 0.0000 0.0000 0.0000 0.0000 0.0000 3.7551
#
#
#
# Elastic Compliance Matrix: (Units=1/GPa)
#
#
# Indices 1 2 3 4 5 6 
#
# 1 0.012795 0.008787 -0.005635 0.000000 0.000000 0.000000
# 2 0.008787 0.049409 -0.003304 0.000000 0.000000 0.000000
# 3 -0.005635 -0.003304 0.007738 0.000000 0.000000 0.000000
# 4 0.000000 0.000000 0.000000 0.066240 0.000000 0.000000
# 5 0.000000 0.000000 0.000000 0.000000 0.229562 0.000000
# 6 0.000000 0.000000 0.000000 0.000000 0.000000 0.266304
#
#
# Mechanical properties :
#
#
# Convention : Reuss Voigt Hill
#
# Bulk Modulus (GPa) = 14.36008 52.60436 33.48222
# Shear Modulus (GPa) = 7.62702 22.96968 15.29835
#
# Velocity S-wave (km/s) = 1.97195 3.42212 2.79280
# Velocity P-wave (km/s) = 3.53641 6.51418 5.24122
#
# Compressibility (1/GPa) = 0.06963749
#
# Stress axis : x y z
#
# Youngs Moduli (GPa) = 78.15822 20.23929 129.22738
#
# Poissons Ratio (x) = -0.17784 0.72819
# Poissons Ratio (y) = -0.68677 0.42698
# Poissons Ratio (z) = 0.44042 0.06687
#
# Static dielectric constant tensor:
#      x y z
#    x 1.651520 0.000000 0.000000 
#    y 0.000000 1.727040 0.000000 
#    z 0.000000 0.000000 1.692970 
# 
# From -- ./inp_files/20410.got.cif
#   From: 2010.05.17/outbox.cif.g08.bks.cpg/sg44_11_cif.got.tgz:20410.got - 2010.06.03 19:37:08.
