data_PCOD9374852
_publ_section_title
;
Structure prediction by ZEFSAII (Michael W. Deem and Ramdas Pophale) SiO2 
 PCOD9374852
Probable space group: I M M 2
;
_chemical_formula_sum "Si O2"
_cell_formula_units_Z 64
_cell_length_a 32.550596
_cell_length_b 11.251968
_cell_length_c 7.616309
_cell_angle_alpha 90.000000
_cell_angle_beta 90.000000
_cell_angle_gamma 90.000000
_cell_volume 2789.536117
_symmetry_space_group_name_H-M "I M M 2"
_symmetry_group_IT_number 44
_symmetry_cell_setting 'orthorhombic'
loop_
_space_group_symop_operation_xyz
x,y,z
-x,-y,z
-x,y,z
x,-y,z
1/2+x,1/2+y,1/2+z
1/2-x,1/2-y,1/2+z
1/2-x,1/2+y,1/2+z
1/2+x,1/2-y,1/2+z
loop_
_atom_site_type_symbol
_atom_site_label
_atom_site_fract_x
_atom_site_fract_y
_atom_site_fract_z
Si Si1 0.312777 0.126830 0.181110
Si Si2 0.068269 0.126881 0.800986
Si Si3 0.334505 0.626701 0.354281
Si Si4 0.548547 0.872647 0.281549
Si Si5 0.283094 0.373412 0.706399
Si Si6 0.408479 0.132007 0.661845
Si Si7 0.680074 0.869520 0.796262
Si Si8 0.046935 0.868078 0.205791
O O1 0.321016 0.249150 0.274881
O O2 0.263934 0.125145 0.143955
O O3 0.322429 0.000000 0.272579
O O4 0.335883 0.127416 0.996013
O O5 0.116377 0.127593 0.848632
O O6 0.058013 0.245888 0.694919
O O7 0.058116 0.000000 0.715807
O O8 0.046530 0.130925 0.991350
O O9 0.321623 0.500000 0.268164
O O10 0.314743 0.623370 0.546058
O O11 0.500000 0.872218 0.323765
O O12 0.574601 0.869881 0.462339
O O13 0.557576 0.000000 0.193354
O O14 0.288819 0.500000 0.806453
O O15 0.291344 0.245791 0.791057
O O16 0.359328 0.143235 0.671861
O O17 0.427636 0.249539 0.750265
O O18 0.418959 0.000000 0.734845
O O19 0.699500 0.000000 0.762028
O O20 0.000000 0.857578 0.266625
O O21 0.063364 0.000000 0.256200
#
# Coordination Sequence:
#
# PCOD9374852 Si02
#       8
#     8   8   8   8   8   8   8   8
#     4  10  22  38  53  73 103 138 175 214 259 312
#     4   9  16  26  42  65  93 125 159 194 238 292
#     4  10  21  36  54  77 105 136 172 215 261 309
#     4   9  16  25  40  68 103 131 158 200 252 300
#     4  10  20  35  56  79 101 129 170 220 268 311
#     4   9  16  26  42  65  94 127 159 193 239 292
#     4  10  21  36  54  77 105 137 174 215 259 309
#     4   9  16  26  43  70 102 131 159 199 252 301
#
# _framework density 22.942881
#
# number of rings (size 3 to 8) (size 9 to 14) (size 15 to 20)
#    0.000    2.500    0.000    3.750    0.000    6.000 
#    0.000    0.000    0.000    0.000    0.000    3.500 
#    0.000    8.000    0.000    0.000    0.000    0.000 
#
# Total GULP energy -178318.977132 kJ/mol
# GULP energy per Si atom -5572.468035 kJ/mol
# Density = 2.289066 g / cm^3
# Si number density = 22.942881 Si / 1000 Ang^3
#
#
#
# Elastic Constant Matrix: (Units=GPa)
#
#
# Indices 1 2 3 4 5 6 
#
# 1 -28.9678 129.6290 -41.5283 -0.0001 -0.0005 0.0000
# 2 129.6290 210.2144 61.6560 0.0002 0.0002 0.0000
# 3 -41.5283 61.6560 4.3248 0.0001 -0.0008 0.0000
# 4 -0.0001 0.0002 0.0001 22.8331 -0.0004 0.0001
# 5 -0.0005 0.0002 -0.0008 -0.0004 -8.9320 -0.0001
# 6 0.0000 0.0000 0.0000 0.0001 -0.0001 37.0828
#
#
#
# Elastic Compliance Matrix: (Units=1/GPa)
#
#
# Indices 1 2 3 4 5 6 
#
# 1 0.002849 0.003074 -0.016471 0.000000 0.000001 0.000000
# 2 0.003074 0.001822 0.003543 0.000000 0.000000 0.000000
# 3 -0.016471 0.003543 0.022549 0.000000 -0.000001 0.000000
# 4 0.000000 0.000000 0.000000 0.043796 -0.000002 0.000000
# 5 0.000001 0.000000 -0.000001 -0.000002 -0.111957 0.000000
# 6 0.000000 0.000000 0.000000 0.000000 0.000000 0.026967
#
#
# Mechanical properties :
#
#
# Convention : Reuss Voigt Hill
#
# Bulk Modulus (GPa) = 133.10398 53.89832 93.50115
# Shear Modulus (GPa) = 606.96433 12.58444 309.77439
#
# Velocity S-wave (km/s) = 16.28278 2.34457 11.63241
# Velocity P-wave (km/s) = 20.28907 5.55633 14.87480
#
# Compressibility (1/GPa) = 0.00751292
#
# Stress axis : x y z
#
# Youngs Moduli (GPa) = 351.01537 548.81738 44.34730
#
# Poissons Ratio (x) = -1.68718 0.73045
# Poissons Ratio (y) = -1.07910 -0.15713
# Poissons Ratio (z) = 5.78161 -1.94458
#
# Static dielectric constant tensor:
#      x y z
#    x 1.840480 0.000000 0.000000 
#    y 0.000000 2.001370 0.000000 
#    z 0.000000 0.000000 1.975890 
# 
# From -- ./inp_files/10134.got.cif
#   From: 2010.05.17/outbox.cif.g08.bks.cpg/sg44_6_cif.got.tgz:10134.got - 2010.06.03 19:37:08.
