data_PCOD9374994
_publ_section_title
;
Structure prediction by ZEFSAII (Michael W. Deem and Ramdas Pophale) SiO2 
 PCOD9374994
Probable space group: I M M 2
;
_chemical_formula_sum "Si O2"
_cell_formula_units_Z 64
_cell_length_a 25.221896
_cell_length_b 9.043508
_cell_length_c 15.165940
_cell_angle_alpha 90.000000
_cell_angle_beta 90.000000
_cell_angle_gamma 90.000000
_cell_volume 3459.266262
_symmetry_space_group_name_H-M "I M M 2"
_symmetry_group_IT_number 44
_symmetry_cell_setting 'orthorhombic'
loop_
_space_group_symop_operation_xyz
x,y,z
-x,-y,z
-x,y,z
x,-y,z
1/2+x,1/2+y,1/2+z
1/2-x,1/2-y,1/2+z
1/2-x,1/2+y,1/2+z
1/2+x,1/2-y,1/2+z
loop_
_atom_site_type_symbol
_atom_site_label
_atom_site_fract_x
_atom_site_fract_y
_atom_site_fract_z
Si Si1 0.284555 0.829246 0.247310
Si Si2 0.863276 0.176517 0.449887
Si Si3 0.938762 0.176337 0.956978
Si Si4 0.836538 0.823591 0.257727
Si Si5 0.847798 0.323893 0.070739
Si Si6 0.263044 0.827021 0.038036
Si Si7 0.108307 0.174456 0.766712
Si Si8 0.563203 0.173892 0.091782
O O1 0.225397 0.791648 0.278555
O O2 0.281046 0.818589 0.140817
O O3 0.331301 0.726461 0.281148
O O4 0.295974 0.000000 0.270573
O O5 0.869334 0.207300 0.345860
O O6 0.808143 0.246902 0.482453
O O7 0.908772 0.244360 0.510706
O O8 0.860880 0.000000 0.461225
O O9 0.925215 0.204556 0.854515
O O10 0.000000 0.212365 0.974956
O O11 0.931171 0.000000 0.971832
O O12 0.897859 0.265918 0.016303
O O13 0.852082 0.733415 0.171421
O O14 0.838972 0.000000 0.237438
O O15 0.843636 0.500000 0.067953
O O16 0.793890 0.251272 0.032618
O O17 0.258503 0.000000 0.015145
O O18 0.085723 0.260674 0.682713
O O19 0.106707 0.000000 0.748463
O O20 0.500000 0.192346 0.089390
O O21 0.576108 0.000000 0.087559
#
# Coordination Sequence:
#
# PCOD9374994 Si02
#       8
#     8   8   8   8   8   8   8   8
#     4   9  18  34  55  82 119 159 193 230 287 355
#     4  11  22  37  61  92 121 154 201 250 296 350
#     4  10  23  43  63  85 117 157 201 248 303 362
#     4   9  21  40  60  85 122 161 197 243 301 359
#     4  11  23  39  62  90 119 153 201 252 299 352
#     4  10  20  36  58  85 122 161 194 234 292 356
#     4  11  22  36  59  90 120 153 198 248 297 353
#     4  11  24  41  60  84 120 165 204 242 297 358
#
# _framework density 18.501033
#
# number of rings (size 3 to 8) (size 9 to 14) (size 15 to 20)
#    0.000    1.750    1.250    3.750    1.750    5.750 
#    0.000    0.625    0.000    0.750    0.000    0.000 
#    0.000    0.000    0.000    0.000    0.000    0.000 
#
# Total GULP energy -178845.759285 kJ/mol
# GULP energy per Si atom -5588.929978 kJ/mol
# Density = 1.845892 g / cm^3
# Si number density = 18.501033 Si / 1000 Ang^3
#
#
#
# Elastic Constant Matrix: (Units=GPa)
#
#
# Indices 1 2 3 4 5 6 
#
# 1 80.2732 58.9874 34.9722 0.0000 0.0000 0.0000
# 2 58.9874 98.5735 50.5754 0.0000 0.0000 0.0000
# 3 34.9722 50.5754 59.6870 0.0000 0.0000 0.0000
# 4 0.0000 0.0000 0.0000 21.3351 0.0000 0.0000
# 5 0.0000 0.0000 0.0000 0.0000 25.4825 0.0000
# 6 0.0000 0.0000 0.0000 0.0000 0.0000 21.2775
#
#
#
# Elastic Compliance Matrix: (Units=1/GPa)
#
#
# Indices 1 2 3 4 5 6 
#
# 1 0.022564 -0.011887 -0.003148 0.000000 0.000000 0.000000
# 2 -0.011887 0.024210 -0.013549 0.000000 0.000000 0.000000
# 3 -0.003148 -0.013549 0.030079 0.000000 0.000000 0.000000
# 4 0.000000 0.000000 0.000000 0.046871 0.000000 0.000000
# 5 0.000000 0.000000 0.000000 0.000000 0.039243 0.000000
# 6 0.000000 0.000000 0.000000 0.000000 0.000000 0.046998
#
#
# Mechanical properties :
#
#
# Convention : Reuss Voigt Hill
#
# Bulk Modulus (GPa) = 50.80208 58.62266 54.71237
# Shear Modulus (GPa) = 18.26845 19.88561 19.07703
#
# Velocity S-wave (km/s) = 3.14575 3.28203 3.21461
# Velocity P-wave (km/s) = 6.38067 6.79097 6.58901
#
# Compressibility (1/GPa) = 0.01968423
#
# Stress axis : x y z
#
# Youngs Moduli (GPa) = 44.31774 41.30551 33.24536
#
# Poissons Ratio (x) = 0.49102 0.10467
# Poissons Ratio (y) = 0.52682 0.45044
# Poissons Ratio (z) = 0.13953 0.55965
#
# Static dielectric constant tensor:
#      x y z
#    x 1.617450 0.000000 0.000000 
#    y 0.000000 1.615810 0.000000 
#    z 0.000000 0.000000 1.640920 
# 
# From -- ./inp_files/19492.got.cif
#   From: 2010.05.17/outbox.cif.g08.bks.cpg/sg44_10_cif.got.tgz:19492.got - 2010.06.03 19:37:08.
