data_PCOD9374453
_publ_section_title
;
Structure prediction by ZEFSAII (Michael W. Deem and Ramdas Pophale) SiO2 
 PCOD9374453
Probable space group: I M M 2
;
_chemical_formula_sum "Si O2"
_cell_formula_units_Z 56
_cell_length_a 14.528770
_cell_length_b 13.003503
_cell_length_c 17.391164
_cell_angle_alpha 90.000000
_cell_angle_beta 90.000000
_cell_angle_gamma 90.000000
_cell_volume 3285.623994
_symmetry_space_group_name_H-M "I M M 2"
_symmetry_group_IT_number 44
_symmetry_cell_setting 'orthorhombic'
loop_
_space_group_symop_operation_xyz
x,y,z
-x,-y,z
-x,y,z
x,-y,z
1/2+x,1/2+y,1/2+z
1/2-x,1/2-y,1/2+z
1/2-x,1/2+y,1/2+z
1/2+x,1/2-y,1/2+z
loop_
_atom_site_type_symbol
_atom_site_label
_atom_site_fract_x
_atom_site_fract_y
_atom_site_fract_z
Si Si1 0.252060 0.878620 0.034100
Si Si2 0.391459 0.383045 0.827402
Si Si3 0.108271 0.382555 0.801058
Si Si4 0.108432 0.733666 0.640494
Si Si5 0.890909 0.202029 0.157078
Si Si6 0.244912 0.223627 0.870679
Si Si7 0.241739 0.379146 0.205764
O O1 0.339946 0.819539 0.069729
O O2 0.165885 0.850745 0.088950
O O3 0.267816 0.000000 0.034987
O O4 0.234329 0.838466 0.948508
O O5 0.500000 0.372528 0.841426
O O6 0.364164 0.500000 0.845582
O O7 0.376013 0.361131 0.736468
O O8 0.334534 0.296744 0.871553
O O9 0.140662 0.500000 0.808104
O O10 0.120105 0.343161 0.713542
O O11 0.162668 0.303510 0.854128
O O12 0.000000 0.379486 0.818053
O O13 0.166607 0.834226 0.664787
O O14 0.000000 0.751633 0.628961
O O15 0.843158 0.312483 0.172261
O O16 0.000000 0.208504 0.143103
O O17 0.251475 0.150343 0.795993
O O18 0.231511 0.500000 0.195006
#
# Coordination Sequence:
#
# PCOD9374453 Si02
#       7
#     8   8   8   8   8   8   8
#     4  11  22  34  51  76 106 136 163 201 257 311
#     4   9  17  32  55  77  96 126 170 215 253 288
#     4   9  17  32  55  77  96 126 170 215 253 288
#     4   9  19  35  55  78 101 128 170 217 254 294
#     4   9  19  35  55  78 101 128 170 217 254 294
#     4  10  20  32  48  74 108 136 164 200 246 304
#     4   9  18  34  55  76 100 134 173 209 247 295
#
# _framework density 17.043945999999998
#
# number of rings (size 3 to 8) (size 9 to 14) (size 15 to 20)
#    0.000    2.571    0.000    2.571    0.000    3.429 
#    0.000    5.714    0.000    5.143    0.000    0.000 
#    0.000    0.000    0.000    0.000    0.000    0.000 
#
# Total GULP energy -156177.663358 kJ/mol
# GULP energy per Si atom -5577.773691 kJ/mol
# Density = 1.700515 g / cm^3
# Si number density = 17.043946 Si / 1000 Ang^3
#
#
#
# Elastic Constant Matrix: (Units=GPa)
#
#
# Indices 1 2 3 4 5 6 
#
# 1 43.5828 -14.4993 -7.9308 0.0000 0.0000 0.0000
# 2 -14.4993 79.7474 -1.7320 0.0000 0.0000 0.0000
# 3 -7.9308 -1.7320 40.7259 0.0000 0.0000 0.0000
# 4 0.0000 0.0000 0.0000 13.1263 0.0000 0.0000
# 5 0.0000 0.0000 0.0000 0.0000 14.3927 0.0000
# 6 0.0000 0.0000 0.0000 0.0000 0.0000 14.5553
#
#
#
# Elastic Compliance Matrix: (Units=1/GPa)
#
#
# Indices 1 2 3 4 5 6 
#
# 1 0.025461 0.004741 0.005160 0.000000 0.000000 0.000000
# 2 0.004741 0.013434 0.001495 0.000000 0.000000 0.000000
# 3 0.005160 0.001495 0.025623 0.000000 0.000000 0.000000
# 4 0.000000 0.000000 0.000000 0.076183 0.000000 0.000000
# 5 0.000000 0.000000 0.000000 0.000000 0.069480 0.000000
# 6 0.000000 0.000000 0.000000 0.000000 0.000000 0.068704
#
#
# Mechanical properties :
#
#
# Convention : Reuss Voigt Hill
#
# Bulk Modulus (GPa) = 11.45351 12.85911 12.15631
# Shear Modulus (GPa) = 17.53180 20.96273 19.24726
#
# Velocity S-wave (km/s) = 3.21070 3.51083 3.36411
# Velocity P-wave (km/s) = 4.52541 4.89853 4.71566
#
# Compressibility (1/GPa) = 0.08730945
#
# Stress axis : x y z
#
# Youngs Moduli (GPa) = 39.27561 74.43751 39.02776
#
# Poissons Ratio (x) = -0.35293 -0.20138
# Poissons Ratio (y) = -0.18622 -0.05833
# Poissons Ratio (z) = -0.20266 -0.11126
#
# Static dielectric constant tensor:
#      x y z
#    x 1.587130 0.000000 0.000000 
#    y 0.000000 1.549900 0.000000 
#    z 0.000000 0.000000 1.560130 
# 
# From -- ./inp_files/17768.got.cif
#   From: 2010.05.17/outbox.cif.g08.bks.cpg/sg44_9_cif.got.tgz:17768.got - 2010.06.03 19:37:08.
