data_PCOD9374056
_publ_section_title
;
Structure prediction by ZEFSAII (Michael W. Deem and Ramdas Pophale) SiO2 
 PCOD9374056
Probable space group: I M M 2
;
_chemical_formula_sum "Si O2"
_cell_formula_units_Z 56
_cell_length_a 8.907786
_cell_length_b 20.524853
_cell_length_c 15.776627
_cell_angle_alpha 90.000000
_cell_angle_beta 90.000000
_cell_angle_gamma 90.000000
_cell_volume 2884.456463
_symmetry_space_group_name_H-M "I M M 2"
_symmetry_group_IT_number 44
_symmetry_cell_setting 'orthorhombic'
loop_
_space_group_symop_operation_xyz
x,y,z
-x,-y,z
-x,y,z
x,-y,z
1/2+x,1/2+y,1/2+z
1/2-x,1/2-y,1/2+z
1/2-x,1/2+y,1/2+z
1/2+x,1/2-y,1/2+z
loop_
_atom_site_type_symbol
_atom_site_label
_atom_site_fract_x
_atom_site_fract_y
_atom_site_fract_z
Si Si1 0.673435 0.247938 0.305270
Si Si2 0.317189 0.575408 0.069571
Si Si3 0.838558 0.074739 0.391684
Si Si4 0.822037 0.698681 0.141516
Si Si5 0.829969 0.397174 0.728091
Si Si6 0.317627 0.925618 0.037417
Si Si7 0.182175 0.280811 0.484429
O O1 0.500000 0.271125 0.309401
O O2 0.775286 0.284502 0.237201
O O3 0.667877 0.176874 0.261133
O O4 0.745638 0.250742 0.398912
O O5 0.500000 0.581606 0.070210
O O6 0.279754 0.500000 0.086933
O O7 0.239063 0.625757 0.130320
O O8 0.261646 0.600226 0.976209
O O9 0.760744 0.071374 0.303058
O O10 0.000000 0.107664 0.381076
O O11 0.859098 0.000000 0.418251
O O12 0.000000 0.703853 0.129589
O O13 0.741910 0.744867 0.070077
O O14 0.769348 0.410806 0.634658
O O15 0.000000 0.421304 0.727688
O O16 0.500000 0.926773 0.036186
O O17 0.268727 0.000000 0.013608
O O18 0.277310 0.858682 0.988124
O O19 0.000000 0.275071 0.483399
#
# Coordination Sequence:
#
# PCOD9374056 Si02
#       7
#     8   8   8   8   8   8   8
#     4  11  23  40  61  88 118 155 205 259 311 373
#     4   9  19  37  59  82 114 157 199 246 307 364
#     4   9  18  31  48  76 113 149 183 223 282 354
#     4  12  24  39  61  90 122 160 203 251 307 372
#     4  10  19  33  54  81 111 146 192 246 303 358
#     4   9  18  35  59  85 116 157 204 253 308 368
#     4  11  22  40  63  90 124 164 206 258 317 374
#
# _framework density 19.414401000000002
#
# number of rings (size 3 to 8) (size 9 to 14) (size 15 to 20)
#    0.000    1.857    1.429    4.286    0.000    5.143 
#    0.000    2.143    0.000    5.143    0.000    0.000 
#    0.000    0.000    0.000    0.000    0.000    0.000 
#
# Total GULP energy -155875.931134 kJ/mol
# GULP energy per Si atom -5566.997540 kJ/mol
# Density = 1.937021 g / cm^3
# Si number density = 19.414401 Si / 1000 Ang^3
#
#
#
# Elastic Constant Matrix: (Units=GPa)
#
#
# Indices 1 2 3 4 5 6 
#
# 1 62.8620 26.7374 21.9612 0.0000 0.0000 0.0000
# 2 26.7374 99.4481 18.1175 0.0000 0.0000 0.0000
# 3 21.9612 18.1175 70.3460 0.0000 0.0000 0.0000
# 4 0.0000 0.0000 0.0000 34.8066 0.0000 0.0000
# 5 0.0000 0.0000 0.0000 0.0000 27.7437 0.0000
# 6 0.0000 0.0000 0.0000 0.0000 0.0000 17.8570
#
#
#
# Elastic Compliance Matrix: (Units=1/GPa)
#
#
# Indices 1 2 3 4 5 6 
#
# 1 0.019487 -0.004334 -0.004967 0.000000 0.000000 0.000000
# 2 -0.004334 0.011515 -0.001612 0.000000 0.000000 0.000000
# 3 -0.004967 -0.001612 0.016181 0.000000 0.000000 0.000000
# 4 0.000000 0.000000 0.000000 0.028730 0.000000 0.000000
# 5 0.000000 0.000000 0.000000 0.000000 0.036044 0.000000
# 6 0.000000 0.000000 0.000000 0.000000 0.000000 0.056000
#
#
# Mechanical properties :
#
#
# Convention : Reuss Voigt Hill
#
# Bulk Modulus (GPa) = 39.44017 40.69867 40.06942
# Shear Modulus (GPa) = 25.22236 27.13747 26.17992
#
# Velocity S-wave (km/s) = 3.60829 3.74277 3.67615
# Velocity P-wave (km/s) = 6.14156 6.29972 6.22114
#
# Compressibility (1/GPa) = 0.02535486
#
# Stress axis : x y z
#
# Youngs Moduli (GPa) = 51.31714 86.84672 61.79915
#
# Poissons Ratio (x) = 0.37641 0.30697
# Poissons Ratio (y) = 0.22242 0.09965
# Poissons Ratio (z) = 0.25490 0.14004
#
# Static dielectric constant tensor:
#      x y z
#    x 1.688170 0.000000 0.000000 
#    y 0.000000 1.689770 0.000000 
#    z 0.000000 0.000000 1.673760 
# 
# From -- ./inp_files/16501.got.cif
#   From: 2010.05.17/outbox.cif.g08.bks.cpg/sg44_9_cif.got.tgz:16501.got - 2010.06.03 19:37:08.
