data_PCOD9374661
_publ_section_title
;
Structure prediction by ZEFSAII (Michael W. Deem and Ramdas Pophale) SiO2 
 PCOD9374661
Probable space group: I M M 2
;
_chemical_formula_sum "Si O2"
_cell_formula_units_Z 64
_cell_length_a 15.191156
_cell_length_b 20.018331
_cell_length_c 10.620989
_cell_angle_alpha 90.000000
_cell_angle_beta 90.000000
_cell_angle_gamma 90.000000
_cell_volume 3229.859633
_symmetry_space_group_name_H-M "I M M 2"
_symmetry_group_IT_number 44
_symmetry_cell_setting 'orthorhombic'
loop_
_space_group_symop_operation_xyz
x,y,z
-x,-y,z
-x,y,z
x,-y,z
1/2+x,1/2+y,1/2+z
1/2-x,1/2-y,1/2+z
1/2-x,1/2+y,1/2+z
1/2+x,1/2-y,1/2+z
loop_
_atom_site_type_symbol
_atom_site_label
_atom_site_fract_x
_atom_site_fract_y
_atom_site_fract_z
Si Si1 0.603484 0.073831 0.296400
Si Si2 0.145547 0.075024 0.552896
Si Si3 0.894187 0.785902 0.444378
Si Si4 0.103485 0.073831 0.841677
Si Si5 0.854456 0.575024 0.085180
Si Si6 0.107863 0.290075 0.693729
Si Si7 0.894187 0.714098 0.193700
Si Si8 0.107863 0.790075 0.944349
O O1 0.500000 0.069456 0.266643
O O2 0.608896 0.090459 0.445323
O O3 0.640091 0.134251 0.213958
O O4 0.643424 0.000000 0.279428
O O5 0.124399 0.135488 0.459837
O O6 0.108899 0.090459 0.692754
O O7 0.250002 0.072699 0.569037
O O8 0.115026 0.000000 0.517053
O O9 0.861646 0.747457 0.568861
O O10 0.859851 0.750000 0.319039
O O11 0.000000 0.779397 0.443561
O O12 0.000000 0.069457 0.871431
O O13 0.143424 0.000000 0.858652
O O14 0.140091 0.134251 0.924120
O O15 0.884977 0.500000 0.121023
O O16 0.875603 0.635488 0.178240
O O17 0.000000 0.291264 0.690556
O O18 0.132378 0.250000 0.819039
O O19 0.861646 0.752543 0.069217
O O20 0.000000 0.720605 0.194518
O O21 0.000000 0.791263 0.947522
#
# Coordination Sequence:
#
# PCOD9374661 Si02
#       8
#     8   8   8   8   8   8   8   8
#     4   9  16  28  50  76  98 127 170 213 253 298
#     4  10  20  34  51  74 104 135 174 219 258 305
#     4  10  20  35  53  77 108 138 171 213 260 312
#     4   9  16  28  50  76  98 127 170 213 253 298
#     4  10  20  34  51  74 104 135 174 219 258 305
#     4   9  15  27  49  74  98 124 161 211 255 294
#     4  10  20  35  53  77 108 138 171 213 260 312
#     4   9  15  27  49  74  98 124 161 211 255 294
#
# _framework density 19.815104000000002
#
# number of rings (size 3 to 8) (size 9 to 14) (size 15 to 20)
#    0.000    2.500    2.500    0.750    0.000    1.500 
#    4.500    1.250    0.000    4.500    0.000    5.250 
#    0.000    0.000    0.000    0.000    0.000    0.000 
#
# Total GULP energy -178446.103993 kJ/mol
# GULP energy per Si atom -5576.440750 kJ/mol
# Density = 1.977000 g / cm^3
# Si number density = 19.815104 Si / 1000 Ang^3
#
#
#
# Elastic Constant Matrix: (Units=GPa)
#
#
# Indices 1 2 3 4 5 6 
#
# 1 25.2744 0.8769 2.9141 0.0000 0.0000 0.0000
# 2 0.8769 181.8272 92.2496 0.0000 0.0000 0.0000
# 3 2.9141 92.2496 125.0261 0.0000 0.0000 0.0000
# 4 0.0000 0.0000 0.0000 3.6694 0.0000 0.0000
# 5 0.0000 0.0000 0.0000 0.0000 -5.8366 0.0000
# 6 0.0000 0.0000 0.0000 0.0000 0.0000 12.4233
#
#
#
# Elastic Compliance Matrix: (Units=1/GPa)
#
#
# Indices 1 2 3 4 5 6 
#
# 1 0.039695 0.000444 -0.001253 0.000000 0.000000 0.000000
# 2 0.000444 0.008795 -0.006500 0.000000 0.000000 0.000000
# 3 -0.001253 -0.006500 0.012823 0.000000 0.000000 0.000000
# 4 0.000000 0.000000 0.000000 0.272522 0.000000 0.000000
# 5 0.000000 0.000000 0.000000 0.000000 -0.171332 0.000000
# 6 0.000000 0.000000 0.000000 0.000000 0.000000 0.080494
#
#
# Mechanical properties :
#
#
# Convention : Reuss Voigt Hill
#
# Bulk Modulus (GPa) = 21.41500 58.24544 39.83022
# Shear Modulus (GPa) = 18.30297 17.79036 18.04667
#
# Velocity S-wave (km/s) = 3.04252 2.99961 3.02114
# Velocity P-wave (km/s) = 4.81388 6.43857 5.68457
#
# Compressibility (1/GPa) = 0.04669624
#
# Stress axis : x y z
#
# Youngs Moduli (GPa) = 25.19223 113.69710 77.98220
#
# Poissons Ratio (x) = -0.05052 0.09771
# Poissons Ratio (y) = -0.01119 0.50688
# Poissons Ratio (z) = 0.03157 0.73902
#
# Static dielectric constant tensor:
#      x y z
#    x 1.732670 0.000000 0.000000 
#    y 0.000000 1.755810 0.000000 
#    z 0.000000 0.000000 1.673720 
# 
# From -- ./inp_files/8474.got.cif
#   From: 2010.05.17/outbox.cif.g08.bks.cpg/sg44_5_cif.got.tgz:8474.got - 2010.06.03 19:37:08.
