data_PCOD9374246
_publ_section_title
;
Structure prediction by ZEFSAII (Michael W. Deem and Ramdas Pophale) SiO2 
 PCOD9374246
Probable space group: I M M 2
;
_chemical_formula_sum "Si O2"
_cell_formula_units_Z 58
_cell_length_a 30.250180
_cell_length_b 11.937404
_cell_length_c 8.526451
_cell_angle_alpha 90.000000
_cell_angle_beta 90.000000
_cell_angle_gamma 90.000000
_cell_volume 3078.974952
_symmetry_space_group_name_H-M "I M M 2"
_symmetry_group_IT_number 44
_symmetry_cell_setting 'orthorhombic'
loop_
_space_group_symop_operation_xyz
x,y,z
-x,-y,z
-x,y,z
x,-y,z
1/2+x,1/2+y,1/2+z
1/2-x,1/2-y,1/2+z
1/2-x,1/2+y,1/2+z
1/2+x,1/2-y,1/2+z
loop_
_atom_site_type_symbol
_atom_site_label
_atom_site_fract_x
_atom_site_fract_y
_atom_site_fract_z
Si Si1 0.500000 0.000000 0.292840
Si Si2 0.268975 0.619389 0.674462
Si Si3 0.451722 0.626014 0.622364
Si Si4 0.711521 0.288990 0.365124
Si Si5 0.653089 0.126914 0.574225
Si Si6 0.571408 0.195574 0.361344
Si Si7 0.137194 0.815979 0.301921
Si Si8 0.871597 0.868270 0.665891
O O1 0.538503 0.100319 0.300538
O O2 0.250509 0.500000 0.729289
O O3 0.265139 0.629151 0.487397
O O4 0.244333 0.723065 0.752813
O O5 0.320672 0.624295 0.722010
O O6 0.500000 0.635218 0.702019
O O7 0.448510 0.500000 0.555657
O O8 0.449640 0.718986 0.487797
O O9 0.409637 0.642016 0.734235
O O10 0.689686 0.196959 0.480737
O O11 0.672427 0.348460 0.269674
O O12 0.610568 0.136872 0.460717
O O13 0.642053 0.189497 0.737091
O O14 0.665985 0.000000 0.599218
O O15 0.592890 0.278846 0.232315
O O16 0.138505 0.836786 0.486150
O O17 0.884431 0.000000 0.676256
#
# Coordination Sequence:
#
# PCOD9374246 Si02
#       8
#     2   8   8   8   8   8   8   8
#     4  12  20  40  58  90 120 156 200 252 292 364
#     4  11  21  38  60  87 120 157 197 250 301 359
#     4  10  19  35  58  87 113 148 201 253 301 359
#     4  10  22  36  59  89 117 155 206 240 302 360
#     4   9  18  37  58  84 114 152 193 245 293 361
#     4  10  21  35  63  85 115 156 196 241 302 345
#     4  10  22  37  59  87 120 158 202 245 313 352
#     4  11  22  41  61  88 124 160 200 248 299 354
#
# _framework density 18.837439
#
# number of rings (size 3 to 8) (size 9 to 14) (size 15 to 20)
#    0.000    1.793    1.379    4.138    0.000    0.000 
#    2.483    8.966    0.000    3.310    0.000    0.000 
#    0.000    0.000    0.000    0.000    0.000    0.000 
#
# Total GULP energy -161436.078178 kJ/mol
# GULP energy per Si atom -5566.761316 kJ/mol
# Density = 1.879456 g / cm^3
# Si number density = 18.837439 Si / 1000 Ang^3
#
#
#
# Elastic Constant Matrix: (Units=GPa)
#
#
# Indices 1 2 3 4 5 6 
#
# 1 69.9225 24.0775 20.2139 0.0000 0.0000 0.0000
# 2 24.0775 134.7279 43.9124 0.0000 0.0000 0.0000
# 3 20.2139 43.9124 96.7563 0.0000 0.0000 0.0000
# 4 0.0000 0.0000 0.0000 5.0010 0.0000 0.0000
# 5 0.0000 0.0000 0.0000 0.0000 13.6169 0.0000
# 6 0.0000 0.0000 0.0000 0.0000 0.0000 13.7647
#
#
#
# Elastic Compliance Matrix: (Units=1/GPa)
#
#
# Indices 1 2 3 4 5 6 
#
# 1 0.015683 -0.002036 -0.002352 0.000000 0.000000 0.000000
# 2 -0.002036 0.008975 -0.003648 0.000000 0.000000 0.000000
# 3 -0.002352 -0.003648 0.012482 0.000000 0.000000 0.000000
# 4 0.000000 0.000000 0.000000 0.199960 0.000000 0.000000
# 5 0.000000 0.000000 0.000000 0.000000 0.073438 0.000000
# 6 0.000000 0.000000 0.000000 0.000000 0.000000 0.072650
#
#
# Mechanical properties :
#
#
# Convention : Reuss Voigt Hill
#
# Bulk Modulus (GPa) = 47.46635 53.09049 50.27842
# Shear Modulus (GPa) = 12.30668 20.69004 16.49836
#
# Velocity S-wave (km/s) = 2.55877 3.31773 2.96265
# Velocity P-wave (km/s) = 5.82943 6.55142 6.20094
#
# Compressibility (1/GPa) = 0.02106755
#
# Stress axis : x y z
#
# Youngs Moduli (GPa) = 63.76471 111.41772 80.11336
#
# Poissons Ratio (x) = 0.22684 0.18845
# Poissons Ratio (y) = 0.12982 0.29226
# Poissons Ratio (z) = 0.15000 0.40645
#
# Static dielectric constant tensor:
#      x y z
#    x 1.682530 0.000000 0.000000 
#    y 0.000000 1.664060 0.000000 
#    z 0.000000 0.000000 1.634790 
# 
# From -- ./inp_files/10094.got.cif
#   From: 2010.05.17/outbox.cif.g08.bks.cpg/sg44_6_cif.got.tgz:10094.got - 2010.06.03 19:37:08.
