data_PCOD9374938
_publ_section_title
;
Structure prediction by ZEFSAII (Michael W. Deem and Ramdas Pophale) SiO2 
 PCOD9374938
Probable space group: I M M 2
;
_chemical_formula_sum "Si O2"
_cell_formula_units_Z 48
_cell_length_a 8.520990
_cell_length_b 28.596214
_cell_length_c 10.445391
_cell_angle_alpha 90.000000
_cell_angle_beta 90.000000
_cell_angle_gamma 90.000000
_cell_volume 2545.208093
_symmetry_space_group_name_H-M "I M M 2"
_symmetry_group_IT_number 44
_symmetry_cell_setting 'orthorhombic'
loop_
_space_group_symop_operation_xyz
x,y,z
-x,-y,z
-x,y,z
x,-y,z
1/2+x,1/2+y,1/2+z
1/2-x,1/2-y,1/2+z
1/2-x,1/2+y,1/2+z
1/2+x,1/2-y,1/2+z
loop_
_atom_site_type_symbol
_atom_site_label
_atom_site_fract_x
_atom_site_fract_y
_atom_site_fract_z
Si Si1 0.685611 0.303037 0.107260
Si Si2 0.314366 0.852028 0.351513
Si Si3 0.188473 0.552833 0.230532
Si Si4 0.183905 0.199839 0.104601
Si Si5 0.312739 0.852552 0.860148
Si Si6 0.686879 0.553503 0.943800
O O1 0.500000 0.311853 0.113795
O O2 0.719944 0.248002 0.098567
O O3 0.767136 0.323274 0.234085
O O4 0.755630 0.328118 0.982467
O O5 0.500000 0.845585 0.338782
O O6 0.229018 0.827876 0.232650
O O7 0.272546 0.906716 0.363305
O O8 0.225643 0.500000 0.273340
O O9 0.231395 0.593861 0.327853
O O10 0.000000 0.555771 0.210186
O O11 0.268958 0.560558 0.093166
O O12 0.000000 0.211324 0.104511
O O13 0.226585 0.168623 0.982063
O O14 0.500000 0.850032 0.880421
O O15 0.500000 0.558478 0.929305
O O16 0.731367 0.500000 0.911535
#
# Coordination Sequence:
#
# PCOD9374938 Si02
#       6
#     8   8   8   8   8   8
#     4  12  24  41  64  90 120 157 203 251 300 358
#     4  12  24  41  63  90 122 160 204 251 302 359
#     4   9  18  34  59  89 120 155 196 242 292 351
#     4  12  26  43  61  85 121 162 203 251 305 361
#     4  11  22  39  62  91 124 159 200 246 296 357
#     4  10  20  35  59  91 123 155 197 248 300 354
#
# _framework density 18.858968000000001
#
# number of rings (size 3 to 8) (size 9 to 14) (size 15 to 20)
#    0.000    1.000    1.667    6.500    0.000    1.667 
#    0.000    0.833    0.000    3.000    0.000    0.000 
#    0.000    0.000    0.000    0.000    0.000    0.000 
#
# Total GULP energy -134241.617518 kJ/mol
# GULP energy per Si atom -5593.400730 kJ/mol
# Density = 1.881604 g / cm^3
# Si number density = 18.858968 Si / 1000 Ang^3
#
#
#
# Elastic Constant Matrix: (Units=GPa)
#
#
# Indices 1 2 3 4 5 6 
#
# 1 38.4856 -8.1835 -2.8311 0.0025 0.0001 0.0000
# 2 -8.1835 88.0414 16.6527 0.0010 -0.0001 0.0000
# 3 -2.8311 16.6527 80.5055 0.0040 0.0000 0.0000
# 4 0.0025 0.0010 0.0040 83.3839 -0.0002 -0.0004
# 5 0.0001 -0.0001 0.0000 -0.0002 33.1421 0.0000
# 6 0.0000 0.0000 0.0000 -0.0004 0.0000 32.7698
#
#
#
# Elastic Compliance Matrix: (Units=1/GPa)
#
#
# Indices 1 2 3 4 5 6 
#
# 1 0.026523 0.002382 0.000440 -0.000001 0.000000 0.000000
# 2 0.002382 0.012035 -0.002406 0.000000 0.000000 0.000000
# 3 0.000440 -0.002406 0.012935 -0.000001 0.000000 0.000000
# 4 -0.000001 0.000000 -0.000001 0.011993 0.000000 0.000000
# 5 0.000000 0.000000 0.000000 0.000000 0.030173 0.000000
# 6 0.000000 0.000000 0.000000 0.000000 0.000000 0.030516
#
#
# Mechanical properties :
#
#
# Convention : Reuss Voigt Hill
#
# Bulk Modulus (GPa) = 19.11143 24.25654 21.68398
# Shear Modulus (GPa) = 35.51580 43.28546 39.40063
#
# Velocity S-wave (km/s) = 4.34433 4.79604 4.57576
# Velocity P-wave (km/s) = 5.94307 6.59995 6.28011
#
# Compressibility (1/GPa) = 0.05232472
#
# Stress axis : x y z
#
# Youngs Moduli (GPa) = 37.70368 83.09292 77.31209
#
# Poissons Ratio (x) = -0.19793 -0.03401
# Poissons Ratio (y) = -0.08981 0.18598
# Poissons Ratio (z) = -0.01659 0.19989
#
# Static dielectric constant tensor:
#      x y z
#    x 1.631150 0.000000 0.000000 
#    y 0.000000 1.659890 0.000000 
#    z 0.000000 0.000000 1.602780 
# 
# From -- ./inp_files/4919.got.cif
#   From: 2010.05.17/outbox.cif.g08.bks.cpg/sg44_3_cif.got.tgz:4919.got - 2010.06.03 19:37:08.
