data_PCOD9374206
_publ_section_title
;
Structure prediction by ZEFSAII (Michael W. Deem and Ramdas Pophale) SiO2 
 PCOD9374206
Probable space group: I M M 2
;
_chemical_formula_sum "Si O2"
_cell_formula_units_Z 64
_cell_length_a 8.671981
_cell_length_b 15.889228
_cell_length_c 24.355363
_cell_angle_alpha 90.000000
_cell_angle_beta 90.000000
_cell_angle_gamma 90.000000
_cell_volume 3355.951852
_symmetry_space_group_name_H-M "I M M 2"
_symmetry_group_IT_number 44
_symmetry_cell_setting 'orthorhombic'
loop_
_space_group_symop_operation_xyz
x,y,z
-x,-y,z
-x,y,z
x,-y,z
1/2+x,1/2+y,1/2+z
1/2-x,1/2-y,1/2+z
1/2-x,1/2+y,1/2+z
1/2+x,1/2-y,1/2+z
loop_
_atom_site_type_symbol
_atom_site_label
_atom_site_fract_x
_atom_site_fract_y
_atom_site_fract_z
Si Si1 0.315832 0.905777 0.933750
Si Si2 0.816143 0.147763 0.818667
Si Si3 0.685661 0.405249 0.936322
Si Si4 0.312254 0.406704 0.196857
Si Si5 0.184720 0.834394 0.317323
Si Si6 0.183258 0.248630 0.003493
Si Si7 0.814923 0.746656 0.625803
Si Si8 0.814328 0.095233 0.197815
O O1 0.500000 0.897707 0.937475
O O2 0.265338 0.893634 0.870718
O O3 0.271406 0.000000 0.951967
O O4 0.240649 0.832097 0.969260
O O5 0.767137 0.110286 0.759956
O O6 0.773297 0.246215 0.818467
O O7 0.000000 0.136997 0.824135
O O8 0.500000 0.400708 0.942487
O O9 0.735037 0.500000 0.950572
O O10 0.720076 0.385885 0.872434
O O11 0.759102 0.332636 0.972923
O O12 0.500000 0.405658 0.196022
O O13 0.261816 0.500000 0.179513
O O14 0.260485 0.330249 0.158425
O O15 0.221166 0.883249 0.261331
O O16 0.000000 0.817438 0.317584
O O17 0.250253 0.245568 0.064614
O O18 0.000000 0.248110 0.005238
O O19 0.760840 0.665144 0.659431
O O20 0.000000 0.748185 0.623914
O O21 0.000000 0.099853 0.191932
O O22 0.765457 0.000000 0.184877
#
# Coordination Sequence:
#
# PCOD9374206 Si02
#       8
#     8   8   8   8   8   8   8   8
#     4  11  24  42  64  91 122 158 201 248 302 365
#     4  11  20  34  60  93 127 161 195 239 298 358
#     4  10  21  39  64  92 123 163 205 244 294 357
#     4   9  19  36  59  88 121 156 195 238 289 352
#     4  10  19  34  60  90 125 162 199 242 293 358
#     4  12  26  43  63  88 120 158 204 256 309 360
#     4  11  23  41  63  86 116 157 207 254 301 356
#     4  10  21  38  61  90 124 161 200 245 300 359
#
# _framework density 19.070596999999999
#
# number of rings (size 3 to 8) (size 9 to 14) (size 15 to 20)
#    0.000    1.500    2.500    3.000    0.000    4.500 
#    0.000    1.250    0.000    5.625    0.000    0.000 
#    0.000    0.000    0.000    0.000    0.000    0.000 
#
# Total GULP energy -178856.707104 kJ/mol
# GULP energy per Si atom -5589.272097 kJ/mol
# Density = 1.902719 g / cm^3
# Si number density = 19.070597 Si / 1000 Ang^3
#
#
#
# Elastic Constant Matrix: (Units=GPa)
#
#
# Indices 1 2 3 4 5 6 
#
# 1 46.4873 55.2505 46.2575 0.0000 0.0000 0.0000
# 2 55.2505 190.9327 86.6259 0.0000 0.0000 0.0000
# 3 46.2575 86.6259 151.3007 0.0000 0.0000 0.0000
# 4 0.0000 0.0000 0.0000 -3.3246 0.0000 0.0000
# 5 0.0000 0.0000 0.0000 0.0000 30.6155 0.0000
# 6 0.0000 0.0000 0.0000 0.0000 0.0000 46.2693
#
#
#
# Elastic Compliance Matrix: (Units=1/GPa)
#
#
# Indices 1 2 3 4 5 6 
#
# 1 0.037750 -0.007683 -0.007142 0.000000 0.000000 0.000000
# 2 -0.007683 0.008639 -0.002597 0.000000 0.000000 0.000000
# 3 -0.007142 -0.002597 0.010280 0.000000 0.000000 0.000000
# 4 0.000000 0.000000 0.000000 -0.300791 0.000000 0.000000
# 5 0.000000 0.000000 0.000000 0.000000 0.032663 0.000000
# 6 0.000000 0.000000 0.000000 0.000000 0.000000 0.021613
#
#
# Mechanical properties :
#
#
# Convention : Reuss Voigt Hill
#
# Bulk Modulus (GPa) = 45.82256 84.99873 65.41065
# Shear Modulus (GPa) = -33.84640 28.08451 -2.88094
#
# Velocity S-wave (km/s) = -4.21740 3.84169 -1.23043
# Velocity P-wave (km/s) = 0.60392 8.02156 5.68815
#
# Compressibility (1/GPa) = 0.02182331
#
# Stress axis : x y z
#
# Youngs Moduli (GPa) = 26.49016 115.75242 97.27599
#
# Poissons Ratio (x) = 0.88936 0.69478
# Poissons Ratio (y) = 0.20353 0.25265
# Poissons Ratio (z) = 0.18920 0.30064
#
# Static dielectric constant tensor:
#      x y z
#    x 1.646650 0.000000 0.000000 
#    y 0.000000 1.658310 0.000000 
#    z 0.000000 0.000000 1.634490 
# 
# From -- ./inp_files/25118.got.cif
#   From: 2010.05.17/outbox.cif.g08.bks.cpg/sg44_13_cif.got.tgz:25118.got - 2010.06.03 19:37:08.
