data_PCOD9374855
_publ_section_title
;
Structure prediction by ZEFSAII (Michael W. Deem and Ramdas Pophale) SiO2 
 PCOD9374855
Probable space group: I M M 2
;
_chemical_formula_sum "Si O2"
_cell_formula_units_Z 40
_cell_length_a 12.069373
_cell_length_b 7.516021
_cell_length_c 20.822644
_cell_angle_alpha 90.000000
_cell_angle_beta 90.000000
_cell_angle_gamma 90.000000
_cell_volume 1888.898267
_symmetry_space_group_name_H-M "I M M 2"
_symmetry_group_IT_number 44
_symmetry_cell_setting 'orthorhombic'
loop_
_space_group_symop_operation_xyz
x,y,z
-x,-y,z
-x,y,z
x,-y,z
1/2+x,1/2+y,1/2+z
1/2-x,1/2-y,1/2+z
1/2-x,1/2+y,1/2+z
1/2+x,1/2-y,1/2+z
loop_
_atom_site_type_symbol
_atom_site_label
_atom_site_fract_x
_atom_site_fract_y
_atom_site_fract_z
Si Si1 0.627853 0.782118 0.894460
Si Si2 0.624132 0.791264 0.642476
Si Si3 0.772379 0.704272 0.524484
Si Si4 0.244240 0.782217 0.766827
Si Si5 0.000000 0.783623 0.744713
Si Si6 0.500000 0.285400 0.094870
O O1 0.500000 0.725448 0.901422
O O2 0.679841 0.729185 0.826604
O O3 0.626867 0.000000 0.896637
O O4 0.702634 0.718833 0.954111
O O5 0.500000 0.715213 0.642844
O O6 0.682530 0.779733 0.573461
O O7 0.702691 0.720216 0.699393
O O8 0.614173 0.000000 0.656995
O O9 0.740716 0.500000 0.515367
O O10 0.890322 0.716810 0.560462
O O11 0.116882 0.723260 0.773443
O O12 0.241920 0.000000 0.765979
O O13 0.000000 0.735950 0.669465
O O14 0.000000 0.000000 0.747810
O O15 0.500000 0.500000 0.091142
#
# Coordination Sequence:
#
# PCOD9374855 Si02
#       6
#     8   8   8   8   4   4
#     4   9  17  30  48  73 105 137 172 216 263 311
#     4  10  20  35  56  80 104 138 183 225 267 316
#     4  11  21  34  53  81 112 141 174 219 275 324
#     4   9  16  29  50  77 103 132 175 227 265 300
#     4   9  16  27  49  79 103 124 169 224 264 301
#     4  11  19  33  57  83 107 136 177 224 264 313
#
# _framework density 21.176365000000001
#
# number of rings (size 3 to 8) (size 9 to 14) (size 15 to 20)
#    0.000    2.200    3.000    1.500    0.000    2.800 
#    1.800    0.000    0.000    2.400    0.000    0.000 
#    0.000    0.000    0.000    0.000    0.000    0.000 
#
# Total GULP energy -111649.738619 kJ/mol
# GULP energy per Si atom -5582.486931 kJ/mol
# Density = 2.112817 g / cm^3
# Si number density = 21.176365 Si / 1000 Ang^3
#
#
#
# Elastic Constant Matrix: (Units=GPa)
#
#
# Indices 1 2 3 4 5 6 
#
# 1 151.8454 0.7022 64.6886 0.0000 0.0000 0.0000
# 2 0.7022 51.2339 2.0193 0.0000 0.0000 0.0000
# 3 64.6886 2.0193 134.2716 0.0000 0.0000 0.0000
# 4 0.0000 0.0000 0.0000 13.4125 0.0000 0.0000
# 5 0.0000 0.0000 0.0000 0.0000 24.2520 0.0000
# 6 0.0000 0.0000 0.0000 0.0000 0.0000 -2.4481
#
#
#
# Elastic Compliance Matrix: (Units=1/GPa)
#
#
# Indices 1 2 3 4 5 6 
#
# 1 0.008286 0.000044 -0.003993 0.000000 0.000000 0.000000
# 2 0.000044 0.019530 -0.000315 0.000000 0.000000 0.000000
# 3 -0.003993 -0.000315 0.009376 0.000000 0.000000 0.000000
# 4 0.000000 0.000000 0.000000 0.074557 0.000000 0.000000
# 5 0.000000 0.000000 0.000000 0.000000 0.041234 0.000000
# 6 0.000000 0.000000 0.000000 0.000000 0.000000 -0.408475
#
#
# Mechanical properties :
#
#
# Convention : Reuss Voigt Hill
#
# Bulk Modulus (GPa) = 34.88595 52.46344 43.67470
# Shear Modulus (GPa) = -21.06074 25.03935 1.98930
#
# Velocity S-wave (km/s) = -3.15705 3.44236 0.97028
# Velocity P-wave (km/s) = 1.79456 6.37402 4.68234
#
# Compressibility (1/GPa) = 0.02866484
#
# Stress axis : x y z
#
# Youngs Moduli (GPa) = 120.67868 51.20292 106.65541
#
# Poissons Ratio (x) = -0.00224 0.42586
# Poissons Ratio (y) = -0.00529 0.03358
# Poissons Ratio (z) = 0.48185 0.01612
#
# Static dielectric constant tensor:
#      x y z
#    x 1.740030 0.000000 0.000000 
#    y 0.000000 1.816260 0.000000 
#    z 0.000000 0.000000 1.734500 
# 
# From -- ./inp_files/22766.got.cif
#   From: 2010.05.17/outbox.cif.g08.bks.cpg/sg44_12_cif.got.tgz:22766.got - 2010.06.03 19:37:08.
