data_PCOD9374560
_publ_section_title
;
Structure prediction by ZEFSAII (Michael W. Deem and Ramdas Pophale) SiO2 
 PCOD9374560
Probable space group: I M M 2
;
_chemical_formula_sum "Si O2"
_cell_formula_units_Z 56
_cell_length_a 9.003601
_cell_length_b 20.132359
_cell_length_c 16.111052
_cell_angle_alpha 90.000000
_cell_angle_beta 90.000000
_cell_angle_gamma 90.000000
_cell_volume 2920.349341
_symmetry_space_group_name_H-M "I M M 2"
_symmetry_group_IT_number 44
_symmetry_cell_setting 'orthorhombic'
loop_
_space_group_symop_operation_xyz
x,y,z
-x,-y,z
-x,y,z
x,-y,z
1/2+x,1/2+y,1/2+z
1/2-x,1/2-y,1/2+z
1/2-x,1/2+y,1/2+z
1/2+x,1/2-y,1/2+z
loop_
_atom_site_type_symbol
_atom_site_label
_atom_site_fract_x
_atom_site_fract_y
_atom_site_fract_z
Si Si1 0.833231 0.079582 0.353750
Si Si2 0.661546 0.076194 0.508279
Si Si3 0.830372 0.104992 0.667040
Si Si4 0.176613 0.692964 0.773490
Si Si5 0.823510 0.576153 0.341024
Si Si6 0.821714 0.283316 0.417569
Si Si7 0.171839 0.743875 0.602650
O O1 0.790173 0.101295 0.447663
O O2 0.714906 0.118182 0.299203
O O3 0.000000 0.102031 0.335018
O O4 0.829879 0.000000 0.344851
O O5 0.500000 0.109270 0.499244
O O6 0.716926 0.074541 0.601589
O O7 0.644920 0.000000 0.481802
O O8 0.771334 0.091714 0.758763
O O9 0.828701 0.181669 0.638652
O O10 0.000000 0.081102 0.658209
O O11 0.247925 0.741795 0.842487
O O12 0.238121 0.704183 0.680474
O O13 0.000000 0.704991 0.773126
O O14 0.792351 0.500000 0.368851
O O15 0.795242 0.637770 0.402943
O O16 0.000000 0.578902 0.320753
O O17 0.765889 0.262278 0.509564
O O18 0.000000 0.271869 0.412857
O O19 0.000000 0.722002 0.593664
#
# Coordination Sequence:
#
# PCOD9374560 Si02
#       7
#     8   8   8   8   8   8   8
#     4  10  21  37  56  80 112 150 190 231 284 350
#     4  10  20  33  50  77 112 146 184 229 279 338
#     4  11  20  33  53  79 113 150 190 236 292 354
#     4  11  21  37  59  85 116 147 188 243 297 349
#     4  10  21  36  55  81 114 152 199 252 302 357
#     4  10  20  38  61  83 113 156 200 246 301 356
#     4   9  20  36  55  81 112 144 187 240 291 348
#
# _framework density 19.175788000000001
#
# number of rings (size 3 to 8) (size 9 to 14) (size 15 to 20)
#    0.000    1.857    1.429    3.000    0.000    4.857 
#    0.000    2.857    0.000    2.571    0.000    0.000 
#    0.000    0.000    0.000    0.000    0.000    0.000 
#
# Total GULP energy -156026.165026 kJ/mol
# GULP energy per Si atom -5572.363037 kJ/mol
# Density = 1.913214 g / cm^3
# Si number density = 19.175788 Si / 1000 Ang^3
#
#
#
# Elastic Constant Matrix: (Units=GPa)
#
#
# Indices 1 2 3 4 5 6 
#
# 1 51.2832 16.5091 20.9691 0.0000 0.0000 0.0000
# 2 16.5091 75.0140 26.1100 0.0000 0.0000 0.0000
# 3 20.9691 26.1100 93.7115 0.0000 0.0000 0.0000
# 4 0.0000 0.0000 0.0000 30.7755 0.0000 0.0000
# 5 0.0000 0.0000 0.0000 0.0000 22.7433 0.0000
# 6 0.0000 0.0000 0.0000 0.0000 0.0000 22.4827
#
#
#
# Elastic Compliance Matrix: (Units=1/GPa)
#
#
# Indices 1 2 3 4 5 6 
#
# 1 0.022266 -0.003506 -0.004005 0.000000 0.000000 0.000000
# 2 -0.003506 0.015315 -0.003482 0.000000 0.000000 0.000000
# 3 -0.004005 -0.003482 0.012538 0.000000 0.000000 0.000000
# 4 0.000000 0.000000 0.000000 0.032493 0.000000 0.000000
# 5 0.000000 0.000000 0.000000 0.000000 0.043969 0.000000
# 6 0.000000 0.000000 0.000000 0.000000 0.000000 0.044479
#
#
# Mechanical properties :
#
#
# Convention : Reuss Voigt Hill
#
# Bulk Modulus (GPa) = 35.54895 38.57613 37.06254
# Shear Modulus (GPa) = 24.70064 25.62833 25.16449
#
# Velocity S-wave (km/s) = 3.59293 3.65978 3.62651
# Velocity P-wave (km/s) = 5.98255 6.16599 6.07496
#
# Compressibility (1/GPa) = 0.02813023
#
# Stress axis : x y z
#
# Youngs Moduli (GPa) = 44.91148 65.29720 79.76015
#
# Poissons Ratio (x) = 0.22894 0.31947
# Poissons Ratio (y) = 0.15747 0.27776
# Poissons Ratio (z) = 0.17989 0.22739
#
# Static dielectric constant tensor:
#      x y z
#    x 1.682590 0.000000 0.000000 
#    y 0.000000 1.620110 0.000000 
#    z 0.000000 0.000000 1.673710 
# 
# From -- ./inp_files/16453.got.cif
#   From: 2010.05.17/outbox.cif.g08.bks.cpg/sg44_9_cif.got.tgz:16453.got - 2010.06.03 19:37:08.
