data_PCOD9374018
_publ_section_title
;
Structure prediction by ZEFSAII (Michael W. Deem and Ramdas Pophale) SiO2 
 PCOD9374018
Probable space group: I M M 2
;
_chemical_formula_sum "Si O2"
_cell_formula_units_Z 64
_cell_length_a 8.326846
_cell_length_b 21.360036
_cell_length_c 20.398739
_cell_angle_alpha 90.000000
_cell_angle_beta 90.000000
_cell_angle_gamma 90.000000
_cell_volume 3628.155015
_symmetry_space_group_name_H-M "I M M 2"
_symmetry_group_IT_number 44
_symmetry_cell_setting 'orthorhombic'
loop_
_space_group_symop_operation_xyz
x,y,z
-x,-y,z
-x,y,z
x,-y,z
1/2+x,1/2+y,1/2+z
1/2-x,1/2-y,1/2+z
1/2-x,1/2+y,1/2+z
1/2+x,1/2-y,1/2+z
loop_
_atom_site_type_symbol
_atom_site_label
_atom_site_fract_x
_atom_site_fract_y
_atom_site_fract_z
Si Si1 0.690983 0.569033 0.906520
Si Si2 0.195452 0.620843 0.189022
Si Si3 0.194950 0.234756 0.045067
Si Si4 0.305798 0.930797 0.827138
Si Si5 0.191119 0.311441 0.826371
Si Si6 0.693771 0.266710 0.690128
Si Si7 0.694318 0.310871 0.406413
Si Si8 0.306135 0.882216 0.543384
O O1 0.500000 0.569247 0.899715
O O2 0.752767 0.500000 0.887571
O O3 0.756671 0.625849 0.863194
O O4 0.733914 0.581557 0.982391
O O5 0.248425 0.582673 0.252364
O O6 0.242672 0.693673 0.198052
O O7 0.246392 0.598584 0.116736
O O8 0.000000 0.619839 0.187845
O O9 0.249167 0.213665 0.117271
O O10 0.234235 0.308328 0.036813
O O11 0.000000 0.232036 0.045744
O O12 0.250848 0.197457 0.981380
O O13 0.500000 0.929816 0.826741
O O14 0.248389 0.874558 0.872627
O O15 0.252634 0.000000 0.847909
O O16 0.245701 0.306092 0.751322
O O17 0.252262 0.249565 0.864978
O O18 0.000000 0.308734 0.828551
O O19 0.500000 0.267880 0.690883
O O20 0.500000 0.309343 0.406517
O O21 0.500000 0.887517 0.539805
#
# Coordination Sequence:
#
# PCOD9374018 Si02
#       8
#     8   8   8   8   8   8   8   8
#     4  11  24  38  51  73 106 141 176 215 261 312
#     4   8  15  28  49  75 103 138 175 208 247 301
#     4   8  15  30  52  78 104 132 167 210 254 303
#     4  10  20  33  49  73 105 139 176 213 250 297
#     4  11  21  34  55  80 105 134 172 216 260 307
#     4   9  16  30  54  78 103 133 168 211 258 305
#     4  10  19  33  53  76 103 134 172 213 254 301
#     4   9  16  31  53  76 102 135 175 213 251 299
#
# _framework density 17.639818999999999
#
# number of rings (size 3 to 8) (size 9 to 14) (size 15 to 20)
#    0.000    2.500    2.500    2.250    0.000    2.250 
#    0.000    5.000    0.000    0.750    0.000    1.750 
#    0.000    0.000    0.000    0.000    0.000    0.000 
#
# Total GULP energy -178428.896515 kJ/mol
# GULP energy per Si atom -5575.903016 kJ/mol
# Density = 1.759967 g / cm^3
# Si number density = 17.639819 Si / 1000 Ang^3
#
#
#
# Elastic Constant Matrix: (Units=GPa)
#
#
# Indices 1 2 3 4 5 6 
#
# 1 10.9495 15.3083 18.3456 0.0000 0.0000 0.0000
# 2 15.3083 115.6498 81.1568 0.0000 0.0000 0.0000
# 3 18.3456 81.1568 142.5294 0.0000 0.0000 0.0000
# 4 0.0000 0.0000 0.0000 19.2810 0.0000 0.0000
# 5 0.0000 0.0000 0.0000 0.0000 24.3778 0.0000
# 6 0.0000 0.0000 0.0000 0.0000 0.0000 14.8499
#
#
#
# Elastic Compliance Matrix: (Units=1/GPa)
#
#
# Indices 1 2 3 4 5 6 
#
# 1 0.121247 -0.008490 -0.010772 0.000000 0.000000 0.000000
# 2 -0.008490 0.014996 -0.007446 0.000000 0.000000 0.000000
# 3 -0.010772 -0.007446 0.012642 0.000000 0.000000 0.000000
# 4 0.000000 0.000000 0.000000 0.051864 0.000000 0.000000
# 5 0.000000 0.000000 0.000000 0.000000 0.041021 0.000000
# 6 0.000000 0.000000 0.000000 0.000000 0.000000 0.067340
#
#
# Mechanical properties :
#
#
# Convention : Reuss Voigt Hill
#
# Bulk Modulus (GPa) = 10.47459 55.41668 32.94564
# Shear Modulus (GPa) = 12.67913 21.98961 17.33437
#
# Velocity S-wave (km/s) = 2.68391 3.53454 3.13818
# Velocity P-wave (km/s) = 3.94404 6.93838 5.64343
#
# Compressibility (1/GPa) = 0.09546912
#
# Stress axis : x y z
#
# Youngs Moduli (GPa) = 8.24765 66.68605 79.09955
#
# Poissons Ratio (x) = 0.56615 0.85207
# Poissons Ratio (y) = 0.07002 0.58896
# Poissons Ratio (z) = 0.08884 0.49653
#
# Static dielectric constant tensor:
#      x y z
#    x 1.618110 0.000000 0.000000 
#    y 0.000000 1.591500 0.000000 
#    z 0.000000 0.000000 1.616620 
# 
# From -- ./inp_files/23251.got.cif
#   From: 2010.05.17/outbox.cif.g08.bks.cpg/sg44_12_cif.got.tgz:23251.got - 2010.06.03 19:37:08.
