data_PCOD9374937
_publ_section_title
;
Structure prediction by ZEFSAII (Michael W. Deem and Ramdas Pophale) SiO2 
 PCOD9374937
Probable space group: I M M 2
;
_chemical_formula_sum "Si O2"
_cell_formula_units_Z 48
_cell_length_a 8.441925
_cell_length_b 17.316322
_cell_length_c 17.363031
_cell_angle_alpha 90.000000
_cell_angle_beta 90.000000
_cell_angle_gamma 90.000000
_cell_volume 2538.181551
_symmetry_space_group_name_H-M "I M M 2"
_symmetry_group_IT_number 44
_symmetry_cell_setting 'orthorhombic'
loop_
_space_group_symop_operation_xyz
x,y,z
-x,-y,z
-x,y,z
x,-y,z
1/2+x,1/2+y,1/2+z
1/2-x,1/2-y,1/2+z
1/2-x,1/2+y,1/2+z
1/2+x,1/2-y,1/2+z
loop_
_atom_site_type_symbol
_atom_site_label
_atom_site_fract_x
_atom_site_fract_y
_atom_site_fract_z
Si Si1 0.309921 0.349957 0.929780
Si Si2 0.693687 0.588753 0.252617
Si Si3 0.187355 0.500000 0.841280
Si Si4 0.310125 0.319942 0.405040
Si Si5 0.307356 0.680699 0.102634
Si Si6 0.189542 0.644969 0.573008
Si Si7 0.186566 0.000000 0.168524
O O1 0.500000 0.344406 0.927794
O O2 0.256271 0.423734 0.881926
O O3 0.239712 0.269524 0.898960
O O4 0.260257 0.354160 0.019884
O O5 0.500000 0.589272 0.251448
O O6 0.744628 0.500000 0.253189
O O7 0.741936 0.633288 0.329762
O O8 0.748469 0.632873 0.175976
O O9 0.228676 0.500000 0.751058
O O10 0.000000 0.500000 0.850962
O O11 0.500000 0.324572 0.411224
O O12 0.236223 0.354094 0.483143
O O13 0.500000 0.680036 0.103877
O O14 0.259569 0.770599 0.104242
O O15 0.265873 0.575355 0.619683
O O16 0.000000 0.639336 0.579685
O O17 0.000000 0.000000 0.182243
#
# Coordination Sequence:
#
# PCOD9374937 Si02
#       7
#     8   8   4   8   8   8   4
#     4  10  21  39  62  88 118 156 203 252 305 361
#     4   9  18  31  53  87 119 152 197 244 291 347
#     4  12  26  42  62  89 122 157 198 247 308 379
#     4  10  20  35  59  89 122 162 204 248 299 356
#     4   8  17  34  58  86 117 154 197 241 291 352
#     4  10  21  39  61  86 119 160 201 244 302 365
#     4  12  26  42  62  91 120 151 200 255 308 367
#
# _framework density 18.911178
#
# number of rings (size 3 to 8) (size 9 to 14) (size 15 to 20)
#    0.000    2.167    0.000    4.000    4.667    0.000 
#    0.000    0.000    0.000    3.000    0.000    0.000 
#    0.000    0.000    0.000    0.000    0.000    0.000 
#
# Total GULP energy -134036.245526 kJ/mol
# GULP energy per Si atom -5584.843564 kJ/mol
# Density = 1.886814 g / cm^3
# Si number density = 18.911178 Si / 1000 Ang^3
#
#
#
# Elastic Constant Matrix: (Units=GPa)
#
#
# Indices 1 2 3 4 5 6 
#
# 1 21.5388 -7.6401 -16.2739 0.0000 0.0000 0.0000
# 2 -7.6401 121.0570 92.1391 0.0000 0.0000 0.0000
# 3 -16.2739 92.1391 114.4932 0.0000 0.0000 0.0000
# 4 0.0000 0.0000 0.0000 15.6710 0.0000 0.0000
# 5 0.0000 0.0000 0.0000 0.0000 26.9497 0.0000
# 6 0.0000 0.0000 0.0000 0.0000 0.0000 22.2983
#
#
#
# Elastic Compliance Matrix: (Units=1/GPa)
#
#
# Indices 1 2 3 4 5 6 
#
# 1 0.053790 -0.006257 0.012681 0.000000 0.000000 0.000000
# 2 -0.006257 0.022046 -0.018631 0.000000 0.000000 0.000000
# 3 0.012681 -0.018631 0.025530 0.000000 0.000000 0.000000
# 4 0.000000 0.000000 0.000000 0.063812 0.000000 0.000000
# 5 0.000000 0.000000 0.000000 0.000000 0.037106 0.000000
# 6 0.000000 0.000000 0.000000 0.000000 0.000000 0.044846
#
#
# Mechanical properties :
#
#
# Convention : Reuss Voigt Hill
#
# Bulk Modulus (GPa) = 12.99521 43.72659 28.36090
# Shear Modulus (GPa) = 16.82393 25.57475 21.19934
#
# Velocity S-wave (km/s) = 2.98590 3.68144 3.35176
# Velocity P-wave (km/s) = 4.33291 6.42206 5.47800
#
# Compressibility (1/GPa) = 0.07695141
#
# Stress axis : x y z
#
# Youngs Moduli (GPa) = 18.59097 45.35896 39.16926
#
# Poissons Ratio (x) = 0.28381 -0.49670
# Poissons Ratio (y) = 0.11632 0.72977
# Poissons Ratio (z) = -0.23575 0.84510
#
# Static dielectric constant tensor:
#      x y z
#    x 1.646550 0.000000 0.000000 
#    y 0.000000 1.634310 0.000000 
#    z 0.000000 0.000000 1.634810 
# 
# From -- ./inp_files/16219.got.cif
#   From: 2010.05.17/outbox.cif.g08.bks.cpg/sg44_9_cif.got.tgz:16219.got - 2010.06.03 19:37:08.
