data_PCOD9374290
_publ_section_title
;
Structure prediction by ZEFSAII (Michael W. Deem and Ramdas Pophale) SiO2 
 PCOD9374290
Probable space group: I M M 2
;
_chemical_formula_sum "Si O2"
_cell_formula_units_Z 58
_cell_length_a 26.672452
_cell_length_b 7.706810
_cell_length_c 13.253270
_cell_angle_alpha 90.000000
_cell_angle_beta 90.000000
_cell_angle_gamma 90.000000
_cell_volume 2724.335817
_symmetry_space_group_name_H-M "I M M 2"
_symmetry_group_IT_number 44
_symmetry_cell_setting 'orthorhombic'
loop_
_space_group_symop_operation_xyz
x,y,z
-x,-y,z
-x,y,z
x,-y,z
1/2+x,1/2+y,1/2+z
1/2-x,1/2-y,1/2+z
1/2-x,1/2+y,1/2+z
1/2+x,1/2-y,1/2+z
loop_
_atom_site_type_symbol
_atom_site_label
_atom_site_fract_x
_atom_site_fract_y
_atom_site_fract_z
Si Si1 0.000000 0.500000 0.632231
Si Si2 0.209573 0.209771 0.046303
Si Si3 0.893795 0.296151 0.140347
Si Si4 0.557568 0.204600 0.841469
Si Si5 0.341446 0.710954 0.337740
Si Si6 0.055871 0.795411 0.929902
Si Si7 0.572685 0.309876 0.068539
Si Si8 0.817336 0.299290 0.615532
O O1 0.043459 0.653841 0.622249
O O2 0.164787 0.271048 0.118448
O O3 0.264687 0.272396 0.075129
O O4 0.209670 0.000000 0.051411
O O5 0.191968 0.258857 0.934217
O O6 0.905678 0.500000 0.141926
O O7 0.909262 0.226287 0.249691
O O8 0.924875 0.222133 0.045467
O O9 0.500000 0.214606 0.807110
O O10 0.569083 0.000000 0.860060
O O11 0.561539 0.294269 0.949298
O O12 0.342362 0.500000 0.330712
O O13 0.398407 0.772530 0.361300
O O14 0.319199 0.785633 0.236167
O O15 0.000000 0.719894 0.916074
O O16 0.052710 0.000000 0.908988
O O17 0.557913 0.500000 0.106931
O O18 0.632217 0.291545 0.079858
O O19 0.820608 0.500000 0.583787
#
# Coordination Sequence:
#
# PCOD9374290 Si02
#       8
#     2   8   8   8   8   8   8   8
#     4  12  22  48  64  90 136 158 210 264 302 362
#     4   9  21  41  62  82 119 162 201 259 317 362
#     4  10  20  32  56  87 120 157 201 253 313 370
#     4  10  19  36  55  82 125 167 204 258 311 368
#     4   9  19  38  60  85 115 157 206 249 308 377
#     4   9  18  35  55  79 116 158 203 255 301 362
#     4  12  24  41  67  92 124 172 208 250 314 371
#     4  11  23  42  63  90 123 158 201 259 311 365
#
# _framework density 21.289593
#
# number of rings (size 3 to 8) (size 9 to 14) (size 15 to 20)
#    0.000    1.931    2.069    2.276    0.000    6.345 
#    1.241    4.138    0.000    0.000    0.000    0.000 
#    0.000    0.000    0.000    0.000    0.000    0.000 
#
# Total GULP energy -161757.977250 kJ/mol
# GULP energy per Si atom -5577.861284 kJ/mol
# Density = 2.124114 g / cm^3
# Si number density = 21.289593 Si / 1000 Ang^3
#
#
#
# Elastic Constant Matrix: (Units=GPa)
#
#
# Indices 1 2 3 4 5 6 
#
# 1 158.5708 21.0606 35.1166 0.0000 0.0000 0.0000
# 2 21.0606 85.4295 1.6786 0.0000 0.0000 0.0000
# 3 35.1166 1.6786 42.5197 0.0000 0.0000 0.0000
# 4 0.0000 0.0000 0.0000 16.9838 0.0000 0.0000
# 5 0.0000 0.0000 0.0000 0.0000 9.6577 0.0000
# 6 0.0000 0.0000 0.0000 0.0000 0.0000 16.8896
#
#
#
# Elastic Compliance Matrix: (Units=1/GPa)
#
#
# Indices 1 2 3 4 5 6 
#
# 1 0.007998 -0.001843 -0.006533 0.000000 0.000000 0.000000
# 2 -0.001843 0.012139 0.001043 0.000000 0.000000 0.000000
# 3 -0.006533 0.001043 0.028872 0.000000 0.000000 0.000000
# 4 0.000000 0.000000 0.000000 0.058880 0.000000 0.000000
# 5 0.000000 0.000000 0.000000 0.000000 0.103544 0.000000
# 6 0.000000 0.000000 0.000000 0.000000 0.000000 0.059208
#
#
# Mechanical properties :
#
#
# Convention : Reuss Voigt Hill
#
# Bulk Modulus (GPa) = 29.11688 44.69238 36.90463
# Shear Modulus (GPa) = 16.84891 23.95052 20.39972
#
# Velocity S-wave (km/s) = 2.81626 3.35772 3.09884
# Velocity P-wave (km/s) = 4.92761 6.00588 5.49327
#
# Compressibility (1/GPa) = 0.03434433
#
# Stress axis : x y z
#
# Youngs Moduli (GPa) = 125.03392 82.37583 34.63507
#
# Poissons Ratio (x) = 0.15184 0.22626
# Poissons Ratio (y) = 0.23048 -0.03613
# Poissons Ratio (z) = 0.81679 -0.08593
#
# Static dielectric constant tensor:
#      x y z
#    x 1.761710 0.000000 0.000000 
#    y 0.000000 1.825430 0.000000 
#    z 0.000000 0.000000 1.763940 
# 
# From -- ./inp_files/14853.got.cif
#   From: 2010.05.17/outbox.cif.g08.bks.cpg/sg44_8_cif.got.tgz:14853.got - 2010.06.03 19:37:08.
