data_PCOD9374134
_publ_section_title
;
Structure prediction by ZEFSAII (Michael W. Deem and Ramdas Pophale) SiO2 
 PCOD9374134
Probable space group: I M M 2
;
_chemical_formula_sum "Si O2"
_cell_formula_units_Z 56
_cell_length_a 9.105242
_cell_length_b 20.660865
_cell_length_c 15.647689
_cell_angle_alpha 90.000000
_cell_angle_beta 90.000000
_cell_angle_gamma 90.000000
_cell_volume 2943.677300
_symmetry_space_group_name_H-M "I M M 2"
_symmetry_group_IT_number 44
_symmetry_cell_setting 'orthorhombic'
loop_
_space_group_symop_operation_xyz
x,y,z
-x,-y,z
-x,y,z
x,-y,z
1/2+x,1/2+y,1/2+z
1/2-x,1/2-y,1/2+z
1/2-x,1/2+y,1/2+z
1/2+x,1/2-y,1/2+z
loop_
_atom_site_type_symbol
_atom_site_label
_atom_site_fract_x
_atom_site_fract_y
_atom_site_fract_z
Si Si1 0.676813 0.926640 0.623120
Si Si2 0.334284 0.102627 0.820608
Si Si3 0.169963 0.748137 0.394085
Si Si4 0.822806 0.703283 0.727526
Si Si5 0.674604 0.926831 0.141283
Si Si6 0.679027 0.216224 0.571022
Si Si7 0.656965 0.574672 0.479018
O O1 0.500000 0.929640 0.614533
O O2 0.705739 0.910264 0.722875
O O3 0.720673 0.860821 0.573729
O O4 0.732126 0.000000 0.602864
O O5 0.500000 0.077055 0.833499
O O6 0.336203 0.176526 0.852550
O O7 0.217601 0.073583 0.884507
O O8 0.263174 0.784696 0.322162
O O9 0.250927 0.753006 0.485407
O O10 0.000000 0.769868 0.402584
O O11 0.784220 0.629025 0.706162
O O12 0.744859 0.748786 0.655862
O O13 0.000000 0.712248 0.722570
O O14 0.500000 0.929687 0.136794
O O15 0.725739 0.000000 0.161734
O O16 0.730019 0.901509 0.049346
O O17 0.500000 0.221197 0.572242
O O18 0.500000 0.608481 0.484953
O O19 0.640732 0.500000 0.503013
#
# Coordination Sequence:
#
# PCOD9374134 Si02
#       7
#     8   8   8   8   8   8   8
#     4   9  18  35  59  84 112 152 202 249 293 348
#     4  10  19  34  55  79 107 144 192 240 288 345
#     4  11  23  39  59  86 116 152 198 246 295 356
#     4  11  22  38  61  88 116 151 193 243 299 353
#     4   9  19  36  56  78 107 147 193 235 279 340
#     4  11  22  39  61  89 122 158 198 247 301 356
#     4  10  20  31  46  76 114 146 178 221 280 343
#
# _framework density 19.023824999999999
#
# number of rings (size 3 to 8) (size 9 to 14) (size 15 to 20)
#    0.000    1.857    1.429    3.000    0.000    7.143 
#    0.000    0.714    0.000    6.857    0.000    0.000 
#    0.000    0.000    0.000    0.000    0.000    0.000 
#
# Total GULP energy -155958.442262 kJ/mol
# GULP energy per Si atom -5569.944367 kJ/mol
# Density = 1.898053 g / cm^3
# Si number density = 19.023825 Si / 1000 Ang^3
#
#
#
# Elastic Constant Matrix: (Units=GPa)
#
#
# Indices 1 2 3 4 5 6 
#
# 1 31.8708 31.7989 18.5927 0.0000 0.0000 0.0000
# 2 31.7989 103.3601 20.5389 0.0000 0.0000 0.0000
# 3 18.5927 20.5389 67.1641 0.0000 0.0000 0.0000
# 4 0.0000 0.0000 0.0000 29.9609 0.0000 0.0000
# 5 0.0000 0.0000 0.0000 0.0000 25.4135 0.0000
# 6 0.0000 0.0000 0.0000 0.0000 0.0000 9.0296
#
#
#
# Elastic Compliance Matrix: (Units=1/GPa)
#
#
# Indices 1 2 3 4 5 6 
#
# 1 0.050762 -0.013654 -0.009877 0.000000 0.000000 0.000000
# 2 -0.013654 0.013974 -0.000493 0.000000 0.000000 0.000000
# 3 -0.009877 -0.000493 0.017774 0.000000 0.000000 0.000000
# 4 0.000000 0.000000 0.000000 0.033377 0.000000 0.000000
# 5 0.000000 0.000000 0.000000 0.000000 0.039349 0.000000
# 6 0.000000 0.000000 0.000000 0.000000 0.000000 0.110747
#
#
# Mechanical properties :
#
#
# Convention : Reuss Voigt Hill
#
# Bulk Modulus (GPa) = 29.01838 38.25067 33.63452
# Shear Modulus (GPa) = 15.36010 21.64510 18.50260
#
# Velocity S-wave (km/s) = 2.84459 3.37677 3.12204
# Velocity P-wave (km/s) = 5.10644 5.94591 5.54209
#
# Compressibility (1/GPa) = 0.03446092
#
# Stress axis : x y z
#
# Youngs Moduli (GPa) = 19.69972 71.56282 56.26232
#
# Poissons Ratio (x) = 0.97715 0.55569
# Poissons Ratio (y) = 0.26899 0.02775
# Poissons Ratio (z) = 0.19457 0.03530
#
# Static dielectric constant tensor:
#      x y z
#    x 1.701270 0.000000 0.000000 
#    y 0.000000 1.648360 0.000000 
#    z 0.000000 0.000000 1.630850 
# 
# From -- ./inp_files/16427.got.cif
#   From: 2010.05.17/outbox.cif.g08.bks.cpg/sg44_9_cif.got.tgz:16427.got - 2010.06.03 19:37:08.
