data_PCOD9374397
_publ_section_title
;
Structure prediction by ZEFSAII (Michael W. Deem and Ramdas Pophale) SiO2 
 PCOD9374397
Probable space group: I M M 2
;
_chemical_formula_sum "Si O2"
_cell_formula_units_Z 64
_cell_length_a 31.479845
_cell_length_b 8.791135
_cell_length_c 14.782959
_cell_angle_alpha 90.000000
_cell_angle_beta 90.000000
_cell_angle_gamma 90.000000
_cell_volume 4091.088807
_symmetry_space_group_name_H-M "I M M 2"
_symmetry_group_IT_number 44
_symmetry_cell_setting 'orthorhombic'
loop_
_space_group_symop_operation_xyz
x,y,z
-x,-y,z
-x,y,z
x,-y,z
1/2+x,1/2+y,1/2+z
1/2-x,1/2-y,1/2+z
1/2-x,1/2+y,1/2+z
1/2+x,1/2-y,1/2+z
loop_
_atom_site_type_symbol
_atom_site_label
_atom_site_fract_x
_atom_site_fract_y
_atom_site_fract_z
Si Si1 0.951769 0.316972 0.033410
Si Si2 0.866613 0.679831 0.326312
Si Si3 0.233305 0.818421 0.644237
Si Si4 0.289126 0.683032 0.347847
Si Si5 0.294418 0.680795 0.945819
Si Si6 0.869374 0.821884 0.961224
Si Si7 0.324733 0.675607 0.655322
Si Si8 0.452138 0.185337 0.742718
O O1 0.950622 0.500000 0.033579
O O2 0.944000 0.267433 0.138229
O O3 0.000000 0.269797 0.009890
O O4 0.914937 0.257062 0.968599
O O5 0.867215 0.500000 0.342955
O O6 0.837325 0.757842 0.400871
O O7 0.843895 0.715180 0.230960
O O8 0.914785 0.735970 0.309519
O O9 0.211905 0.785444 0.740759
O O10 0.207783 0.784757 0.552730
O O11 0.276367 0.722947 0.640340
O O12 0.243232 0.000000 0.643336
O O13 0.287248 0.500000 0.360522
O O14 0.247098 0.750000 0.395782
O O15 0.332862 0.738115 0.393868
O O16 0.292397 0.500000 0.934094
O O17 0.875864 0.000000 0.941075
O O18 0.849006 0.809090 0.060992
O O19 0.327803 0.500000 0.685796
O O20 0.500000 0.232663 0.766920
O O21 0.451343 0.000000 0.742305
#
# Coordination Sequence:
#
# PCOD9374397 Si02
#       8
#     8   8   8   8   8   8   8   8
#     4   9  17  30  48  69  95 127 161 194 231 284
#     4  11  20  31  49  70  95 132 164 194 236 286
#     4  10  21  35  50  66  92 130 167 199 237 281
#     4  10  20  35  50  67  92 128 166 198 236 284
#     4  11  22  33  47  71  97 125 162 202 239 282
#     4  10  20  31  46  70  99 128 159 199 243 281
#     4  11  20  29  45  71 100 127 159 200 237 276
#     4   8  15  28  46  68  92 120 157 194 227 277
#
# _framework density 15.643758
#
# number of rings (size 3 to 8) (size 9 to 14) (size 15 to 20)
#    0.000    2.000    3.750    1.875    0.000    1.750 
#    0.000    0.000    0.000    1.500    0.000    0.875 
#    0.000    5.000    0.000    0.000    0.000    0.000 
#
# Total GULP energy -178395.996798 kJ/mol
# GULP energy per Si atom -5574.874900 kJ/mol
# Density = 1.560815 g / cm^3
# Si number density = 15.643758 Si / 1000 Ang^3
#
#
#
# Elastic Constant Matrix: (Units=GPa)
#
#
# Indices 1 2 3 4 5 6 
#
# 1 138.9645 31.2318 51.8821 0.0000 0.0000 0.0000
# 2 31.2318 16.8466 26.0131 0.0000 0.0000 0.0000
# 3 51.8821 26.0131 77.6795 0.0000 0.0000 0.0000
# 4 0.0000 0.0000 0.0000 15.6034 0.0000 0.0000
# 5 0.0000 0.0000 0.0000 0.0000 21.2713 0.0000
# 6 0.0000 0.0000 0.0000 0.0000 0.0000 16.8131
#
#
#
# Elastic Compliance Matrix: (Units=1/GPa)
#
#
# Indices 1 2 3 4 5 6 
#
# 1 0.012390 -0.021106 -0.001208 0.000000 0.000000 0.000000
# 2 -0.021106 0.158871 -0.039106 0.000000 0.000000 0.000000
# 3 -0.001208 -0.039106 0.026776 0.000000 0.000000 0.000000
# 4 0.000000 0.000000 0.000000 0.064089 0.000000 0.000000
# 5 0.000000 0.000000 0.000000 0.000000 0.047012 0.000000
# 6 0.000000 0.000000 0.000000 0.000000 0.000000 0.059478
#
#
# Mechanical properties :
#
#
# Convention : Reuss Voigt Hill
#
# Bulk Modulus (GPa) = 13.29809 50.19382 31.74595
# Shear Modulus (GPa) = 9.68017 19.02847 14.35432
#
# Velocity S-wave (km/s) = 2.49024 3.49142 3.03244
# Velocity P-wave (km/s) = 4.09725 6.95762 5.70947
#
# Compressibility (1/GPa) = 0.07519877
#
# Stress axis : x y z
#
# Youngs Moduli (GPa) = 80.70743 6.29441 37.34730
#
# Poissons Ratio (x) = 0.13285 0.04511
# Poissons Ratio (y) = 1.70339 1.46050
# Poissons Ratio (z) = 0.09747 0.24615
#
# Static dielectric constant tensor:
#      x y z
#    x 1.534410 0.000000 0.000000 
#    y 0.000000 1.533260 0.000000 
#    z 0.000000 0.000000 1.516400 
# 
# From -- ./inp_files/17110.got.cif
#   From: 2010.05.17/outbox.cif.g08.bks.cpg/sg44_9_cif.got.tgz:17110.got - 2010.06.03 19:37:08.
