data_PCOD9374663
_publ_section_title
;
Structure prediction by ZEFSAII (Michael W. Deem and Ramdas Pophale) SiO2 
 PCOD9374663
Probable space group: I M M 2
;
_chemical_formula_sum "Si O2"
_cell_formula_units_Z 64
_cell_length_a 8.802268
_cell_length_b 23.794480
_cell_length_c 19.425382
_cell_angle_alpha 90.000000
_cell_angle_beta 90.000000
_cell_angle_gamma 90.000000
_cell_volume 4068.556707
_symmetry_space_group_name_H-M "I M M 2"
_symmetry_group_IT_number 44
_symmetry_cell_setting 'orthorhombic'
loop_
_space_group_symop_operation_xyz
x,y,z
-x,-y,z
-x,y,z
x,-y,z
1/2+x,1/2+y,1/2+z
1/2-x,1/2-y,1/2+z
1/2-x,1/2+y,1/2+z
1/2+x,1/2-y,1/2+z
loop_
_atom_site_type_symbol
_atom_site_label
_atom_site_fract_x
_atom_site_fract_y
_atom_site_fract_z
Si Si1 0.318759 0.379571 0.365570
Si Si2 0.819638 0.254284 0.368804
Si Si3 0.317939 0.064458 0.000487
Si Si4 0.681919 0.829544 0.088789
Si Si5 0.319080 0.775886 0.509715
Si Si6 0.818851 0.841854 0.633825
Si Si7 0.318525 0.934004 0.728267
Si Si8 0.680499 0.769093 0.225602
O O1 0.500000 0.374937 0.362709
O O2 0.247953 0.317394 0.369553
O O3 0.266241 0.414098 0.432386
O O4 0.257714 0.410263 0.297524
O O5 0.748912 0.221714 0.433449
O O6 0.772095 0.228010 0.295872
O O7 0.000000 0.257294 0.375941
O O8 0.500000 0.067333 0.987657
O O9 0.279076 0.000000 0.016014
O O10 0.284455 0.108393 0.061496
O O11 0.500000 0.819259 0.080995
O O12 0.766887 0.784056 0.041652
O O13 0.718465 0.815635 0.167955
O O14 0.500000 0.778903 0.508123
O O15 0.251563 0.821972 0.561802
O O16 0.745127 0.897271 0.665478
O O17 0.789905 0.790668 0.687793
O O18 0.000000 0.847530 0.627684
O O19 0.500000 0.926692 0.733452
O O20 0.285574 0.000000 0.720827
O O21 0.500000 0.771518 0.240338
#
# Coordination Sequence:
#
# PCOD9374663 Si02
#       8
#     8   8   8   8   8   8   8   8
#     4  12  23  34  48  71 102 139 179 215 254 300
#     4  12  22  33  51  74 102 135 170 210 259 310
#     4  10  20  34  52  73 100 138 178 212 250 298
#     4   9  18  33  51  71 100 134 168 209 253 303
#     4  11  21  33  52  75 102 132 167 210 257 309
#     4  10  20  35  54  75 102 134 170 212 257 305
#     4  11  23  37  53  74 102 139 180 217 254 300
#     4   9  18  32  50  73  99 129 166 208 256 306
#
# _framework density 15.730392999999999
#
# number of rings (size 3 to 8) (size 9 to 14) (size 15 to 20)
#    0.000    1.500    2.500    5.250    0.000    4.750 
#    0.000    0.000    0.000    0.000    0.000    0.875 
#    0.000    5.000    0.000    0.000    0.000    0.000 
#
# Total GULP energy -178738.283293 kJ/mol
# GULP energy per Si atom -5585.571353 kJ/mol
# Density = 1.569459 g / cm^3
# Si number density = 15.730393 Si / 1000 Ang^3
#
#
#
# Elastic Constant Matrix: (Units=GPa)
#
#
# Indices 1 2 3 4 5 6 
#
# 1 85.9673 45.1106 67.6806 0.0000 0.0000 0.0000
# 2 45.1106 82.3967 61.9751 0.0000 0.0000 0.0000
# 3 67.6806 61.9751 127.5956 0.0000 0.0000 0.0000
# 4 0.0000 0.0000 0.0000 16.9256 0.0000 0.0000
# 5 0.0000 0.0000 0.0000 0.0000 28.3192 0.0000
# 6 0.0000 0.0000 0.0000 0.0000 0.0000 19.2004
#
#
#
# Elastic Compliance Matrix: (Units=1/GPa)
#
#
# Indices 1 2 3 4 5 6 
#
# 1 0.021185 -0.004957 -0.008829 0.000000 0.000000 0.000000
# 2 -0.004957 0.020283 -0.007222 0.000000 0.000000 0.000000
# 3 -0.008829 -0.007222 0.016028 0.000000 0.000000 0.000000
# 4 0.000000 0.000000 0.000000 0.059082 0.000000 0.000000
# 5 0.000000 0.000000 0.000000 0.000000 0.035312 0.000000
# 6 0.000000 0.000000 0.000000 0.000000 0.000000 0.052082
#
#
# Mechanical properties :
#
#
# Convention : Reuss Voigt Hill
#
# Bulk Modulus (GPa) = 64.60539 71.72138 68.16339
# Shear Modulus (GPa) = 19.90858 20.96861 20.43859
#
# Velocity S-wave (km/s) = 3.56140 3.65499 3.60850
# Velocity P-wave (km/s) = 7.62044 7.96900 7.79667
#
# Compressibility (1/GPa) = 0.01547858
#
# Stress axis : x y z
#
# Youngs Moduli (GPa) = 47.20391 49.30355 62.38933
#
# Poissons Ratio (x) = 0.24441 0.55085
# Poissons Ratio (y) = 0.23400 0.45058
# Poissons Ratio (z) = 0.41677 0.35607
#
# Static dielectric constant tensor:
#      x y z
#    x 1.524390 0.000000 0.000000 
#    y 0.000000 1.508560 0.000000 
#    z 0.000000 0.000000 1.520710 
# 
# From -- ./inp_files/20787.got.cif
#   From: 2010.05.17/outbox.cif.g08.bks.cpg/sg44_11_cif.got.tgz:20787.got - 2010.06.03 19:37:08.
