data_PCOD9374645
_publ_section_title
;
Structure prediction by ZEFSAII (Michael W. Deem and Ramdas Pophale) SiO2 
 PCOD9374645
Probable space group: I M M 2
;
_chemical_formula_sum "Si O2"
_cell_formula_units_Z 58
_cell_length_a 7.767463
_cell_length_b 26.945415
_cell_length_c 13.231225
_cell_angle_alpha 90.000000
_cell_angle_beta 90.000000
_cell_angle_gamma 90.000000
_cell_volume 2769.262500
_symmetry_space_group_name_H-M "I M M 2"
_symmetry_group_IT_number 44
_symmetry_cell_setting 'orthorhombic'
loop_
_space_group_symop_operation_xyz
x,y,z
-x,-y,z
-x,y,z
x,-y,z
1/2+x,1/2+y,1/2+z
1/2-x,1/2-y,1/2+z
1/2-x,1/2+y,1/2+z
1/2+x,1/2-y,1/2+z
loop_
_atom_site_type_symbol
_atom_site_label
_atom_site_fract_x
_atom_site_fract_y
_atom_site_fract_z
Si Si1 0.198534 0.574535 0.458540
Si Si2 0.297708 0.347330 0.170625
Si Si3 0.705681 0.882183 0.376560
Si Si4 0.704519 0.445142 0.685173
Si Si5 0.706391 0.184143 0.892698
Si Si6 0.297592 0.285767 0.982513
Si Si7 0.500000 0.500000 0.395230
Si Si8 0.204520 0.444431 0.070287
O O1 0.207291 0.561251 0.577173
O O2 0.242215 0.632650 0.448777
O O3 0.345683 0.542790 0.403573
O O4 0.000000 0.566583 0.422735
O O5 0.500000 0.351460 0.152283
O O6 0.267551 0.323488 0.278589
O O7 0.221870 0.312311 0.082202
O O8 0.231725 0.403575 0.157354
O O9 0.500000 0.878868 0.385650
O O10 0.750121 0.904944 0.268729
O O11 0.779551 0.827701 0.396688
O O12 0.770841 0.918675 0.466670
O O13 0.500000 0.444100 0.665650
O O14 0.749358 0.500000 0.725934
O O15 0.500000 0.189218 0.887924
O O16 0.776625 0.233345 0.946842
O O17 0.500000 0.277406 0.002991
O O18 0.274704 0.500000 0.088010
O O19 0.000000 0.449071 0.057932
#
# Coordination Sequence:
#
# PCOD9374645 Si02
#       8
#     8   8   8   8   8   8   2   8
#     4  11  23  41  64  90 125 167 206 254 309 367
#     4  10  21  37  61  87 116 148 191 245 303 359
#     4  10  20  33  55  87 118 157 203 248 307 367
#     4  11  21  36  56  86 122 163 207 254 306 368
#     4  10  23  42  64  88 117 155 200 246 301 365
#     4   9  20  41  61  84 117 155 197 253 306 360
#     4  12  22  44  64  90 128 162 210 252 310 366
#     4   9  18  35  55  79 115 157 201 244 290 355
#
# _framework density 20.944203999999999
#
# number of rings (size 3 to 8) (size 9 to 14) (size 15 to 20)
#    0.000    1.931    1.379    1.862    0.966    4.414 
#    1.241    1.379    0.000    0.000    0.000    0.000 
#    0.000    0.000    0.000    0.000    0.000    0.000 
#
# Total GULP energy -161649.892476 kJ/mol
# GULP energy per Si atom -5574.134223 kJ/mol
# Density = 2.089653 g / cm^3
# Si number density = 20.944204 Si / 1000 Ang^3
#
#
#
# Elastic Constant Matrix: (Units=GPa)
#
#
# Indices 1 2 3 4 5 6 
#
# 1 66.9898 32.7675 -0.2336 0.0000 0.0000 0.0000
# 2 32.7675 164.0691 27.9461 0.0001 0.0000 0.0000
# 3 -0.2336 27.9461 37.1433 -0.0002 -0.0001 0.0000
# 4 0.0000 0.0001 -0.0002 16.7151 0.0000 0.0000
# 5 0.0000 0.0000 -0.0001 0.0000 17.0792 0.0000
# 6 0.0000 0.0000 0.0000 0.0000 0.0000 22.8283
#
#
#
# Elastic Compliance Matrix: (Units=1/GPa)
#
#
# Indices 1 2 3 4 5 6 
#
# 1 0.016835 -0.003877 0.003023 0.000000 0.000000 0.000000
# 2 -0.003877 0.007884 -0.005956 0.000000 0.000000 0.000000
# 3 0.003023 -0.005956 0.031423 0.000000 0.000000 0.000000
# 4 0.000000 0.000000 0.000000 0.059826 0.000000 0.000000
# 5 0.000000 0.000000 0.000000 0.000000 0.058551 0.000000
# 6 0.000000 0.000000 0.000000 0.000000 0.000000 0.043805
#
#
# Mechanical properties :
#
#
# Convention : Reuss Voigt Hill
#
# Bulk Modulus (GPa) = 23.51771 43.24024 33.37898
# Shear Modulus (GPa) = 20.31547 25.17266 22.74406
#
# Velocity S-wave (km/s) = 3.11783 3.47059 3.29893
# Velocity P-wave (km/s) = 4.92080 6.06220 5.52108
#
# Compressibility (1/GPa) = 0.04252114
#
# Stress axis : x y z
#
# Youngs Moduli (GPa) = 59.40134 126.84209 31.82375
#
# Poissons Ratio (x) = 0.49178 -0.09620
# Poissons Ratio (y) = 0.23030 0.18954
# Poissons Ratio (z) = -0.17957 0.75548
#
# Static dielectric constant tensor:
#      x y z
#    x 1.769370 0.000000 0.000000 
#    y 0.000000 1.781920 0.000000 
#    z 0.000000 0.000000 1.755020 
# 
# From -- ./inp_files/16731.got.cif
#   From: 2010.05.17/outbox.cif.g08.bks.cpg/sg44_9_cif.got.tgz:16731.got - 2010.06.03 19:37:08.
