data_PCOD9374153
_publ_section_title
;
Structure prediction by ZEFSAII (Michael W. Deem and Ramdas Pophale) SiO2 
 PCOD9374153
Probable space group: I M M 2
;
_chemical_formula_sum "Si O2"
_cell_formula_units_Z 48
_cell_length_a 18.345861
_cell_length_b 15.770848
_cell_length_c 7.497658
_cell_angle_alpha 90.000000
_cell_angle_beta 90.000000
_cell_angle_gamma 90.000000
_cell_volume 2169.295779
_symmetry_space_group_name_H-M "I M M 2"
_symmetry_group_IT_number 44
_symmetry_cell_setting 'orthorhombic'
loop_
_space_group_symop_operation_xyz
x,y,z
-x,-y,z
-x,y,z
x,-y,z
1/2+x,1/2+y,1/2+z
1/2-x,1/2-y,1/2+z
1/2-x,1/2+y,1/2+z
1/2+x,1/2-y,1/2+z
loop_
_atom_site_type_symbol
_atom_site_label
_atom_site_fract_x
_atom_site_fract_y
_atom_site_fract_z
Si Si1 0.782301 0.405148 0.262010
Si Si2 0.742955 0.594064 0.685678
Si Si3 0.416242 0.192810 0.829719
Si Si4 0.920718 0.128300 0.197271
Si Si5 0.580986 0.591408 0.290396
Si Si6 0.180123 0.237327 0.655779
O O1 0.769843 0.500000 0.195261
O O2 0.748010 0.400497 0.465496
O O3 0.868563 0.386981 0.271889
O O4 0.747610 0.328697 0.147865
O O5 0.771194 0.500000 0.730023
O O6 0.660037 0.601015 0.759652
O O7 0.789054 0.676336 0.741743
O O8 0.500000 0.174822 0.881614
O O9 0.418542 0.269573 0.688603
O O10 0.365521 0.232810 0.984679
O O11 0.000000 0.107990 0.286440
O O12 0.924191 0.089278 0.002594
O O13 0.500000 0.598538 0.215161
O O14 0.611335 0.500000 0.229136
O O15 0.623671 0.676214 0.252227
#
# Coordination Sequence:
#
# PCOD9374153 Si02
#       6
#     8   8   8   8   8   8
#     4  10  20  36  60  85 112 151 194 237 287 348
#     4  10  20  35  56  82 110 145 192 236 279 342
#     4  10  22  38  57  85 120 156 193 241 301 349
#     4  10  19  34  56  80 112 151 190 231 283 348
#     4  10  20  35  59  86 111 147 191 231 282 352
#     4  11  20  35  60  85 117 145 187 247 296 336
#
# _framework density 22.126995999999998
#
# number of rings (size 3 to 8) (size 9 to 14) (size 15 to 20)
#    0.000    1.833    3.333    1.500    0.000    1.333 
#    0.000    3.333    0.000    7.500    0.000    2.333 
#    0.000    0.000    0.000    0.000    0.000    0.000 
#
# Total GULP energy -133657.837643 kJ/mol
# GULP energy per Si atom -5569.076568 kJ/mol
# Density = 2.207663 g / cm^3
# Si number density = 22.126996 Si / 1000 Ang^3
#
#
#
# Elastic Constant Matrix: (Units=GPa)
#
#
# Indices 1 2 3 4 5 6 
#
# 1 162.2029 92.8427 21.6607 0.0000 0.0000 0.0000
# 2 92.8427 196.2216 16.7905 0.0000 0.0000 0.0000
# 3 21.6607 16.7905 35.4423 0.0000 0.0000 0.0000
# 4 0.0000 0.0000 0.0000 15.5154 0.0000 0.0000
# 5 0.0000 0.0000 0.0000 0.0000 20.3671 0.0000
# 6 0.0000 0.0000 0.0000 0.0000 0.0000 -36.5619
#
#
#
# Elastic Compliance Matrix: (Units=1/GPa)
#
#
# Indices 1 2 3 4 5 6 
#
# 1 0.008870 -0.003891 -0.003578 0.000000 0.000000 0.000000
# 2 -0.003891 0.007018 -0.000947 0.000000 0.000000 0.000000
# 3 -0.003578 -0.000947 0.030850 0.000000 0.000000 0.000000
# 4 0.000000 0.000000 0.000000 0.064452 0.000000 0.000000
# 5 0.000000 0.000000 0.000000 0.000000 0.049099 0.000000
# 6 0.000000 0.000000 0.000000 0.000000 0.000000 -0.027351
#
#
# Mechanical properties :
#
#
# Convention : Reuss Voigt Hill
#
# Bulk Modulus (GPa) = 33.43658 72.93938 53.18798
# Shear Modulus (GPa) = 31.30131 17.36899 24.33515
#
# Velocity S-wave (km/s) = 3.76523 2.80477 3.31991
# Velocity P-wave (km/s) = 5.83494 6.59731 6.22780
#
# Compressibility (1/GPa) = 0.02990736
#
# Stress axis : x y z
#
# Youngs Moduli (GPa) = 112.74170 142.48705 32.41490
#
# Poissons Ratio (x) = 0.55437 0.11597
# Poissons Ratio (y) = 0.43864 0.03070
# Poissons Ratio (z) = 0.40335 0.13494
#
# Static dielectric constant tensor:
#      x y z
#    x 1.906200 0.000000 0.000000 
#    y 0.000000 1.841020 0.000000 
#    z 0.000000 0.000000 1.876610 
# 
# From -- ./inp_files/8124.got.cif
#   From: 2010.05.17/outbox.cif.g08.bks.cpg/sg44_5_cif.got.tgz:8124.got - 2010.06.03 19:37:08.
