data_PCOD9374019
_publ_section_title
;
Structure prediction by ZEFSAII (Michael W. Deem and Ramdas Pophale) SiO2 
 PCOD9374019
Probable space group: I M M 2
;
_chemical_formula_sum "Si O2"
_cell_formula_units_Z 64
_cell_length_a 9.101220
_cell_length_b 33.423059
_cell_length_c 12.031738
_cell_angle_alpha 90.000000
_cell_angle_beta 90.000000
_cell_angle_gamma 90.000000
_cell_volume 3659.941758
_symmetry_space_group_name_H-M "I M M 2"
_symmetry_group_IT_number 44
_symmetry_cell_setting 'orthorhombic'
loop_
_space_group_symop_operation_xyz
x,y,z
-x,-y,z
-x,y,z
x,-y,z
1/2+x,1/2+y,1/2+z
1/2-x,1/2-y,1/2+z
1/2-x,1/2+y,1/2+z
1/2+x,1/2-y,1/2+z
loop_
_atom_site_type_symbol
_atom_site_label
_atom_site_fract_x
_atom_site_fract_y
_atom_site_fract_z
Si Si1 0.821971 0.547087 0.073520
Si Si2 0.325230 0.828217 0.296521
Si Si3 0.823265 0.853457 0.949697
Si Si4 0.174651 0.899983 0.167504
Si Si5 0.322553 0.380811 0.202667
Si Si6 0.166417 0.547598 0.824259
Si Si7 0.675379 0.219180 0.077192
Si Si8 0.676838 0.689592 0.029536
O O1 0.781844 0.500000 0.090823
O O2 0.751340 0.578422 0.158708
O O3 0.000000 0.549067 0.077876
O O4 0.778442 0.560040 0.947225
O O5 0.500000 0.832826 0.305590
O O6 0.250689 0.867463 0.246515
O O7 0.294163 0.794644 0.203266
O O8 0.255093 0.819148 0.414071
O O9 0.778443 0.867725 0.827284
O O10 0.000000 0.848376 0.949298
O O11 0.786279 0.887189 0.042161
O O12 0.753257 0.812104 0.994041
O O13 0.236014 0.940386 0.219722
O O14 0.000000 0.898162 0.177322
O O15 0.500000 0.385763 0.201472
O O16 0.284784 0.344212 0.119868
O O17 0.158167 0.500000 0.831662
O O18 0.000000 0.563182 0.809428
O O19 0.500000 0.215694 0.059568
O O20 0.717983 0.265251 0.063455
O O21 0.500000 0.688414 0.016147
#
# Coordination Sequence:
#
# PCOD9374019 Si02
#       8
#     8   8   8   8   8   8   8   8
#     4   9  19  36  56  79 109 140 173 219 269 317
#     4  10  20  34  53  75 100 134 172 209 259 314
#     4   9  20  37  55  74 103 143 181 217 263 314
#     4  10  19  33  53  76 103 135 173 216 259 308
#     4  10  21  36  55  78 106 142 180 221 266 318
#     4   9  18  33  54  80 109 138 170 214 266 319
#     4   9  20  36  53  75 103 136 174 218 265 312
#     4  10  21  35  52  77 107 134 170 222 267 309
#
# _framework density 17.486616000000001
#
# number of rings (size 3 to 8) (size 9 to 14) (size 15 to 20)
#    0.000    2.500    0.000    2.250    1.750    5.500 
#    0.000    1.875    0.000    3.750    0.000    0.000 
#    0.000    0.000    0.000    0.000    0.000    0.000 
#
# Total GULP energy -178400.562906 kJ/mol
# GULP energy per Si atom -5575.017591 kJ/mol
# Density = 1.744682 g / cm^3
# Si number density = 17.486616 Si / 1000 Ang^3
#
#
#
# Elastic Constant Matrix: (Units=GPa)
#
#
# Indices 1 2 3 4 5 6 
#
# 1 24.7853 29.6289 46.4836 -0.0001 0.0000 0.0000
# 2 29.6289 86.1990 74.6606 0.0000 0.0000 0.0000
# 3 46.4836 74.6606 142.5949 0.0001 0.0000 0.0000
# 4 -0.0001 0.0000 0.0001 17.2997 0.0000 0.0000
# 5 0.0000 0.0000 0.0000 0.0000 26.9703 0.0000
# 6 0.0000 0.0000 0.0000 0.0000 0.0000 29.7106
#
#
#
# Elastic Compliance Matrix: (Units=1/GPa)
#
#
# Indices 1 2 3 4 5 6 
#
# 1 0.110642 -0.012426 -0.029561 0.000001 0.000000 0.000000
# 2 -0.012426 0.022624 -0.007795 0.000000 0.000000 0.000000
# 3 -0.029561 -0.007795 0.020730 0.000000 0.000000 0.000000
# 4 0.000001 0.000000 0.000000 0.057805 0.000000 0.000000
# 5 0.000000 0.000000 0.000000 0.000000 0.037078 0.000000
# 6 0.000000 0.000000 0.000000 0.000000 0.000000 0.033658
#
#
# Mechanical properties :
#
#
# Convention : Reuss Voigt Hill
#
# Bulk Modulus (GPa) = 18.37169 61.68060 40.02614
# Shear Modulus (GPa) = 12.49237 21.64985 17.07111
#
# Velocity S-wave (km/s) = 2.67572 3.52245 3.12787
# Velocity P-wave (km/s) = 4.48050 7.20369 5.99867
#
# Compressibility (1/GPa) = 0.05443157
#
# Stress axis : x y z
#
# Youngs Moduli (GPa) = 9.03817 44.20172 48.23821
#
# Poissons Ratio (x) = 0.54927 1.42598
# Poissons Ratio (y) = 0.11231 0.37599
# Poissons Ratio (z) = 0.26718 0.34453
#
# Static dielectric constant tensor:
#      x y z
#    x 1.592130 0.000000 0.000000 
#    y 0.000000 1.630720 0.000000 
#    z 0.000000 0.000000 1.588110 
# 
# From -- ./inp_files/11515.got.cif
#   From: 2010.05.17/outbox.cif.g08.bks.cpg/sg44_6_cif.got.tgz:11515.got - 2010.06.03 19:37:08.
