data_PCOD9374407
_publ_section_title
;
Structure prediction by ZEFSAII (Michael W. Deem and Ramdas Pophale) SiO2 
 PCOD9374407
Probable space group: I M M 2
;
_chemical_formula_sum "Si O2"
_cell_formula_units_Z 64
_cell_length_a 18.594821
_cell_length_b 17.046489
_cell_length_c 12.112112
_cell_angle_alpha 90.000000
_cell_angle_beta 90.000000
_cell_angle_gamma 90.000000
_cell_volume 3839.253799
_symmetry_space_group_name_H-M "I M M 2"
_symmetry_group_IT_number 44
_symmetry_cell_setting 'orthorhombic'
loop_
_space_group_symop_operation_xyz
x,y,z
-x,-y,z
-x,y,z
x,-y,z
1/2+x,1/2+y,1/2+z
1/2-x,1/2-y,1/2+z
1/2-x,1/2+y,1/2+z
1/2+x,1/2-y,1/2+z
loop_
_atom_site_type_symbol
_atom_site_label
_atom_site_fract_x
_atom_site_fract_y
_atom_site_fract_z
Si Si1 0.188551 0.591236 0.097870
Si Si2 0.713583 0.343805 0.290326
Si Si3 0.581090 0.908586 0.904855
Si Si4 0.180525 0.905875 0.446519
Si Si5 0.230552 0.406326 0.519203
Si Si6 0.581770 0.198466 0.685641
Si Si7 0.791458 0.814056 0.227492
Si Si8 0.415828 0.594742 0.152255
O O1 0.176325 0.500000 0.084868
O O2 0.230589 0.606978 0.213142
O O3 0.114573 0.637464 0.098541
O O4 0.245594 0.618585 0.007031
O O5 0.725700 0.370976 0.415264
O O6 0.737676 0.254131 0.270820
O O7 0.635280 0.363707 0.241752
O O8 0.500000 0.901760 0.951483
O O9 0.646411 0.893224 0.988250
O O10 0.585448 0.848321 0.802738
O O11 0.588993 0.000000 0.866416
O O12 0.181454 0.866517 0.328557
O O13 0.116587 0.884478 0.531370
O O14 0.180119 0.000000 0.436807
O O15 0.242118 0.500000 0.526380
O O16 0.254393 0.363592 0.630833
O O17 0.500000 0.220888 0.665728
O O18 0.637781 0.269084 0.685033
O O19 0.500000 0.613386 0.160953
O O20 0.407234 0.500000 0.164359
#
# Coordination Sequence:
#
# PCOD9374407 Si02
#       8
#     8   8   8   8   8   8   8   8
#     4   9  16  30  54  78 102 132 169 218 269 323
#     4  10  20  32  55  80 110 138 184 229 277 322
#     4   9  17  31  54  84 112 136 172 224 281 339
#     4   9  19  35  55  78 104 138 179 223 268 326
#     4  11  21  36  57  81 111 155 190 224 275 338
#     4  10  20  31  48  77 109 136 169 221 278 322
#     4  11  23  34  53  77 114 144 186 224 273 326
#     4   9  18  34  58  84 108 138 181 235 283 321
#
# _framework density 16.669905
#
# number of rings (size 3 to 8) (size 9 to 14) (size 15 to 20)
#    0.000    2.250    2.500    2.625    5.250    1.250 
#    0.000    2.500    0.000    2.625    0.000    1.750 
#    0.000    0.000    0.000    0.000    0.000    0.000 
#
# Total GULP energy -178371.667759 kJ/mol
# GULP energy per Si atom -5574.114617 kJ/mol
# Density = 1.663196 g / cm^3
# Si number density = 16.669905 Si / 1000 Ang^3
#
#
#
# Elastic Constant Matrix: (Units=GPa)
#
#
# Indices 1 2 3 4 5 6 
#
# 1 132.7359 48.0453 39.2968 0.0000 0.0000 0.0000
# 2 48.0453 54.5904 34.2718 0.0000 0.0000 0.0000
# 3 39.2968 34.2718 54.5435 0.0000 0.0000 0.0000
# 4 0.0000 0.0000 0.0000 26.5636 0.0000 0.0000
# 5 0.0000 0.0000 0.0000 0.0000 15.4485 0.0000
# 6 0.0000 0.0000 0.0000 0.0000 0.0000 17.4732
#
#
#
# Elastic Compliance Matrix: (Units=1/GPa)
#
#
# Indices 1 2 3 4 5 6 
#
# 1 0.011373 -0.008035 -0.003145 0.000000 0.000000 0.000000
# 2 -0.008035 0.035928 -0.016786 0.000000 0.000000 0.000000
# 3 -0.003145 -0.016786 0.031148 0.000000 0.000000 0.000000
# 4 0.000000 0.000000 0.000000 0.037646 0.000000 0.000000
# 5 0.000000 0.000000 0.000000 0.000000 0.064731 0.000000
# 6 0.000000 0.000000 0.000000 0.000000 0.000000 0.057230
#
#
# Mechanical properties :
#
#
# Convention : Reuss Voigt Hill
#
# Bulk Modulus (GPa) = 44.41289 53.89974 49.15631
# Shear Modulus (GPa) = 16.58403 19.91410 18.24907
#
# Velocity S-wave (km/s) = 3.15754 3.46007 3.31226
# Velocity P-wave (km/s) = 6.32407 6.95460 6.64682
#
# Compressibility (1/GPa) = 0.02251599
#
# Stress axis : x y z
#
# Youngs Moduli (GPa) = 87.92489 27.83324 32.10529
#
# Poissons Ratio (x) = 0.22364 0.10098
# Poissons Ratio (y) = 0.70648 0.53892
# Poissons Ratio (z) = 0.27656 0.46721
#
# Static dielectric constant tensor:
#      x y z
#    x 1.568050 0.000000 0.000000 
#    y 0.000000 1.561360 0.000000 
#    z 0.000000 0.000000 1.553950 
# 
# From -- ./inp_files/13415.got.cif
#   From: 2010.05.17/outbox.cif.g08.bks.cpg/sg44_7_cif.got.tgz:13415.got - 2010.06.03 19:37:08.
