data_PCOD9374022
_publ_section_title
;
Structure prediction by ZEFSAII (Michael W. Deem and Ramdas Pophale) SiO2 
 PCOD9374022
Probable space group: I M M 2
;
_chemical_formula_sum "Si O2"
_cell_formula_units_Z 64
_cell_length_a 35.030740
_cell_length_b 8.573361
_cell_length_c 12.133388
_cell_angle_alpha 90.000000
_cell_angle_beta 90.000000
_cell_angle_gamma 90.000000
_cell_volume 3644.034737
_symmetry_space_group_name_H-M "I M M 2"
_symmetry_group_IT_number 44
_symmetry_cell_setting 'orthorhombic'
loop_
_space_group_symop_operation_xyz
x,y,z
-x,-y,z
-x,y,z
x,-y,z
1/2+x,1/2+y,1/2+z
1/2-x,1/2-y,1/2+z
1/2-x,1/2+y,1/2+z
1/2+x,1/2-y,1/2+z
loop_
_atom_site_type_symbol
_atom_site_label
_atom_site_fract_x
_atom_site_fract_y
_atom_site_fract_z
Si Si1 0.375236 0.813213 0.764950
Si Si2 0.457856 0.690109 0.083326
Si Si3 0.330343 0.318299 0.976558
Si Si4 0.180387 0.685747 0.835083
Si Si5 0.043415 0.811531 0.327062
Si Si6 0.185477 0.688962 0.084693
Si Si7 0.883359 0.817226 0.693285
Si Si8 0.232276 0.687192 0.632876
O O1 0.350878 0.757733 0.871595
O O2 0.418624 0.750157 0.767743
O O3 0.350687 0.762784 0.658334
O O4 0.377010 0.000000 0.767160
O O5 0.500000 0.737858 0.117686
O O6 0.456129 0.500000 0.083146
O O7 0.452194 0.735814 0.955877
O O8 0.424887 0.745469 0.163376
O O9 0.323272 0.500000 0.952280
O O10 0.359736 0.307628 0.078985
O O11 0.291649 0.243742 0.025662
O O12 0.185394 0.500000 0.839770
O O13 0.184192 0.746502 0.958587
O O14 0.139258 0.725354 0.785524
O O15 0.210217 0.744908 0.742957
O O16 0.000000 0.763796 0.292410
O O17 0.044189 0.000000 0.322956
O O18 0.186139 0.500000 0.084485
O O19 0.225089 0.749398 0.133768
O O20 0.885082 0.000000 0.723555
O O21 0.232186 0.500000 0.632697
#
# Coordination Sequence:
#
# PCOD9374022 Si02
#       8
#     8   8   8   8   8   8   8   8
#     4  11  22  34  52  80 112 143 182 226 266 314
#     4   8  13  24  45  74 105 133 162 199 250 312
#     4  10  19  33  53  76 106 141 174 209 262 321
#     4   9  20  38  54  70  98 135 173 210 259 311
#     4   9  17  32  54  78 108 145 180 217 270 332
#     4  10  23  40  54  73 104 143 178 217 266 318
#     4   9  16  29  51  76  99 131 169 207 252 304
#     4  10  21  36  56  81 102 129 173 224 269 314
#
# _framework density 17.562951000000002
#
# number of rings (size 3 to 8) (size 9 to 14) (size 15 to 20)
#    0.000    2.500    1.250    1.875    1.750    2.750 
#    0.000    0.000    0.000    1.125    0.000    3.500 
#    0.000    0.000    0.000    0.000    0.000    0.000 
#
# Total GULP energy -178362.013809 kJ/mol
# GULP energy per Si atom -5573.812932 kJ/mol
# Density = 1.752298 g / cm^3
# Si number density = 17.562951 Si / 1000 Ang^3
#
#
#
# Elastic Constant Matrix: (Units=GPa)
#
#
# Indices 1 2 3 4 5 6 
#
# 1 162.9809 20.2183 64.5973 0.0000 0.0000 0.0000
# 2 20.2183 13.3736 20.0179 0.0000 0.0000 0.0000
# 3 64.5973 20.0179 90.7472 0.0000 0.0000 0.0000
# 4 0.0000 0.0000 0.0000 15.5045 0.0000 0.0000
# 5 0.0000 0.0000 0.0000 0.0000 21.1292 0.0000
# 6 0.0000 0.0000 0.0000 0.0000 0.0000 27.8612
#
#
#
# Elastic Compliance Matrix: (Units=1/GPa)
#
#
# Indices 1 2 3 4 5 6 
#
# 1 0.008848 -0.005896 -0.004998 0.000000 0.000000 0.000000
# 2 -0.005896 0.115562 -0.021295 0.000000 0.000000 0.000000
# 3 -0.004998 -0.021295 0.019275 0.000000 0.000000 0.000000
# 4 0.000000 0.000000 0.000000 0.064497 0.000000 0.000000
# 5 0.000000 0.000000 0.000000 0.000000 0.047328 0.000000
# 6 0.000000 0.000000 0.000000 0.000000 0.000000 0.035892
#
#
# Mechanical properties :
#
#
# Convention : Reuss Voigt Hill
#
# Bulk Modulus (GPa) = 12.60909 52.97430 32.79170
# Shear Modulus (GPa) = 13.08165 23.71687 18.39926
#
# Velocity S-wave (km/s) = 2.73214 3.67875 3.24020
# Velocity P-wave (km/s) = 4.14099 6.94783 5.71927
#
# Compressibility (1/GPa) = 0.07930785
#
# Stress axis : x y z
#
# Youngs Moduli (GPa) = 113.02100 8.65336 51.88151
#
# Poissons Ratio (x) = 0.05102 0.25929
# Poissons Ratio (y) = 0.66632 1.10482
# Poissons Ratio (z) = 0.56485 0.18427
#
# Static dielectric constant tensor:
#      x y z
#    x 1.613460 0.000000 0.000000 
#    y 0.000000 1.603370 0.000000 
#    z 0.000000 0.000000 1.589430 
# 
# From -- ./inp_files/15116.got.cif
#   From: 2010.05.17/outbox.cif.g08.bks.cpg/sg44_8_cif.got.tgz:15116.got - 2010.06.03 19:37:08.
