data_PCOD9374680
_publ_section_title
;
Structure prediction by ZEFSAII (Michael W. Deem and Ramdas Pophale) SiO2 
 PCOD9374680
Probable space group: I M M 2
;
_chemical_formula_sum "Si O2"
_cell_formula_units_Z 64
_cell_length_a 28.386608
_cell_length_b 18.153117
_cell_length_c 6.914370
_cell_angle_alpha 90.000000
_cell_angle_beta 90.000000
_cell_angle_gamma 90.000000
_cell_volume 3563.012311
_symmetry_space_group_name_H-M "I M M 2"
_symmetry_group_IT_number 44
_symmetry_cell_setting 'orthorhombic'
loop_
_space_group_symop_operation_xyz
x,y,z
-x,-y,z
-x,y,z
x,-y,z
1/2+x,1/2+y,1/2+z
1/2-x,1/2-y,1/2+z
1/2-x,1/2+y,1/2+z
1/2+x,1/2-y,1/2+z
loop_
_atom_site_type_symbol
_atom_site_label
_atom_site_fract_x
_atom_site_fract_y
_atom_site_fract_z
Si Si1 0.944441 0.803753 0.246230
Si Si2 0.389974 0.584350 0.475952
Si Si3 0.700426 0.305686 0.983331
Si Si4 0.054431 0.081203 0.581190
Si Si5 0.859732 0.705697 0.213546
Si Si6 0.694359 0.186369 0.321034
Si Si7 0.704330 0.412276 0.301096
Si Si8 0.807168 0.587903 0.463310
O O1 0.921935 0.859828 0.092635
O O2 0.937721 0.849090 0.445032
O O3 0.913779 0.729822 0.234866
O O4 0.000000 0.792857 0.216049
O O5 0.390958 0.500000 0.550285
O O6 0.411073 0.582577 0.260919
O O7 0.336178 0.610400 0.451683
O O8 0.691200 0.251009 0.163240
O O9 0.692312 0.383618 0.086644
O O10 0.669062 0.274092 0.810419
O O11 0.754415 0.306455 0.917269
O O12 0.000000 0.084663 0.648696
O O13 0.059508 0.000000 0.484223
O O14 0.844727 0.634461 0.338993
O O15 0.843154 0.693060 0.993451
O O16 0.690903 0.113714 0.186722
O O17 0.703959 0.500000 0.298767
O O18 0.755984 0.388840 0.374927
O O19 0.812086 0.500000 0.445057
#
# Coordination Sequence:
#
# PCOD9374680 Si02
#       8
#     8   8   8   8   8   8   8   8
#     4  11  23  36  55  82 108 142 190 236 276 324
#     4  10  20  34  52  77 113 155 189 226 267 310
#     4  11  19  33  53  82 115 150 184 216 264 325
#     4   9  18  34  54  77 109 150 192 230 267 307
#     4  11  23  37  59  80 112 150 181 226 282 333
#     4  11  20  33  57  81 109 148 181 218 267 333
#     4  10  20  35  53  79 117 151 187 227 265 319
#     4  10  23  40  57  83 111 141 182 228 278 342
#
# _framework density 17.962327999999999
#
# number of rings (size 3 to 8) (size 9 to 14) (size 15 to 20)
#    0.000    1.625    2.500    3.000    1.750    3.250 
#    0.000    0.625    0.000    0.375    0.000    0.000 
#    0.000    0.000    0.000    0.000    0.000    0.000 
#
# Total GULP energy -178581.722581 kJ/mol
# GULP energy per Si atom -5580.678831 kJ/mol
# Density = 1.792145 g / cm^3
# Si number density = 17.962328 Si / 1000 Ang^3
#
#
#
# Elastic Constant Matrix: (Units=GPa)
#
#
# Indices 1 2 3 4 5 6 
#
# 1 87.2547 51.1958 25.4594 0.0000 0.0000 0.0000
# 2 51.1958 77.6339 38.1442 0.0000 0.0000 0.0000
# 3 25.4594 38.1442 72.3839 0.0000 0.0000 0.0000
# 4 0.0000 0.0000 0.0000 28.7019 0.0000 0.0000
# 5 0.0000 0.0000 0.0000 0.0000 19.8895 0.0000
# 6 0.0000 0.0000 0.0000 0.0000 0.0000 29.3865
#
#
#
# Elastic Compliance Matrix: (Units=1/GPa)
#
#
# Indices 1 2 3 4 5 6 
#
# 1 0.018694 -0.012276 -0.000106 0.000000 0.000000 0.000000
# 2 -0.012276 0.025442 -0.009090 0.000000 0.000000 0.000000
# 3 -0.000106 -0.009090 0.018643 0.000000 0.000000 0.000000
# 4 0.000000 0.000000 0.000000 0.034841 0.000000 0.000000
# 5 0.000000 0.000000 0.000000 0.000000 0.050278 0.000000
# 6 0.000000 0.000000 0.000000 0.000000 0.000000 0.034029
#
#
# Mechanical properties :
#
#
# Convention : Reuss Voigt Hill
#
# Bulk Modulus (GPa) = 50.41392 51.87458 51.14425
# Shear Modulus (GPa) = 21.59988 23.76045 22.68016
#
# Velocity S-wave (km/s) = 3.47148 3.64097 3.55724
# Velocity P-wave (km/s) = 6.64798 6.82773 6.73846
#
# Compressibility (1/GPa) = 0.01983579
#
# Stress axis : x y z
#
# Youngs Moduli (GPa) = 53.49181 39.30464 53.64062
#
# Poissons Ratio (x) = 0.48250 0.00570
# Poissons Ratio (y) = 0.65666 0.48757
# Poissons Ratio (z) = 0.00569 0.35726
#
# Static dielectric constant tensor:
#      x y z
#    x 1.636460 0.000000 0.000000 
#    y 0.000000 1.653380 0.000000 
#    z 0.000000 0.000000 1.639250 
# 
# From -- ./inp_files/3105.got.cif
#   From: 2010.05.17/outbox.cif.g08.bks.cpg/sg44_2_cif.got.tgz:3105.got - 2010.06.03 19:37:08.
