data_PCOD9374817
_publ_section_title
;
Structure prediction by ZEFSAII (Michael W. Deem and Ramdas Pophale) SiO2 
 PCOD9374817
Probable space group: I M M 2
;
_chemical_formula_sum "Si O2"
_cell_formula_units_Z 56
_cell_length_a 19.797591
_cell_length_b 17.310281
_cell_length_c 8.724189
_cell_angle_alpha 90.000000
_cell_angle_beta 90.000000
_cell_angle_gamma 90.000000
_cell_volume 2989.795826
_symmetry_space_group_name_H-M "I M M 2"
_symmetry_group_IT_number 44
_symmetry_cell_setting 'orthorhombic'
loop_
_space_group_symop_operation_xyz
x,y,z
-x,-y,z
-x,y,z
x,-y,z
1/2+x,1/2+y,1/2+z
1/2-x,1/2-y,1/2+z
1/2-x,1/2+y,1/2+z
1/2+x,1/2-y,1/2+z
loop_
_atom_site_type_symbol
_atom_site_label
_atom_site_fract_x
_atom_site_fract_y
_atom_site_fract_z
Si Si1 0.423342 0.180231 0.568580
Si Si2 0.893212 0.782050 0.330467
Si Si3 0.000000 0.091537 0.366569
Si Si4 0.500000 0.590051 0.236719
Si Si5 0.709143 0.089730 0.458839
Si Si6 0.373370 0.336065 0.408554
Si Si7 0.726702 0.354359 0.655800
Si Si8 0.189064 0.213228 0.603111
O O1 0.500000 0.155026 0.534074
O O2 0.418634 0.204460 0.748799
O O3 0.364194 0.124685 0.505336
O O4 0.408015 0.264106 0.494809
O O5 0.937614 0.858712 0.301744
O O6 0.820070 0.799337 0.260873
O O7 0.881134 0.780924 0.511388
O O8 0.000000 0.099706 0.551874
O O9 0.000000 0.000000 0.330017
O O10 0.500000 0.500000 0.263672
O O11 0.567307 0.621501 0.318103
O O12 0.730484 0.096362 0.278121
O O13 0.764339 0.142574 0.546325
O O14 0.713094 0.000000 0.502656
O O15 0.326719 0.384260 0.528408
O O16 0.324923 0.299122 0.280875
O O17 0.775534 0.294583 0.572469
#
# Coordination Sequence:
#
# PCOD9374817 Si02
#       8
#     8   8   4   4   8   8   8   8
#     4  11  21  38  63  89 114 154 210 249 296 365
#     4  10  20  34  60  89 116 159 203 243 292 361
#     4  11  22  37  55  87 131 164 196 245 302 365
#     4  11  24  37  53  91 135 162 198 249 304 363
#     4  11  24  40  60  91 124 153 198 263 315 353
#     4  11  20  36  64  87 117 162 207 243 293 367
#     4  10  21  37  60  89 114 155 205 253 294 366
#     4  11  19  37  64  90 118 157 204 245 305 363
#
# _framework density 18.730377000000001
#
# number of rings (size 3 to 8) (size 9 to 14) (size 15 to 20)
#    0.000    1.286    7.143    0.857    0.000    3.714 
#    0.000    5.000    0.000    0.000    0.000    0.000 
#    0.000    0.000    0.000    0.000    0.000    0.000 
#
# Total GULP energy -155874.206059 kJ/mol
# GULP energy per Si atom -5566.935931 kJ/mol
# Density = 1.868775 g / cm^3
# Si number density = 18.730377 Si / 1000 Ang^3
#
#
#
# Elastic Constant Matrix: (Units=GPa)
#
#
# Indices 1 2 3 4 5 6 
#
# 1 90.0520 16.1338 20.4229 0.0000 0.0000 0.0000
# 2 16.1338 52.5215 0.1124 0.0000 0.0000 0.0000
# 3 20.4229 0.1124 72.8748 0.0000 0.0000 0.0000
# 4 0.0000 0.0000 0.0000 17.6501 0.0000 0.0000
# 5 0.0000 0.0000 0.0000 0.0000 22.2409 0.0000
# 6 0.0000 0.0000 0.0000 0.0000 0.0000 18.7765
#
#
#
# Elastic Compliance Matrix: (Units=1/GPa)
#
#
# Indices 1 2 3 4 5 6 
#
# 1 0.012596 -0.003862 -0.003524 0.000000 0.000000 0.000000
# 2 -0.003862 0.020224 0.001051 0.000000 0.000000 0.000000
# 3 -0.003524 0.001051 0.014708 0.000000 0.000000 0.000000
# 4 0.000000 0.000000 0.000000 0.056657 0.000000 0.000000
# 5 0.000000 0.000000 0.000000 0.000000 0.044962 0.000000
# 6 0.000000 0.000000 0.000000 0.000000 0.000000 0.053258
#
#
# Mechanical properties :
#
#
# Convention : Reuss Voigt Hill
#
# Bulk Modulus (GPa) = 28.68739 32.08736 30.38738
# Shear Modulus (GPa) = 22.05619 23.65210 22.85415
#
# Velocity S-wave (km/s) = 3.43529 3.55740 3.49688
# Velocity P-wave (km/s) = 5.57532 5.83454 5.70640
#
# Compressibility (1/GPa) = 0.03485852
#
# Stress axis : x y z
#
# Youngs Moduli (GPa) = 79.39179 49.44661 67.98965
#
# Poissons Ratio (x) = 0.19095 0.23959
# Poissons Ratio (y) = 0.30659 -0.07146
# Poissons Ratio (z) = 0.27977 -0.05197
#
# Static dielectric constant tensor:
#      x y z
#    x 1.697260 0.000000 0.000000 
#    y 0.000000 1.619710 0.000000 
#    z 0.000000 0.000000 1.731770 
# 
# From -- ./inp_files/7423.got.cif
#   From: 2010.05.17/outbox.cif.g08.bks.cpg/sg44_4_cif.got.tgz:7423.got - 2010.06.03 19:37:08.
