data_PCOD9374233
_publ_section_title
;
Structure prediction by ZEFSAII (Michael W. Deem and Ramdas Pophale) SiO2 
 PCOD9374233
Probable space group: I M M 2
;
_chemical_formula_sum "Si O2"
_cell_formula_units_Z 44
_cell_length_a 14.590000
_cell_length_b 10.886452
_cell_length_c 11.596796
_cell_angle_alpha 90.000000
_cell_angle_beta 90.000000
_cell_angle_gamma 90.000000
_cell_volume 1841.957780
_symmetry_space_group_name_H-M "I M M 2"
_symmetry_group_IT_number 44
_symmetry_cell_setting 'orthorhombic'
loop_
_space_group_symop_operation_xyz
x,y,z
-x,-y,z
-x,y,z
x,-y,z
1/2+x,1/2+y,1/2+z
1/2-x,1/2-y,1/2+z
1/2-x,1/2+y,1/2+z
1/2+x,1/2-y,1/2+z
loop_
_atom_site_type_symbol
_atom_site_label
_atom_site_fract_x
_atom_site_fract_y
_atom_site_fract_z
Si Si1 0.346681 0.722264 0.250000
Si Si2 0.404271 0.000000 0.838116
Si Si3 0.697022 0.500000 0.413739
Si Si4 0.189261 0.642038 0.954719
Si Si5 0.600186 0.351565 0.001418
Si Si6 0.599174 0.500000 0.647909
Si Si7 0.864130 0.734718 0.187155
O O1 0.345692 0.614276 0.344771
O O2 0.356343 0.841277 0.329768
O O3 0.400952 0.693399 0.134689
O O4 0.243645 0.726708 0.204454
O O5 0.403274 0.878216 0.758816
O O6 0.500000 0.000000 0.906666
O O7 0.307267 0.000000 0.902554
O O8 0.673549 0.500000 0.547693
O O9 0.192885 0.500000 0.989693
O O10 0.297795 0.686197 0.953115
O O11 0.128179 0.710860 0.050419
O O12 0.500000 0.312452 0.951738
O O13 0.601318 0.500000 0.999534
O O14 0.500000 0.500000 0.589931
O O15 0.606248 0.626979 0.717214
#
# Coordination Sequence:
#
# PCOD9374233 Si02
#       7
#     8   4   4   8   8   4   8
#     4  10  19  35  59  83 113 155 192 233 290 349
#     4  10  20  40  63  85 113 156 201 235 282 357
#     4  10  20  36  58  86 110 150 194 236 288 342
#     4  10  19  35  57  85 113 161 197 229 293 355
#     4   9  18  34  58  87 114 143 193 248 289 342
#     4  12  24  38  57  91 123 148 189 253 308 341
#     4  10  21  37  60  85 118 153 193 240 292 349
#
# _framework density 23.887626000000001
#
# number of rings (size 3 to 8) (size 9 to 14) (size 15 to 20)
#    0.000    2.000    3.636    0.545    1.273    0.727 
#    0.000    4.545    0.000    0.000    0.000    0.000 
#    0.000    0.000    0.000    0.000    0.000    0.000 
#
# Total GULP energy -122775.069272 kJ/mol
# GULP energy per Si atom -5580.684967 kJ/mol
# Density = 2.383326 g / cm^3
# Si number density = 23.887626 Si / 1000 Ang^3
#
#
#
# Elastic Constant Matrix: (Units=GPa)
#
#
# Indices 1 2 3 4 5 6 
#
# 1 101.0064 27.4484 13.6921 0.0000 0.0000 0.0000
# 2 27.4484 128.4219 12.9374 0.0000 0.0000 0.0000
# 3 13.6921 12.9374 79.5245 0.0000 0.0000 0.0000
# 4 0.0000 0.0000 0.0000 33.1165 0.0000 0.0000
# 5 0.0000 0.0000 0.0000 0.0000 -16.5601 0.0000
# 6 0.0000 0.0000 0.0000 0.0000 0.0000 4.2381
#
#
#
# Elastic Compliance Matrix: (Units=1/GPa)
#
#
# Indices 1 2 3 4 5 6 
#
# 1 0.010682 -0.002133 -0.001492 0.000000 0.000000 0.000000
# 2 -0.002133 0.008342 -0.000990 0.000000 0.000000 0.000000
# 3 -0.001492 -0.000990 0.012993 0.000000 0.000000 0.000000
# 4 0.000000 0.000000 0.000000 0.030196 0.000000 0.000000
# 5 0.000000 0.000000 0.000000 0.000000 -0.060386 0.000000
# 6 0.000000 0.000000 0.000000 0.000000 0.000000 0.235956
#
#
# Mechanical properties :
#
#
# Convention : Reuss Voigt Hill
#
# Bulk Modulus (GPa) = 43.88407 46.34540 45.11474
# Shear Modulus (GPa) = 19.63790 21.15055 20.39422
#
# Velocity S-wave (km/s) = 2.87033 2.97883 2.92508
# Velocity P-wave (km/s) = 5.42181 5.59238 5.50776
#
# Compressibility (1/GPa) = 0.02278731
#
# Stress axis : x y z
#
# Youngs Moduli (GPa) = 93.61324 119.86916 76.96618
#
# Poissons Ratio (x) = 0.25566 0.11485
# Poissons Ratio (y) = 0.19966 0.07619
# Poissons Ratio (z) = 0.13969 0.11867
#
# Static dielectric constant tensor:
#      x y z
#    x 1.913180 0.000000 0.000000 
#    y 0.000000 1.963430 0.000000 
#    z 0.000000 0.000000 1.947180 
# 
# From -- ./inp_files/18355.got.cif
#   From: 2010.05.17/outbox.cif.g08.bks.cpg/sg44_10_cif.got.tgz:18355.got - 2010.06.03 19:37:08.
