data_PCOD9374008
_publ_section_title
;
Structure prediction by ZEFSAII (Michael W. Deem and Ramdas Pophale) SiO2 
 PCOD9374008
Probable space group: I M M 2
;
_chemical_formula_sum "Si O2"
_cell_formula_units_Z 64
_cell_length_a 23.935624
_cell_length_b 8.762815
_cell_length_c 19.456304
_cell_angle_alpha 90.000000
_cell_angle_beta 90.000000
_cell_angle_gamma 90.000000
_cell_volume 4080.832228
_symmetry_space_group_name_H-M "I M M 2"
_symmetry_group_IT_number 44
_symmetry_cell_setting 'orthorhombic'
loop_
_space_group_symop_operation_xyz
x,y,z
-x,-y,z
-x,y,z
x,-y,z
1/2+x,1/2+y,1/2+z
1/2-x,1/2-y,1/2+z
1/2-x,1/2+y,1/2+z
1/2+x,1/2-y,1/2+z
loop_
_atom_site_type_symbol
_atom_site_label
_atom_site_fract_x
_atom_site_fract_y
_atom_site_fract_z
Si Si1 0.565158 0.317215 0.725400
Si Si2 0.063340 0.685831 0.507858
Si Si3 0.770274 0.181641 0.723731
Si Si4 0.339865 0.182549 0.634190
Si Si5 0.275690 0.681860 0.508912
Si Si6 0.243988 0.181522 0.366822
Si Si7 0.380914 0.816220 0.863269
Si Si8 0.165672 0.316949 0.599529
O O1 0.500000 0.278625 0.716783
O O2 0.570780 0.500000 0.727720
O O3 0.603860 0.251508 0.665062
O O4 0.588087 0.247832 0.796527
O O5 0.063069 0.500000 0.509050
O O6 0.086557 0.728544 0.432759
O O7 0.107724 0.734307 0.565485
O O8 0.000000 0.738755 0.518097
O O9 0.710658 0.219573 0.687531
O O10 0.772867 0.264115 0.796588
O O11 0.816811 0.236117 0.669777
O O12 0.772309 0.000000 0.733085
O O13 0.321184 0.251754 0.561467
O O14 0.343450 0.000000 0.629630
O O15 0.281518 0.500000 0.502871
O O16 0.275053 0.757987 0.434527
O O17 0.215451 0.712948 0.544818
O O18 0.181950 0.253904 0.366476
O O19 0.239611 0.000000 0.368539
O O20 0.378812 0.000000 0.859430
O O21 0.164231 0.500000 0.610217
#
# Coordination Sequence:
#
# PCOD9374008 Si02
#       8
#     8   8   8   8   8   8   8   8
#     4  11  23  36  50  72 103 139 176 213 255 300
#     4   9  17  30  49  72  99 133 172 208 242 286
#     4  10  20  33  50  72  98 129 167 209 255 303
#     4  10  20  34  52  74  99 131 172 213 254 302
#     4  10  19  33  52  73 101 132 166 209 256 305
#     4  12  22  32  50  75 103 135 169 207 256 307
#     4  11  20  33  49  71 101 138 180 213 247 292
#     4   9  17  31  49  71  98 130 167 206 249 293
#
# _framework density 15.683075000000001
#
# number of rings (size 3 to 8) (size 9 to 14) (size 15 to 20)
#    0.000    1.750    2.500    3.375    0.000    3.000 
#    0.000    0.000    0.000    1.875    0.000    0.875 
#    0.000    5.000    0.000    0.000    0.000    0.000 
#
# Total GULP energy -178678.363950 kJ/mol
# GULP energy per Si atom -5583.698873 kJ/mol
# Density = 1.564738 g / cm^3
# Si number density = 15.683075 Si / 1000 Ang^3
#
#
#
# Elastic Constant Matrix: (Units=GPa)
#
#
# Indices 1 2 3 4 5 6 
#
# 1 102.4578 37.2012 74.2694 0.0000 0.0000 0.0000
# 2 37.2012 55.5058 55.3362 0.0000 0.0000 0.0000
# 3 74.2694 55.3362 137.0648 0.0000 0.0000 0.0000
# 4 0.0000 0.0000 0.0000 27.4853 0.0000 0.0000
# 5 0.0000 0.0000 0.0000 0.0000 18.7354 0.0000
# 6 0.0000 0.0000 0.0000 0.0000 0.0000 19.1867
#
#
#
# Elastic Compliance Matrix: (Units=1/GPa)
#
#
# Indices 1 2 3 4 5 6 
#
# 1 0.016490 -0.003588 -0.007486 0.000000 0.000000 0.000000
# 2 -0.003588 0.030933 -0.010544 0.000000 0.000000 0.000000
# 3 -0.007486 -0.010544 0.015609 0.000000 0.000000 0.000000
# 4 0.000000 0.000000 0.000000 0.036383 0.000000 0.000000
# 5 0.000000 0.000000 0.000000 0.000000 0.053375 0.000000
# 6 0.000000 0.000000 0.000000 0.000000 0.000000 0.052119
#
#
# Mechanical properties :
#
#
# Convention : Reuss Voigt Hill
#
# Bulk Modulus (GPa) = 50.51911 69.84912 60.18411
# Shear Modulus (GPa) = 19.62752 21.62959 20.62856
#
# Velocity S-wave (km/s) = 3.54151 3.71774 3.63069
# Velocity P-wave (km/s) = 7.00039 7.94125 7.48562
#
# Compressibility (1/GPa) = 0.01979449
#
# Stress axis : x y z
#
# Youngs Moduli (GPa) = 60.64404 32.32817 64.06480
#
# Poissons Ratio (x) = 0.11600 0.47961
# Poissons Ratio (y) = 0.21760 0.67550
# Poissons Ratio (z) = 0.45400 0.34087
#
# Static dielectric constant tensor:
#      x y z
#    x 1.507220 0.000000 0.000000 
#    y 0.000000 1.523180 0.000000 
#    z 0.000000 0.000000 1.509810 
# 
# From -- ./inp_files/19483.got.cif
#   From: 2010.05.17/outbox.cif.g08.bks.cpg/sg44_10_cif.got.tgz:19483.got - 2010.06.03 19:37:08.
