data_PCOD9374469
_publ_section_title
;
Structure prediction by ZEFSAII (Michael W. Deem and Ramdas Pophale) SiO2 
 PCOD9374469
Probable space group: I M M 2
;
_chemical_formula_sum "Si O2"
_cell_formula_units_Z 64
_cell_length_a 15.429310
_cell_length_b 9.140403
_cell_length_c 23.482990
_cell_angle_alpha 90.000000
_cell_angle_beta 90.000000
_cell_angle_gamma 90.000000
_cell_volume 3311.808696
_symmetry_space_group_name_H-M "I M M 2"
_symmetry_group_IT_number 44
_symmetry_cell_setting 'orthorhombic'
loop_
_space_group_symop_operation_xyz
x,y,z
-x,-y,z
-x,y,z
x,-y,z
1/2+x,1/2+y,1/2+z
1/2-x,1/2-y,1/2+z
1/2-x,1/2+y,1/2+z
1/2+x,1/2-y,1/2+z
loop_
_atom_site_type_symbol
_atom_site_label
_atom_site_fract_x
_atom_site_fract_y
_atom_site_fract_z
Si Si1 0.599291 0.324905 0.391910
Si Si2 0.221325 0.824404 0.231330
Si Si3 0.337756 0.335154 0.605693
Si Si4 0.640065 0.831797 0.061556
Si Si5 0.592541 0.178034 0.186696
Si Si6 0.602273 0.325909 0.943384
Si Si7 0.718014 0.824074 0.846205
Si Si8 0.398193 0.840869 0.504040
O O1 0.500000 0.273426 0.378825
O O2 0.595858 0.500000 0.392263
O O3 0.679935 0.280178 0.352560
O O4 0.628376 0.270147 0.454548
O O5 0.170375 0.799864 0.172265
O O6 0.320293 0.774944 0.217998
O O7 0.187251 0.740012 0.285959
O O8 0.221470 0.000000 0.241302
O O9 0.373217 0.500000 0.599690
O O10 0.241077 0.336075 0.578992
O O11 0.386410 0.221029 0.566757
O O12 0.596599 0.778523 0.120230
O O13 0.612628 0.000000 0.050260
O O14 0.622734 0.735598 0.006408
O O15 0.500000 0.224418 0.211644
O O16 0.595653 0.000000 0.186300
O O17 0.500000 0.299860 0.931875
O O18 0.617713 0.500000 0.941222
O O19 0.662338 0.244657 0.897348
O O20 0.712584 0.000000 0.848093
O O21 0.500000 0.855407 0.494789
O O22 0.355881 0.000000 0.497191
#
# Coordination Sequence:
#
# PCOD9374469 Si02
#       8
#     8   8   8   8   8   8   8   8
#     4   9  19  36  56  79 110 145 177 211 258 320
#     4   9  19  35  53  74 102 136 176 218 256 303
#     4   9  18  33  53  77 104 137 173 206 253 316
#     4   9  17  31  54  82 109 136 169 210 254 307
#     4   8  14  27  50  79 108 138 170 204 248 306
#     4  11  24  39  55  78 108 141 178 222 272 321
#     4  11  23  38  57  79 104 140 184 225 266 312
#     4  10  20  32  49  77 107 132 166 214 263 310
#
# _framework density 19.324786
#
# number of rings (size 3 to 8) (size 9 to 14) (size 15 to 20)
#    0.000    2.500    0.000    3.750    0.000    7.750 
#    0.000    2.500    0.000    1.500    0.000    0.000 
#    0.000    0.000    0.000    0.000    0.000    0.000 
#
# Total GULP energy -178377.881889 kJ/mol
# GULP energy per Si atom -5574.308809 kJ/mol
# Density = 1.928080 g / cm^3
# Si number density = 19.324786 Si / 1000 Ang^3
#
#
#
# Elastic Constant Matrix: (Units=GPa)
#
#
# Indices 1 2 3 4 5 6 
#
# 1 28.7650 19.4762 22.9430 0.0000 0.0000 0.0000
# 2 19.4762 29.7755 27.1498 0.0000 0.0000 0.0000
# 3 22.9430 27.1498 92.2488 0.0000 0.0000 0.0000
# 4 0.0000 0.0000 0.0000 29.1121 0.0000 0.0000
# 5 0.0000 0.0000 0.0000 0.0000 10.2834 0.0000
# 6 0.0000 0.0000 0.0000 0.0000 0.0000 17.1250
#
#
#
# Elastic Compliance Matrix: (Units=1/GPa)
#
#
# Indices 1 2 3 4 5 6 
#
# 1 0.063990 -0.037374 -0.004915 0.000000 0.000000 0.000000
# 2 -0.037374 0.067732 -0.010639 0.000000 0.000000 0.000000
# 3 -0.004915 -0.010639 0.015194 0.000000 0.000000 0.000000
# 4 0.000000 0.000000 0.000000 0.034350 0.000000 0.000000
# 5 0.000000 0.000000 0.000000 0.000000 0.097244 0.000000
# 6 0.000000 0.000000 0.000000 0.000000 0.000000 0.058394
#
#
# Mechanical properties :
#
#
# Convention : Reuss Voigt Hill
#
# Bulk Modulus (GPa) = 24.35511 32.21413 28.28462
# Shear Modulus (GPa) = 10.95417 16.71879 13.83648
#
# Velocity S-wave (km/s) = 2.38343 2.94453 2.67871
# Velocity P-wave (km/s) = 4.49497 5.31661 4.92296
#
# Compressibility (1/GPa) = 0.04105914
#
# Stress axis : x y z
#
# Youngs Moduli (GPa) = 15.62741 14.76408 65.81605
#
# Poissons Ratio (x) = 0.55180 0.32350
# Poissons Ratio (y) = 0.58406 0.70022
# Poissons Ratio (z) = 0.07681 0.15707
#
# Static dielectric constant tensor:
#      x y z
#    x 1.740650 0.000000 0.000000 
#    y 0.000000 1.678770 0.000000 
#    z 0.000000 0.000000 1.649280 
# 
# From -- ./inp_files/25774.got.cif
#   From: 2010.05.17/outbox.cif.g08.bks.cpg/sg44_13_cif.got.tgz:25774.got - 2010.06.03 19:37:08.
