data_PCOD9374275
_publ_section_title
;
Structure prediction by ZEFSAII (Michael W. Deem and Ramdas Pophale) SiO2 
 PCOD9374275
Probable space group: I M M 2
;
_chemical_formula_sum "Si O2"
_cell_formula_units_Z 48
_cell_length_a 14.782800
_cell_length_b 8.776780
_cell_length_c 20.766636
_cell_angle_alpha 90.000000
_cell_angle_beta 90.000000
_cell_angle_gamma 90.000000
_cell_volume 2694.375149
_symmetry_space_group_name_H-M "I M M 2"
_symmetry_group_IT_number 44
_symmetry_cell_setting 'orthorhombic'
loop_
_space_group_symop_operation_xyz
x,y,z
-x,-y,z
-x,y,z
x,-y,z
1/2+x,1/2+y,1/2+z
1/2-x,1/2-y,1/2+z
1/2-x,1/2+y,1/2+z
1/2+x,1/2-y,1/2+z
loop_
_atom_site_type_symbol
_atom_site_label
_atom_site_fract_x
_atom_site_fract_y
_atom_site_fract_z
Si Si1 0.191329 0.682713 0.951810
Si Si2 0.802682 0.316902 0.331835
Si Si3 0.000000 0.683073 0.376325
Si Si4 0.000000 0.183517 0.519573
Si Si5 0.307328 0.316739 0.078051
Si Si6 0.000000 0.182029 0.762781
Si Si7 0.810942 0.681337 0.715643
Si Si8 0.500000 0.317888 0.416600
O O1 0.191255 0.500000 0.943957
O O2 0.249111 0.756233 0.894145
O O3 0.090217 0.746281 0.946400
O O4 0.239552 0.718615 0.019523
O O5 0.794830 0.500000 0.329504
O O6 0.757148 0.246706 0.268934
O O7 0.907728 0.273792 0.340309
O O8 0.000000 0.500000 0.382785
O O9 0.000000 0.752679 0.447547
O O10 0.908499 0.229562 0.555993
O O11 0.000000 0.000000 0.515678
O O12 0.307238 0.500000 0.087432
O O13 0.284252 0.236157 0.144578
O O14 0.090062 0.251527 0.732068
O O15 0.000000 0.212750 0.839553
O O16 0.000000 0.000000 0.753261
O O17 0.813885 0.500000 0.719508
O O18 0.500000 0.500000 0.424853
#
# Coordination Sequence:
#
# PCOD9374275 Si02
#       8
#     8   8   4   4   8   4   8   4
#     4  11  22  38  63  91 119 156 202 248 294 355
#     4  11  22  39  61  87 121 160 198 245 300 354
#     4  10  22  37  60  91 120 154 198 242 290 349
#     4  10  19  35  60  90 122 155 190 235 296 356
#     4  10  22  39  60  88 124 163 196 239 301 361
#     4  11  22  38  61  89 123 161 194 242 306 362
#     4  12  25  39  60  90 121 159 203 251 298 354
#     4  11  23  38  61  90 121 160 198 247 302 351
#
# _framework density 17.814889999999998
#
# number of rings (size 3 to 8) (size 9 to 14) (size 15 to 20)
#    0.000    1.167    3.333    3.500    0.000    4.000 
#    0.000    0.833    0.000    2.000    0.000    0.000 
#    0.000    0.000    0.000    0.000    0.000    0.000 
#
# Total GULP energy -134195.018244 kJ/mol
# GULP energy per Si atom -5591.459094 kJ/mol
# Density = 1.777434 g / cm^3
# Si number density = 17.814890 Si / 1000 Ang^3
#
#
#
# Elastic Constant Matrix: (Units=GPa)
#
#
# Indices 1 2 3 4 5 6 
#
# 1 156.0566 58.5649 88.1319 0.0000 0.0000 0.0000
# 2 58.5649 75.0113 73.6365 0.0000 0.0000 0.0000
# 3 88.1319 73.6365 162.0682 0.0000 0.0000 0.0000
# 4 0.0000 0.0000 0.0000 34.3493 0.0000 0.0000
# 5 0.0000 0.0000 0.0000 0.0000 10.6388 0.0000
# 6 0.0000 0.0000 0.0000 0.0000 0.0000 12.7075
#
#
#
# Elastic Compliance Matrix: (Units=1/GPa)
#
#
# Indices 1 2 3 4 5 6 
#
# 1 0.010012 -0.004463 -0.003417 0.000000 0.000000 0.000000
# 2 -0.004463 0.026054 -0.009411 0.000000 0.000000 0.000000
# 3 -0.003417 -0.009411 0.012304 0.000000 0.000000 0.000000
# 4 0.000000 0.000000 0.000000 0.029113 0.000000 0.000000
# 5 0.000000 0.000000 0.000000 0.000000 0.093996 0.000000
# 6 0.000000 0.000000 0.000000 0.000000 0.000000 0.078694
#
#
# Mechanical properties :
#
#
# Convention : Reuss Voigt Hill
#
# Bulk Modulus (GPa) = 72.51991 92.64471 82.58231
# Shear Modulus (GPa) = 17.28003 23.05931 20.16967
#
# Velocity S-wave (km/s) = 3.11782 3.60166 3.36844
# Velocity P-wave (km/s) = 7.33191 8.33144 7.84761
#
# Compressibility (1/GPa) = 0.01378932
#
# Stress axis : x y z
#
# Youngs Moduli (GPa) = 99.87536 38.38160 81.27214
#
# Poissons Ratio (x) = 0.17129 0.27771
# Poissons Ratio (y) = 0.44572 0.76485
# Poissons Ratio (z) = 0.34128 0.36121
#
# Static dielectric constant tensor:
#      x y z
#    x 1.597640 0.000000 0.000000 
#    y 0.000000 1.596620 0.000000 
#    z 0.000000 0.000000 1.578810 
# 
# From -- ./inp_files/20412.got.cif
#   From: 2010.05.17/outbox.cif.g08.bks.cpg/sg44_11_cif.got.tgz:20412.got - 2010.06.03 19:37:08.
