data_PCOD9374287
_publ_section_title
;
Structure prediction by ZEFSAII (Michael W. Deem and Ramdas Pophale) SiO2 
 PCOD9374287
Probable space group: I M M 2
;
_chemical_formula_sum "Si O2"
_cell_formula_units_Z 48
_cell_length_a 16.031036
_cell_length_b 14.317787
_cell_length_c 9.851361
_cell_angle_alpha 90.000000
_cell_angle_beta 90.000000
_cell_angle_gamma 90.000000
_cell_volume 2261.172633
_symmetry_space_group_name_H-M "I M M 2"
_symmetry_group_IT_number 44
_symmetry_cell_setting 'orthorhombic'
loop_
_space_group_symop_operation_xyz
x,y,z
-x,-y,z
-x,y,z
x,-y,z
1/2+x,1/2+y,1/2+z
1/2-x,1/2-y,1/2+z
1/2-x,1/2+y,1/2+z
1/2+x,1/2-y,1/2+z
loop_
_atom_site_type_symbol
_atom_site_label
_atom_site_fract_x
_atom_site_fract_y
_atom_site_fract_z
Si Si1 0.177637 0.103871 0.942940
Si Si2 0.000000 0.611886 0.077229
Si Si3 0.593069 0.298075 0.893196
Si Si4 0.371055 0.108035 0.033910
Si Si5 0.804232 0.892493 0.618538
Si Si6 0.500000 0.888857 0.263471
Si Si7 0.850186 0.738894 0.125870
O O1 0.180296 0.113125 0.780188
O O2 0.145888 0.000000 0.974424
O O3 0.271107 0.110699 0.009410
O O4 0.127845 0.187890 0.009286
O O5 0.919679 0.659735 0.141873
O O6 0.000000 0.500000 0.089959
O O7 0.000000 0.641615 0.918402
O O8 0.500000 0.323862 0.849114
O O9 0.654639 0.298176 0.764715
O O10 0.594756 0.190585 0.941335
O O11 0.621709 0.361594 0.018881
O O12 0.415564 0.132652 0.177963
O O13 0.395212 0.000000 0.002563
O O14 0.732548 0.817412 0.590048
O O15 0.779899 0.000000 0.589953
O O16 0.500000 0.000000 0.273024
#
# Coordination Sequence:
#
# PCOD9374287 Si02
#       7
#     8   4   8   8   8   4   8
#     4  10  23  42  66  95 126 170 225 280 335 406
#     4  11  26  41  62 100 141 173 223 292 358 412
#     4  12  25  41  65 100 136 178 226 280 353 409
#     4  10  19  35  62  94 129 164 213 271 334 407
#     4  11  24  44  69  97 132 179 234 286 339 412
#     4   9  20  35  57  94 133 173 210 264 339 404
#     4  12  23  43  67  99 133 179 224 285 352 417
#
# _framework density 21.227924000000002
#
# number of rings (size 3 to 8) (size 9 to 14) (size 15 to 20)
#    0.000    1.167    5.000    0.500    2.333    3.000 
#    0.000    2.083    0.000    0.000    0.000    0.000 
#    0.000    0.000    0.000    0.000    0.000    0.000 
#
# Total GULP energy -133885.276719 kJ/mol
# GULP energy per Si atom -5578.553197 kJ/mol
# Density = 2.117961 g / cm^3
# Si number density = 21.227924 Si / 1000 Ang^3
#
#
#
# Elastic Constant Matrix: (Units=GPa)
#
#
# Indices 1 2 3 4 5 6 
#
# 1 31.7349 8.7905 -0.5293 0.0000 0.0000 0.0000
# 2 8.7905 129.5578 36.3699 0.0000 0.0000 0.0000
# 3 -0.5293 36.3699 89.7949 0.0000 0.0000 0.0000
# 4 0.0000 0.0000 0.0000 31.7533 0.0000 0.0000
# 5 0.0000 0.0000 0.0000 0.0000 21.7404 0.0000
# 6 0.0000 0.0000 0.0000 0.0000 0.0000 24.6753
#
#
#
# Elastic Compliance Matrix: (Units=1/GPa)
#
#
# Indices 1 2 3 4 5 6 
#
# 1 0.032231 -0.002528 0.001214 0.000000 0.000000 0.000000
# 2 -0.002528 0.008907 -0.003623 0.000000 0.000000 0.000000
# 3 0.001214 -0.003623 0.012611 0.000000 0.000000 0.000000
# 4 0.000000 0.000000 0.000000 0.031493 0.000000 0.000000
# 5 0.000000 0.000000 0.000000 0.000000 0.045997 0.000000
# 6 0.000000 0.000000 0.000000 0.000000 0.000000 0.040526
#
#
# Mechanical properties :
#
#
# Convention : Reuss Voigt Hill
#
# Bulk Modulus (GPa) = 22.79122 37.81663 30.30393
# Shear Modulus (GPa) = 25.47588 29.39757 27.43672
#
# Velocity S-wave (km/s) = 3.46802 3.72540 3.59901
# Velocity P-wave (km/s) = 5.17648 6.02976 5.61934
#
# Compressibility (1/GPa) = 0.04387654
#
# Stress axis : x y z
#
# Youngs Moduli (GPa) = 31.02561 112.27134 79.29660
#
# Poissons Ratio (x) = 0.28378 -0.09625
# Poissons Ratio (y) = 0.07842 0.28725
# Poissons Ratio (z) = -0.03766 0.40671
#
# Static dielectric constant tensor:
#      x y z
#    x 1.878480 0.000000 0.000000 
#    y 0.000000 1.744580 0.000000 
#    z 0.000000 0.000000 1.780610 
# 
# From -- ./inp_files/7154.got.cif
#   From: 2010.05.17/outbox.cif.g08.bks.cpg/sg44_4_cif.got.tgz:7154.got - 2010.06.03 19:37:08.
