data_PCOD9374540
_publ_section_title
;
Structure prediction by ZEFSAII (Michael W. Deem and Ramdas Pophale) SiO2 
 PCOD9374540
Probable space group: I M M 2
;
_chemical_formula_sum "Si O2"
_cell_formula_units_Z 64
_cell_length_a 7.937835
_cell_length_b 14.733094
_cell_length_c 29.095732
_cell_angle_alpha 90.000000
_cell_angle_beta 90.000000
_cell_angle_gamma 90.000000
_cell_volume 3402.712956
_symmetry_space_group_name_H-M "I M M 2"
_symmetry_group_IT_number 44
_symmetry_cell_setting 'orthorhombic'
loop_
_space_group_symop_operation_xyz
x,y,z
-x,-y,z
-x,y,z
x,-y,z
1/2+x,1/2+y,1/2+z
1/2-x,1/2-y,1/2+z
1/2-x,1/2+y,1/2+z
1/2+x,1/2-y,1/2+z
loop_
_atom_site_type_symbol
_atom_site_label
_atom_site_fract_x
_atom_site_fract_y
_atom_site_fract_z
Si Si1 0.200874 0.898025 0.870650
Si Si2 0.205860 0.103437 0.123475
Si Si3 0.299866 0.758032 0.943872
Si Si4 0.794134 0.396411 0.123474
Si Si5 0.296713 0.250082 0.697362
Si Si6 0.703287 0.250083 0.549587
Si Si7 0.700874 0.398024 0.876299
Si Si8 0.299866 0.241968 0.303077
O O1 0.230423 0.847663 0.918971
O O2 0.267662 0.829158 0.831561
O O3 0.000000 0.904273 0.863959
O O4 0.270394 0.000000 0.868935
O O5 0.257829 0.161886 0.167978
O O6 0.257829 0.161886 0.078971
O O7 0.000000 0.101994 0.123475
O O8 0.264829 0.000000 0.123475
O O9 0.500000 0.760279 0.937678
O O10 0.232338 0.670842 0.915388
O O11 0.261084 0.751566 0.997410
O O12 0.735495 0.500000 0.123474
O O13 0.741948 0.338152 0.168099
O O14 0.741948 0.338151 0.078850
O O15 0.000000 0.397720 0.123474
O O16 0.500000 0.249884 0.697284
O O17 0.238917 0.251566 0.749539
O O18 0.500000 0.249884 0.549665
O O19 0.500000 0.404273 0.882990
O O20 0.770394 0.500000 0.878014
O O21 0.730424 0.347663 0.827978
O O22 0.500000 0.239721 0.309270
#
# Coordination Sequence:
#
# PCOD9374540 Si02
#       8
#     8   8   8   8   8   8   8   8
#     4   9  19  36  54  70  93 129 168 200 234 285
#     4   8  15  29  48  68  90 120 160 198 226 266
#     4  10  20  33  50  74 102 127 156 200 249 291
#     4   8  15  29  48  70  96 126 164 207 240 273
#     4   9  17  30  49  71  94 124 162 198 236 285
#     4   9  17  30  49  71  94 124 162 198 236 285
#     4   9  19  36  54  70  93 129 168 200 234 285
#     4  10  20  33  50  74 102 127 156 200 249 291
#
# _framework density 18.808520999999999
#
# number of rings (size 3 to 8) (size 9 to 14) (size 15 to 20)
#    0.000    3.000    0.000    2.250    0.000    3.500 
#    0.000    5.000    0.000    1.500    0.000    0.000 
#    0.000    0.000    0.000    0.000    0.000    0.000 
#
# Total GULP energy -178394.816351 kJ/mol
# GULP energy per Si atom -5574.838011 kJ/mol
# Density = 1.876571 g / cm^3
# Si number density = 18.808521 Si / 1000 Ang^3
#
#
#
# Elastic Constant Matrix: (Units=GPa)
#
#
# Indices 1 2 3 4 5 6 
#
# 1 13.3090 5.3906 -9.2560 0.0000 0.0000 0.0000
# 2 5.3906 180.8724 68.4931 0.0000 0.0000 0.0000
# 3 -9.2560 68.4931 136.2374 0.0000 0.0000 0.0000
# 4 0.0000 0.0000 0.0000 7.2615 0.0000 0.0000
# 5 0.0000 0.0000 0.0000 0.0000 18.8759 0.0000
# 6 0.0000 0.0000 0.0000 0.0000 0.0000 6.8349
#
#
#
# Elastic Compliance Matrix: (Units=1/GPa)
#
#
# Indices 1 2 3 4 5 6 
#
# 1 0.083394 -0.005720 0.008541 0.000000 0.000000 0.000000
# 2 -0.005720 0.007221 -0.004019 0.000000 0.000000 0.000000
# 3 0.008541 -0.004019 0.009941 0.000000 0.000000 0.000000
# 4 0.000000 0.000000 0.000000 0.137713 0.000000 0.000000
# 5 0.000000 0.000000 0.000000 0.000000 0.052978 0.000000
# 6 0.000000 0.000000 0.000000 0.000000 0.000000 0.146308
#
#
# Mechanical properties :
#
#
# Convention : Reuss Voigt Hill
#
# Bulk Modulus (GPa) = 10.18733 51.07491 30.63112
# Shear Modulus (GPa) = 10.57821 24.31387 17.44604
#
# Velocity S-wave (km/s) = 2.37410 3.59932 3.04889
# Velocity P-wave (km/s) = 3.59767 6.66991 5.35868
#
# Compressibility (1/GPa) = 0.09816118
#
# Stress axis : x y z
#
# Youngs Moduli (GPa) = 11.99127 138.48176 100.59354
#
# Poissons Ratio (x) = 0.79210 -0.85921
# Poissons Ratio (y) = 0.06859 0.40429
# Poissons Ratio (z) = -0.10242 0.55656
#
# Static dielectric constant tensor:
#      x y z
#    x 1.677990 0.000000 0.000000 
#    y 0.000000 1.661280 0.000000 
#    z 0.000000 0.000000 1.619400 
# 
# From -- ./inp_files/27331.got.cif
#   From: 2010.05.17/outbox.cif.g08.bks.cpg/sg44_14_cif.got.tgz:27331.got - 2010.06.03 19:37:08.
