data_PCOD9374769
_publ_section_title
;
Structure prediction by ZEFSAII (Michael W. Deem and Ramdas Pophale) SiO2 
 PCOD9374769
Probable space group: I M M 2
;
_chemical_formula_sum "Si O2"
_cell_formula_units_Z 56
_cell_length_a 8.756716
_cell_length_b 14.517972
_cell_length_c 23.304641
_cell_angle_alpha 90.000000
_cell_angle_beta 90.000000
_cell_angle_gamma 90.000000
_cell_volume 2962.713364
_symmetry_space_group_name_H-M "I M M 2"
_symmetry_group_IT_number 44
_symmetry_cell_setting 'orthorhombic'
loop_
_space_group_symop_operation_xyz
x,y,z
-x,-y,z
-x,y,z
x,-y,z
1/2+x,1/2+y,1/2+z
1/2-x,1/2-y,1/2+z
1/2-x,1/2+y,1/2+z
1/2+x,1/2-y,1/2+z
loop_
_atom_site_type_symbol
_atom_site_label
_atom_site_fract_x
_atom_site_fract_y
_atom_site_fract_z
Si Si1 0.673693 0.641890 0.721930
Si Si2 0.817835 0.399195 0.841106
Si Si3 0.816886 0.108319 0.990383
Si Si4 0.183907 0.303010 0.605245
Si Si5 0.817529 0.901322 0.639253
Si Si6 0.673269 0.143330 0.756495
Si Si7 0.316025 0.205059 0.878252
O O1 0.500000 0.607001 0.719360
O O2 0.767624 0.600082 0.774394
O O3 0.753479 0.640977 0.660243
O O4 0.665126 0.749291 0.739357
O O5 0.775415 0.500000 0.865614
O O6 0.740076 0.310175 0.869594
O O7 0.000000 0.388568 0.844698
O O8 0.750912 0.160158 0.935033
O O9 0.000000 0.116774 0.991533
O O10 0.777641 0.000000 0.988082
O O11 0.747419 0.153516 0.047388
O O12 0.236248 0.195601 0.612249
O O13 0.000000 0.304685 0.605930
O O14 0.774513 0.898970 0.706542
O O15 0.000000 0.900638 0.633647
O O16 0.760010 0.000000 0.615628
O O17 0.500000 0.106783 0.754673
O O18 0.731131 0.145760 0.821775
O O19 0.500000 0.205080 0.879076
#
# Coordination Sequence:
#
# PCOD9374769 Si02
#       7
#     8   8   8   8   8   8   8
#     4   9  17  31  52  78 110 146 183 225 272 322
#     4  10  20  34  55  85 119 152 186 226 274 331
#     4  11  25  43  61  80 104 139 184 234 286 339
#     4  10  20  36  58  81 109 146 186 231 280 331
#     4   9  18  32  52  81 114 145 177 214 262 322
#     4   8  16  30  49  76 107 139 175 214 259 309
#     4  10  21  38  59  82 111 147 186 231 279 330
#
# _framework density 18.901591
#
# number of rings (size 3 to 8) (size 9 to 14) (size 15 to 20)
#    0.000    2.429    0.000    3.000    0.000    8.286 
#    0.000    3.571    0.000    2.571    0.000    0.000 
#    0.000    0.000    0.000    0.000    0.000    0.000 
#
# Total GULP energy -156128.893169 kJ/mol
# GULP energy per Si atom -5576.031899 kJ/mol
# Density = 1.885857 g / cm^3
# Si number density = 18.901591 Si / 1000 Ang^3
#
#
#
# Elastic Constant Matrix: (Units=GPa)
#
#
# Indices 1 2 3 4 5 6 
#
# 1 46.8902 31.8831 32.6717 0.0000 0.0000 0.0000
# 2 31.8831 125.4056 56.1731 0.0000 0.0000 0.0000
# 3 32.6717 56.1731 139.8379 0.0000 0.0000 0.0000
# 4 0.0000 0.0000 0.0000 11.7628 0.0000 0.0000
# 5 0.0000 0.0000 0.0000 0.0000 32.9233 0.0000
# 6 0.0000 0.0000 0.0000 0.0000 0.0000 -3.7019
#
#
#
# Elastic Compliance Matrix: (Units=1/GPa)
#
#
# Indices 1 2 3 4 5 6 
#
# 1 0.027906 -0.005090 -0.004475 0.000000 0.000000 0.000000
# 2 -0.005090 0.010652 -0.003090 0.000000 0.000000 0.000000
# 3 -0.004475 -0.003090 0.009438 0.000000 0.000000 0.000000
# 4 0.000000 0.000000 0.000000 0.085014 0.000000 0.000000
# 5 0.000000 0.000000 0.000000 0.000000 0.030374 0.000000
# 6 0.000000 0.000000 0.000000 0.000000 0.000000 -0.270128
#
#
# Mechanical properties :
#
#
# Convention : Reuss Voigt Hill
#
# Bulk Modulus (GPa) = 44.08077 61.50993 52.79535
# Shear Modulus (GPa) = -67.68396 20.95721 -23.36337
#
# Velocity S-wave (km/s) = -5.99052 3.33341 -3.51957
# Velocity P-wave (km/s) = 4.94739 6.88682 3.38760
#
# Compressibility (1/GPa) = 0.02268563
#
# Stress axis : x y z
#
# Youngs Moduli (GPa) = 35.83501 93.87686 105.95608
#
# Poissons Ratio (x) = 0.47785 0.47417
# Poissons Ratio (y) = 0.18241 0.32738
# Poissons Ratio (z) = 0.16037 0.29006
#
# Static dielectric constant tensor:
#      x y z
#    x 1.641570 0.000000 0.000000 
#    y 0.000000 1.712200 0.000000 
#    z 0.000000 0.000000 1.625430 
# 
# From -- ./inp_files/23000.got.cif
#   From: 2010.05.17/outbox.cif.g08.bks.cpg/sg44_12_cif.got.tgz:23000.got - 2010.06.03 19:37:08.
