data_PCOD9374626
_publ_section_title
;
Structure prediction by ZEFSAII (Michael W. Deem and Ramdas Pophale) SiO2 
 PCOD9374626
Probable space group: I M M 2
;
_chemical_formula_sum "Si O2"
_cell_formula_units_Z 64
_cell_length_a 15.788036
_cell_length_b 9.547760
_cell_length_c 21.167197
_cell_angle_alpha 90.000000
_cell_angle_beta 90.000000
_cell_angle_gamma 90.000000
_cell_volume 3190.751290
_symmetry_space_group_name_H-M "I M M 2"
_symmetry_group_IT_number 44
_symmetry_cell_setting 'orthorhombic'
loop_
_space_group_symop_operation_xyz
x,y,z
-x,-y,z
-x,y,z
x,-y,z
1/2+x,1/2+y,1/2+z
1/2-x,1/2-y,1/2+z
1/2-x,1/2+y,1/2+z
1/2+x,1/2-y,1/2+z
loop_
_atom_site_type_symbol
_atom_site_label
_atom_site_fract_x
_atom_site_fract_y
_atom_site_fract_z
Si Si1 0.601468 0.659518 0.002120
Si Si2 0.102335 0.161193 0.742150
Si Si3 0.603854 0.161195 0.881745
Si Si4 0.898113 0.160468 0.261965
Si Si5 0.896526 0.160932 0.884731
Si Si6 0.152003 0.659275 0.622555
Si Si7 0.353502 0.341078 0.620708
Si Si8 0.101160 0.343212 0.001286
O O1 0.500000 0.650182 0.995249
O O2 0.634422 0.500000 0.003970
O O3 0.618781 0.743989 0.066055
O O4 0.632431 0.748673 0.942068
O O5 0.129607 0.199146 0.813449
O O6 0.132069 0.267546 0.689014
O O7 0.000000 0.161003 0.741394
O O8 0.129276 0.000000 0.729195
O O9 0.500000 0.160081 0.882017
O O10 0.631783 0.237659 0.817447
O O11 0.631622 0.000000 0.885166
O O12 0.876095 0.208121 0.191279
O O13 0.000000 0.155428 0.266471
O O14 0.866655 0.000000 0.269881
O O15 0.000000 0.163535 0.885141
O O16 0.871779 0.000000 0.896813
O O17 0.865028 0.260341 0.940327
O O18 0.118183 0.500000 0.619235
O O19 0.252738 0.652602 0.615955
O O20 0.387895 0.500000 0.613747
O O21 0.384776 0.242566 0.565120
O O22 0.135984 0.500000 0.005792
O O23 0.000000 0.352734 0.992605
#
# Coordination Sequence:
#
# PCOD9374626 Si02
#       8
#     8   8   8   8   8   8   8   8
#     4  10  20  35  56  79 103 135 174 212 254 310
#     4   9  18  34  56  80 104 134 173 211 252 309
#     4   9  17  30  51  80 109 132 161 209 262 305
#     4   9  17  32  55  78  99 130 173 214 253 303
#     4   8  15  30  53  78 103 133 170 211 255 307
#     4  11  23  36  51  75 106 138 175 218 260 302
#     4  10  22  38  53  72 103 143 181 213 251 306
#     4  10  20  33  53  82 109 133 169 217 263 305
#
# _framework density 20.057971999999999
#
# number of rings (size 3 to 8) (size 9 to 14) (size 15 to 20)
#    0.000    2.500    0.000    3.000    0.000    7.250 
#    0.000    3.750    0.000    3.000    0.000    0.000 
#    0.000    0.000    0.000    0.000    0.000    0.000 
#
# Total GULP energy -178627.593074 kJ/mol
# GULP energy per Si atom -5582.112284 kJ/mol
# Density = 2.001232 g / cm^3
# Si number density = 20.057972 Si / 1000 Ang^3
#
#
#
# Elastic Constant Matrix: (Units=GPa)
#
#
# Indices 1 2 3 4 5 6 
#
# 1 15.9249 8.3768 0.4396 0.0000 0.0000 0.0000
# 2 8.3768 173.8218 136.8026 0.0000 0.0000 0.0000
# 3 0.4396 136.8026 186.4719 0.0000 0.0000 0.0000
# 4 0.0000 0.0000 0.0000 -10.8270 0.0000 0.0000
# 5 0.0000 0.0000 0.0000 0.0000 -56.6122 0.0000
# 6 0.0000 0.0000 0.0000 0.0000 0.0000 11.1750
#
#
#
# Elastic Compliance Matrix: (Units=1/GPa)
#
#
# Indices 1 2 3 4 5 6 
#
# 1 0.066486 -0.007290 0.005191 0.000000 0.000000 0.000000
# 2 -0.007290 0.014412 -0.010556 0.000000 0.000000 0.000000
# 3 0.005191 -0.010556 0.013095 0.000000 0.000000 0.000000
# 4 0.000000 0.000000 0.000000 -0.092361 0.000000 0.000000
# 5 0.000000 0.000000 0.000000 0.000000 -0.017664 0.000000
# 6 0.000000 0.000000 0.000000 0.000000 0.000000 0.089486
#
#
# Mechanical properties :
#
#
# Convention : Reuss Voigt Hill
#
# Bulk Modulus (GPa) = 14.55949 74.16184 44.36067
# Shear Modulus (GPa) = 41.09893 4.12044 22.60969
#
# Velocity S-wave (km/s) = 4.53151 1.43483 3.36105
# Velocity P-wave (km/s) = 5.88675 6.30864 6.10135
#
# Compressibility (1/GPa) = 0.06868371
#
# Stress axis : x y z
#
# Youngs Moduli (GPa) = 15.04080 69.38455 76.36508
#
# Poissons Ratio (x) = 0.50580 -0.39644
# Poissons Ratio (y) = 0.10964 0.80613
# Poissons Ratio (z) = -0.07808 0.73244
#
# Static dielectric constant tensor:
#      x y z
#    x 1.716480 0.000000 0.000000 
#    y 0.000000 1.718940 0.000000 
#    z 0.000000 0.000000 1.680020 
# 
# From -- ./inp_files/24377.got.cif
#   From: 2010.05.17/outbox.cif.g08.bks.cpg/sg44_13_cif.got.tgz:24377.got - 2010.06.03 19:37:08.
