data_PCOD9374359
_publ_section_title
;
Structure prediction by ZEFSAII (Michael W. Deem and Ramdas Pophale) SiO2 
 PCOD9374359
Probable space group: I M M 2
;
_chemical_formula_sum "Si O2"
_cell_formula_units_Z 58
_cell_length_a 8.924491
_cell_length_b 20.293736
_cell_length_c 17.468366
_cell_angle_alpha 90.000000
_cell_angle_beta 90.000000
_cell_angle_gamma 90.000000
_cell_volume 3163.717851
_symmetry_space_group_name_H-M "I M M 2"
_symmetry_group_IT_number 44
_symmetry_cell_setting 'orthorhombic'
loop_
_space_group_symop_operation_xyz
x,y,z
-x,-y,z
-x,y,z
x,-y,z
1/2+x,1/2+y,1/2+z
1/2-x,1/2-y,1/2+z
1/2-x,1/2+y,1/2+z
1/2+x,1/2-y,1/2+z
loop_
_atom_site_type_symbol
_atom_site_label
_atom_site_fract_x
_atom_site_fract_y
_atom_site_fract_z
Si Si1 0.680985 0.625992 0.456070
Si Si2 0.000000 0.500000 0.912477
Si Si3 0.821590 0.573073 0.603984
Si Si4 0.817846 0.728106 0.011233
Si Si5 0.666524 0.131052 0.379195
Si Si6 0.819349 0.311626 0.182405
Si Si7 0.819095 0.923015 0.786431
Si Si8 0.177521 0.167284 0.227674
O O1 0.500000 0.622212 0.460384
O O2 0.752243 0.579357 0.519890
O O3 0.727839 0.699625 0.482132
O O4 0.724745 0.605586 0.370155
O O5 0.128042 0.558337 0.907882
O O6 0.787893 0.500000 0.635823
O O7 0.753930 0.629321 0.657613
O O8 0.000000 0.580247 0.600492
O O9 0.769203 0.705197 0.095554
O O10 0.000000 0.729016 0.014534
O O11 0.772974 0.675440 0.947550
O O12 0.500000 0.158516 0.356157
O O13 0.769490 0.133999 0.305588
O O14 0.747743 0.375370 0.221564
O O15 0.782288 0.244714 0.228660
O O16 0.000000 0.319657 0.181983
O O17 0.000000 0.920676 0.782336
O O18 0.774065 0.000000 0.779638
O O19 0.000000 0.163186 0.216691
#
# Coordination Sequence:
#
# PCOD9374359 Si02
#       8
#     8   2   8   8   8   8   8   8
#     4  10  19  37  62  83 112 149 194 241 288 341
#     4   8  20  36  58  88 112 144 198 248 280 344
#     4  11  24  37  54  83 119 154 190 235 287 349
#     4   9  17  35  59  85 111 145 192 243 287 338
#     4   9  19  36  58  81 112 148 190 240 285 341
#     4  10  21  38  58  87 118 149 194 245 287 347
#     4  10  22  39  60  88 120 156 198 240 292 353
#     4  11  22  37  58  84 118 152 191 237 289 347
#
# _framework density 18.332861000000001
#
# number of rings (size 3 to 8) (size 9 to 14) (size 15 to 20)
#    0.414    1.655    1.379    2.069    0.966    4.690 
#    1.241    1.379    0.000    0.000    0.000    0.000 
#    0.000    0.000    0.000    0.000    0.000    0.000 
#
# Total GULP energy -161437.298979 kJ/mol
# GULP energy per Si atom -5566.803413 kJ/mol
# Density = 1.829113 g / cm^3
# Si number density = 18.332861 Si / 1000 Ang^3
#
#
#
# Elastic Constant Matrix: (Units=GPa)
#
#
# Indices 1 2 3 4 5 6 
#
# 1 22.0399 33.9452 17.0176 0.0000 0.0000 0.0000
# 2 33.9452 145.0670 47.9046 0.0000 0.0000 0.0000
# 3 17.0176 47.9046 49.6579 0.0000 0.0000 0.0000
# 4 0.0000 0.0000 0.0000 19.4164 0.0000 0.0000
# 5 0.0000 0.0000 0.0000 0.0000 23.2840 0.0000
# 6 0.0000 0.0000 0.0000 0.0000 0.0000 26.3660
#
#
#
# Elastic Compliance Matrix: (Units=1/GPa)
#
#
# Indices 1 2 3 4 5 6 
#
# 1 0.076337 -0.013536 -0.013102 0.000000 0.000000 0.000000
# 2 -0.013536 0.012516 -0.007435 0.000000 0.000000 0.000000
# 3 -0.013102 -0.007435 0.031801 0.000000 0.000000 0.000000
# 4 0.000000 0.000000 0.000000 0.051503 0.000000 0.000000
# 5 0.000000 0.000000 0.000000 0.000000 0.042948 0.000000
# 6 0.000000 0.000000 0.000000 0.000000 0.000000 0.037928
#
#
# Mechanical properties :
#
#
# Convention : Reuss Voigt Hill
#
# Bulk Modulus (GPa) = 19.04538 46.05551 32.55044
# Shear Modulus (GPa) = 14.76314 21.67310 18.21812
#
# Velocity S-wave (km/s) = 2.84083 3.44204 3.15579
# Velocity P-wave (km/s) = 4.60126 6.40103 5.57427
#
# Compressibility (1/GPa) = 0.05250617
#
# Stress axis : x y z
#
# Youngs Moduli (GPa) = 13.09989 79.89721 31.44573
#
# Poissons Ratio (x) = 1.08147 0.41201
# Poissons Ratio (y) = 0.17732 0.23381
# Poissons Ratio (z) = 0.17164 0.59407
#
# Static dielectric constant tensor:
#      x y z
#    x 1.627720 0.000000 0.000000 
#    y 0.000000 1.634420 0.000000 
#    z 0.000000 0.000000 1.630380 
# 
# From -- ./inp_files/20579.got.cif
#   From: 2010.05.17/outbox.cif.g08.bks.cpg/sg44_11_cif.got.tgz:20579.got - 2010.06.03 19:37:08.
