data_PCOD9374808
_publ_section_title
;
Structure prediction by ZEFSAII (Michael W. Deem and Ramdas Pophale) SiO2 
 PCOD9374808
Probable space group: I M M 2
;
_chemical_formula_sum "Si O2"
_cell_formula_units_Z 48
_cell_length_a 9.554129
_cell_length_b 7.974744
_cell_length_c 35.071310
_cell_angle_alpha 90.000000
_cell_angle_beta 90.000000
_cell_angle_gamma 90.000000
_cell_volume 2672.143885
_symmetry_space_group_name_H-M "I M M 2"
_symmetry_group_IT_number 44
_symmetry_cell_setting 'orthorhombic'
loop_
_space_group_symop_operation_xyz
x,y,z
-x,-y,z
-x,y,z
x,-y,z
1/2+x,1/2+y,1/2+z
1/2-x,1/2-y,1/2+z
1/2-x,1/2+y,1/2+z
1/2+x,1/2-y,1/2+z
loop_
_atom_site_type_symbol
_atom_site_label
_atom_site_fract_x
_atom_site_fract_y
_atom_site_fract_z
Si Si1 0.831531 0.500000 0.891100
Si Si2 0.670210 0.192952 0.025184
Si Si3 0.169572 0.000000 0.470449
Si Si4 0.662797 0.302117 0.765465
Si Si5 0.340469 0.199500 0.682415
Si Si6 0.333747 0.312714 0.337089
Si Si7 0.159293 0.701985 0.610045
O O1 0.747417 0.500000 0.930288
O O2 0.795838 0.665014 0.866300
O O3 0.000000 0.500000 0.897538
O O4 0.500000 0.188680 0.026565
O O5 0.714522 0.247239 0.067892
O O6 0.715837 0.000000 0.017530
O O7 0.708727 0.333092 0.994441
O O8 0.000000 0.000000 0.465854
O O9 0.500000 0.246643 0.766586
O O10 0.667371 0.500000 0.773423
O O11 0.714498 0.272242 0.722365
O O12 0.751774 0.211559 0.797681
O O13 0.500000 0.262184 0.677436
O O14 0.251173 0.242232 0.645450
O O15 0.344071 0.000000 0.686798
O O16 0.500000 0.297545 0.329817
O O17 0.306477 0.500000 0.352309
O O18 0.153992 0.500000 0.610011
O O19 0.000000 0.765484 0.614044
#
# Coordination Sequence:
#
# PCOD9374808 Si02
#       7
#     4   8   4   8   8   8   8
#     4  10  22  40  56  80 116 144 172 224 278 326
#     4   8  16  32  53  79 109 138 175 225 273 316
#     4  10  20  34  58  84 106 140 182 222 270 328
#     4  10  20  35  56  79 106 142 183 226 274 323
#     4  10  21  34  48  73 109 145 180 222 271 321
#     4  10  21  38  60  82 107 144 183 220 270 326
#     4   9  18  33  53  76 102 137 182 227 270 316
#
# _framework density 17.963103
#
# number of rings (size 3 to 8) (size 9 to 14) (size 15 to 20)
#    0.000    2.500    0.833    2.000    1.167    4.333 
#    0.000    0.833    0.000    1.000    0.000    0.000 
#    0.000    0.000    0.000    0.000    0.000    0.000 
#
# Total GULP energy -133838.829761 kJ/mol
# GULP energy per Si atom -5576.617907 kJ/mol
# Density = 1.792222 g / cm^3
# Si number density = 17.963103 Si / 1000 Ang^3
#
#
#
# Elastic Constant Matrix: (Units=GPa)
#
#
# Indices 1 2 3 4 5 6 
#
# 1 30.9367 31.3256 53.6176 0.0000 0.0000 0.0000
# 2 31.3256 100.7313 73.6657 0.0000 0.0000 0.0000
# 3 53.6176 73.6657 156.1283 0.0000 0.0000 0.0000
# 4 0.0000 0.0000 0.0000 14.6897 0.0000 0.0000
# 5 0.0000 0.0000 0.0000 0.0000 34.5956 0.0000
# 6 0.0000 0.0000 0.0000 0.0000 0.0000 6.0117
#
#
#
# Elastic Compliance Matrix: (Units=1/GPa)
#
#
# Indices 1 2 3 4 5 6 
#
# 1 0.083523 -0.007631 -0.025083 0.000000 0.000000 0.000000
# 2 -0.007631 0.015855 -0.004860 0.000000 0.000000 0.000000
# 3 -0.025083 -0.004860 0.017312 0.000000 0.000000 0.000000
# 4 0.000000 0.000000 0.000000 0.068075 0.000000 0.000000
# 5 0.000000 0.000000 0.000000 0.000000 0.028905 0.000000
# 6 0.000000 0.000000 0.000000 0.000000 0.000000 0.166342
#
#
# Mechanical properties :
#
#
# Convention : Reuss Voigt Hill
#
# Bulk Modulus (GPa) = 24.07199 67.22378 45.64788
# Shear Modulus (GPa) = 10.66081 19.67190 15.16636
#
# Velocity S-wave (km/s) = 2.43879 3.31286 2.90885
# Velocity P-wave (km/s) = 4.62171 7.22066 6.06210
#
# Compressibility (1/GPa) = 0.04154206
#
# Stress axis : x y z
#
# Youngs Moduli (GPa) = 11.97275 63.07288 57.76275
#
# Poissons Ratio (x) = 0.48128 1.44887
# Poissons Ratio (y) = 0.09136 0.28074
# Poissons Ratio (z) = 0.30031 0.30655
#
# Static dielectric constant tensor:
#      x y z
#    x 1.609520 0.000000 0.000000 
#    y 0.000000 1.642430 0.000000 
#    z 0.000000 0.000000 1.593530 
# 
# From -- ./inp_files/26876.got.cif
#   From: 2010.05.17/outbox.cif.g08.bks.cpg/sg44_14_cif.got.tgz:26876.got - 2010.06.03 19:37:08.
