data_PCOD9374912
_publ_section_title
;
Structure prediction by ZEFSAII (Michael W. Deem and Ramdas Pophale) SiO2 
 PCOD9374912
Probable space group: I M M 2
;
_chemical_formula_sum "Si O2"
_cell_formula_units_Z 40
_cell_length_a 15.741549
_cell_length_b 12.904281
_cell_length_c 8.414039
_cell_angle_alpha 90.000000
_cell_angle_beta 90.000000
_cell_angle_gamma 90.000000
_cell_volume 1709.172111
_symmetry_space_group_name_H-M "I M M 2"
_symmetry_group_IT_number 44
_symmetry_cell_setting 'orthorhombic'
loop_
_space_group_symop_operation_xyz
x,y,z
-x,-y,z
-x,y,z
x,-y,z
1/2+x,1/2+y,1/2+z
1/2-x,1/2-y,1/2+z
1/2-x,1/2+y,1/2+z
1/2+x,1/2-y,1/2+z
loop_
_atom_site_type_symbol
_atom_site_label
_atom_site_fract_x
_atom_site_fract_y
_atom_site_fract_z
Si Si1 0.244272 0.390840 0.680020
Si Si2 0.096223 0.670275 0.458170
Si Si3 0.182842 0.174423 0.661907
Si Si4 0.369378 0.883918 0.594694
Si Si5 0.904638 0.162208 0.974237
O O1 0.239661 0.500000 0.768999
O O2 0.170192 0.393181 0.545938
O O3 0.223587 0.277833 0.748770
O O4 0.335112 0.379253 0.597071
O O5 0.124749 0.785145 0.516677
O O6 0.100759 0.645604 0.272921
O O7 0.000000 0.650067 0.513840
O O8 0.266558 0.117732 0.602978
O O9 0.125950 0.127575 0.799867
O O10 0.401401 0.788426 0.488264
O O11 0.398106 0.000000 0.553443
O O12 0.000000 0.129356 0.008424
#
# Coordination Sequence:
#
# PCOD9374912 Si02
#       5
#     8   8   8   8   8
#     4   9  20  36  55  80 109 144 184 222 267 324
#     4  10  20  35  58  81 108 144 184 225 268 325
#     4   9  20  37  56  80 110 149 182 226 269 324
#     4  11  21  37  58  82 115 147 180 226 279 329
#     4  11  22  37  57  84 114 144 181 229 280 322
#
# _framework density 23.403144999999999
#
# number of rings (size 3 to 8) (size 9 to 14) (size 15 to 20)
#    1.200    0.800    2.000    1.800    0.000    4.000 
#    0.000    0.000    0.000    1.800    0.000    0.000 
#    0.000    0.000    0.000    0.000    0.000    0.000 
#
# Total GULP energy -111509.636701 kJ/mol
# GULP energy per Si atom -5575.481835 kJ/mol
# Density = 2.334988 g / cm^3
# Si number density = 23.403145 Si / 1000 Ang^3
#
#
#
# Elastic Constant Matrix: (Units=GPa)
#
#
# Indices 1 2 3 4 5 6 
#
# 1 209.1504 7.8844 30.0301 0.0000 0.0000 0.0000
# 2 7.8844 107.4089 1.6734 0.0000 0.0000 0.0000
# 3 30.0301 1.6734 54.9678 0.0000 0.0000 0.0000
# 4 0.0000 0.0000 0.0000 0.5942 0.0000 0.0000
# 5 0.0000 0.0000 0.0000 0.0000 17.3699 0.0000
# 6 0.0000 0.0000 0.0000 0.0000 0.0000 -92.9465
#
#
#
# Elastic Compliance Matrix: (Units=1/GPa)
#
#
# Indices 1 2 3 4 5 6 
#
# 1 0.005200 -0.000338 -0.002831 0.000000 0.000000 0.000000
# 2 -0.000338 0.009337 -0.000100 0.000000 0.000000 0.000000
# 3 -0.002831 -0.000100 0.019742 0.000000 0.000000 0.000000
# 4 0.000000 0.000000 0.000000 1.682865 0.000000 0.000000
# 5 0.000000 0.000000 0.000000 0.000000 0.057571 0.000000
# 6 0.000000 0.000000 0.000000 0.000000 0.000000 -0.010759
#
#
# Mechanical properties :
#
#
# Convention : Reuss Voigt Hill
#
# Bulk Modulus (GPa) = 36.04575 50.07812 43.06194
# Shear Modulus (GPa) = 2.80940 7.13280 4.97110
#
# Velocity S-wave (km/s) = 1.09683 1.74769 1.45902
# Velocity P-wave (km/s) = 4.12790 5.05144 4.61284
#
# Compressibility (1/GPa) = 0.02774252
#
# Stress axis : x y z
#
# Youngs Moduli (GPa) = 192.29180 107.10594 50.65333
#
# Poissons Ratio (x) = 0.03616 0.14339
# Poissons Ratio (y) = 0.06492 0.00505
# Poissons Ratio (z) = 0.54434 0.01069
#
# Static dielectric constant tensor:
#      x y z
#    x 1.869340 0.000000 0.000000 
#    y 0.000000 1.945140 0.000000 
#    z 0.000000 0.000000 1.863440 
# 
# From -- ./inp_files/6824.got.cif
#   From: 2010.05.17/outbox.cif.g08.bks.cpg/sg44_4_cif.got.tgz:6824.got - 2010.06.03 19:37:08.
