data_PCOD9374182
_publ_section_title
;
Structure prediction by ZEFSAII (Michael W. Deem and Ramdas Pophale) SiO2 
 PCOD9374182
Probable space group: I M M 2
;
_chemical_formula_sum "Si O2"
_cell_formula_units_Z 64
_cell_length_a 15.408394
_cell_length_b 13.852816
_cell_length_c 16.526607
_cell_angle_alpha 90.000000
_cell_angle_beta 90.000000
_cell_angle_gamma 90.000000
_cell_volume 3527.598429
_symmetry_space_group_name_H-M "I M M 2"
_symmetry_group_IT_number 44
_symmetry_cell_setting 'orthorhombic'
loop_
_space_group_symop_operation_xyz
x,y,z
-x,-y,z
-x,y,z
x,-y,z
1/2+x,1/2+y,1/2+z
1/2-x,1/2-y,1/2+z
1/2-x,1/2+y,1/2+z
1/2+x,1/2-y,1/2+z
loop_
_atom_site_type_symbol
_atom_site_label
_atom_site_fract_x
_atom_site_fract_y
_atom_site_fract_z
Si Si1 0.400621 0.297532 0.031370
Si Si2 0.697428 0.886818 0.057539
Si Si3 0.403069 0.385459 0.314833
Si Si4 0.287594 0.386226 0.898898
Si Si5 0.817718 0.110519 0.208821
Si Si6 0.844391 0.231909 0.965799
Si Si7 0.405340 0.788401 0.638892
Si Si8 0.277958 0.614911 0.169703
O O1 0.500000 0.321770 0.047935
O O2 0.383109 0.183006 0.039543
O O3 0.333701 0.343382 0.095550
O O4 0.369789 0.339437 0.945106
O O5 0.735645 0.873308 0.148586
O O6 0.682328 0.000000 0.044314
O O7 0.773365 0.844103 0.000418
O O8 0.500000 0.372792 0.279267
O O9 0.393160 0.500000 0.332634
O O10 0.394933 0.322599 0.395370
O O11 0.328200 0.356524 0.251748
O O12 0.280918 0.500000 0.918960
O O13 0.294588 0.376960 0.802419
O O14 0.206653 0.323924 0.930450
O O15 0.890299 0.186101 0.182704
O O16 0.845444 0.000000 0.195603
O O17 0.897792 0.267110 0.043247
O O18 0.500000 0.829398 0.658166
O O19 0.320812 0.849430 0.664131
O O20 0.280013 0.500000 0.164963
#
# Coordination Sequence:
#
# PCOD9374182 Si02
#       8
#     8   8   8   8   8   8   8   8
#     4  11  22  36  57  85 113 149 193 235 282 332
#     4   9  18  35  57  84 116 151 186 225 281 343
#     4  10  21  36  59  88 113 143 186 237 289 338
#     4  10  20  35  57  82 113 152 191 230 278 330
#     4   9  18  35  59  84 112 147 185 230 284 337
#     4  10  19  34  57  84 116 147 183 231 284 333
#     4  11  22  37  57  85 114 147 189 231 282 345
#     4  11  22  40  57  78 113 151 191 238 283 330
#
# _framework density 18.142655999999999
#
# number of rings (size 3 to 8) (size 9 to 14) (size 15 to 20)
#    0.000    1.875    3.750    2.250    0.000    3.250 
#    0.000    1.250    0.000    1.125    0.000    3.500 
#    0.000    0.000    0.000    0.000    0.000    0.000 
#
# Total GULP energy -178513.466496 kJ/mol
# GULP energy per Si atom -5578.545828 kJ/mol
# Density = 1.810136 g / cm^3
# Si number density = 18.142656 Si / 1000 Ang^3
#
#
#
# Elastic Constant Matrix: (Units=GPa)
#
#
# Indices 1 2 3 4 5 6 
#
# 1 117.7316 40.1158 31.6410 0.0000 0.0000 0.0000
# 2 40.1158 93.1868 43.3311 0.0000 0.0000 0.0000
# 3 31.6410 43.3311 83.5370 0.0000 0.0000 0.0000
# 4 0.0000 0.0000 0.0000 29.8590 0.0000 0.0000
# 5 0.0000 0.0000 0.0000 0.0000 8.9221 0.0000
# 6 0.0000 0.0000 0.0000 0.0000 0.0000 13.8092
#
#
#
# Elastic Compliance Matrix: (Units=1/GPa)
#
#
# Indices 1 2 3 4 5 6 
#
# 1 0.010225 -0.003428 -0.002095 0.000000 0.000000 0.000000
# 2 -0.003428 0.015291 -0.006633 0.000000 0.000000 0.000000
# 3 -0.002095 -0.006633 0.016205 0.000000 0.000000 0.000000
# 4 0.000000 0.000000 0.000000 0.033491 0.000000 0.000000
# 5 0.000000 0.000000 0.000000 0.000000 0.112081 0.000000
# 6 0.000000 0.000000 0.000000 0.000000 0.000000 0.072415
#
#
# Mechanical properties :
#
#
# Convention : Reuss Voigt Hill
#
# Bulk Modulus (GPa) = 57.44061 58.29234 57.86648
# Shear Modulus (GPa) = 17.25192 22.47590 19.86391
#
# Velocity S-wave (km/s) = 3.08702 3.52354 3.31248
# Velocity P-wave (km/s) = 6.66600 6.98237 6.82602
#
# Compressibility (1/GPa) = 0.01740928
#
# Stress axis : x y z
#
# Youngs Moduli (GPa) = 97.80130 65.39756 61.70941
#
# Poissons Ratio (x) = 0.22415 0.12928
# Poissons Ratio (y) = 0.33522 0.40934
# Poissons Ratio (z) = 0.20489 0.43380
#
# Static dielectric constant tensor:
#      x y z
#    x 1.619540 0.000000 0.000000 
#    y 0.000000 1.624750 0.000000 
#    z 0.000000 0.000000 1.626430 
# 
# From -- ./inp_files/21986.got.cif
#   From: 2010.05.17/outbox.cif.g08.bks.cpg/sg44_11_cif.got.tgz:21986.got - 2010.06.03 19:37:08.
