data_PCOD9374216
_publ_section_title
;
Structure prediction by ZEFSAII (Michael W. Deem and Ramdas Pophale) SiO2 
 PCOD9374216
Probable space group: I M M 2
;
_chemical_formula_sum "Si O2"
_cell_formula_units_Z 48
_cell_length_a 8.484975
_cell_length_b 10.621777
_cell_length_c 29.162520
_cell_angle_alpha 90.000000
_cell_angle_beta 90.000000
_cell_angle_gamma 90.000000
_cell_volume 2628.287055
_symmetry_space_group_name_H-M "I M M 2"
_symmetry_group_IT_number 44
_symmetry_cell_setting 'orthorhombic'
loop_
_space_group_symop_operation_xyz
x,y,z
-x,-y,z
-x,y,z
x,-y,z
1/2+x,1/2+y,1/2+z
1/2-x,1/2-y,1/2+z
1/2-x,1/2+y,1/2+z
1/2+x,1/2-y,1/2+z
loop_
_atom_site_type_symbol
_atom_site_label
_atom_site_fract_x
_atom_site_fract_y
_atom_site_fract_z
Si Si1 0.690834 0.000000 0.441970
Si Si2 0.310056 0.352950 0.199447
Si Si3 0.690405 0.500000 0.045714
Si Si4 0.307715 0.500000 0.449327
Si Si5 0.309779 0.744798 0.392324
Si Si6 0.809238 0.247252 0.602308
Si Si7 0.188786 0.000000 0.055074
Si Si8 0.188156 0.645828 0.298444
O O1 0.743604 0.125699 0.415586
O O2 0.500000 0.000000 0.442634
O O3 0.749163 0.000000 0.494008
O O4 0.500000 0.348953 0.201622
O O5 0.264914 0.500000 0.192784
O O6 0.258792 0.275335 0.154913
O O7 0.243323 0.310816 0.248288
O O8 0.500000 0.500000 0.045573
O O9 0.741482 0.374244 0.072605
O O10 0.500000 0.500000 0.449258
O O11 0.255837 0.624799 0.422324
O O12 0.255785 0.500000 0.502076
O O13 0.500000 0.744188 0.392495
O O14 0.253621 0.725620 0.340521
O O15 0.747275 0.375054 0.580475
O O16 0.000000 0.249798 0.601876
O O17 0.000000 0.000000 0.054570
O O18 0.243957 0.500000 0.303923
O O19 0.000000 0.645733 0.300042
#
# Coordination Sequence:
#
# PCOD9374216 Si02
#       8
#     4   8   4   4   8   8   4   8
#     4  10  22  36  53  80 113 144 181 226 269 320
#     4   9  17  33  58  82 105 138 180 221 265 322
#     4  10  20  36  59  84 111 145 187 231 277 324
#     4   9  18  33  54  75 100 140 187 222 256 311
#     4  10  19  35  56  77 104 143 184 221 263 317
#     4  10  20  37  58  83 112 146 187 228 270 326
#     4  11  23  37  54  81 116 151 185 227 278 325
#     4  10  20  33  52  82 112 134 170 225 277 321
#
# _framework density 18.262846
#
# number of rings (size 3 to 8) (size 9 to 14) (size 15 to 20)
#    0.000    2.167    1.667    1.750    0.000    4.000 
#    0.000    2.500    0.000    2.000    0.000    0.000 
#    0.000    0.000    0.000    0.000    0.000    0.000 
#
# Total GULP energy -133981.817205 kJ/mol
# GULP energy per Si atom -5582.575717 kJ/mol
# Density = 1.822128 g / cm^3
# Si number density = 18.262846 Si / 1000 Ang^3
#
#
#
# Elastic Constant Matrix: (Units=GPa)
#
#
# Indices 1 2 3 4 5 6 
#
# 1 10.0864 24.9081 27.4920 0.0000 0.0000 0.0000
# 2 24.9081 154.4763 106.8339 0.0000 0.0000 0.0000
# 3 27.4920 106.8339 207.4208 0.0000 0.0000 0.0000
# 4 0.0000 0.0000 0.0000 -3.5740 0.0000 0.0000
# 5 0.0000 0.0000 0.0000 0.0000 30.7015 0.0000
# 6 0.0000 0.0000 0.0000 0.0000 0.0000 9.6764
#
#
#
# Elastic Compliance Matrix: (Units=1/GPa)
#
#
# Indices 1 2 3 4 5 6 
#
# 1 0.189360 -0.020465 -0.014557 0.000000 0.000000 0.000000
# 2 -0.020465 0.012267 -0.003606 0.000000 0.000000 0.000000
# 3 -0.014557 -0.003606 0.008608 0.000000 0.000000 0.000000
# 4 0.000000 0.000000 0.000000 -0.279796 0.000000 0.000000
# 5 0.000000 0.000000 0.000000 0.000000 0.032572 0.000000
# 6 0.000000 0.000000 0.000000 0.000000 0.000000 0.103344
#
#
# Mechanical properties :
#
#
# Convention : Reuss Voigt Hill
#
# Bulk Modulus (GPa) = 7.52004 76.71684 42.11844
# Shear Modulus (GPa) = 26.60465 21.54407 24.07436
#
# Velocity S-wave (km/s) = 3.82090 3.43835 3.63466
# Velocity P-wave (km/s) = 4.85719 7.60666 6.38175
#
# Compressibility (1/GPa) = 0.13297809
#
# Stress axis : x y z
#
# Youngs Moduli (GPa) = 5.28095 81.51951 116.17413
#
# Poissons Ratio (x) = 1.66830 1.69120
# Poissons Ratio (y) = 0.10807 0.41890
# Poissons Ratio (z) = 0.07688 0.29394
#
# Static dielectric constant tensor:
#      x y z
#    x 1.624880 0.000000 0.000000 
#    y 0.000000 1.608910 0.000000 
#    z 0.000000 0.000000 1.608790 
# 
# From -- ./inp_files/26991.got.cif
#   From: 2010.05.17/outbox.cif.g08.bks.cpg/sg44_14_cif.got.tgz:26991.got - 2010.06.03 19:37:08.
