data_PCOD9374381
_publ_section_title
;
Structure prediction by ZEFSAII (Michael W. Deem and Ramdas Pophale) SiO2 
 PCOD9374381
Probable space group: I M M 2
;
_chemical_formula_sum "Si O2"
_cell_formula_units_Z 48
_cell_length_a 8.811319
_cell_length_b 7.948096
_cell_length_c 35.785909
_cell_angle_alpha 90.000000
_cell_angle_beta 90.000000
_cell_angle_gamma 90.000000
_cell_volume 2506.202055
_symmetry_space_group_name_H-M "I M M 2"
_symmetry_group_IT_number 44
_symmetry_cell_setting 'orthorhombic'
loop_
_space_group_symop_operation_xyz
x,y,z
-x,-y,z
-x,y,z
x,-y,z
1/2+x,1/2+y,1/2+z
1/2-x,1/2-y,1/2+z
1/2-x,1/2+y,1/2+z
1/2+x,1/2-y,1/2+z
loop_
_atom_site_type_symbol
_atom_site_label
_atom_site_fract_x
_atom_site_fract_y
_atom_site_fract_z
Si Si1 0.673459 0.700315 0.260510
Si Si2 0.685412 0.805841 0.422113
Si Si3 0.816008 0.000000 0.975833
Si Si4 0.183647 0.310697 0.104236
Si Si5 0.325721 0.697881 0.683968
Si Si6 0.181102 0.500000 0.558512
Si Si7 0.326201 0.797742 0.339975
O O1 0.500000 0.764222 0.261688
O O2 0.672341 0.500000 0.257127
O O3 0.747510 0.772260 0.223402
O O4 0.745959 0.744316 0.300717
O O5 0.500000 0.807658 0.420322
O O6 0.727862 0.667198 0.452547
O O7 0.739632 0.752666 0.380491
O O8 0.731593 0.000000 0.429740
O O9 0.000000 0.000000 0.979289
O O10 0.742787 0.000000 0.016398
O O11 0.216736 0.500000 0.091076
O O12 0.236295 0.290676 0.147347
O O13 0.000000 0.288289 0.104131
O O14 0.256466 0.165093 0.079634
O O15 0.500000 0.752029 0.688409
O O16 0.321907 0.500000 0.675091
O O17 0.000000 0.500000 0.559189
O O18 0.500000 0.730045 0.339442
O O19 0.333349 0.000000 0.340085
#
# Coordination Sequence:
#
# PCOD9374381 Si02
#       7
#     8   8   4   8   8   4   8
#     4  10  20  30  45  75 113 149 186 228 277 335
#     4   8  15  28  49  79 109 139 181 234 287 331
#     4  10  20  34  58  84 108 142 192 244 284 340
#     4  10  21  41  68  90 112 149 198 248 293 344
#     4  10  20  36  58  80 107 144 188 235 284 336
#     4  12  26  42  60  88 126 158 188 236 298 370
#     4   8  14  26  44  69 104 142 180 227 281 328
#
# _framework density 19.152487000000001
#
# number of rings (size 3 to 8) (size 9 to 14) (size 15 to 20)
#    0.000    2.500    0.833    2.750    1.167    3.667 
#    0.000    1.667    0.000    1.000    0.000    2.333 
#    0.000    0.000    0.000    0.000    0.000    0.000 
#
# Total GULP energy -133800.701339 kJ/mol
# GULP energy per Si atom -5575.029222 kJ/mol
# Density = 1.910889 g / cm^3
# Si number density = 19.152487 Si / 1000 Ang^3
#
#
#
# Elastic Constant Matrix: (Units=GPa)
#
#
# Indices 1 2 3 4 5 6 
#
# 1 24.3449 29.9941 39.0943 0.0000 0.0000 0.0000
# 2 29.9941 102.1564 81.0484 0.0000 0.0000 0.0000
# 3 39.0943 81.0484 173.1452 0.0000 0.0000 0.0000
# 4 0.0000 0.0000 0.0000 7.8789 0.0000 0.0000
# 5 0.0000 0.0000 0.0000 0.0000 19.4063 0.0000
# 6 0.0000 0.0000 0.0000 0.0000 0.0000 11.8317
#
#
#
# Elastic Compliance Matrix: (Units=1/GPa)
#
#
# Indices 1 2 3 4 5 6 
#
# 1 0.074692 -0.013602 -0.010498 0.000000 0.000000 0.000000
# 2 -0.013602 0.018049 -0.005377 0.000000 0.000000 0.000000
# 3 -0.010498 -0.005377 0.010663 0.000000 0.000000 0.000000
# 4 0.000000 0.000000 0.000000 0.126922 0.000000 0.000000
# 5 0.000000 0.000000 0.000000 0.000000 0.051530 0.000000
# 6 0.000000 0.000000 0.000000 0.000000 0.000000 0.084519
#
#
# Mechanical properties :
#
#
# Convention : Reuss Voigt Hill
#
# Bulk Modulus (GPa) = 22.49709 66.65780 44.57745
# Shear Modulus (GPa) = 11.35988 17.79068 14.57528
#
# Velocity S-wave (km/s) = 2.43806 3.05109 2.76164
# Velocity P-wave (km/s) = 4.43817 6.87688 5.78744
#
# Compressibility (1/GPa) = 0.04445019
#
# Stress axis : x y z
#
# Youngs Moduli (GPa) = 13.38825 55.40517 93.78260
#
# Poissons Ratio (x) = 0.75360 0.98451
# Poissons Ratio (y) = 0.18210 0.50431
# Poissons Ratio (z) = 0.14055 0.29794
#
# Static dielectric constant tensor:
#      x y z
#    x 1.679630 0.000000 0.000000 
#    y 0.000000 1.672180 0.000000 
#    z 0.000000 0.000000 1.682960 
# 
# From -- ./inp_files/26982.got.cif
#   From: 2010.05.17/outbox.cif.g08.bks.cpg/sg44_14_cif.got.tgz:26982.got - 2010.06.03 19:37:08.
