data_PCOD9374957
_publ_section_title
;
Structure prediction by ZEFSAII (Michael W. Deem and Ramdas Pophale) SiO2 
 PCOD9374957
Probable space group: I M M 2
;
_chemical_formula_sum "Si O2"
_cell_formula_units_Z 56
_cell_length_a 15.199206
_cell_length_b 22.808460
_cell_length_c 9.079323
_cell_angle_alpha 90.000000
_cell_angle_beta 90.000000
_cell_angle_gamma 90.000000
_cell_volume 3147.533281
_symmetry_space_group_name_H-M "I M M 2"
_symmetry_group_IT_number 44
_symmetry_cell_setting 'orthorhombic'
loop_
_space_group_symop_operation_xyz
x,y,z
-x,-y,z
-x,y,z
x,-y,z
1/2+x,1/2+y,1/2+z
1/2-x,1/2-y,1/2+z
1/2-x,1/2+y,1/2+z
1/2+x,1/2-y,1/2+z
loop_
_atom_site_type_symbol
_atom_site_label
_atom_site_fract_x
_atom_site_fract_y
_atom_site_fract_z
Si Si1 0.351367 0.359741 0.258830
Si Si2 0.723876 0.930581 0.554641
Si Si3 0.000000 0.932236 0.919069
Si Si4 0.398116 0.069996 0.818643
Si Si5 0.817868 0.135481 0.306272
Si Si6 0.102199 0.230717 0.507392
Si Si7 0.718948 0.843419 0.003367
Si Si8 0.000000 0.933033 0.272356
O O1 0.301473 0.408168 0.161016
O O2 0.418063 0.396027 0.358108
O O3 0.282868 0.327952 0.366969
O O4 0.392782 0.313205 0.146790
O O5 0.638016 0.916742 0.653637
O O6 0.742738 0.895043 0.406108
O O7 0.727127 0.000000 0.528025
O O8 0.000000 0.000000 0.868482
O O9 0.000000 0.932875 0.095110
O O10 0.500000 0.086395 0.832413
O O11 0.389252 0.000000 0.837659
O O12 0.339064 0.103178 0.938683
O O13 0.845950 0.197507 0.376430
O O14 0.779382 0.140670 0.142723
O O15 0.909009 0.098429 0.317372
O O16 0.153578 0.290422 0.540152
O O17 0.000000 0.240549 0.469163
O O18 0.000000 0.000000 0.326371
#
# Coordination Sequence:
#
# PCOD9374957 Si02
#       8
#     8   8   4   8   8   8   8   4
#     4  10  20  36  55  81 114 149 196 237 278 346
#     4   9  19  34  56  83 112 148 184 230 289 351
#     4  11  20  33  57  87 119 155 189 236 289 346
#     4   9  19  38  61  84 112 147 191 242 290 344
#     4  11  22  38  56  85 120 151 191 239 294 350
#     4  11  22  38  58  78 110 153 196 246 290 336
#     4  11  22  37  59  83 114 151 197 235 294 348
#     4  11  22  35  57  89 127 159 185 236 299 358
#
# _framework density 17.791709999999998
#
# number of rings (size 3 to 8) (size 9 to 14) (size 15 to 20)
#    0.000    1.714    2.857    2.143    0.000    1.714 
#    0.000    3.571    0.000    1.714    0.000    0.000 
#    0.000    0.000    0.000    0.000    0.000    0.000 
#
# Total GULP energy -156151.271470 kJ/mol
# GULP energy per Si atom -5576.831124 kJ/mol
# Density = 1.775122 g / cm^3
# Si number density = 17.791710 Si / 1000 Ang^3
#
#
#
# Elastic Constant Matrix: (Units=GPa)
#
#
# Indices 1 2 3 4 5 6 
#
# 1 87.8252 35.5503 29.2973 0.0000 0.0000 0.0000
# 2 35.5503 58.7412 13.9338 0.0000 0.0000 0.0000
# 3 29.2973 13.9338 76.9637 -0.0001 0.0000 0.0000
# 4 0.0000 0.0000 -0.0001 19.8402 0.0000 0.0000
# 5 0.0000 0.0000 0.0000 0.0000 21.2032 0.0000
# 6 0.0000 0.0000 0.0000 0.0000 0.0000 26.6801
#
#
#
# Elastic Compliance Matrix: (Units=1/GPa)
#
#
# Indices 1 2 3 4 5 6 
#
# 1 0.016556 -0.008907 -0.004690 0.000000 0.000000 0.000000
# 2 -0.008907 0.022580 -0.000697 0.000000 0.000000 0.000000
# 3 -0.004690 -0.000697 0.014905 0.000000 0.000000 0.000000
# 4 0.000000 0.000000 0.000000 0.050403 0.000000 0.000000
# 5 0.000000 0.000000 0.000000 0.000000 0.047163 0.000000
# 6 0.000000 0.000000 0.000000 0.000000 0.000000 0.037481
#
#
# Mechanical properties :
#
#
# Convention : Reuss Voigt Hill
#
# Bulk Modulus (GPa) = 39.28959 42.34366 40.81663
# Shear Modulus (GPa) = 22.10821 23.19462 22.65142
#
# Velocity S-wave (km/s) = 3.52890 3.61456 3.57199
# Velocity P-wave (km/s) = 6.22376 6.42428 6.32482
#
# Compressibility (1/GPa) = 0.02545204
#
# Stress axis : x y z
#
# Youngs Moduli (GPa) = 60.39993 44.28685 67.09344
#
# Poissons Ratio (x) = 0.39448 0.31465
# Poissons Ratio (y) = 0.53801 0.04678
# Poissons Ratio (z) = 0.28326 0.03088
#
# Static dielectric constant tensor:
#      x y z
#    x 1.602080 0.000000 0.000000 
#    y 0.000000 1.592090 0.000000 
#    z 0.000000 0.000000 1.597830 
# 
# From -- ./inp_files/7415.got.cif
#   From: 2010.05.17/outbox.cif.g08.bks.cpg/sg44_4_cif.got.tgz:7415.got - 2010.06.03 19:37:08.
