data_PCOD9374306
_publ_section_title
;
Structure prediction by ZEFSAII (Michael W. Deem and Ramdas Pophale) SiO2 
 PCOD9374306
Probable space group: I M M 2
;
_chemical_formula_sum "Si O2"
_cell_formula_units_Z 64
_cell_length_a 30.103683
_cell_length_b 11.483030
_cell_length_c 9.600253
_cell_angle_alpha 90.000000
_cell_angle_beta 90.000000
_cell_angle_gamma 90.000000
_cell_volume 3318.629809
_symmetry_space_group_name_H-M "I M M 2"
_symmetry_group_IT_number 44
_symmetry_cell_setting 'orthorhombic'
loop_
_space_group_symop_operation_xyz
x,y,z
-x,-y,z
-x,y,z
x,-y,z
1/2+x,1/2+y,1/2+z
1/2-x,1/2-y,1/2+z
1/2-x,1/2+y,1/2+z
1/2+x,1/2-y,1/2+z
loop_
_atom_site_type_symbol
_atom_site_label
_atom_site_fract_x
_atom_site_fract_y
_atom_site_fract_z
Si Si1 0.803594 0.638547 0.328960
Si Si2 0.449305 0.872408 0.868841
Si Si3 0.848273 0.792394 0.565247
Si Si4 0.403314 0.624619 0.814828
Si Si5 0.451148 0.137952 0.484367
Si Si6 0.420926 0.129517 0.180497
Si Si7 0.141694 0.755138 0.080235
Si Si8 0.700353 0.363967 0.335377
O O1 0.806785 0.500000 0.338547
O O2 0.826020 0.697798 0.463098
O O3 0.828690 0.679414 0.188293
O O4 0.751848 0.673183 0.333474
O O5 0.500000 0.875837 0.823944
O O6 0.428569 0.749665 0.821560
O O7 0.428407 0.000000 0.829993
O O8 0.447430 0.869519 0.036257
O O9 0.873755 0.873002 0.454843
O O10 0.883902 0.725816 0.660146
O O11 0.816344 0.851246 0.676410
O O12 0.427950 0.500000 0.810678
O O13 0.373293 0.636689 0.677100
O O14 0.500000 0.184223 0.529370
O O15 0.449096 0.150146 0.317461
O O16 0.404872 0.193395 0.536819
O O17 0.450234 0.000000 0.516372
O O18 0.400736 0.000000 0.195070
O O19 0.170578 0.792418 0.946285
O O20 0.697975 0.500000 0.375111
#
# Coordination Sequence:
#
# PCOD9374306 Si02
#       8
#     8   8   8   8   8   8   8   8
#     4  10  22  38  59  89 123 154 196 252 313 373
#     4   9  18  33  56  84 113 149 196 249 302 358
#     4  10  19  36  59  82 113 152 197 243 296 362
#     4  10  22  37  56  82 114 157 199 243 300 364
#     4  10  20  34  56  87 121 157 199 248 306 368
#     4   9  16  30  54  83 113 145 187 244 301 351
#     4  11  22  39  59  84 122 161 200 250 306 369
#     4  11  22  38  60  85 115 158 205 253 305 367
#
# _framework density 19.285067000000002
#
# number of rings (size 3 to 8) (size 9 to 14) (size 15 to 20)
#    0.000    2.000    1.250    2.625    0.000    5.750 
#    0.000    1.250    0.000    7.125    0.000    0.000 
#    0.000    0.000    0.000    0.000    0.000    0.000 
#
# Total GULP energy -178290.628356 kJ/mol
# GULP energy per Si atom -5571.582136 kJ/mol
# Density = 1.924117 g / cm^3
# Si number density = 19.285067 Si / 1000 Ang^3
#
#
#
# Elastic Constant Matrix: (Units=GPa)
#
#
# Indices 1 2 3 4 5 6 
#
# 1 115.6894 49.0069 37.9466 0.0000 0.0000 0.0000
# 2 49.0069 109.6519 27.0075 0.0000 0.0000 0.0000
# 3 37.9466 27.0075 122.3257 0.0000 0.0000 0.0000
# 4 0.0000 0.0000 0.0000 -41.4396 0.0000 0.0000
# 5 0.0000 0.0000 0.0000 0.0000 -12.8335 0.0000
# 6 0.0000 0.0000 0.0000 0.0000 0.0000 40.6394
#
#
#
# Elastic Compliance Matrix: (Units=1/GPa)
#
#
# Indices 1 2 3 4 5 6 
#
# 1 0.011364 -0.004453 -0.002542 0.000000 0.000000 0.000000
# 2 -0.004453 0.011389 -0.001133 0.000000 0.000000 0.000000
# 3 -0.002542 -0.001133 0.009214 0.000000 0.000000 0.000000
# 4 0.000000 0.000000 0.000000 -0.024132 0.000000 0.000000
# 5 0.000000 0.000000 0.000000 0.000000 -0.077921 0.000000
# 6 0.000000 0.000000 0.000000 0.000000 0.000000 0.024607
#
#
# Mechanical properties :
#
#
# Convention : Reuss Voigt Hill
#
# Bulk Modulus (GPa) = 63.65207 63.95431 63.80319
# Shear Modulus (GPa) = -208.44757 12.85368 -97.79695
#
# Velocity S-wave (km/s) = -10.40780 2.58449 -7.12891
# Velocity P-wave (km/s) = 10.55235 6.49159 5.88266
#
# Compressibility (1/GPa) = 0.01571041
#
# Stress axis : x y z
#
# Youngs Moduli (GPa) = 87.99823 87.80441 108.53437
#
# Poissons Ratio (x) = 0.39097 0.27590
# Poissons Ratio (y) = 0.39183 0.12299
# Poissons Ratio (z) = 0.22370 0.09950
#
# Static dielectric constant tensor:
#      x y z
#    x 1.696580 0.000000 0.000000 
#    y 0.000000 1.676810 0.000000 
#    z 0.000000 0.000000 1.680790 
# 
# From -- ./inp_files/6387.got.cif
#   From: 2010.05.17/outbox.cif.g08.bks.cpg/sg44_4_cif.got.tgz:6387.got - 2010.06.03 19:37:08.
