data_PCOD9374143
_publ_section_title
;
Structure prediction by ZEFSAII (Michael W. Deem and Ramdas Pophale) SiO2 
 PCOD9374143
Probable space group: I M M 2
;
_chemical_formula_sum "Si O2"
_cell_formula_units_Z 40
_cell_length_a 8.616434
_cell_length_b 26.356148
_cell_length_c 9.823113
_cell_angle_alpha 90.000000
_cell_angle_beta 90.000000
_cell_angle_gamma 90.000000
_cell_volume 2230.789765
_symmetry_space_group_name_H-M "I M M 2"
_symmetry_group_IT_number 44
_symmetry_cell_setting 'orthorhombic'
loop_
_space_group_symop_operation_xyz
x,y,z
-x,-y,z
-x,y,z
x,-y,z
1/2+x,1/2+y,1/2+z
1/2-x,1/2-y,1/2+z
1/2-x,1/2+y,1/2+z
1/2+x,1/2-y,1/2+z
loop_
_atom_site_type_symbol
_atom_site_label
_atom_site_fract_x
_atom_site_fract_y
_atom_site_fract_z
Si Si1 0.688360 0.000000 0.200081
Si Si2 0.686729 0.794856 0.691927
Si Si3 0.688878 0.091806 0.007234
Si Si4 0.187861 0.589640 0.191868
Si Si5 0.684408 0.500000 0.006043
Si Si6 0.312958 0.793782 0.004890
O O1 0.748600 0.000000 0.353472
O O2 0.500000 0.000000 0.203871
O O3 0.739426 0.049367 0.113883
O O4 0.500000 0.793702 0.687568
O O5 0.733011 0.852523 0.655355
O O6 0.734678 0.786073 0.848182
O O7 0.750894 0.751016 0.597318
O O8 0.500000 0.091568 0.006843
O O9 0.733947 0.080724 0.850247
O O10 0.738152 0.149096 0.043976
O O11 0.257691 0.548841 0.090340
O O12 0.000000 0.586149 0.186607
O O13 0.500000 0.500000 0.999594
O O14 0.500000 0.793383 0.009724
#
# Coordination Sequence:
#
# PCOD9374143 Si02
#       6
#     4   8   8   8   4   8
#     4  10  19  34  56  78 100 132 175 214 252 300
#     4   9  19  34  53  78 104 134 173 211 250 300
#     4   8  16  33  58  80  96 128 179 221 249 291
#     4   9  18  37  60  76  96 132 177 216 249 295
#     4  12  25  36  48  76 112 136 161 204 262 314
#     4   9  18  33  52  77 108 136 167 211 258 299
#
# _framework density 17.930869000000001
#
# number of rings (size 3 to 8) (size 9 to 14) (size 15 to 20)
#    0.000    2.800    0.000    3.900    0.000    4.800 
#    0.000   12.000    0.000    0.000    0.000    0.000 
#    0.000    0.000    0.000    0.000    0.000    0.000 
#
# Total GULP energy -111528.924829 kJ/mol
# GULP energy per Si atom -5576.446241 kJ/mol
# Density = 1.789006 g / cm^3
# Si number density = 17.930869 Si / 1000 Ang^3
#
#
#
# Elastic Constant Matrix: (Units=GPa)
#
#
# Indices 1 2 3 4 5 6 
#
# 1 18.9359 40.4678 33.4128 0.0000 0.0000 0.0000
# 2 40.4678 203.5432 145.0082 0.0001 0.0000 0.0000
# 3 33.4128 145.0082 142.3035 -0.0001 0.0000 0.0000
# 4 0.0000 0.0001 -0.0001 39.5927 0.0000 0.0000
# 5 0.0000 0.0000 0.0000 0.0000 21.2994 0.0000
# 6 0.0000 0.0000 0.0000 0.0000 0.0000 28.8014
#
#
#
# Elastic Compliance Matrix: (Units=1/GPa)
#
#
# Indices 1 2 3 4 5 6 
#
# 1 0.096603 -0.011118 -0.011352 0.000000 0.000000 0.000000
# 2 -0.011118 0.019208 -0.016962 0.000000 0.000000 0.000000
# 3 -0.011352 -0.016962 0.026977 0.000000 0.000000 0.000000
# 4 0.000000 0.000000 0.000000 0.025257 0.000000 0.000000
# 5 0.000000 0.000000 0.000000 0.000000 0.046950 0.000000
# 6 0.000000 0.000000 0.000000 0.000000 0.000000 0.034721
#
#
# Mechanical properties :
#
#
# Convention : Reuss Voigt Hill
#
# Bulk Modulus (GPa) = 15.64421 89.17335 52.40878
# Shear Modulus (GPa) = 14.29029 27.66496 20.97763
#
# Velocity S-wave (km/s) = 2.82612 3.93220 3.42412
# Velocity P-wave (km/s) = 4.40374 8.39380 6.70257
#
# Compressibility (1/GPa) = 0.06392141
#
# Stress axis : x y z
#
# Youngs Moduli (GPa) = 10.35170 52.06267 37.06826
#
# Poissons Ratio (x) = 0.57886 0.42082
# Poissons Ratio (y) = 0.11510 0.62875
# Poissons Ratio (z) = 0.11752 0.88309
#
# Static dielectric constant tensor:
#      x y z
#    x 1.616700 0.000000 0.000000 
#    y 0.000000 1.613200 0.000000 
#    z 0.000000 0.000000 1.590070 
# 
# From -- ./inp_files/4639.got.cif
#   From: 2010.05.17/outbox.cif.g08.bks.cpg/sg44_3_cif.got.tgz:4639.got - 2010.06.03 19:37:08.
