data_PCOD9374807
_publ_section_title
;
Structure prediction by ZEFSAII (Michael W. Deem and Ramdas Pophale) SiO2 
 PCOD9374807
Probable space group: I M M 2
;
_chemical_formula_sum "Si O2"
_cell_formula_units_Z 64
_cell_length_a 18.480058
_cell_length_b 15.869993
_cell_length_c 11.245206
_cell_angle_alpha 90.000000
_cell_angle_beta 90.000000
_cell_angle_gamma 90.000000
_cell_volume 3297.975923
_symmetry_space_group_name_H-M "I M M 2"
_symmetry_group_IT_number 44
_symmetry_cell_setting 'orthorhombic'
loop_
_space_group_symop_operation_xyz
x,y,z
-x,-y,z
-x,y,z
x,-y,z
1/2+x,1/2+y,1/2+z
1/2-x,1/2-y,1/2+z
1/2-x,1/2+y,1/2+z
1/2+x,1/2-y,1/2+z
loop_
_atom_site_type_symbol
_atom_site_label
_atom_site_fract_x
_atom_site_fract_y
_atom_site_fract_z
Si Si1 0.777992 0.905126 0.795720
Si Si2 0.580342 0.256891 0.805246
Si Si3 0.583248 0.328973 0.361331
Si Si4 0.838683 0.660725 0.923890
Si Si5 0.788051 0.405072 0.673309
Si Si6 0.615832 0.596374 0.623116
Si Si7 0.132302 0.407631 0.163987
Si Si8 0.793426 0.724179 0.479603
O O1 0.857080 0.867776 0.772129
O O2 0.718383 0.905836 0.693015
O O3 0.741136 0.847897 0.895541
O O4 0.786829 0.000000 0.840287
O O5 0.500000 0.251981 0.855570
O O6 0.584973 0.334707 0.713912
O O7 0.597175 0.170972 0.732075
O O8 0.640652 0.263954 0.907007
O O9 0.500000 0.339260 0.327576
O O10 0.605600 0.232156 0.380721
O O11 0.597145 0.374585 0.489102
O O12 0.806458 0.612656 0.810551
O O13 0.772544 0.710521 0.988930
O O14 0.875633 0.604200 0.023662
O O15 0.813027 0.500000 0.640338
O O16 0.702105 0.401940 0.647464
O O17 0.817263 0.326171 0.596683
O O18 0.591348 0.500000 0.641298
O O19 0.105898 0.500000 0.203436
#
# Coordination Sequence:
#
# PCOD9374807 Si02
#       8
#     8   8   8   8   8   8   8   8
#     4   9  18  33  55  81 112 144 183 235 289 338
#     4  11  22  39  59  87 122 156 191 240 298 351
#     4  11  22  33  53  84 121 157 191 232 290 356
#     4  11  21  36  59  83 118 154 195 241 292 345
#     4  11  21  37  62  89 115 151 201 251 293 344
#     4  11  21  35  58  91 122 153 192 240 300 360
#     4  10  21  37  59  86 114 151 198 245 290 341
#     4  10  20  34  58  83 114 149 191 238 285 345
#
# _framework density 19.405840999999999
#
# number of rings (size 3 to 8) (size 9 to 14) (size 15 to 20)
#    0.000    1.500    5.000    1.500    3.500    2.500 
#    0.000    0.625    0.000    1.875    0.000    0.000 
#    0.000    0.000    0.000    0.000    0.000    0.000 
#
# Total GULP energy -178576.136304 kJ/mol
# GULP energy per Si atom -5580.504260 kJ/mol
# Density = 1.936167 g / cm^3
# Si number density = 19.405841 Si / 1000 Ang^3
#
#
#
# Elastic Constant Matrix: (Units=GPa)
#
#
# Indices 1 2 3 4 5 6 
#
# 1 70.9843 10.8108 -23.0370 0.0000 0.0000 0.0000
# 2 10.8108 99.1365 3.2501 0.0000 0.0000 0.0000
# 3 -23.0370 3.2501 19.4088 0.0000 0.0000 0.0000
# 4 0.0000 0.0000 0.0000 17.3040 0.0000 0.0000
# 5 0.0000 0.0000 0.0000 0.0000 10.0280 0.0000
# 6 0.0000 0.0000 0.0000 0.0000 0.0000 3.9967
#
#
#
# Elastic Compliance Matrix: (Units=1/GPa)
#
#
# Indices 1 2 3 4 5 6 
#
# 1 0.024120 -0.003589 0.029230 0.000000 0.000000 0.000000
# 2 -0.003589 0.010677 -0.006047 0.000000 0.000000 0.000000
# 3 0.029230 -0.006047 0.087230 0.000000 0.000000 0.000000
# 4 0.000000 0.000000 0.000000 0.057790 0.000000 0.000000
# 5 0.000000 0.000000 0.000000 0.000000 0.099721 0.000000
# 6 0.000000 0.000000 0.000000 0.000000 0.000000 0.250206
#
#
# Mechanical properties :
#
#
# Convention : Reuss Voigt Hill
#
# Bulk Modulus (GPa) = 6.20284 19.06415 12.63350
# Shear Modulus (GPa) = 9.18622 19.49946 14.34284
#
# Velocity S-wave (km/s) = 2.17808 3.17334 2.72159
# Velocity P-wave (km/s) = 3.08685 4.82411 4.04973
#
# Compressibility (1/GPa) = 0.16121637
#
# Stress axis : x y z
#
# Youngs Moduli (GPa) = 41.45854 93.66195 11.46390
#
# Poissons Ratio (x) = 0.33612 -0.33509
# Poissons Ratio (y) = 0.14878 0.06933
# Poissons Ratio (z) = -1.21185 0.56641
#
# Static dielectric constant tensor:
#      x y z
#    x 1.678530 0.000000 0.000000 
#    y 0.000000 1.716770 0.000000 
#    z 0.000000 0.000000 1.689670 
# 
# From -- ./inp_files/13440.got.cif
#   From: 2010.05.17/outbox.cif.g08.bks.cpg/sg44_7_cif.got.tgz:13440.got - 2010.06.03 19:37:08.
