data_PCOD9374102
_publ_section_title
;
Structure prediction by ZEFSAII (Michael W. Deem and Ramdas Pophale) SiO2 
 PCOD9374102
Probable space group: I M M 2
;
_chemical_formula_sum "Si O2"
_cell_formula_units_Z 64
_cell_length_a 28.842900
_cell_length_b 8.300265
_cell_length_c 13.042723
_cell_angle_alpha 90.000000
_cell_angle_beta 90.000000
_cell_angle_gamma 90.000000
_cell_volume 3122.476319
_symmetry_space_group_name_H-M "I M M 2"
_symmetry_group_IT_number 44
_symmetry_cell_setting 'orthorhombic'
loop_
_space_group_symop_operation_xyz
x,y,z
-x,-y,z
-x,y,z
x,-y,z
1/2+x,1/2+y,1/2+z
1/2-x,1/2-y,1/2+z
1/2-x,1/2+y,1/2+z
1/2+x,1/2-y,1/2+z
loop_
_atom_site_type_symbol
_atom_site_label
_atom_site_fract_x
_atom_site_fract_y
_atom_site_fract_z
Si Si1 0.449184 0.191637 0.932650
Si Si2 0.379422 0.688379 0.095858
Si Si3 0.793416 0.805187 0.475635
Si Si4 0.552484 0.192118 0.273012
Si Si5 0.304794 0.304675 0.538027
Si Si6 0.410591 0.692721 0.491963
Si Si7 0.821145 0.187599 0.256184
Si Si8 0.579852 0.189745 0.706789
O O1 0.500000 0.234940 0.973428
O O2 0.449104 0.215833 0.810081
O O3 0.441912 0.000000 0.950378
O O4 0.409675 0.286133 0.992546
O O5 0.375351 0.500000 0.119404
O O6 0.409298 0.763257 0.187656
O O7 0.328101 0.752736 0.066076
O O8 0.739994 0.757096 0.480036
O O9 0.811943 0.740162 0.366738
O O10 0.797070 0.000000 0.477387
O O11 0.500000 0.251029 0.248253
O O12 0.567671 0.255083 0.384633
O O13 0.550719 0.000000 0.277440
O O14 0.304800 0.500000 0.537867
O O15 0.356016 0.254939 0.499261
O O16 0.297356 0.243721 0.654872
O O17 0.411694 0.500000 0.499144
O O18 0.436125 0.763083 0.592939
O O19 0.874759 0.204685 0.227962
O O20 0.808361 0.000000 0.262447
O O21 0.591649 0.000000 0.704834
#
# Coordination Sequence:
#
# PCOD9374102 Si02
#       8
#     8   8   8   8   8   8   8   8
#     4  10  21  36  55  83 118 152 190 238 291 351
#     4  11  23  39  60  87 119 156 202 254 304 361
#     4  10  21  36  57  84 117 155 201 253 305 361
#     4  11  25  44  65  89 121 163 209 258 312 373
#     4   9  20  36  57  85 116 153 198 249 304 361
#     4  10  22  41  63  88 121 157 200 251 302 361
#     4   9  18  36  55  75 110 151 189 240 298 350
#     4  10  19  33  57  86 114 150 192 237 293 353
#
# _framework density 20.496551
#
# number of rings (size 3 to 8) (size 9 to 14) (size 15 to 20)
#    0.000    2.000    1.250    2.625    0.000    8.750 
#    0.000    3.750    0.000    0.000    0.000    0.000 
#    0.000    0.000    0.000    0.000    0.000    0.000 
#
# Total GULP energy -178418.612001 kJ/mol
# GULP energy per Si atom -5575.581625 kJ/mol
# Density = 2.044990 g / cm^3
# Si number density = 20.496551 Si / 1000 Ang^3
#
#
#
# Elastic Constant Matrix: (Units=GPa)
#
#
# Indices 1 2 3 4 5 6 
#
# 1 44.3145 -0.2288 6.7639 0.0000 0.0000 0.0000
# 2 -0.2288 17.5999 10.7288 0.0000 0.0000 0.0000
# 3 6.7639 10.7288 97.0789 0.0000 0.0000 0.0000
# 4 0.0000 0.0000 0.0000 31.0933 0.0000 0.0000
# 5 0.0000 0.0000 0.0000 0.0000 39.3723 0.0000
# 6 0.0000 0.0000 0.0000 0.0000 0.0000 19.8932
#
#
#
# Elastic Compliance Matrix: (Units=1/GPa)
#
#
# Indices 1 2 3 4 5 6 
#
# 1 0.022839 0.001358 -0.001741 0.000000 0.000000 0.000000
# 2 0.001358 0.061004 -0.006837 0.000000 0.000000 0.000000
# 3 -0.001741 -0.006837 0.011178 0.000000 0.000000 0.000000
# 4 0.000000 0.000000 0.000000 0.032161 0.000000 0.000000
# 5 0.000000 0.000000 0.000000 0.000000 0.025399 0.000000
# 6 0.000000 0.000000 0.000000 0.000000 0.000000 0.050268
#
#
# Mechanical properties :
#
#
# Convention : Reuss Voigt Hill
#
# Bulk Modulus (GPa) = 12.40981 21.50234 16.95607
# Shear Modulus (GPa) = 20.47939 27.52041 23.99990
#
# Velocity S-wave (km/s) = 3.16438 3.66824 3.42559
# Velocity P-wave (km/s) = 4.40668 5.33431 4.89253
#
# Compressibility (1/GPa) = 0.08058142
#
# Stress axis : x y z
#
# Youngs Moduli (GPa) = 43.78515 16.39241 89.46323
#
# Poissons Ratio (x) = -0.02227 0.15579
# Poissons Ratio (y) = -0.05948 0.61162
# Poissons Ratio (z) = 0.07625 0.11207
#
# Static dielectric constant tensor:
#      x y z
#    x 1.676870 0.000000 0.000000 
#    y 0.000000 1.717600 0.000000 
#    z 0.000000 0.000000 1.760120 
# 
# From -- ./inp_files/15088.got.cif
#   From: 2010.05.17/outbox.cif.g08.bks.cpg/sg44_8_cif.got.tgz:15088.got - 2010.06.03 19:37:08.
