data_PCOD9374385
_publ_section_title
;
Structure prediction by ZEFSAII (Michael W. Deem and Ramdas Pophale) SiO2 
 PCOD9374385
Probable space group: I M M 2
;
_chemical_formula_sum "Si O2"
_cell_formula_units_Z 40
_cell_length_a 7.481204
_cell_length_b 12.000259
_cell_length_c 24.028265
_cell_angle_alpha 90.000000
_cell_angle_beta 90.000000
_cell_angle_gamma 90.000000
_cell_volume 2157.170785
_symmetry_space_group_name_H-M "I M M 2"
_symmetry_group_IT_number 44
_symmetry_cell_setting 'orthorhombic'
loop_
_space_group_symop_operation_xyz
x,y,z
-x,-y,z
-x,y,z
x,-y,z
1/2+x,1/2+y,1/2+z
1/2-x,1/2-y,1/2+z
1/2-x,1/2+y,1/2+z
1/2+x,1/2-y,1/2+z
loop_
_atom_site_type_symbol
_atom_site_label
_atom_site_fract_x
_atom_site_fract_y
_atom_site_fract_z
Si Si1 0.784618 0.627803 0.695400
Si Si2 0.706317 0.207116 0.790718
Si Si3 0.282268 0.749179 0.080876
Si Si4 0.000000 0.135522 0.874410
Si Si5 0.299260 0.500000 0.087271
Si Si6 0.714594 0.000000 0.713448
Si Si7 0.500000 0.632048 0.505492
O O1 0.723959 0.500000 0.688584
O O2 0.724601 0.682163 0.753483
O O3 0.732202 0.703277 0.642187
O O4 0.000000 0.627484 0.696069
O O5 0.500000 0.190375 0.805745
O O6 0.830961 0.191246 0.843761
O O7 0.762305 0.108490 0.748532
O O8 0.500000 0.755566 0.076450
O O9 0.222217 0.620736 0.073359
O O10 0.175403 0.819909 0.035804
O O11 0.000000 0.157346 0.939976
O O12 0.000000 0.000000 0.866174
O O13 0.500000 0.500000 0.064221
O O14 0.304499 0.500000 0.154103
O O15 0.500000 0.000000 0.704842
O O16 0.500000 0.500000 0.512232
#
# Coordination Sequence:
#
# PCOD9374385 Si02
#       7
#     8   8   8   4   4   4   4
#     4  10  20  34  57  90 127 163 193 237 306 368
#     4  11  22  36  59  90 120 154 196 244 303 360
#     4  10  22  39  60  91 126 156 201 256 300 363
#     4  11  24  42  64  86 120 158 205 258 301 351
#     4  10  20  32  60  94 122 160 192 239 320 362
#     4  10  20  30  52  94 124 148 182 235 306 366
#     4  11  26  43  63  89 115 168 214 245 304 368
#
# _framework density 18.542805000000001
#
# number of rings (size 3 to 8) (size 9 to 14) (size 15 to 20)
#    0.000    1.600    4.000    0.600    4.200    2.400 
#    0.000    2.000    4.400    0.000    0.000    0.000 
#    0.000    0.000    0.000    0.000    0.000    0.000 
#
# Total GULP energy -111644.490616 kJ/mol
# GULP energy per Si atom -5582.224531 kJ/mol
# Density = 1.850060 g / cm^3
# Si number density = 18.542805 Si / 1000 Ang^3
#
#
#
# Elastic Constant Matrix: (Units=GPa)
#
#
# Indices 1 2 3 4 5 6 
#
# 1 82.1434 26.7219 47.8173 0.0000 0.0000 0.0000
# 2 26.7219 127.6593 54.0932 0.0000 0.0000 0.0000
# 3 47.8173 54.0932 120.0050 0.0000 0.0000 0.0000
# 4 0.0000 0.0000 0.0000 24.1948 0.0000 0.0000
# 5 0.0000 0.0000 0.0000 0.0000 97.1745 0.0000
# 6 0.0000 0.0000 0.0000 0.0000 0.0000 8.6220
#
#
#
# Elastic Compliance Matrix: (Units=1/GPa)
#
#
# Indices 1 2 3 4 5 6 
#
# 1 0.015916 -0.000796 -0.005983 0.000000 0.000000 0.000000
# 2 -0.000796 0.009723 -0.004065 0.000000 0.000000 0.000000
# 3 -0.005983 -0.004065 0.012549 0.000000 0.000000 0.000000
# 4 0.000000 0.000000 0.000000 0.041331 0.000000 0.000000
# 5 0.000000 0.000000 0.000000 0.000000 0.010291 0.000000
# 6 0.000000 0.000000 0.000000 0.000000 0.000000 0.115983
#
#
# Mechanical properties :
#
#
# Convention : Reuss Voigt Hill
#
# Bulk Modulus (GPa) = 60.61059 65.23028 62.92043
# Shear Modulus (GPa) = 21.46101 39.40996 30.43549
#
# Velocity S-wave (km/s) = 3.40571 4.61515 4.05577
# Velocity P-wave (km/s) = 6.94428 7.97835 7.47921
#
# Compressibility (1/GPa) = 0.01649877
#
# Stress axis : x y z
#
# Youngs Moduli (GPa) = 62.83153 102.85310 79.68576
#
# Poissons Ratio (x) = 0.08191 0.47674
# Poissons Ratio (y) = 0.05004 0.32394
# Poissons Ratio (z) = 0.37590 0.41812
#
# Static dielectric constant tensor:
#      x y z
#    x 1.656270 0.000000 0.000000 
#    y 0.000000 1.666640 0.000000 
#    z 0.000000 0.000000 1.587160 
# 
# From -- ./inp_files/22839.got.cif
#   From: 2010.05.17/outbox.cif.g08.bks.cpg/sg44_12_cif.got.tgz:22839.got - 2010.06.03 19:37:08.
