data_PCOD9374319
_publ_section_title
;
Structure prediction by ZEFSAII (Michael W. Deem and Ramdas Pophale) SiO2 
 PCOD9374319
Probable space group: I M M 2
;
_chemical_formula_sum "Si O2"
_cell_formula_units_Z 48
_cell_length_a 8.520433
_cell_length_b 18.908423
_cell_length_c 15.323398
_cell_angle_alpha 90.000000
_cell_angle_beta 90.000000
_cell_angle_gamma 90.000000
_cell_volume 2468.721259
_symmetry_space_group_name_H-M "I M M 2"
_symmetry_group_IT_number 44
_symmetry_cell_setting 'orthorhombic'
loop_
_space_group_symop_operation_xyz
x,y,z
-x,-y,z
-x,y,z
x,-y,z
1/2+x,1/2+y,1/2+z
1/2-x,1/2-y,1/2+z
1/2-x,1/2+y,1/2+z
1/2+x,1/2-y,1/2+z
loop_
_atom_site_type_symbol
_atom_site_label
_atom_site_fract_x
_atom_site_fract_y
_atom_site_fract_z
Si Si1 0.314883 0.000000 0.763990
Si Si2 0.311752 0.228846 0.352290
Si Si3 0.816254 0.766289 0.547272
Si Si4 0.179921 0.000000 0.951748
Si Si5 0.811666 0.344557 0.213391
Si Si6 0.816257 0.603656 0.587851
Si Si7 0.690897 0.076099 0.285410
O O1 0.251848 0.924713 0.729561
O O2 0.500000 0.000000 0.744005
O O3 0.288538 0.000000 0.867514
O O4 0.500000 0.230400 0.344904
O O5 0.261737 0.237707 0.452411
O O6 0.248358 0.289639 0.287428
O O7 0.254430 0.150063 0.325444
O O8 0.739298 0.817889 0.617950
O O9 0.804021 0.687666 0.586534
O O10 0.000000 0.783546 0.537441
O O11 0.217790 0.067148 0.012278
O O12 0.000000 0.000000 0.923626
O O13 0.000000 0.344779 0.219150
O O14 0.768363 0.577893 0.683219
O O15 0.000000 0.585307 0.574191
O O16 0.500000 0.077191 0.290495
O O17 0.743308 0.000000 0.322818
#
# Coordination Sequence:
#
# PCOD9374319 Si02
#       7
#     4   8   8   4   8   8   8
#     4  10  24  44  62  83 116 163 208 245 301 375
#     4  11  22  39  63  93 123 158 205 253 302 362
#     4  11  23  40  62  90 121 161 206 249 305 366
#     4  12  24  34  54  93 126 151 192 255 313 353
#     4  11  23  42  66  90 120 160 208 260 308 363
#     4  10  19  36  60  82 114 159 200 235 292 373
#     4   9  17  34  60  85 111 152 197 237 284 350
#
# _framework density 19.443263999999999
#
# number of rings (size 3 to 8) (size 9 to 14) (size 15 to 20)
#    0.000    1.500    2.500    3.250    0.000    6.667 
#    1.500    0.000    0.000    0.000    0.000    0.000 
#    0.000    0.000    0.000    0.000    0.000    0.000 
#
# Total GULP energy -133994.603815 kJ/mol
# GULP energy per Si atom -5583.108492 kJ/mol
# Density = 1.939901 g / cm^3
# Si number density = 19.443264 Si / 1000 Ang^3
#
#
#
# Elastic Constant Matrix: (Units=GPa)
#
#
# Indices 1 2 3 4 5 6 
#
# 1 39.1791 32.6838 16.6129 0.0000 0.0000 0.0000
# 2 32.6838 149.3715 39.0777 0.0000 0.0000 0.0000
# 3 16.6129 39.0777 70.4100 0.0000 0.0000 0.0000
# 4 0.0000 0.0000 0.0000 32.6608 0.0000 0.0000
# 5 0.0000 0.0000 0.0000 0.0000 28.3833 0.0000
# 6 0.0000 0.0000 0.0000 0.0000 0.0000 23.8082
#
#
#
# Elastic Compliance Matrix: (Units=1/GPa)
#
#
# Indices 1 2 3 4 5 6 
#
# 1 0.032313 -0.005938 -0.004328 0.000000 0.000000 0.000000
# 2 -0.005938 0.008923 -0.003551 0.000000 0.000000 0.000000
# 3 -0.004328 -0.003551 0.017195 0.000000 0.000000 0.000000
# 4 0.000000 0.000000 0.000000 0.030618 0.000000 0.000000
# 5 0.000000 0.000000 0.000000 0.000000 0.035232 0.000000
# 6 0.000000 0.000000 0.000000 0.000000 0.000000 0.042002
#
#
# Mechanical properties :
#
#
# Convention : Reuss Voigt Hill
#
# Bulk Modulus (GPa) = 32.47260 48.41216 40.44238
# Shear Modulus (GPa) = 24.48783 28.34287 26.41535
#
# Velocity S-wave (km/s) = 3.55272 3.82215 3.68990
# Velocity P-wave (km/s) = 5.79367 6.66571 6.24493
#
# Compressibility (1/GPa) = 0.03079519
#
# Stress axis : x y z
#
# Youngs Moduli (GPa) = 30.94760 112.06912 58.15721
#
# Poissons Ratio (x) = 0.66546 0.25173
# Poissons Ratio (y) = 0.18376 0.20653
# Poissons Ratio (z) = 0.13395 0.39799
#
# Static dielectric constant tensor:
#      x y z
#    x 1.675520 0.000000 0.000000 
#    y 0.000000 1.715110 0.000000 
#    z 0.000000 0.000000 1.643850 
# 
# From -- ./inp_files/16151.got.cif
#   From: 2010.05.17/outbox.cif.g08.bks.cpg/sg44_9_cif.got.tgz:16151.got - 2010.06.03 19:37:08.
