data_PCOD9374501
_publ_section_title
;
Structure prediction by ZEFSAII (Michael W. Deem and Ramdas Pophale) SiO2 
 PCOD9374501
Probable space group: I M M 2
;
_chemical_formula_sum "Si O2"
_cell_formula_units_Z 58
_cell_length_a 26.783974
_cell_length_b 7.773481
_cell_length_c 13.136948
_cell_angle_alpha 90.000000
_cell_angle_beta 90.000000
_cell_angle_gamma 90.000000
_cell_volume 2735.174488
_symmetry_space_group_name_H-M "I M M 2"
_symmetry_group_IT_number 44
_symmetry_cell_setting 'orthorhombic'
loop_
_space_group_symop_operation_xyz
x,y,z
-x,-y,z
-x,y,z
x,-y,z
1/2+x,1/2+y,1/2+z
1/2-x,1/2-y,1/2+z
1/2-x,1/2+y,1/2+z
1/2+x,1/2-y,1/2+z
loop_
_atom_site_type_symbol
_atom_site_label
_atom_site_fract_x
_atom_site_fract_y
_atom_site_fract_z
Si Si1 0.945607 0.706419 0.994580
Si Si2 0.000000 0.000000 0.303418
Si Si3 0.380941 0.701109 0.309240
Si Si4 0.929503 0.699238 0.230941
Si Si5 0.320876 0.700375 0.782620
Si Si6 0.715430 0.797952 0.205713
Si Si7 0.943097 0.792126 0.613973
Si Si8 0.342917 0.794365 0.007659
O O1 0.944746 0.500000 0.987888
O O2 0.903404 0.773781 0.920272
O O3 0.000000 0.769510 0.958766
O O4 0.940725 0.748190 0.113388
O O5 0.043135 0.154607 0.296774
O O6 0.374968 0.500000 0.289340
O O7 0.326891 0.781600 0.291888
O O8 0.419870 0.767058 0.222789
O O9 0.945023 0.500000 0.248555
O O10 0.870314 0.706754 0.244631
O O11 0.325113 0.500000 0.753750
O O12 0.268875 0.772605 0.739066
O O13 0.323124 0.714257 0.904365
O O14 0.689080 0.727719 0.103986
O O15 0.722943 0.000000 0.187341
O O16 0.901239 0.741257 0.531720
O O17 0.000000 0.730378 0.598105
O O18 0.945407 0.000000 0.614278
O O19 0.337656 0.000000 0.000168
#
# Coordination Sequence:
#
# PCOD9374501 Si02
#       8
#     8   2   8   8   8   8   8   8
#     4  10  21  36  55  84 122 163 204 251 306 367
#     4  12  22  44  68  90 128 170 206 256 318 354
#     4  10  20  32  56  87 118 156 204 251 309 370
#     4  11  24  42  64  93 127 167 211 254 308 374
#     4  11  23  42  65  91 119 160 206 252 308 372
#     4   9  21  41  62  84 119 158 202 256 312 369
#     4   9  18  35  54  81 116 156 201 249 297 363
#     4  10  21  39  61  87 117 153 197 252 311 370
#
# _framework density 21.205227000000001
#
# number of rings (size 3 to 8) (size 9 to 14) (size 15 to 20)
#    0.000    1.931    1.379    1.862    0.966    4.414 
#    1.241    2.759    0.000    0.000    0.000    0.000 
#    0.000    0.000    0.000    0.000    0.000    0.000 
#
# Total GULP energy -161685.515726 kJ/mol
# GULP energy per Si atom -5575.362611 kJ/mol
# Density = 2.115696 g / cm^3
# Si number density = 21.205227 Si / 1000 Ang^3
#
#
#
# Elastic Constant Matrix: (Units=GPa)
#
#
# Indices 1 2 3 4 5 6 
#
# 1 187.6824 20.8631 35.4949 0.0000 0.0000 0.0000
# 2 20.8631 67.1938 4.3777 0.0000 0.0000 0.0000
# 3 35.4949 4.3777 39.5708 0.0000 0.0000 0.0000
# 4 0.0000 0.0000 0.0000 17.8755 0.0000 0.0000
# 5 0.0000 0.0000 0.0000 0.0000 12.5364 0.0000
# 6 0.0000 0.0000 0.0000 0.0000 0.0000 -13.7525
#
#
#
# Elastic Compliance Matrix: (Units=1/GPa)
#
#
# Indices 1 2 3 4 5 6 
#
# 1 0.006599 -0.001675 -0.005734 0.000000 0.000000 0.000000
# 2 -0.001675 0.015416 -0.000203 0.000000 0.000000 0.000000
# 3 -0.005734 -0.000203 0.030437 0.000000 0.000000 0.000000
# 4 0.000000 0.000000 0.000000 0.055943 0.000000 0.000000
# 5 0.000000 0.000000 0.000000 0.000000 0.079768 0.000000
# 6 0.000000 0.000000 0.000000 0.000000 0.000000 -0.072714
#
#
# Mechanical properties :
#
#
# Convention : Reuss Voigt Hill
#
# Bulk Modulus (GPa) = 26.86171 46.21315 36.53743
# Shear Modulus (GPa) = 34.94541 18.91263 26.92902
#
# Velocity S-wave (km/s) = 4.06391 2.98968 3.56746
# Velocity P-wave (km/s) = 5.89199 5.81018 5.85123
#
# Compressibility (1/GPa) = 0.03722771
#
# Stress axis : x y z
#
# Youngs Moduli (GPa) = 151.54385 64.86899 32.85511
#
# Poissons Ratio (x) = 0.10868 0.18838
# Poissons Ratio (y) = 0.25388 0.00666
# Poissons Ratio (z) = 0.86891 0.01315
#
# Static dielectric constant tensor:
#      x y z
#    x 1.767100 0.000000 0.000000 
#    y 0.000000 1.767110 0.000000 
#    z 0.000000 0.000000 1.776080 
# 
# From -- ./inp_files/14846.got.cif
#   From: 2010.05.17/outbox.cif.g08.bks.cpg/sg44_8_cif.got.tgz:14846.got - 2010.06.03 19:37:08.
