data_PCOD9374825
_publ_section_title
;
Structure prediction by ZEFSAII (Michael W. Deem and Ramdas Pophale) SiO2 
 PCOD9374825
Probable space group: I M M 2
;
_chemical_formula_sum "Si O2"
_cell_formula_units_Z 40
_cell_length_a 26.252018
_cell_length_b 8.031089
_cell_length_c 9.944716
_cell_angle_alpha 90.000000
_cell_angle_beta 90.000000
_cell_angle_gamma 90.000000
_cell_volume 2096.667277
_symmetry_space_group_name_H-M "I M M 2"
_symmetry_group_IT_number 44
_symmetry_cell_setting 'orthorhombic'
loop_
_space_group_symop_operation_xyz
x,y,z
-x,-y,z
-x,y,z
x,-y,z
1/2+x,1/2+y,1/2+z
1/2-x,1/2-y,1/2+z
1/2-x,1/2+y,1/2+z
1/2+x,1/2-y,1/2+z
loop_
_atom_site_type_symbol
_atom_site_label
_atom_site_fract_x
_atom_site_fract_y
_atom_site_fract_z
Si Si1 0.090437 0.698890 0.916270
Si Si2 0.205299 0.299239 0.910420
Si Si3 0.000000 0.801778 0.720888
Si Si4 0.591128 0.700038 0.721647
Si Si5 0.000000 0.204638 0.412661
Si Si6 0.293840 0.298757 0.715478
O O1 0.091952 0.500000 0.921525
O O2 0.147630 0.761102 0.882603
O O3 0.049306 0.749815 0.806336
O O4 0.077268 0.758406 0.067268
O O5 0.204472 0.500000 0.900043
O O6 0.249347 0.236052 0.812372
O O7 0.217215 0.251152 0.062943
O O8 0.000000 0.738174 0.567270
O O9 0.000000 0.000000 0.712911
O O10 0.592163 0.500000 0.731356
O O11 0.549579 0.759883 0.828513
O O12 0.648773 0.761886 0.747321
O O13 0.000000 0.000000 0.413092
O O14 0.294862 0.500000 0.723783
#
# Coordination Sequence:
#
# PCOD9374825 Si02
#       6
#     8   8   4   8   4   8
#     4  10  20  35  53  74 102 135 169 206 252 304
#     4   9  19  34  51  74 104 135 169 210 253 298
#     4  11  22  35  52  76 102 129 166 209 254 304
#     4   9  17  33  55  75  98 131 171 212 252 297
#     4   9  19  33  50  74 100 125 160 209 256 296
#     4   9  18  32  51  75 101 132 170 209 251 300
#
# _framework density 19.077897
#
# number of rings (size 3 to 8) (size 9 to 14) (size 15 to 20)
#    0.000    2.600    0.000    1.500    0.000    4.000 
#    0.000    4.000    0.000    0.000    0.000    0.000 
#    0.000    0.000    0.000    0.000    0.000    0.000 
#
# Total GULP energy -111572.092445 kJ/mol
# GULP energy per Si atom -5578.604622 kJ/mol
# Density = 1.903447 g / cm^3
# Si number density = 19.077897 Si / 1000 Ang^3
#
#
#
# Elastic Constant Matrix: (Units=GPa)
#
#
# Indices 1 2 3 4 5 6 
#
# 1 175.5488 8.3830 151.9574 0.0000 0.0000 0.0000
# 2 8.3830 7.7848 2.3824 0.0000 0.0000 0.0000
# 3 151.9574 2.3824 170.4822 0.0000 0.0000 0.0000
# 4 0.0000 0.0000 0.0000 16.7695 0.0000 0.0000
# 5 0.0000 0.0000 0.0000 0.0000 37.8207 0.0000
# 6 0.0000 0.0000 0.0000 0.0000 0.0000 104.3567
#
#
#
# Elastic Compliance Matrix: (Units=1/GPa)
#
#
# Indices 1 2 3 4 5 6 
#
# 1 0.028532 -0.023040 -0.025110 0.000000 0.000000 0.000000
# 2 -0.023040 0.147613 0.018474 0.000000 0.000000 0.000000
# 3 -0.025110 0.018474 0.027989 0.000000 0.000000 0.000000
# 4 0.000000 0.000000 0.000000 0.059632 0.000000 0.000000
# 5 0.000000 0.000000 0.000000 0.000000 0.026441 0.000000
# 6 0.000000 0.000000 0.000000 0.000000 0.000000 0.009583
#
#
# Mechanical properties :
#
#
# Convention : Reuss Voigt Hill
#
# Bulk Modulus (GPa) = 6.90695 75.47349 41.19022
# Shear Modulus (GPa) = 12.27292 44.52891 28.40092
#
# Velocity S-wave (km/s) = 2.53910 4.83645 3.86253
# Velocity P-wave (km/s) = 3.49632 8.41635 6.44435
#
# Compressibility (1/GPa) = 0.14478168
#
# Stress axis : x y z
#
# Youngs Moduli (GPa) = 35.04861 6.77447 35.72874
#
# Poissons Ratio (x) = 0.15608 0.89713
# Poissons Ratio (y) = 0.80752 -0.66004
# Poissons Ratio (z) = 0.88005 -0.12515
#
# Static dielectric constant tensor:
#      x y z
#    x 1.676100 0.000000 0.000000 
#    y 0.000000 1.669490 0.000000 
#    z 0.000000 0.000000 1.621210 
# 
# From -- ./inp_files/4640.got.cif
#   From: 2010.05.17/outbox.cif.g08.bks.cpg/sg44_3_cif.got.tgz:4640.got - 2010.06.03 19:37:08.
