data_PCOD9374589
_publ_section_title
;
Structure prediction by ZEFSAII (Michael W. Deem and Ramdas Pophale) SiO2 
 PCOD9374589
Probable space group: I M M 2
;
_chemical_formula_sum "Si O2"
_cell_formula_units_Z 64
_cell_length_a 8.812719
_cell_length_b 20.163705
_cell_length_c 20.927015
_cell_angle_alpha 90.000000
_cell_angle_beta 90.000000
_cell_angle_gamma 90.000000
_cell_volume 3718.669169
_symmetry_space_group_name_H-M "I M M 2"
_symmetry_group_IT_number 44
_symmetry_cell_setting 'orthorhombic'
loop_
_space_group_symop_operation_xyz
x,y,z
-x,-y,z
-x,y,z
x,-y,z
1/2+x,1/2+y,1/2+z
1/2-x,1/2-y,1/2+z
1/2-x,1/2+y,1/2+z
1/2+x,1/2-y,1/2+z
loop_
_atom_site_type_symbol
_atom_site_label
_atom_site_fract_x
_atom_site_fract_y
_atom_site_fract_z
Si Si1 0.682842 0.076802 0.595870
Si Si2 0.318638 0.076862 0.097134
Si Si3 0.683363 0.678347 0.849357
Si Si4 0.681975 0.327802 0.703301
Si Si5 0.817103 0.076730 0.959795
Si Si6 0.183064 0.326158 0.209567
Si Si7 0.317891 0.323633 0.347541
Si Si8 0.817023 0.076438 0.458999
O O1 0.500000 0.079774 0.591689
O O2 0.731030 0.124421 0.653410
O O3 0.751239 0.096647 0.527625
O O4 0.725913 0.000000 0.607856
O O5 0.500000 0.079495 0.094492
O O6 0.258916 0.124354 0.152595
O O7 0.272664 0.000000 0.108785
O O8 0.252023 0.096259 0.028056
O O9 0.500000 0.684983 0.851012
O O10 0.723312 0.656964 0.777020
O O11 0.754850 0.750208 0.861489
O O12 0.730717 0.625155 0.902262
O O13 0.500000 0.334006 0.697130
O O14 0.721727 0.250261 0.693377
O O15 0.769914 0.124945 0.902476
O O16 0.000000 0.079417 0.964616
O O17 0.773982 0.000000 0.947189
O O18 0.255207 0.342942 0.277843
O O19 0.000000 0.329272 0.215942
O O20 0.500000 0.321934 0.345580
O O21 0.000000 0.077889 0.462170
O O22 0.770639 0.000000 0.447065
#
# Coordination Sequence:
#
# PCOD9374589 Si02
#       8
#     8   8   8   8   8   8   8   8
#     4   9  18  33  52  74 101 133 167 202 243 291
#     4  10  21  35  51  74 101 127 161 207 252 292
#     4   9  19  35  53  74 101 132 165 201 244 295
#     4   9  18  33  52  72  97 131 166 201 243 293
#     4   9  19  36  54  72  98 132 167 201 241 294
#     4   9  19  35  52  72 101 134 167 202 241 291
#     4  10  20  33  52  77 101 127 163 206 248 290
#     4   9  18  33  52  74 100 130 166 206 244 286
#
# _framework density 17.210459
#
# number of rings (size 3 to 8) (size 9 to 14) (size 15 to 20)
#    0.000    2.750    0.000    1.500    0.000    6.750 
#    0.000    5.000    0.000    1.500    0.000    0.000 
#    0.000    0.000    0.000    0.000    0.000    0.000 
#
# Total GULP energy -178457.357239 kJ/mol
# GULP energy per Si atom -5576.792414 kJ/mol
# Density = 1.717129 g / cm^3
# Si number density = 17.210459 Si / 1000 Ang^3
#
#
#
# Elastic Constant Matrix: (Units=GPa)
#
#
# Indices 1 2 3 4 5 6 
#
# 1 15.5841 33.4958 43.8728 0.0000 0.0000 0.0000
# 2 33.4958 103.3728 128.3180 0.0000 0.0000 0.0000
# 3 43.8728 128.3180 192.3068 0.0000 0.0000 0.0000
# 4 0.0000 0.0000 0.0000 43.2320 0.0000 0.0000
# 5 0.0000 0.0000 0.0000 0.0000 30.5399 0.0000
# 6 0.0000 0.0000 0.0000 0.0000 0.0000 23.9986
#
#
#
# Elastic Compliance Matrix: (Units=1/GPa)
#
#
# Indices 1 2 3 4 5 6 
#
# 1 0.218764 -0.052023 -0.015196 0.000000 0.000000 0.000000
# 2 -0.052023 0.068704 -0.033975 0.000000 0.000000 0.000000
# 3 -0.015196 -0.033975 0.031337 0.000000 0.000000 0.000000
# 4 0.000000 0.000000 0.000000 0.023131 0.000000 0.000000
# 5 0.000000 0.000000 0.000000 0.000000 0.032744 0.000000
# 6 0.000000 0.000000 0.000000 0.000000 0.000000 0.041669
#
#
# Mechanical properties :
#
#
# Convention : Reuss Voigt Hill
#
# Bulk Modulus (GPa) = 8.58977 80.29300 44.44138
# Shear Modulus (GPa) = 7.60407 26.59255 17.09831
#
# Velocity S-wave (km/s) = 2.10425 3.93509 3.15538
# Velocity P-wave (km/s) = 3.30238 8.20984 6.25728
#
# Compressibility (1/GPa) = 0.11641761
#
# Stress axis : x y z
#
# Youngs Moduli (GPa) = 4.57113 14.55523 31.91140
#
# Poissons Ratio (x) = 0.75720 0.48494
# Poissons Ratio (y) = 0.23780 1.08418
# Poissons Ratio (z) = 0.06946 0.49451
#
# Static dielectric constant tensor:
#      x y z
#    x 1.582140 0.000000 0.000000 
#    y 0.000000 1.574340 0.000000 
#    z 0.000000 0.000000 1.557590 
# 
# From -- ./inp_files/20771.got.cif
#   From: 2010.05.17/outbox.cif.g08.bks.cpg/sg44_11_cif.got.tgz:20771.got - 2010.06.03 19:37:08.
