data_PCOD9374461
_publ_section_title
;
Structure prediction by ZEFSAII (Michael W. Deem and Ramdas Pophale) SiO2 
 PCOD9374461
Probable space group: I M M 2
;
_chemical_formula_sum "Si O2"
_cell_formula_units_Z 64
_cell_length_a 19.438289
_cell_length_b 8.412063
_cell_length_c 22.122926
_cell_angle_alpha 90.000000
_cell_angle_beta 90.000000
_cell_angle_gamma 90.000000
_cell_volume 3617.454839
_symmetry_space_group_name_H-M "I M M 2"
_symmetry_group_IT_number 44
_symmetry_cell_setting 'orthorhombic'
loop_
_space_group_symop_operation_xyz
x,y,z
-x,-y,z
-x,y,z
x,-y,z
1/2+x,1/2+y,1/2+z
1/2-x,1/2-y,1/2+z
1/2-x,1/2+y,1/2+z
1/2+x,1/2-y,1/2+z
loop_
_atom_site_type_symbol
_atom_site_label
_atom_site_fract_x
_atom_site_fract_y
_atom_site_fract_z
Si Si1 0.578402 0.320939 0.317660
Si Si2 0.676821 0.180762 0.406923
Si Si3 0.424651 0.308406 0.763863
Si Si4 0.574896 0.687891 0.172490
Si Si5 0.128347 0.690425 0.136631
Si Si6 0.922839 0.189228 0.008069
Si Si7 0.276095 0.307409 0.183164
Si Si8 0.720512 0.306847 0.811523
O O1 0.500000 0.313479 0.339393
O O2 0.604766 0.500000 0.331449
O O3 0.623398 0.192466 0.351182
O O4 0.576468 0.304257 0.245644
O O5 0.636639 0.263033 0.461222
O O6 0.744997 0.248054 0.374237
O O7 0.690088 0.000000 0.425222
O O8 0.500000 0.251250 0.783497
O O9 0.424576 0.500000 0.766266
O O10 0.411158 0.258139 0.694768
O O11 0.358152 0.253778 0.801573
O O12 0.500000 0.755180 0.153072
O O13 0.573782 0.500000 0.156421
O O14 0.650815 0.751865 0.156635
O O15 0.125213 0.500000 0.138855
O O16 0.096742 0.749153 0.074326
O O17 0.208518 0.738812 0.145266
O O18 0.000000 0.248796 0.991516
O O19 0.925796 0.000000 0.009339
O O20 0.279459 0.500000 0.184967
O O21 0.261768 0.251057 0.251945
O O22 0.723071 0.500000 0.811433
#
# Coordination Sequence:
#
# PCOD9374461 Si02
#       8
#     8   8   8   8   8   8   8   8
#     4   9  16  26  41  60  85 121 159 187 213 257
#     4  11  21  31  45  66  94 124 153 193 238 273
#     4   9  17  31  51  72  96 127 158 188 228 282
#     4   8  13  22  39  63  90 120 153 185 215 257
#     4  10  20  32  49  73  98 123 155 200 245 279
#     4  11  24  39  52  66  88 125 169 202 230 275
#     4   9  16  28  47  69  93 123 157 191 232 278
#     4   9  18  30  44  67  96 123 152 188 233 281
#
# _framework density 17.691997000000001
#
# number of rings (size 3 to 8) (size 9 to 14) (size 15 to 20)
#    0.000    2.500    1.250    2.625    0.000    5.500 
#    0.000    0.000    0.000    0.375    0.000    0.875 
#    0.000    7.000    0.000    0.000    0.000    0.125 
#
# Total GULP energy -178207.903796 kJ/mol
# GULP energy per Si atom -5568.996994 kJ/mol
# Density = 1.765173 g / cm^3
# Si number density = 17.691997 Si / 1000 Ang^3
#
#
#
# Elastic Constant Matrix: (Units=GPa)
#
#
# Indices 1 2 3 4 5 6 
#
# 1 147.5072 12.4612 31.8417 0.0000 0.0000 0.0000
# 2 12.4612 7.0217 3.2926 0.0000 0.0000 0.0000
# 3 31.8417 3.2926 48.3279 0.0000 0.0000 0.0000
# 4 0.0000 0.0000 0.0000 15.2877 0.0000 0.0000
# 5 0.0000 0.0000 0.0000 0.0000 7.1053 0.0000
# 6 0.0000 0.0000 0.0000 0.0000 0.0000 15.7700
#
#
#
# Elastic Compliance Matrix: (Units=1/GPa)
#
#
# Indices 1 2 3 4 5 6 
#
# 1 0.009013 -0.013647 -0.005009 0.000000 0.000000 0.000000
# 2 -0.013647 0.167779 -0.002439 0.000000 0.000000 0.000000
# 3 -0.005009 -0.002439 0.024158 0.000000 0.000000 0.000000
# 4 0.000000 0.000000 0.000000 0.065412 0.000000 0.000000
# 5 0.000000 0.000000 0.000000 0.000000 0.140739 0.000000
# 6 0.000000 0.000000 0.000000 0.000000 0.000000 0.063412
#
#
# Mechanical properties :
#
#
# Convention : Reuss Voigt Hill
#
# Bulk Modulus (GPa) = 6.29882 33.11642 19.70762
# Shear Modulus (GPa) = 8.83980 17.98337 13.41158
#
# Velocity S-wave (km/s) = 2.23771 3.19167 2.75627
# Velocity P-wave (km/s) = 3.20070 5.68694 4.61442
#
# Compressibility (1/GPa) = 0.15875996
#
# Stress axis : x y z
#
# Youngs Moduli (GPa) = 110.94498 5.96024 41.39349
#
# Poissons Ratio (x) = 0.08134 0.20734
# Poissons Ratio (y) = 1.51409 0.10096
# Poissons Ratio (z) = 0.55571 0.01454
#
# Static dielectric constant tensor:
#      x y z
#    x 1.698150 0.000000 0.000000 
#    y 0.000000 1.612240 0.000000 
#    z 0.000000 0.000000 1.573390 
# 
# From -- ./inp_files/23426.got.cif
#   From: 2010.05.17/outbox.cif.g08.bks.cpg/sg44_12_cif.got.tgz:23426.got - 2010.06.03 19:37:08.
