data_PCOD9374832
_publ_section_title
;
Structure prediction by ZEFSAII (Michael W. Deem and Ramdas Pophale) SiO2 
 PCOD9374832
Probable space group: I M M 2
;
_chemical_formula_sum "Si O2"
_cell_formula_units_Z 64
_cell_length_a 21.331347
_cell_length_b 8.708141
_cell_length_c 20.108797
_cell_angle_alpha 90.000000
_cell_angle_beta 90.000000
_cell_angle_gamma 90.000000
_cell_volume 3735.337285
_symmetry_space_group_name_H-M "I M M 2"
_symmetry_group_IT_number 44
_symmetry_cell_setting 'orthorhombic'
loop_
_space_group_symop_operation_xyz
x,y,z
-x,-y,z
-x,y,z
x,-y,z
1/2+x,1/2+y,1/2+z
1/2-x,1/2-y,1/2+z
1/2-x,1/2+y,1/2+z
1/2+x,1/2-y,1/2+z
loop_
_atom_site_type_symbol
_atom_site_label
_atom_site_fract_x
_atom_site_fract_y
_atom_site_fract_z
Si Si1 0.930866 0.812853 0.445470
Si Si2 0.190003 0.815483 0.528483
Si Si3 0.233757 0.317000 0.811637
Si Si4 0.307763 0.316622 0.447205
Si Si5 0.382712 0.316143 0.802805
Si Si6 0.621720 0.817399 0.661879
Si Si7 0.430437 0.314804 0.527926
Si Si8 0.737618 0.815729 0.161946
O O1 0.873240 0.762912 0.491376
O O2 0.918689 0.766928 0.369042
O O3 0.000000 0.763384 0.467339
O O4 0.929569 0.000000 0.445632
O O5 0.250182 0.759230 0.486898
O O6 0.196476 0.749993 0.602474
O O7 0.190726 0.000000 0.530196
O O8 0.225711 0.500000 0.820671
O O9 0.198950 0.230537 0.870502
O O10 0.308641 0.286449 0.815327
O O11 0.214842 0.275719 0.736317
O O12 0.302645 0.500000 0.453994
O O13 0.373408 0.266492 0.480149
O O14 0.389693 0.500000 0.794360
O O15 0.401593 0.236262 0.734304
O O16 0.581954 0.751924 0.601014
O O17 0.692093 0.750052 0.654457
O O18 0.624103 0.000000 0.658690
O O19 0.500000 0.270224 0.504600
O O20 0.428206 0.500000 0.532231
O O21 0.741553 0.000000 0.157615
#
# Coordination Sequence:
#
# PCOD9374832 Si02
#       8
#     8   8   8   8   8   8   8   8
#     4   9  18  33  53  77 106 143 183 216 257 315
#     4  11  20  33  55  82 108 137 176 225 269 307
#     4   9  18  33  53  77 106 136 172 218 263 311
#     4  11  21  33  55  81 105 136 176 220 265 317
#     4   9  17  32  51  73 105 145 183 215 255 311
#     4  11  21  32  50  78 109 140 176 220 265 311
#     4  10  22  39  55  73 103 145 183 216 262 321
#     4  10  20  35  54  78 107 141 178 217 266 320
#
# _framework density 17.133659999999999
#
# number of rings (size 3 to 8) (size 9 to 14) (size 15 to 20)
#    0.000    2.000    2.500    3.000    0.000    3.750 
#    0.000    1.250    0.000    3.750    0.000    5.250 
#    0.000    0.000    0.000    0.000    0.000    0.000 
#
# Total GULP energy -178605.366203 kJ/mol
# GULP energy per Si atom -5581.417694 kJ/mol
# Density = 1.709466 g / cm^3
# Si number density = 17.133660 Si / 1000 Ang^3
#
#
#
# Elastic Constant Matrix: (Units=GPa)
#
#
# Indices 1 2 3 4 5 6 
#
# 1 113.6724 29.3009 67.4624 0.0000 0.0000 0.0000
# 2 29.3009 27.9767 27.5345 0.0000 0.0000 0.0000
# 3 67.4624 27.5345 114.0163 0.0000 0.0000 0.0000
# 4 0.0000 0.0000 0.0000 31.8814 0.0000 0.0000
# 5 0.0000 0.0000 0.0000 0.0000 22.4088 0.0000
# 6 0.0000 0.0000 0.0000 0.0000 0.0000 16.5423
#
#
#
# Elastic Compliance Matrix: (Units=1/GPa)
#
#
# Indices 1 2 3 4 5 6 
#
# 1 0.015193 -0.009267 -0.006751 0.000000 0.000000 0.000000
# 2 -0.009267 0.052541 -0.007205 0.000000 0.000000 0.000000
# 3 -0.006751 -0.007205 0.014505 0.000000 0.000000 0.000000
# 4 0.000000 0.000000 0.000000 0.031366 0.000000 0.000000
# 5 0.000000 0.000000 0.000000 0.000000 0.044625 0.000000
# 6 0.000000 0.000000 0.000000 0.000000 0.000000 0.060451
#
#
# Mechanical properties :
#
#
# Convention : Reuss Voigt Hill
#
# Bulk Modulus (GPa) = 27.93932 56.02898 41.98415
# Shear Modulus (GPa) = 18.04659 22.92433 20.48546
#
# Velocity S-wave (km/s) = 3.24895 3.66180 3.46153
# Velocity P-wave (km/s) = 5.51510 7.11691 6.36658
#
# Compressibility (1/GPa) = 0.03579186
#
# Stress axis : x y z
#
# Youngs Moduli (GPa) = 65.82034 19.03265 68.93949
#
# Poissons Ratio (x) = 0.17638 0.46544
# Poissons Ratio (y) = 0.60997 0.49672
# Poissons Ratio (z) = 0.44438 0.13713
#
# Static dielectric constant tensor:
#      x y z
#    x 1.579360 0.000000 0.000000 
#    y 0.000000 1.577600 0.000000 
#    z 0.000000 0.000000 1.582340 
# 
# From -- ./inp_files/24353.got.cif
#   From: 2010.05.17/outbox.cif.g08.bks.cpg/sg44_13_cif.got.tgz:24353.got - 2010.06.03 19:37:08.
