data_PCOD9374640
_publ_section_title
;
Structure prediction by ZEFSAII (Michael W. Deem and Ramdas Pophale) SiO2 
 PCOD9374640
Probable space group: I M M 2
;
_chemical_formula_sum "Si O2"
_cell_formula_units_Z 64
_cell_length_a 32.081511
_cell_length_b 9.015027
_cell_length_c 12.050454
_cell_angle_alpha 90.000000
_cell_angle_beta 90.000000
_cell_angle_gamma 90.000000
_cell_volume 3485.180343
_symmetry_space_group_name_H-M "I M M 2"
_symmetry_group_IT_number 44
_symmetry_cell_setting 'orthorhombic'
loop_
_space_group_symop_operation_xyz
x,y,z
-x,-y,z
-x,y,z
x,-y,z
1/2+x,1/2+y,1/2+z
1/2-x,1/2-y,1/2+z
1/2-x,1/2+y,1/2+z
1/2+x,1/2-y,1/2+z
loop_
_atom_site_type_symbol
_atom_site_label
_atom_site_fract_x
_atom_site_fract_y
_atom_site_fract_z
Si Si1 0.184772 0.176949 0.928350
Si Si2 0.319210 0.330777 0.175615
Si Si3 0.356852 0.678720 0.837636
Si Si4 0.549600 0.676054 0.468248
Si Si5 0.282219 0.825269 0.972544
Si Si6 0.907422 0.168101 0.549442
Si Si7 0.450095 0.166645 0.241330
Si Si8 0.377707 0.177207 0.601641
O O1 0.175738 0.219532 0.801383
O O2 0.233940 0.200514 0.946290
O O3 0.176083 0.000000 0.941504
O O4 0.156848 0.266846 0.013983
O O5 0.302434 0.500000 0.177670
O O6 0.363988 0.335363 0.117014
O O7 0.291146 0.229456 0.097406
O O8 0.354692 0.500000 0.829396
O O9 0.313851 0.738393 0.891478
O O10 0.366407 0.752076 0.720257
O O11 0.393527 0.714932 0.926452
O O12 0.500000 0.705788 0.482008
O O13 0.556142 0.500000 0.477635
O O14 0.562479 0.729603 0.344561
O O15 0.578255 0.761231 0.555875
O O16 0.290987 0.000000 0.962418
O O17 0.936251 0.272216 0.622541
O O18 0.924214 0.000000 0.545847
O O19 0.500000 0.162468 0.243657
O O20 0.433861 0.000000 0.259164
O O21 0.378286 0.000000 0.608173
#
# Coordination Sequence:
#
# PCOD9374640 Si02
#       8
#     8   8   8   8   8   8   8   8
#     4  10  22  38  57  83 116 152 191 237 287 346
#     4   9  19  36  55  76 106 145 185 229 279 333
#     4  10  22  41  61  80 112 156 196 239 292 350
#     4  10  21  39  63  88 118 157 197 239 291 352
#     4  10  21  36  56  85 114 147 191 239 290 340
#     4   9  18  34  57  80 104 146 192 229 276 336
#     4  10  20  33  54  87 122 150 181 232 292 343
#     4  12  25  39  60  89 118 152 196 247 297 350
#
# _framework density 18.363468999999998
#
# number of rings (size 3 to 8) (size 9 to 14) (size 15 to 20)
#    0.000    2.000    0.000    4.125    1.750    6.500 
#    0.000    0.625    0.000    0.750    0.000    0.000 
#    0.000    0.000    0.000    0.000    0.000    0.000 
#
# Total GULP energy -178655.773695 kJ/mol
# GULP energy per Si atom -5582.992928 kJ/mol
# Density = 1.832167 g / cm^3
# Si number density = 18.363469 Si / 1000 Ang^3
#
#
#
# Elastic Constant Matrix: (Units=GPa)
#
#
# Indices 1 2 3 4 5 6 
#
# 1 50.8039 47.6573 50.5120 0.0000 0.0000 0.0000
# 2 47.6573 101.3619 71.9076 0.0000 0.0000 0.0000
# 3 50.5120 71.9076 167.9545 0.0000 0.0000 0.0000
# 4 0.0000 0.0000 0.0000 15.7514 0.0000 0.0000
# 5 0.0000 0.0000 0.0000 0.0000 17.1352 0.0000
# 6 0.0000 0.0000 0.0000 0.0000 0.0000 23.8747
#
#
#
# Elastic Compliance Matrix: (Units=1/GPa)
#
#
# Indices 1 2 3 4 5 6 
#
# 1 0.038445 -0.014180 -0.005491 0.000000 0.000000 0.000000
# 2 -0.014180 0.019399 -0.004041 0.000000 0.000000 0.000000
# 3 -0.005491 -0.004041 0.009336 0.000000 0.000000 0.000000
# 4 0.000000 0.000000 0.000000 0.063486 0.000000 0.000000
# 5 0.000000 0.000000 0.000000 0.000000 0.058360 0.000000
# 6 0.000000 0.000000 0.000000 0.000000 0.000000 0.041885
#
#
# Mechanical properties :
#
#
# Convention : Reuss Voigt Hill
#
# Bulk Modulus (GPa) = 50.61912 73.36378 61.99145
# Shear Modulus (GPa) = 17.54872 21.35516 19.45194
#
# Velocity S-wave (km/s) = 3.09468 3.41385 3.25818
# Velocity P-wave (km/s) = 6.35566 7.45499 6.92717
#
# Compressibility (1/GPa) = 0.01975538
#
# Stress axis : x y z
#
# Youngs Moduli (GPa) = 26.01114 51.54790 107.11723
#
# Poissons Ratio (x) = 0.73096 0.58820
# Poissons Ratio (y) = 0.36884 0.43286
# Poissons Ratio (z) = 0.14283 0.20830
#
# Static dielectric constant tensor:
#      x y z
#    x 1.630110 0.000000 0.000000 
#    y 0.000000 1.633460 0.000000 
#    z 0.000000 0.000000 1.620950 
# 
# From -- ./inp_files/15035.got.cif
#   From: 2010.05.17/outbox.cif.g08.bks.cpg/sg44_8_cif.got.tgz:15035.got - 2010.06.03 19:37:08.
