data_PCOD9374608
_publ_section_title
;
Structure prediction by ZEFSAII (Michael W. Deem and Ramdas Pophale) SiO2 
 PCOD9374608
Probable space group: I M M 2
;
_chemical_formula_sum "Si O2"
_cell_formula_units_Z 64
_cell_length_a 8.748929
_cell_length_b 29.051038
_cell_length_c 12.950021
_cell_angle_alpha 90.000000
_cell_angle_beta 90.000000
_cell_angle_gamma 90.000000
_cell_volume 3291.448159
_symmetry_space_group_name_H-M "I M M 2"
_symmetry_group_IT_number 44
_symmetry_cell_setting 'orthorhombic'
loop_
_space_group_symop_operation_xyz
x,y,z
-x,-y,z
-x,y,z
x,-y,z
1/2+x,1/2+y,1/2+z
1/2-x,1/2-y,1/2+z
1/2-x,1/2+y,1/2+z
1/2+x,1/2-y,1/2+z
loop_
_atom_site_type_symbol
_atom_site_label
_atom_site_fract_x
_atom_site_fract_y
_atom_site_fract_z
Si Si1 0.683973 0.406503 0.015680
Si Si2 0.674770 0.679387 0.747434
Si Si3 0.184915 0.621058 0.413384
Si Si4 0.315150 0.946769 0.726772
Si Si5 0.315640 0.293853 0.518166
Si Si6 0.817175 0.549067 0.580277
Si Si7 0.673883 0.570643 0.792357
Si Si8 0.680838 0.807746 0.460043
O O1 0.500000 0.407253 0.017459
O O2 0.750581 0.430260 0.116953
O O3 0.732413 0.432455 0.909561
O O4 0.737807 0.353430 0.003735
O O5 0.500000 0.697189 0.757695
O O6 0.730239 0.689170 0.632285
O O7 0.668670 0.624953 0.767385
O O8 0.779846 0.697505 0.839008
O O9 0.230857 0.590727 0.313838
O O10 0.248265 0.672161 0.431472
O O11 0.240386 0.591328 0.512377
O O12 0.000000 0.623452 0.413264
O O13 0.500000 0.946234 0.723618
O O14 0.269503 0.000000 0.748937
O O15 0.500000 0.296295 0.511357
O O16 0.269957 0.240607 0.508941
O O17 0.765008 0.500000 0.535824
O O18 0.770710 0.550803 0.699251
O O19 0.000000 0.550511 0.573310
O O20 0.500000 0.553220 0.787821
O O21 0.500000 0.813830 0.474635
#
# Coordination Sequence:
#
# PCOD9374608 Si02
#       8
#     8   8   8   8   8   8   8   8
#     4  10  22  40  60  83 116 154 196 246 297 350
#     4   9  18  35  55  75 109 149 182 229 289 343
#     4  10  21  37  58  84 114 151 195 242 292 349
#     4  10  22  41  63  86 118 161 205 250 301 358
#     4  10  21  37  57  83 116 153 195 243 296 355
#     4  10  20  33  52  81 113 142 177 225 279 335
#     4   9  18  34  55  77 104 142 181 224 281 338
#     4  10  21  36  57  86 116 151 196 244 296 355
#
# _framework density 19.444327999999999
#
# number of rings (size 3 to 8) (size 9 to 14) (size 15 to 20)
#    0.000    2.250    1.250    1.875    0.000    8.000 
#    0.000    6.250    0.000    2.250    0.000    0.000 
#    0.000    0.000    0.000    0.000    0.000    0.000 
#
# Total GULP energy -178450.103826 kJ/mol
# GULP energy per Si atom -5576.565745 kJ/mol
# Density = 1.940007 g / cm^3
# Si number density = 19.444328 Si / 1000 Ang^3
#
#
#
# Elastic Constant Matrix: (Units=GPa)
#
#
# Indices 1 2 3 4 5 6 
#
# 1 7.5636 7.7207 3.9401 0.0000 0.0000 0.0000
# 2 7.7207 59.0473 17.2008 -0.0001 0.0000 0.0000
# 3 3.9401 17.2008 88.4841 0.0002 -0.0001 0.0000
# 4 0.0000 -0.0001 0.0002 17.1667 0.0000 0.0000
# 5 0.0000 0.0000 -0.0001 0.0000 25.1576 0.0000
# 6 0.0000 0.0000 0.0000 0.0000 0.0000 6.0804
#
#
#
# Elastic Compliance Matrix: (Units=1/GPa)
#
#
# Indices 1 2 3 4 5 6 
#
# 1 0.153378 -0.019150 -0.003107 0.000000 0.000000 0.000000
# 2 -0.019150 0.020343 -0.003102 0.000000 0.000000 0.000000
# 3 -0.003107 -0.003102 0.012043 0.000000 0.000000 0.000000
# 4 0.000000 0.000000 0.000000 0.058252 0.000000 0.000000
# 5 0.000000 0.000000 0.000000 0.000000 0.039749 0.000000
# 6 0.000000 0.000000 0.000000 0.000000 0.000000 0.164464
#
#
# Mechanical properties :
#
#
# Convention : Reuss Voigt Hill
#
# Bulk Modulus (GPa) = 7.40486 23.64647 15.52566
# Shear Modulus (GPa) = 9.19182 18.09650 13.64416
#
# Velocity S-wave (km/s) = 2.17658 3.05402 2.65184
# Velocity P-wave (km/s) = 3.18327 4.96221 4.16874
#
# Compressibility (1/GPa) = 0.13504639
#
# Stress axis : x y z
#
# Youngs Moduli (GPa) = 6.51985 49.15681 83.03713
#
# Poissons Ratio (x) = 0.94134 0.25801
# Poissons Ratio (y) = 0.12485 0.25757
# Poissons Ratio (z) = 0.02026 0.15248
#
# Static dielectric constant tensor:
#      x y z
#    x 1.669270 0.000000 0.000000 
#    y 0.000000 1.701300 0.000000 
#    z 0.000000 0.000000 1.678580 
# 
# From -- ./inp_files/11525.got.cif
#   From: 2010.05.17/outbox.cif.g08.bks.cpg/sg44_6_cif.got.tgz:11525.got - 2010.06.03 19:37:08.
