data_PCOD9374952
_publ_section_title
;
Structure prediction by ZEFSAII (Michael W. Deem and Ramdas Pophale) SiO2 
 PCOD9374952
Probable space group: I M M 2
;
_chemical_formula_sum "Si O2"
_cell_formula_units_Z 64
_cell_length_a 7.657555
_cell_length_b 22.699196
_cell_length_c 16.241664
_cell_angle_alpha 90.000000
_cell_angle_beta 90.000000
_cell_angle_gamma 90.000000
_cell_volume 2823.131588
_symmetry_space_group_name_H-M "I M M 2"
_symmetry_group_IT_number 44
_symmetry_cell_setting 'orthorhombic'
loop_
_space_group_symop_operation_xyz
x,y,z
-x,-y,z
-x,y,z
x,-y,z
1/2+x,1/2+y,1/2+z
1/2-x,1/2-y,1/2+z
1/2-x,1/2+y,1/2+z
1/2+x,1/2-y,1/2+z
loop_
_atom_site_type_symbol
_atom_site_label
_atom_site_fract_x
_atom_site_fract_y
_atom_site_fract_z
Si Si1 0.796472 0.065774 0.420540
Si Si2 0.715085 0.314340 0.979649
Si Si3 0.792859 0.567879 0.740567
Si Si4 0.697830 0.244914 0.824668
Si Si5 0.288003 0.435509 0.221327
Si Si6 0.790534 0.067414 0.063476
Si Si7 0.707133 0.308461 0.157020
Si Si8 0.711534 0.618676 0.391389
O O1 0.727941 0.117449 0.477530
O O2 0.784566 0.089111 0.326408
O O3 0.000000 0.060085 0.440870
O O4 0.718249 0.000000 0.424436
O O5 0.500000 0.311438 0.975871
O O6 0.771541 0.288358 0.067385
O O7 0.782164 0.284111 0.896375
O O8 0.728052 0.500000 0.734454
O O9 0.752197 0.595397 0.652126
O O10 0.000000 0.567696 0.750802
O O11 0.500000 0.265069 0.814167
O O12 0.768338 0.236119 0.732726
O O13 0.706345 0.179692 0.863250
O O14 0.500000 0.435639 0.212477
O O15 0.226223 0.500000 0.192032
O O16 0.224389 0.374216 0.180585
O O17 0.250995 0.427859 0.318872
O O18 0.000000 0.064580 0.057899
O O19 0.722509 0.000000 0.062608
O O20 0.728629 0.099779 0.981631
O O21 0.500000 0.316066 0.149119
O O22 0.500000 0.626224 0.391976
#
# Coordination Sequence:
#
# PCOD9374952 Si02
#       8
#     8   8   8   8   8   8   8   8
#     4   9  17  32  55  79 102 130 167 211 262 317
#     4   9  19  36  57  80 106 135 169 216 267 309
#     4   9  17  29  44  66 101 139 170 205 254 310
#     4  10  20  36  54  73 104 141 173 213 261 308
#     4   8  13  23  45  76 103 126 157 202 254 303
#     4   9  16  27  46  71  99 134 177 224 269 309
#     4   9  18  35  57  78 104 136 172 215 259 308
#     4   9  17  30  48  71 100 134 174 218 258 305
#
# _framework density 22.66986
#
# number of rings (size 3 to 8) (size 9 to 14) (size 15 to 20)
#    0.000    3.000    0.000    1.875    0.000    4.000 
#    2.250    5.625    0.000    9.000    0.000    0.000 
#    0.000    0.000    0.000    0.000    0.000    0.000 
#
# Total GULP energy -178351.356323 kJ/mol
# GULP energy per Si atom -5573.479885 kJ/mol
# Density = 2.261826 g / cm^3
# Si number density = 22.669860 Si / 1000 Ang^3
#
#
#
# Elastic Constant Matrix: (Units=GPa)
#
#
# Indices 1 2 3 4 5 6 
#
# 1 36.8666 3.3054 -1.8838 0.0000 0.0000 0.0000
# 2 3.3054 51.6665 43.4832 0.0000 0.0000 0.0000
# 3 -1.8838 43.4832 138.9153 0.0000 0.0000 0.0000
# 4 0.0000 0.0000 0.0000 21.4602 0.0000 0.0000
# 5 0.0000 0.0000 0.0000 0.0000 7.0543 0.0000
# 6 0.0000 0.0000 0.0000 0.0000 0.0000 4.7055
#
#
#
# Elastic Compliance Matrix: (Units=1/GPa)
#
#
# Indices 1 2 3 4 5 6 
#
# 1 0.027441 -0.002809 0.001251 0.000000 0.000000 0.000000
# 2 -0.002809 0.026565 -0.008353 0.000000 0.000000 0.000000
# 3 0.001251 -0.008353 0.009830 0.000000 0.000000 0.000000
# 4 0.000000 0.000000 0.000000 0.046598 0.000000 0.000000
# 5 0.000000 0.000000 0.000000 0.000000 0.141757 0.000000
# 6 0.000000 0.000000 0.000000 0.000000 0.000000 0.212519
#
#
# Mechanical properties :
#
#
# Convention : Reuss Voigt Hill
#
# Bulk Modulus (GPa) = 22.71983 35.25086 28.98535
# Shear Modulus (GPa) = 10.01597 18.81357 14.41477
#
# Velocity S-wave (km/s) = 2.10423 2.88391 2.52435
# Velocity P-wave (km/s) = 3.99343 5.16456 4.61629
#
# Compressibility (1/GPa) = 0.04401442
#
# Stress axis : x y z
#
# Youngs Moduli (GPa) = 36.44235 37.64359 101.72539
#
# Poissons Ratio (x) = 0.10573 -0.12728
# Poissons Ratio (y) = 0.10235 0.84976
# Poissons Ratio (z) = -0.04560 0.31445
#
# Static dielectric constant tensor:
#      x y z
#    x 1.862720 0.000000 0.000000 
#    y 0.000000 1.858340 0.000000 
#    z 0.000000 0.000000 1.873810 
# 
# From -- ./inp_files/16867.got.cif
#   From: 2010.05.17/outbox.cif.g08.bks.cpg/sg44_9_cif.got.tgz:16867.got - 2010.06.03 19:37:08.
