data_PCOD9374415
_publ_section_title
;
Structure prediction by ZEFSAII (Michael W. Deem and Ramdas Pophale) SiO2 
 PCOD9374415
Probable space group: I M M 2
;
_chemical_formula_sum "Si O2"
_cell_formula_units_Z 40
_cell_length_a 7.396817
_cell_length_b 9.492743
_cell_length_c 27.123124
_cell_angle_alpha 90.000000
_cell_angle_beta 90.000000
_cell_angle_gamma 90.000000
_cell_volume 1904.479521
_symmetry_space_group_name_H-M "I M M 2"
_symmetry_group_IT_number 44
_symmetry_cell_setting 'orthorhombic'
loop_
_space_group_symop_operation_xyz
x,y,z
-x,-y,z
-x,y,z
x,-y,z
1/2+x,1/2+y,1/2+z
1/2-x,1/2-y,1/2+z
1/2-x,1/2+y,1/2+z
1/2+x,1/2-y,1/2+z
loop_
_atom_site_type_symbol
_atom_site_label
_atom_site_fract_x
_atom_site_fract_y
_atom_site_fract_z
Si Si1 0.221139 0.836827 0.115220
Si Si2 0.715001 0.341089 0.803820
Si Si3 0.221101 0.661801 0.210466
Si Si4 0.290695 0.328505 0.507576
Si Si5 0.782484 0.160772 0.900545
O O1 0.277367 0.740001 0.160442
O O2 0.000000 0.836300 0.113784
O O3 0.273950 0.000000 0.123006
O O4 0.285246 0.788323 0.060961
O O5 0.500000 0.351334 0.796316
O O6 0.787554 0.500000 0.804478
O O7 0.783766 0.248109 0.758280
O O8 0.741593 0.261503 0.855293
O O9 0.278896 0.500000 0.212290
O O10 0.000000 0.661772 0.210719
O O11 0.500000 0.282049 0.507857
O O12 0.289448 0.500000 0.507459
O O13 0.213375 0.288689 0.454227
O O14 0.000000 0.153619 0.904852
O O15 0.719045 0.000000 0.891267
#
# Coordination Sequence:
#
# PCOD9374415 Si02
#       5
#     8   8   8   8   8
#     4   8  12  20  36  57  82 111 139 169 211 262
#     4  10  20  32  45  63  89 121 155 188 222 262
#     4   9  16  25  38  58  84 112 143 181 223 264
#     4   7  11  21  38  60  85 112 140 170 209 260
#     4   9  17  30  48  69  92 118 149 184 221 263
#
# _framework density 21.003114
#
# number of rings (size 3 to 8) (size 9 to 14) (size 15 to 20)
#    0.000    3.400    0.000    3.600    0.000    4.000 
#    0.000    1.000    0.000    3.600    0.000    1.400 
#    0.000    8.000    0.000    0.000    0.000    0.000 
#
# Total GULP energy -111515.731788 kJ/mol
# GULP energy per Si atom -5575.786589 kJ/mol
# Density = 2.095531 g / cm^3
# Si number density = 21.003114 Si / 1000 Ang^3
#
#
#
# Elastic Constant Matrix: (Units=GPa)
#
#
# Indices 1 2 3 4 5 6 
#
# 1 70.7952 6.4245 5.3760 0.0000 0.0000 0.0000
# 2 6.4245 146.2037 134.1047 0.0000 0.0000 0.0000
# 3 5.3760 134.1047 262.2114 0.0000 0.0000 0.0000
# 4 0.0000 0.0000 0.0000 33.4930 0.0000 0.0000
# 5 0.0000 0.0000 0.0000 0.0000 11.1063 0.0000
# 6 0.0000 0.0000 0.0000 0.0000 0.0000 2.7620
#
#
#
# Elastic Compliance Matrix: (Units=1/GPa)
#
#
# Indices 1 2 3 4 5 6 
#
# 1 0.014182 -0.000671 0.000053 0.000000 0.000000 0.000000
# 2 -0.000671 0.012915 -0.006592 0.000000 0.000000 0.000000
# 3 0.000053 -0.006592 0.007184 0.000000 0.000000 0.000000
# 4 0.000000 0.000000 0.000000 0.029857 0.000000 0.000000
# 5 0.000000 0.000000 0.000000 0.000000 0.090039 0.000000
# 6 0.000000 0.000000 0.000000 0.000000 0.000000 0.362055
#
#
# Mechanical properties :
#
#
# Convention : Reuss Voigt Hill
#
# Bulk Modulus (GPa) = 50.35124 85.66896 68.01010
# Shear Modulus (GPa) = 9.30624 31.69259 20.49941
#
# Velocity S-wave (km/s) = 2.10725 3.88873 3.12752
# Velocity P-wave (km/s) = 5.47229 7.81282 6.74486
#
# Compressibility (1/GPa) = 0.01986048
#
# Stress axis : x y z
#
# Youngs Moduli (GPa) = 70.51097 77.42645 139.20059
#
# Poissons Ratio (x) = 0.05199 -0.00733
# Poissons Ratio (y) = 0.04735 0.91757
# Poissons Ratio (z) = -0.00371 0.51037
#
# Static dielectric constant tensor:
#      x y z
#    x 1.881390 0.000000 0.000000 
#    y 0.000000 1.705700 0.000000 
#    z 0.000000 0.000000 1.766580 
# 
# From -- ./inp_files/22755.got.cif
#   From: 2010.05.17/outbox.cif.g08.bks.cpg/sg44_12_cif.got.tgz:22755.got - 2010.06.03 19:37:08.
