data_PCOD9374456
_publ_section_title
;
Structure prediction by ZEFSAII (Michael W. Deem and Ramdas Pophale) SiO2 
 PCOD9374456
Probable space group: I M M 2
;
_chemical_formula_sum "Si O2"
_cell_formula_units_Z 56
_cell_length_a 17.200462
_cell_length_b 7.986214
_cell_length_c 20.460706
_cell_angle_alpha 90.000000
_cell_angle_beta 90.000000
_cell_angle_gamma 90.000000
_cell_volume 2810.617012
_symmetry_space_group_name_H-M "I M M 2"
_symmetry_group_IT_number 44
_symmetry_cell_setting 'orthorhombic'
loop_
_space_group_symop_operation_xyz
x,y,z
-x,-y,z
-x,y,z
x,-y,z
1/2+x,1/2+y,1/2+z
1/2-x,1/2-y,1/2+z
1/2-x,1/2+y,1/2+z
1/2+x,1/2-y,1/2+z
loop_
_atom_site_type_symbol
_atom_site_label
_atom_site_fract_x
_atom_site_fract_y
_atom_site_fract_z
Si Si1 0.249651 0.303061 0.695170
Si Si2 0.243565 0.303702 0.433854
Si Si3 0.914154 0.198824 0.368718
Si Si4 0.000000 0.696531 0.743838
Si Si5 0.343598 0.304923 0.316790
Si Si6 0.830457 0.294838 0.562679
Si Si7 0.000000 0.705095 0.592766
Si Si8 0.415099 0.798947 0.717052
O O1 0.235128 0.500000 0.704655
O O2 0.222450 0.215582 0.761441
O O3 0.199541 0.244414 0.633846
O O4 0.340006 0.272534 0.681655
O O5 0.262447 0.500000 0.441603
O O6 0.158998 0.289244 0.400140
O O7 0.307629 0.230498 0.383898
O O8 0.226437 0.232184 0.505693
O O9 0.911846 0.231318 0.291107
O O10 0.000000 0.255361 0.391643
O O11 0.907005 0.000000 0.380174
O O12 0.077221 0.738055 0.784966
O O13 0.000000 0.765146 0.669042
O O14 0.000000 0.500000 0.733967
O O15 0.357100 0.500000 0.328272
O O16 0.829195 0.500000 0.560559
O O17 0.920323 0.241888 0.557766
O O18 0.000000 0.500000 0.593377
O O19 0.500000 0.752805 0.689851
O O20 0.409843 0.000000 0.719167
#
# Coordination Sequence:
#
# PCOD9374456 Si02
#       8
#     8   8   8   4   8   8   4   8
#     4  11  20  34  58  83 111 145 187 236 282 337
#     4  10  21  36  56  80 110 150 191 227 274 338
#     4  10  20  32  48  75 111 144 177 217 262 315
#     4  11  21  37  63  89 111 144 193 246 296 344
#     4  11  22  36  56  86 118 148 187 236 290 344
#     4   9  19  34  54  82 113 149 190 231 279 343
#     4   9  16  31  55  85 115 142 187 238 282 338
#     4  10  20  34  53  78 107 140 181 227 278 332
#
# _framework density 19.924451000000001
#
# number of rings (size 3 to 8) (size 9 to 14) (size 15 to 20)
#    0.000    1.857    2.857    1.929    1.000    2.286 
#    0.000    1.429    1.571    0.000    0.000    0.000 
#    0.000    0.000    0.000    0.000    0.000    0.000 
#
# Total GULP energy -156224.713171 kJ/mol
# GULP energy per Si atom -5579.454042 kJ/mol
# Density = 1.987910 g / cm^3
# Si number density = 19.924451 Si / 1000 Ang^3
#
#
#
# Elastic Constant Matrix: (Units=GPa)
#
#
# Indices 1 2 3 4 5 6 
#
# 1 80.3029 -6.6814 14.0784 0.0000 0.0000 0.0000
# 2 -6.6814 21.0713 -1.2466 0.0000 0.0000 0.0000
# 3 14.0784 -1.2466 70.7827 0.0000 0.0000 0.0000
# 4 0.0000 0.0000 0.0000 12.9610 0.0000 0.0000
# 5 0.0000 0.0000 0.0000 0.0000 27.1039 0.0000
# 6 0.0000 0.0000 0.0000 0.0000 0.0000 50.8448
#
#
#
# Elastic Compliance Matrix: (Units=1/GPa)
#
#
# Indices 1 2 3 4 5 6 
#
# 1 0.013239 0.004046 -0.002562 0.000000 0.000000 0.000000
# 2 0.004046 0.048744 0.000054 0.000000 0.000000 0.000000
# 3 -0.002562 0.000054 0.014638 0.000000 0.000000 0.000000
# 4 0.000000 0.000000 0.000000 0.077154 0.000000 0.000000
# 5 0.000000 0.000000 0.000000 0.000000 0.036895 0.000000
# 6 0.000000 0.000000 0.000000 0.000000 0.000000 0.019668
#
#
# Mechanical properties :
#
#
# Convention : Reuss Voigt Hill
#
# Bulk Modulus (GPa) = 12.54751 20.49529 16.52140
# Shear Modulus (GPa) = 21.38326 29.24904 25.31615
#
# Velocity S-wave (km/s) = 3.27955 3.83560 3.56842
# Velocity P-wave (km/s) = 4.54443 5.47034 5.02874
#
# Compressibility (1/GPa) = 0.07969710
#
# Stress axis : x y z
#
# Youngs Moduli (GPa) = 75.53645 20.51530 68.31422
#
# Poissons Ratio (x) = -0.08301 0.17501
# Poissons Ratio (y) = -0.30564 -0.00367
# Poissons Ratio (z) = 0.19351 -0.00110
#
# Static dielectric constant tensor:
#      x y z
#    x 1.715600 0.000000 0.000000 
#    y 0.000000 1.724180 0.000000 
#    z 0.000000 0.000000 1.722190 
# 
# From -- ./inp_files/24154.got.cif
#   From: 2010.05.17/outbox.cif.g08.bks.cpg/sg44_13_cif.got.tgz:24154.got - 2010.06.03 19:37:08.
