data_PCOD9374962
_publ_section_title
;
Structure prediction by ZEFSAII (Michael W. Deem and Ramdas Pophale) SiO2 
 PCOD9374962
Probable space group: I M M 2
;
_chemical_formula_sum "Si O2"
_cell_formula_units_Z 64
_cell_length_a 8.685808
_cell_length_b 20.082107
_cell_length_c 20.846747
_cell_angle_alpha 90.000000
_cell_angle_beta 90.000000
_cell_angle_gamma 90.000000
_cell_volume 3636.284021
_symmetry_space_group_name_H-M "I M M 2"
_symmetry_group_IT_number 44
_symmetry_cell_setting 'orthorhombic'
loop_
_space_group_symop_operation_xyz
x,y,z
-x,-y,z
-x,y,z
x,-y,z
1/2+x,1/2+y,1/2+z
1/2-x,1/2-y,1/2+z
1/2-x,1/2+y,1/2+z
1/2+x,1/2-y,1/2+z
loop_
_atom_site_type_symbol
_atom_site_label
_atom_site_fract_x
_atom_site_fract_y
_atom_site_fract_z
Si Si1 0.315561 0.922410 0.263940
Si Si2 0.313321 0.674642 0.016131
Si Si3 0.316062 0.078010 0.768358
Si Si4 0.816459 0.823566 0.874212
Si Si5 0.685002 0.828093 0.014073
Si Si6 0.315750 0.577871 0.624194
Si Si7 0.314742 0.676046 0.870591
Si Si8 0.814147 0.922522 0.628744
O O1 0.500000 0.917569 0.262754
O O2 0.250160 0.903737 0.194037
O O3 0.248882 0.875059 0.318630
O O4 0.273333 0.000000 0.275490
O O5 0.500000 0.672364 0.016797
O O6 0.269496 0.751349 0.028471
O O7 0.259717 0.624658 0.071125
O O8 0.266330 0.657184 0.943438
O O9 0.500000 0.084922 0.772269
O O10 0.237528 0.124354 0.820882
O O11 0.259224 0.095700 0.696917
O O12 0.276791 0.000000 0.778625
O O13 0.747184 0.750620 0.859397
O O14 0.000000 0.819404 0.876142
O O15 0.752937 0.844122 0.944130
O O16 0.500000 0.831025 0.010790
O O17 0.746084 0.876722 0.068670
O O18 0.500000 0.584060 0.624899
O O19 0.276568 0.500000 0.613196
O O20 0.500000 0.677290 0.868225
O O21 0.000000 0.917101 0.634155
O O22 0.777839 0.000000 0.615461
#
# Coordination Sequence:
#
# PCOD9374962 Si02
#       8
#     8   8   8   8   8   8   8   8
#     4  10  21  37  56  80 111 146 184 226 273 324
#     4   8  17  33  53  78 106 137 174 216 259 309
#     4  10  21  37  55  77 107 141 178 221 269 320
#     4  11  22  37  57  80 108 141 180 224 271 325
#     4  10  20  36  56  78 108 142 177 220 270 323
#     4  10  21  37  56  79 107 140 181 227 272 321
#     4  10  20  36  57  81 110 143 182 225 271 323
#     4   9  17  32  54  78 105 138 176 216 259 310
#
# _framework density 17.600384999999999
#
# number of rings (size 3 to 8) (size 9 to 14) (size 15 to 20)
#    0.000    2.250    0.000    3.750    0.000    4.250 
#    0.000    8.750    0.000    1.500    0.000    0.000 
#    0.000    0.000    0.000    0.000    0.000    0.000 
#
# Total GULP energy -178629.628514 kJ/mol
# GULP energy per Si atom -5582.175891 kJ/mol
# Density = 1.756033 g / cm^3
# Si number density = 17.600385 Si / 1000 Ang^3
#
#
#
# Elastic Constant Matrix: (Units=GPa)
#
#
# Indices 1 2 3 4 5 6 
#
# 1 66.5096 48.3840 63.4012 0.0000 0.0000 0.0000
# 2 48.3840 99.1506 124.0254 0.0000 0.0000 0.0000
# 3 63.4012 124.0254 186.7578 0.0000 0.0000 0.0000
# 4 0.0000 0.0000 0.0000 44.3213 0.0000 0.0000
# 5 0.0000 0.0000 0.0000 0.0000 32.0001 0.0000
# 6 0.0000 0.0000 0.0000 0.0000 0.0000 26.7182
#
#
#
# Elastic Compliance Matrix: (Units=1/GPa)
#
#
# Indices 1 2 3 4 5 6 
#
# 1 0.023454 -0.008774 -0.002135 0.000000 0.000000 0.000000
# 2 -0.008774 0.062857 -0.038765 0.000000 0.000000 0.000000
# 3 -0.002135 -0.038765 0.031823 0.000000 0.000000 0.000000
# 4 0.000000 0.000000 0.000000 0.022563 0.000000 0.000000
# 5 0.000000 0.000000 0.000000 0.000000 0.031250 0.000000
# 6 0.000000 0.000000 0.000000 0.000000 0.000000 0.037428
#
#
# Mechanical properties :
#
#
# Convention : Reuss Voigt Hill
#
# Bulk Modulus (GPa) = 53.23146 91.55993 72.39570
# Shear Modulus (GPa) = 15.87383 28.38176 22.12779
#
# Velocity S-wave (km/s) = 3.00643 4.02003 3.54960
# Velocity P-wave (km/s) = 6.50858 8.58382 7.61721
#
# Compressibility (1/GPa) = 0.01878588
#
# Stress axis : x y z
#
# Youngs Moduli (GPa) = 42.63690 15.90912 31.42387
#
# Poissons Ratio (x) = 0.13959 0.06710
# Poissons Ratio (y) = 0.37409 1.21813
# Poissons Ratio (z) = 0.09105 0.61671
#
# Static dielectric constant tensor:
#      x y z
#    x 1.591680 0.000000 0.000000 
#    y 0.000000 1.583360 0.000000 
#    z 0.000000 0.000000 1.571320 
# 
# From -- ./inp_files/22287.got.cif
#   From: 2010.05.17/outbox.cif.g08.bks.cpg/sg44_12_cif.got.tgz:22287.got - 2010.06.03 19:37:08.
