data_PCOD9374719
_publ_section_title
;
Structure prediction by ZEFSAII (Michael W. Deem and Ramdas Pophale) SiO2 
 PCOD9374719
Probable space group: I M M 2
;
_chemical_formula_sum "Si O2"
_cell_formula_units_Z 56
_cell_length_a 14.506428
_cell_length_b 8.832939
_cell_length_c 23.654779
_cell_angle_alpha 90.000000
_cell_angle_beta 90.000000
_cell_angle_gamma 90.000000
_cell_volume 3030.990764
_symmetry_space_group_name_H-M "I M M 2"
_symmetry_group_IT_number 44
_symmetry_cell_setting 'orthorhombic'
loop_
_space_group_symop_operation_xyz
x,y,z
-x,-y,z
-x,y,z
x,-y,z
1/2+x,1/2+y,1/2+z
1/2-x,1/2-y,1/2+z
1/2-x,1/2+y,1/2+z
1/2+x,1/2-y,1/2+z
loop_
_atom_site_type_symbol
_atom_site_label
_atom_site_fract_x
_atom_site_fract_y
_atom_site_fract_z
Si Si1 0.710625 0.681620 0.375000
Si Si2 0.604848 0.817233 0.926736
Si Si3 0.107849 0.816476 0.761720
Si Si4 0.785643 0.319996 0.655147
Si Si5 0.889731 0.176942 0.549391
Si Si6 0.110239 0.677030 0.981148
Si Si7 0.106859 0.682840 0.110483
O O1 0.708326 0.500000 0.372735
O O2 0.817257 0.728454 0.381957
O O3 0.657955 0.736164 0.319254
O O4 0.659970 0.733160 0.431947
O O5 0.500000 0.773465 0.912053
O O6 0.607160 0.000000 0.932529
O O7 0.628257 0.745050 0.987469
O O8 0.160036 0.749394 0.708008
O O9 0.000000 0.774227 0.762093
O O10 0.112314 0.000000 0.758971
O O11 0.785876 0.500000 0.658043
O O12 0.837015 0.264343 0.598395
O O13 0.681623 0.257328 0.650849
O O14 0.000000 0.188057 0.558926
O O15 0.863735 0.000000 0.550835
O O16 0.135554 0.500000 0.976785
O O17 0.000000 0.688413 0.974000
O O18 0.129914 0.727086 0.045431
O O19 0.113254 0.500000 0.113312
O O20 0.000000 0.723241 0.121420
#
# Coordination Sequence:
#
# PCOD9374719 Si02
#       7
#     8   8   8   8   8   8   8
#     4  10  20  34  54  79 106 140 181 222 264 310
#     4   9  18  33  53  80 113 142 171 214 267 321
#     4  10  22  40  58  76 103 140 182 226 269 320
#     4  12  24  36  54  80 109 141 179 226 276 322
#     4  10  20  34  54  80 110 145 183 222 267 322
#     4   9  18  32  52  80 111 140 171 211 261 316
#     4   9  19  37  59  82 110 145 182 217 258 316
#
# _framework density 18.475805999999999
#
# number of rings (size 3 to 8) (size 9 to 14) (size 15 to 20)
#    0.000    2.143    0.000    4.286    0.000    8.000 
#    0.000    2.143    0.000    2.571    0.000    0.000 
#    0.000    0.000    0.000    0.000    0.000    0.000 
#
# Total GULP energy -156353.775251 kJ/mol
# GULP energy per Si atom -5584.063402 kJ/mol
# Density = 1.843375 g / cm^3
# Si number density = 18.475806 Si / 1000 Ang^3
#
#
#
# Elastic Constant Matrix: (Units=GPa)
#
#
# Indices 1 2 3 4 5 6 
#
# 1 140.0642 44.7498 107.2947 0.0000 0.0000 0.0000
# 2 44.7498 28.7971 34.9787 0.0000 0.0000 0.0000
# 3 107.2947 34.9787 99.3015 0.0000 0.0000 0.0000
# 4 0.0000 0.0000 0.0000 24.6537 0.0000 0.0000
# 5 0.0000 0.0000 0.0000 0.0000 34.5736 0.0000
# 6 0.0000 0.0000 0.0000 0.0000 0.0000 22.2537
#
#
#
# Elastic Compliance Matrix: (Units=1/GPa)
#
#
# Indices 1 2 3 4 5 6 
#
# 1 0.047178 -0.019917 -0.043960 0.000000 0.000000 0.000000
# 2 -0.019917 0.069102 -0.002821 0.000000 0.000000 0.000000
# 3 -0.043960 -0.002821 0.058562 0.000000 0.000000 0.000000
# 4 0.000000 0.000000 0.000000 0.040562 0.000000 0.000000
# 5 0.000000 0.000000 0.000000 0.000000 0.028924 0.000000
# 6 0.000000 0.000000 0.000000 0.000000 0.000000 0.044936
#
#
# Mechanical properties :
#
#
# Convention : Reuss Voigt Hill
#
# Bulk Modulus (GPa) = 24.12708 71.35657 47.74182
# Shear Modulus (GPa) = 11.45540 21.70550 16.58045
#
# Velocity S-wave (km/s) = 2.49272 3.43126 2.99894
# Velocity P-wave (km/s) = 4.62299 7.37588 6.15530
#
# Compressibility (1/GPa) = 0.04144721
#
# Stress axis : x y z
#
# Youngs Moduli (GPa) = 21.19647 14.47128 17.07584
#
# Poissons Ratio (x) = 0.28822 0.75065
# Poissons Ratio (y) = 0.42216 0.04818
# Poissons Ratio (z) = 0.93179 0.04083
#
# Static dielectric constant tensor:
#      x y z
#    x 1.664960 0.000000 0.000000 
#    y 0.000000 1.617730 0.000000 
#    z 0.000000 0.000000 1.603950 
# 
# From -- ./inp_files/23026.got.cif
#   From: 2010.05.17/outbox.cif.g08.bks.cpg/sg44_12_cif.got.tgz:23026.got - 2010.06.03 19:37:08.
