data_PCOD9374558
_publ_section_title
;
Structure prediction by ZEFSAII (Michael W. Deem and Ramdas Pophale) SiO2 
 PCOD9374558
Probable space group: I M M 2
;
_chemical_formula_sum "Si O2"
_cell_formula_units_Z 64
_cell_length_a 9.389540
_cell_length_b 19.482663
_cell_length_c 19.591191
_cell_angle_alpha 90.000000
_cell_angle_beta 90.000000
_cell_angle_gamma 90.000000
_cell_volume 3583.880115
_symmetry_space_group_name_H-M "I M M 2"
_symmetry_group_IT_number 44
_symmetry_cell_setting 'orthorhombic'
loop_
_space_group_symop_operation_xyz
x,y,z
-x,-y,z
-x,y,z
x,-y,z
1/2+x,1/2+y,1/2+z
1/2-x,1/2-y,1/2+z
1/2-x,1/2+y,1/2+z
1/2+x,1/2-y,1/2+z
loop_
_atom_site_type_symbol
_atom_site_label
_atom_site_fract_x
_atom_site_fract_y
_atom_site_fract_z
Si Si1 0.166305 0.380380 0.237670
Si Si2 0.166146 0.923335 0.866915
Si Si3 0.667009 0.196383 0.936758
Si Si4 0.672536 0.763648 0.221254
Si Si5 0.655702 0.920440 0.435096
Si Si6 0.746804 0.422501 0.089035
Si Si7 0.335781 0.674044 0.839475
Si Si8 0.335210 0.734398 0.073887
O O1 0.244384 0.422438 0.296669
O O2 0.254550 0.309431 0.237713
O O3 0.176999 0.414448 0.162406
O O4 0.000000 0.369001 0.253415
O O5 0.237707 0.867602 0.915735
O O6 0.000000 0.906884 0.853151
O O7 0.172764 0.000000 0.895998
O O8 0.500000 0.176285 0.944612
O O9 0.670177 0.252286 0.876633
O O10 0.725585 0.236094 0.003728
O O11 0.500000 0.760030 0.226155
O O12 0.737583 0.819047 0.272792
O O13 0.717825 0.771612 0.142096
O O14 0.500000 0.892278 0.416529
O O15 0.668416 0.920315 0.517453
O O16 0.775496 0.878721 0.395432
O O17 0.664176 0.000000 0.414670
O O18 0.679316 0.500000 0.089490
O O19 0.669346 0.348329 0.083116
O O20 0.500000 0.659048 0.822620
O O21 0.500000 0.751486 0.069466
#
# Coordination Sequence:
#
# PCOD9374558 Si02
#       8
#     8   8   8   8   8   8   8   8
#     4  11  21  34  52  77 111 149 187 223 263 316
#     4  11  24  39  55  79 110 144 184 227 274 328
#     4  10  20  37  58  81 110 141 180 227 275 327
#     4  10  20  35  57  81 109 143 182 226 272 321
#     4  10  21  36  54  79 112 150 190 230 274 323
#     4  10  20  33  50  76 112 151 189 226 265 315
#     4  11  21  35  57  83 112 145 183 229 276 323
#     4   9  19  36  55  80 110 143 183 226 271 322
#
# _framework density 17.857741999999998
#
# number of rings (size 3 to 8) (size 9 to 14) (size 15 to 20)
#    0.000    1.750    2.500    2.250    0.000    3.750 
#    0.000    2.500    0.000    0.750    0.000    1.750 
#    0.000    0.000    0.000    0.000    0.000    0.000 
#
# Total GULP energy -178169.946979 kJ/mol
# GULP energy per Si atom -5567.810843 kJ/mol
# Density = 1.781710 g / cm^3
# Si number density = 17.857742 Si / 1000 Ang^3
#
#
#
# Elastic Constant Matrix: (Units=GPa)
#
#
# Indices 1 2 3 4 5 6 
#
# 1 96.4821 32.8168 40.5888 0.0000 0.0000 0.0000
# 2 32.8168 63.4973 42.0846 0.0000 0.0000 0.0000
# 3 40.5888 42.0846 108.4374 0.0000 0.0000 0.0000
# 4 0.0000 0.0000 0.0000 25.1864 0.0000 0.0000
# 5 0.0000 0.0000 0.0000 0.0000 16.2527 0.0000
# 6 0.0000 0.0000 0.0000 0.0000 0.0000 12.2488
#
#
#
# Elastic Compliance Matrix: (Units=1/GPa)
#
#
# Indices 1 2 3 4 5 6 
#
# 1 0.013313 -0.004817 -0.003114 0.000000 0.000000 0.000000
# 2 -0.004817 0.022945 -0.007102 0.000000 0.000000 0.000000
# 3 -0.003114 -0.007102 0.013144 0.000000 0.000000 0.000000
# 4 0.000000 0.000000 0.000000 0.039704 0.000000 0.000000
# 5 0.000000 0.000000 0.000000 0.000000 0.061528 0.000000
# 6 0.000000 0.000000 0.000000 0.000000 0.000000 0.081641
#
#
# Mechanical properties :
#
#
# Convention : Reuss Voigt Hill
#
# Bulk Modulus (GPa) = 51.71507 55.48858 53.60182
# Shear Modulus (GPa) = 18.60223 20.93270 19.76746
#
# Velocity S-wave (km/s) = 3.23102 3.42744 3.33068
# Velocity P-wave (km/s) = 6.55299 6.84128 6.69869
#
# Compressibility (1/GPa) = 0.01933672
#
# Stress axis : x y z
#
# Youngs Moduli (GPa) = 75.11552 43.58216 76.08192
#
# Poissons Ratio (x) = 0.20992 0.23690
# Poissons Ratio (y) = 0.36181 0.54034
# Poissons Ratio (z) = 0.23389 0.30953
#
# Static dielectric constant tensor:
#      x y z
#    x 1.619170 0.000000 0.000000 
#    y 0.000000 1.610980 0.000000 
#    z 0.000000 0.000000 1.655190 
# 
# From -- ./inp_files/23252.got.cif
#   From: 2010.05.17/outbox.cif.g08.bks.cpg/sg44_12_cif.got.tgz:23252.got - 2010.06.03 19:37:08.
