data_PCOD9374220
_publ_section_title
;
Structure prediction by ZEFSAII (Michael W. Deem and Ramdas Pophale) SiO2 
 PCOD9374220
Probable space group: I M M 2
;
_chemical_formula_sum "Si O2"
_cell_formula_units_Z 64
_cell_length_a 13.679140
_cell_length_b 17.997877
_cell_length_c 15.270324
_cell_angle_alpha 90.000000
_cell_angle_beta 90.000000
_cell_angle_gamma 90.000000
_cell_volume 3759.484735
_symmetry_space_group_name_H-M "I M M 2"
_symmetry_group_IT_number 44
_symmetry_cell_setting 'orthorhombic'
loop_
_space_group_symop_operation_xyz
x,y,z
-x,-y,z
-x,y,z
x,-y,z
1/2+x,1/2+y,1/2+z
1/2-x,1/2-y,1/2+z
1/2-x,1/2+y,1/2+z
1/2+x,1/2-y,1/2+z
loop_
_atom_site_type_symbol
_atom_site_label
_atom_site_fract_x
_atom_site_fract_y
_atom_site_fract_z
Si Si1 0.609166 0.414063 0.401700
Si Si2 0.117072 0.685836 0.980009
Si Si3 0.239373 0.327263 0.477785
Si Si4 0.616156 0.913745 0.837882
Si Si5 0.189358 0.413928 0.139535
Si Si6 0.885480 0.685309 0.652263
Si Si7 0.887375 0.856105 0.708952
Si Si8 0.881811 0.415879 0.812446
O O1 0.500000 0.394206 0.428693
O O2 0.612498 0.500000 0.378091
O O3 0.683912 0.394741 0.477272
O O4 0.631573 0.370951 0.311662
O O5 0.143076 0.641923 0.069222
O O6 0.000000 0.704239 0.977804
O O7 0.189927 0.755693 0.968690
O O8 0.138953 0.630487 0.899587
O O9 0.168823 0.352302 0.397961
O O10 0.176285 0.319998 0.564478
O O11 0.500000 0.908997 0.849417
O O12 0.642796 0.903116 0.735898
O O13 0.645717 0.000000 0.859930
O O14 0.173444 0.500000 0.113902
O O15 0.304760 0.397636 0.153167
O O16 0.879754 0.768791 0.689629
O O17 0.849359 0.628665 0.726527
O O18 0.000000 0.669876 0.633919
O O19 0.000000 0.879648 0.691715
O O20 0.844693 0.500000 0.816191
O O21 0.000000 0.418861 0.807077
#
# Coordination Sequence:
#
# PCOD9374220 Si02
#       8
#     8   8   8   8   8   8   8   8
#     4  10  20  34  55  82 110 141 179 227 280 331
#     4  11  23  37  56  82 111 146 186 234 283 333
#     4  12  21  34  54  80 113 150 184 221 272 333
#     4  10  22  38  57  83 116 149 182 224 281 347
#     4  11  21  37  59  85 112 145 183 227 286 346
#     4  10  21  36  55  79 109 144 184 228 274 327
#     4  10  19  35  56  81 112 143 179 229 282 333
#     4   9  19  36  55  76 103 139 184 231 274 315
#
# _framework density 17.023609
#
# number of rings (size 3 to 8) (size 9 to 14) (size 15 to 20)
#    0.000    1.625    2.500    3.000    0.000    5.000 
#    0.000    1.250    0.000    0.000    0.000    0.000 
#    0.000    5.000    0.000    0.000    0.000    0.000 
#
# Total GULP energy -178463.910316 kJ/mol
# GULP energy per Si atom -5576.997197 kJ/mol
# Density = 1.698486 g / cm^3
# Si number density = 17.023609 Si / 1000 Ang^3
#
#
#
# Elastic Constant Matrix: (Units=GPa)
#
#
# Indices 1 2 3 4 5 6 
#
# 1 -485.7878 375.0379 -938.6540 0.0020 0.0001 0.0000
# 2 375.0379 -91.2354 634.9103 -0.0012 -0.0001 0.0000
# 3 -938.6540 634.9103-1594.8864 0.0033 0.0002 0.0001
# 4 0.0020 -0.0012 0.0033 25.8532 0.0000 0.0000
# 5 0.0001 -0.0001 0.0002 0.0000 25.0227 0.0000
# 6 0.0000 0.0000 0.0001 0.0000 0.0000 24.7131
#
#
#
# Elastic Compliance Matrix: (Units=1/GPa)
#
#
# Indices 1 2 3 4 5 6 
#
# 1 0.015007 -0.000127 -0.008883 0.000000 0.000000 0.000000
# 2 -0.000127 0.006192 0.002540 0.000000 0.000000 0.000000
# 3 -0.008883 0.002540 0.005612 0.000000 0.000000 0.000000
# 4 0.000000 0.000000 0.000000 0.038680 0.000000 0.000000
# 5 0.000000 0.000000 0.000000 0.000000 0.039964 0.000000
# 6 0.000000 0.000000 0.000000 0.000000 0.000000 0.040464
#
#
# Mechanical properties :
#
#
# Convention : Reuss Voigt Hill
#
# Bulk Modulus (GPa) = 72.09067 -225.48013 -76.69473
# Shear Modulus (GPa) = 30.58423 -134.42911 -51.92244
#
# Velocity S-wave (km/s) = 4.24320 -8.89594 -5.52869
# Velocity P-wave (km/s) = 8.15143 15.43554 9.26850
#
# Compressibility (1/GPa) = 0.01387142
#
# Stress axis : x y z
#
# Youngs Moduli (GPa) = 66.63583 161.48875 178.18981
#
# Poissons Ratio (x) = 0.02053 1.58282
# Poissons Ratio (y) = 0.00847 -0.45259
# Poissons Ratio (z) = 0.59191 -0.41017
#
# Static dielectric constant tensor:
#      x y z
#    x 1.603410 0.000000 0.000000 
#    y 0.000000 1.591310 0.000000 
#    z 0.000000 0.000000 1.663650 
# 
# From -- ./inp_files/13468.got.cif
#   From: 2010.05.17/outbox.cif.g08.bks.cpg/sg44_7_cif.got.tgz:13468.got - 2010.06.03 19:37:08.
