data_PCOD9374842
_publ_section_title
;
Structure prediction by ZEFSAII (Michael W. Deem and Ramdas Pophale) SiO2 
 PCOD9374842
Probable space group: I M M 2
;
_chemical_formula_sum "Si O2"
_cell_formula_units_Z 48
_cell_length_a 8.202561
_cell_length_b 15.568473
_cell_length_c 19.732945
_cell_angle_alpha 90.000000
_cell_angle_beta 90.000000
_cell_angle_gamma 90.000000
_cell_volume 2519.923705
_symmetry_space_group_name_H-M "I M M 2"
_symmetry_group_IT_number 44
_symmetry_cell_setting 'orthorhombic'
loop_
_space_group_symop_operation_xyz
x,y,z
-x,-y,z
-x,y,z
x,-y,z
1/2+x,1/2+y,1/2+z
1/2-x,1/2-y,1/2+z
1/2-x,1/2+y,1/2+z
1/2+x,1/2-y,1/2+z
loop_
_atom_site_type_symbol
_atom_site_label
_atom_site_fract_x
_atom_site_fract_y
_atom_site_fract_z
Si Si1 0.195006 0.150928 0.475590
Si Si2 0.300395 0.000000 0.071777
Si Si3 0.696599 0.500000 0.227787
Si Si4 0.196604 0.651996 0.824431
Si Si5 0.303110 0.347414 0.323659
Si Si6 0.307330 0.000000 0.573154
Si Si7 0.696908 0.153020 0.975033
Si Si8 0.300209 0.000000 0.227199
O O1 0.253335 0.125797 0.400322
O O2 0.253247 0.249026 0.487766
O O3 0.000000 0.151818 0.475364
O O4 0.251481 0.083618 0.531387
O O5 0.247565 0.084378 0.030480
O O6 0.500000 0.000000 0.072022
O O7 0.246630 0.000000 0.149497
O O8 0.500000 0.500000 0.231902
O O9 0.755333 0.584311 0.268342
O O10 0.741820 0.500000 0.149434
O O11 0.255209 0.749568 0.812316
O O12 0.253219 0.583921 0.768855
O O13 0.000000 0.653239 0.822322
O O14 0.500000 0.346110 0.321455
O O15 0.251921 0.372605 0.399625
O O16 0.500000 0.000000 0.575903
O O17 0.500000 0.153620 0.975747
O O18 0.500000 0.000000 0.227015
#
# Coordination Sequence:
#
# PCOD9374842 Si02
#       8
#     8   4   4   8   8   4   8   4
#     4  10  20  35  55  78 103 134 171 215 263 313
#     4   9  17  30  49  77 107 135 168 205 246 298
#     4  10  21  36  52  75 106 140 175 214 262 314
#     4   9  17  31  52  77 101 131 171 212 251 298
#     4   9  18  32  52  75 101 133 170 211 255 302
#     4  12  25  38  53  75 103 138 177 222 272 322
#     4   9  18  32  54  80 105 135 173 214 254 299
#     4   9  17  28  46  71  98 127 162 201 242 290
#
# _framework density 19.048195
#
# number of rings (size 3 to 8) (size 9 to 14) (size 15 to 20)
#    0.000    2.500    0.000    2.250    0.000    3.333 
#    0.000    5.000    0.000    2.000    0.000    0.000 
#    0.000    0.000    0.000    0.000    0.000    0.000 
#
# Total GULP energy -133947.239480 kJ/mol
# GULP energy per Si atom -5581.134978 kJ/mol
# Density = 1.900484 g / cm^3
# Si number density = 19.048195 Si / 1000 Ang^3
#
#
#
# Elastic Constant Matrix: (Units=GPa)
#
#
# Indices 1 2 3 4 5 6 
#
# 1 6.9205 12.8651 7.5107 0.0000 0.0000 0.0000
# 2 12.8651 134.8891 134.6999 0.0000 0.0000 0.0000
# 3 7.5107 134.6999 201.1707 0.0000 0.0000 0.0000
# 4 0.0000 0.0000 0.0000 0.4410 0.0000 0.0000
# 5 0.0000 0.0000 0.0000 0.0000 29.4793 0.0000
# 6 0.0000 0.0000 0.0000 0.0000 0.0000 3.9465
#
#
#
# Elastic Compliance Matrix: (Units=1/GPa)
#
#
# Indices 1 2 3 4 5 6 
#
# 1 0.189888 -0.033291 0.015201 0.000000 0.000000 0.000000
# 2 -0.033291 0.028209 -0.017646 0.000000 0.000000 0.000000
# 3 0.015201 -0.017646 0.016219 0.000000 0.000000 0.000000
# 4 0.000000 0.000000 0.000000 2.267701 0.000000 0.000000
# 5 0.000000 0.000000 0.000000 0.000000 0.033922 0.000000
# 6 0.000000 0.000000 0.000000 0.000000 0.000000 0.253388
#
#
# Mechanical properties :
#
#
# Convention : Reuss Voigt Hill
#
# Bulk Modulus (GPa) = 6.14077 72.57018 39.35548
# Shear Modulus (GPa) = 1.71522 19.30032 10.50777
#
# Velocity S-wave (km/s) = 0.94996 3.18659 2.35125
# Velocity P-wave (km/s) = 2.10571 7.19167 5.29878
#
# Compressibility (1/GPa) = 0.16284597
#
# Stress axis : x y z
#
# Youngs Moduli (GPa) = 5.26627 35.44909 61.65794
#
# Poissons Ratio (x) = 1.18012 -0.93728
# Poissons Ratio (y) = 0.17532 1.08799
# Poissons Ratio (z) = -0.08005 0.62552
#
# Static dielectric constant tensor:
#      x y z
#    x 1.661830 0.000000 0.000000 
#    y 0.000000 1.671870 0.000000 
#    z 0.000000 0.000000 1.640710 
# 
# From -- ./inp_files/16230.got.cif
#   From: 2010.05.17/outbox.cif.g08.bks.cpg/sg44_9_cif.got.tgz:16230.got - 2010.06.03 19:37:08.
