data_PCOD9374569
_publ_section_title
;
Structure prediction by ZEFSAII (Michael W. Deem and Ramdas Pophale) SiO2 
 PCOD9374569
Probable space group: I M M 2
;
_chemical_formula_sum "Si O2"
_cell_formula_units_Z 42
_cell_length_a 8.026849
_cell_length_b 24.665280
_cell_length_c 12.765195
_cell_angle_alpha 90.000000
_cell_angle_beta 90.000000
_cell_angle_gamma 90.000000
_cell_volume 2527.310470
_symmetry_space_group_name_H-M "I M M 2"
_symmetry_group_IT_number 44
_symmetry_cell_setting 'orthorhombic'
loop_
_space_group_symop_operation_xyz
x,y,z
-x,-y,z
-x,y,z
x,-y,z
1/2+x,1/2+y,1/2+z
1/2-x,1/2-y,1/2+z
1/2-x,1/2+y,1/2+z
1/2+x,1/2-y,1/2+z
loop_
_atom_site_type_symbol
_atom_site_label
_atom_site_fract_x
_atom_site_fract_y
_atom_site_fract_z
Si Si1 0.305441 0.411626 0.832540
Si Si2 0.000000 0.500000 0.832540
Si Si3 0.690333 0.698434 0.447783
Si Si4 0.693165 0.827235 0.170711
Si Si5 0.695616 0.795065 0.717397
Si Si6 0.691101 0.684012 0.994959
O O1 0.500000 0.431310 0.840968
O O2 0.290731 0.374958 0.727937
O O3 0.151917 0.453396 0.832153
O O4 0.275916 0.369285 0.928010
O O5 0.500000 0.681947 0.459277
O O6 0.789071 0.673231 0.545148
O O7 0.752910 0.685172 0.331955
O O8 0.702910 0.763738 0.461545
O O9 0.500000 0.830935 0.199922
O O10 0.760433 0.768784 0.208181
O O11 0.500000 0.801418 0.703354
O O12 0.784381 0.823318 0.619027
O O13 0.500000 0.700286 0.974386
#
# Coordination Sequence:
#
# PCOD9374569 Si02
#       6
#     8   2   8   8   8   8
#     4  11  23  40  59  84 113 145 192 246 289 333
#     4  12  26  40  64  82 106 156 202 244 296 330
#     4  11  20  30  48  77 113 151 187 217 268 351
#     4  11  20  33  52  76 111 151 185 228 284 335
#     4  11  20  30  48  78 113 151 188 218 269 353
#     4  10  20  33  51  75 110 148 182 229 281 332
#
# _framework density 16.618456999999999
#
# number of rings (size 3 to 8) (size 9 to 14) (size 15 to 20)
#    0.000    1.143    2.857    8.286    2.667    0.000 
#    0.000    0.000    0.000    0.000    0.000    2.667 
#    0.000    3.048    0.000    0.000    0.000    0.000 
#
# Total GULP energy -116906.893682 kJ/mol
# GULP energy per Si atom -5566.994937 kJ/mol
# Density = 1.658063 g / cm^3
# Si number density = 16.618457 Si / 1000 Ang^3
#
#
#
# Elastic Constant Matrix: (Units=GPa)
#
#
# Indices 1 2 3 4 5 6 
#
# 1 99.4396 35.6611 -1.0710 0.0000 0.0000 0.0000
# 2 35.6611 64.4616 32.9563 0.0000 0.0000 0.0000
# 3 -1.0710 32.9563 102.2735 0.0001 0.0000 0.0000
# 4 0.0000 0.0000 0.0001 -2.0743 0.0000 0.0000
# 5 0.0000 0.0000 0.0000 0.0000 25.3422 0.0000
# 6 0.0000 0.0000 0.0000 0.0000 0.0000 29.0764
#
#
#
# Elastic Compliance Matrix: (Units=1/GPa)
#
#
# Indices 1 2 3 4 5 6 
#
# 1 0.013271 -0.008875 0.002999 0.000000 0.000000 0.000000
# 2 -0.008875 0.024508 -0.007990 0.000000 0.000000 0.000000
# 3 0.002999 -0.007990 0.012384 0.000000 0.000000 0.000000
# 4 0.000000 0.000000 0.000000 -0.482087 0.000000 0.000000
# 5 0.000000 0.000000 0.000000 0.000000 0.039460 0.000000
# 6 0.000000 0.000000 0.000000 0.000000 0.000000 0.034392
#
#
# Mechanical properties :
#
#
# Convention : Reuss Voigt Hill
#
# Bulk Modulus (GPa) = 44.58278 44.58528 44.58403
# Shear Modulus (GPa) = -15.48653 23.71073 4.11210
#
# Velocity S-wave (km/s) = -3.05599 3.78136 1.57473
# Velocity P-wave (km/s) = 3.79913 6.77878 5.49478
#
# Compressibility (1/GPa) = 0.02243019
#
# Stress axis : x y z
#
# Youngs Moduli (GPa) = 75.34947 40.80275 80.74995
#
# Poissons Ratio (x) = 0.36213 -0.24216
# Poissons Ratio (y) = 0.66874 0.64522
# Poissons Ratio (z) = -0.22597 0.32603
#
# Static dielectric constant tensor:
#      x y z
#    x 1.576230 0.000000 0.000000 
#    y 0.000000 1.529980 0.000000 
#    z 0.000000 0.000000 1.603750 
# 
# From -- ./inp_files/11105.got.cif
#   From: 2010.05.17/outbox.cif.g08.bks.cpg/sg44_6_cif.got.tgz:11105.got - 2010.06.03 19:37:08.
