data_PCOD9374204
_publ_section_title
;
Structure prediction by ZEFSAII (Michael W. Deem and Ramdas Pophale) SiO2 
 PCOD9374204
Probable space group: I M M 2
;
_chemical_formula_sum "Si O2"
_cell_formula_units_Z 58
_cell_length_a 17.583063
_cell_length_b 9.496933
_cell_length_c 17.016356
_cell_angle_alpha 90.000000
_cell_angle_beta 90.000000
_cell_angle_gamma 90.000000
_cell_volume 2841.479121
_symmetry_space_group_name_H-M "I M M 2"
_symmetry_group_IT_number 44
_symmetry_cell_setting 'orthorhombic'
loop_
_space_group_symop_operation_xyz
x,y,z
-x,-y,z
-x,y,z
x,-y,z
1/2+x,1/2+y,1/2+z
1/2-x,1/2-y,1/2+z
1/2-x,1/2+y,1/2+z
1/2+x,1/2-y,1/2+z
loop_
_atom_site_type_symbol
_atom_site_label
_atom_site_fract_x
_atom_site_fract_y
_atom_site_fract_z
Si Si1 0.591075 0.332764 0.688440
Si Si2 0.640453 0.726216 0.217866
Si Si3 0.500000 0.500000 0.212214
Si Si4 0.083463 0.333440 0.879021
Si Si5 0.702655 0.163646 0.795950
Si Si6 0.156609 0.665840 0.041499
Si Si7 0.308546 0.664214 0.952673
Si Si8 0.909930 0.658742 0.556454
O O1 0.500000 0.313786 0.690072
O O2 0.607048 0.500000 0.692321
O O3 0.633293 0.249045 0.757556
O O4 0.625798 0.263030 0.610106
O O5 0.569119 0.619568 0.211989
O O6 0.625489 0.811100 0.297790
O O7 0.724880 0.667576 0.236239
O O8 0.634068 0.814152 0.138050
O O9 0.078151 0.500000 0.889966
O O10 0.000000 0.268969 0.871654
O O11 0.120271 0.282683 0.959355
O O12 0.717554 0.243088 0.878427
O O13 0.684622 0.000000 0.809644
O O14 0.137506 0.500000 0.056637
O O15 0.245723 0.671526 0.021869
O O16 0.315898 0.500000 0.930258
O O17 0.383463 0.729864 0.991404
O O18 0.893613 0.500000 0.528858
O O19 0.000000 0.670606 0.571203
#
# Coordination Sequence:
#
# PCOD9374204 Si02
#       8
#     8   8   2   8   8   8   8   8
#     4  11  26  47  69  97 132 175 228 284 344 399
#     4  12  23  40  66  98 138 176 222 270 332 394
#     4  12  24  40  62 104 146 180 216 276 328 412
#     4  10  19  34  59  91 129 171 212 258 317 387
#     4  12  26  44  70 100 132 176 226 277 338 401
#     4  10  21  40  65  96 131 170 216 267 329 393
#     4  11  25  43  68  97 132 173 218 275 336 398
#     4  11  25  43  66  95 131 174 223 274 332 401
#
# _framework density 20.411904
#
# number of rings (size 3 to 8) (size 9 to 14) (size 15 to 20)
#    0.000    0.966    3.448    2.897    0.966    8.552 
#    1.241    0.000    0.000    0.000    0.000    0.000 
#    0.000    0.000    0.000    0.000    0.000    0.000 
#
# Total GULP energy -161609.299570 kJ/mol
# GULP energy per Si atom -5572.734468 kJ/mol
# Density = 2.036545 g / cm^3
# Si number density = 20.411904 Si / 1000 Ang^3
#
#
#
# Elastic Constant Matrix: (Units=GPa)
#
#
# Indices 1 2 3 4 5 6 
#
# 1 71.7285 62.5797 35.1414 0.0000 0.0000 0.0000
# 2 62.5797 139.7909 41.9151 0.0000 0.0000 0.0000
# 3 35.1414 41.9151 59.1593 0.0000 0.0000 0.0000
# 4 0.0000 0.0000 0.0000 71.2243 0.0000 0.0000
# 5 0.0000 0.0000 0.0000 0.0000 27.8483 0.0000
# 6 0.0000 0.0000 0.0000 0.0000 0.0000 23.8253
#
#
#
# Elastic Compliance Matrix: (Units=1/GPa)
#
#
# Indices 1 2 3 4 5 6 
#
# 1 0.026346 -0.009017 -0.009261 0.000000 0.000000 0.000000
# 2 -0.009017 0.012170 -0.003266 0.000000 0.000000 0.000000
# 3 -0.009261 -0.003266 0.024718 0.000000 0.000000 0.000000
# 4 0.000000 0.000000 0.000000 0.014040 0.000000 0.000000
# 5 0.000000 0.000000 0.000000 0.000000 0.035909 0.000000
# 6 0.000000 0.000000 0.000000 0.000000 0.000000 0.041972
#
#
# Mechanical properties :
#
#
# Convention : Reuss Voigt Hill
#
# Bulk Modulus (GPa) = 49.63834 61.10567 55.37201
# Shear Modulus (GPa) = 24.39525 33.31576 28.85550
#
# Velocity S-wave (km/s) = 3.46084 4.04440 3.76395
# Velocity P-wave (km/s) = 6.35146 7.19797 6.78793
#
# Compressibility (1/GPa) = 0.02014572
#
# Stress axis : x y z
#
# Youngs Moduli (GPa) = 37.95690 82.17251 40.45561
#
# Poissons Ratio (x) = 0.74097 0.37465
# Poissons Ratio (y) = 0.34227 0.13212
# Poissons Ratio (z) = 0.35151 0.26836
#
# Static dielectric constant tensor:
#      x y z
#    x 1.762440 0.000000 0.000000 
#    y 0.000000 1.707870 0.000000 
#    z 0.000000 0.000000 1.715020 
# 
# From -- ./inp_files/22116.got.cif
#   From: 2010.05.17/outbox.cif.g08.bks.cpg/sg44_12_cif.got.tgz:22116.got - 2010.06.03 19:37:08.
