data_PCOD9374917
_publ_section_title
;
Structure prediction by ZEFSAII (Michael W. Deem and Ramdas Pophale) SiO2 
 PCOD9374917
Probable space group: I M M 2
;
_chemical_formula_sum "Si O2"
_cell_formula_units_Z 58
_cell_length_a 7.526854
_cell_length_b 16.186753
_cell_length_c 19.477371
_cell_angle_alpha 90.000000
_cell_angle_beta 90.000000
_cell_angle_gamma 90.000000
_cell_volume 2373.031856
_symmetry_space_group_name_H-M "I M M 2"
_symmetry_group_IT_number 44
_symmetry_cell_setting 'orthorhombic'
loop_
_space_group_symop_operation_xyz
x,y,z
-x,-y,z
-x,y,z
x,-y,z
1/2+x,1/2+y,1/2+z
1/2-x,1/2-y,1/2+z
1/2-x,1/2+y,1/2+z
1/2+x,1/2-y,1/2+z
loop_
_atom_site_type_symbol
_atom_site_label
_atom_site_fract_x
_atom_site_fract_y
_atom_site_fract_z
Si Si1 0.701909 0.688548 0.996340
Si Si2 0.714991 0.906641 0.155063
Si Si3 0.000000 0.000000 0.935168
Si Si4 0.784913 0.622989 0.493908
Si Si5 0.787048 0.721682 0.770282
Si Si6 0.296497 0.910679 0.375438
Si Si7 0.213693 0.589277 0.118596
Si Si8 0.787822 0.589512 0.278087
O O1 0.500000 0.681880 0.973915
O O2 0.802518 0.620176 0.953157
O O3 0.759591 0.781152 0.984278
O O4 0.713326 0.664630 0.075717
O O5 0.500000 0.906831 0.159401
O O6 0.756422 0.898358 0.073943
O O7 0.775782 0.827304 0.200617
O O8 0.772959 0.000000 0.177934
O O9 0.158050 0.070912 0.945434
O O10 0.000000 0.610528 0.483688
O O11 0.718251 0.661116 0.829496
O O12 0.747423 0.815052 0.795271
O O13 0.000000 0.722109 0.764722
O O14 0.500000 0.917499 0.351244
O O15 0.212177 0.000000 0.369324
O O16 0.270690 0.500000 0.089832
O O17 0.265592 0.590731 0.197742
O O18 0.000000 0.592981 0.116730
O O19 0.713025 0.500000 0.305247
O O20 0.000000 0.582310 0.283791
#
# Coordination Sequence:
#
# PCOD9374917 Si02
#       8
#     8   8   2   8   8   8   8   8
#     4  11  23  37  57  82 116 151 190 242 296 346
#     4   9  16  32  55  80 120 156 182 230 290 347
#     4  12  22  36  64  86 118 164 198 236 308 364
#     4  10  22  38  57  88 123 157 196 248 299 359
#     4  10  20  35  58  85 111 149 197 238 286 344
#     4  10  22  40  61  84 114 152 194 238 285 349
#     4   9  18  33  54  83 117 152 190 232 281 345
#     4   9  19  36  56  80 114 150 184 231 289 343
#
# _framework density 24.441306000000001
#
# number of rings (size 3 to 8) (size 9 to 14) (size 15 to 20)
#    0.000    2.207    0.690    3.103    1.931    6.345 
#    1.241    1.379    1.517    0.828    0.000    0.000 
#    0.000    0.000    0.000    0.000    0.000    0.000 
#
# Total GULP energy -161584.225876 kJ/mol
# GULP energy per Si atom -5571.869858 kJ/mol
# Density = 2.438568 g / cm^3
# Si number density = 24.441306 Si / 1000 Ang^3
#
#
#
# Elastic Constant Matrix: (Units=GPa)
#
#
# Indices 1 2 3 4 5 6 
#
# 1 61.6054 26.9813 -7.9498 0.0000 0.0000 0.0000
# 2 26.9813 233.5556 35.8226 0.0000 0.0000 0.0000
# 3 -7.9498 35.8226 54.8233 0.0000 0.0000 0.0000
# 4 0.0000 0.0000 0.0000 48.1533 0.0000 0.0000
# 5 0.0000 0.0000 0.0000 0.0000 -14.5739 0.0000
# 6 0.0000 0.0000 0.0000 0.0000 0.0000 130.2215
#
#
#
# Elastic Compliance Matrix: (Units=1/GPa)
#
#
# Indices 1 2 3 4 5 6 
#
# 1 0.018010 -0.002757 0.004413 0.000000 0.000000 0.000000
# 2 -0.002757 0.005181 -0.003785 0.000000 0.000000 0.000000
# 3 0.004413 -0.003785 0.021354 0.000000 0.000000 0.000000
# 4 0.000000 0.000000 0.000000 0.020767 0.000000 0.000000
# 5 0.000000 0.000000 0.000000 0.000000 -0.068616 0.000000
# 6 0.000000 0.000000 0.000000 0.000000 0.000000 0.007679
#
#
# Mechanical properties :
#
#
# Convention : Reuss Voigt Hill
#
# Bulk Modulus (GPa) = 24.82286 51.07694 37.94990
# Shear Modulus (GPa) = 226.64456 52.43554 139.54005
#
# Velocity S-wave (km/s) = 9.64010 4.63683 7.56412
# Velocity P-wave (km/s) = 11.57958 7.04345 9.58376
#
# Compressibility (1/GPa) = 0.04028544
#
# Stress axis : x y z
#
# Youngs Moduli (GPa) = 55.52619 193.02292 46.83055
#
# Poissons Ratio (x) = 0.53225 -0.20668
# Poissons Ratio (y) = 0.15311 0.17726
# Poissons Ratio (z) = -0.24505 0.73060
#
# Static dielectric constant tensor:
#      x y z
#    x 1.947540 0.000000 0.000000 
#    y 0.000000 1.988990 0.000000 
#    z 0.000000 0.000000 1.989860 
# 
# From -- ./inp_files/25001.got.cif
#   From: 2010.05.17/outbox.cif.g08.bks.cpg/sg44_13_cif.got.tgz:25001.got - 2010.06.03 19:37:08.
