data_PCOD9374689
_publ_section_title
;
Structure prediction by ZEFSAII (Michael W. Deem and Ramdas Pophale) SiO2 
 PCOD9374689
Probable space group: I M M 2
;
_chemical_formula_sum "Si O2"
_cell_formula_units_Z 64
_cell_length_a 7.530932
_cell_length_b 9.372242
_cell_length_c 42.509241
_cell_angle_alpha 90.000000
_cell_angle_beta 90.000000
_cell_angle_gamma 90.000000
_cell_volume 3000.375226
_symmetry_space_group_name_H-M "I M M 2"
_symmetry_group_IT_number 44
_symmetry_cell_setting 'orthorhombic'
loop_
_space_group_symop_operation_xyz
x,y,z
-x,-y,z
-x,y,z
x,-y,z
1/2+x,1/2+y,1/2+z
1/2-x,1/2-y,1/2+z
1/2-x,1/2+y,1/2+z
1/2+x,1/2-y,1/2+z
loop_
_atom_site_type_symbol
_atom_site_label
_atom_site_fract_x
_atom_site_fract_y
_atom_site_fract_z
Si Si1 0.287233 0.662147 0.785090
Si Si2 0.712725 0.337077 0.592154
Si Si3 0.717572 0.163975 0.531561
Si Si4 0.287320 0.162824 0.162697
Si Si5 0.782495 0.664688 0.346241
Si Si6 0.787016 0.162099 0.970511
Si Si7 0.712783 0.662328 0.907472
Si Si8 0.213295 0.838687 0.722286
O O1 0.500000 0.653690 0.788392
O O2 0.218396 0.500000 0.784730
O O3 0.222833 0.753164 0.814903
O O4 0.250911 0.743554 0.752729
O O5 0.500000 0.344196 0.589120
O O6 0.781126 0.500000 0.589530
O O7 0.776905 0.238044 0.563915
O O8 0.751040 0.284608 0.627391
O O9 0.500000 0.164023 0.531474
O O10 0.777130 0.255544 0.501535
O O11 0.773946 0.000000 0.529287
O O12 0.500000 0.155502 0.166032
O O13 0.219062 0.261764 0.190707
O O14 0.218481 0.000000 0.165191
O O15 0.726006 0.500000 0.346563
O O16 0.722860 0.749559 0.377226
O O17 0.000000 0.664030 0.346261
O O18 0.749261 0.252372 0.939355
O O19 0.000000 0.153556 0.973404
O O20 0.718856 0.000000 0.968285
O O21 0.500000 0.653612 0.904264
O O22 0.781337 0.500000 0.908573
O O23 0.000000 0.847172 0.719541
O O24 0.281236 0.000000 0.725879
#
# Coordination Sequence:
#
# PCOD9374689 Si02
#       8
#     8   8   8   8   8   8   8   8
#     4  10  20  34  54  79 104 131 167 210 253 298
#     4   9  17  30  49  72  96 123 160 205 248 293
#     4   9  17  30  49  72  98 129 164 203 250 301
#     4   9  18  33  51  70  96 131 166 200 245 300
#     4   9  17  31  52  76 103 135 168 204 250 301
#     4  10  20  34  53  76 102 134 172 212 254 300
#     4  10  20  34  53  77 105 136 170 208 251 300
#     4  10  21  36  53  74 102 136 171 207 251 302
#
# _framework density 21.330665
#
# number of rings (size 3 to 8) (size 9 to 14) (size 15 to 20)
#    0.000    2.500    0.000    2.250    0.000    7.000 
#    0.000    2.500    0.000    6.000    0.000    0.000 
#    0.000    0.000    0.000    0.000    0.000    0.000 
#
# Total GULP energy -178778.575381 kJ/mol
# GULP energy per Si atom -5586.830481 kJ/mol
# Density = 2.128212 g / cm^3
# Si number density = 21.330665 Si / 1000 Ang^3
#
#
#
# Elastic Constant Matrix: (Units=GPa)
#
#
# Indices 1 2 3 4 5 6 
#
# 1 53.6272 7.4119 -1.3536 0.0000 0.0000 0.0000
# 2 7.4119 226.0431 155.9078 0.0000 0.0000 0.0000
# 3 -1.3536 155.9078 238.5291 0.0000 0.0000 0.0000
# 4 0.0000 0.0000 0.0000 42.4664 0.0000 0.0000
# 5 0.0000 0.0000 0.0000 0.0000 18.5678 0.0000
# 6 0.0000 0.0000 0.0000 0.0000 0.0000 12.6187
#
#
#
# Elastic Compliance Matrix: (Units=1/GPa)
#
#
# Indices 1 2 3 4 5 6 
#
# 1 0.018845 -0.001259 0.000930 0.000000 0.000000 0.000000
# 2 -0.001259 0.008140 -0.005327 0.000000 0.000000 0.000000
# 3 0.000930 -0.005327 0.007680 0.000000 0.000000 0.000000
# 4 0.000000 0.000000 0.000000 0.023548 0.000000 0.000000
# 5 0.000000 0.000000 0.000000 0.000000 0.053857 0.000000
# 6 0.000000 0.000000 0.000000 0.000000 0.000000 0.079247
#
#
# Mechanical properties :
#
#
# Convention : Reuss Voigt Hill
#
# Bulk Modulus (GPa) = 42.82513 93.57018 68.19765
# Shear Modulus (GPa) = 23.76273 38.47947 31.12110
#
# Velocity S-wave (km/s) = 3.34131 4.25190 3.82381
# Velocity P-wave (km/s) = 5.91660 8.25025 7.17889
#
# Compressibility (1/GPa) = 0.02335078
#
# Stress axis : x y z
#
# Youngs Moduli (GPa) = 53.06503 122.85464 130.21237
#
# Poissons Ratio (x) = 0.15473 -0.12112
# Poissons Ratio (y) = 0.06683 0.69370
# Poissons Ratio (z) = -0.04936 0.65450
#
# Static dielectric constant tensor:
#      x y z
#    x 1.842390 0.000000 0.000000 
#    y 0.000000 1.752240 0.000000 
#    z 0.000000 0.000000 1.719600 
# 
# From -- ./inp_files/27446.got.cif
#   From: 2010.05.17/outbox.cif.g08.bks.cpg/sg44_14_cif.got.tgz:27446.got - 2010.06.03 19:37:08.
