data_PCOD9374433
_publ_section_title
;
Structure prediction by ZEFSAII (Michael W. Deem and Ramdas Pophale) SiO2 
 PCOD9374433
Probable space group: I M M 2
;
_chemical_formula_sum "Si O2"
_cell_formula_units_Z 64
_cell_length_a 14.868881
_cell_length_b 8.617491
_cell_length_c 29.195095
_cell_angle_alpha 90.000000
_cell_angle_beta 90.000000
_cell_angle_gamma 90.000000
_cell_volume 3740.838998
_symmetry_space_group_name_H-M "I M M 2"
_symmetry_group_IT_number 44
_symmetry_cell_setting 'orthorhombic'
loop_
_space_group_symop_operation_xyz
x,y,z
-x,-y,z
-x,y,z
x,-y,z
1/2+x,1/2+y,1/2+z
1/2-x,1/2-y,1/2+z
1/2-x,1/2+y,1/2+z
1/2+x,1/2-y,1/2+z
loop_
_atom_site_type_symbol
_atom_site_label
_atom_site_fract_x
_atom_site_fract_y
_atom_site_fract_z
Si Si1 0.778299 0.314346 0.082780
Si Si2 0.603882 0.312574 0.768794
Si Si3 0.106169 0.815617 0.444276
Si Si4 0.102965 0.684933 0.543962
Si Si5 0.896503 0.312729 0.168541
Si Si6 0.898191 0.687419 0.898658
Si Si7 0.718250 0.310636 0.855359
Si Si8 0.105249 0.185159 0.999311
O O1 0.779352 0.500000 0.082240
O O2 0.676608 0.256412 0.077448
O O3 0.829559 0.260104 0.128584
O O4 0.833492 0.254031 0.038984
O O5 0.500000 0.267794 0.778616
O O6 0.606717 0.500000 0.767510
O O7 0.627537 0.249579 0.718701
O O8 0.669349 0.257664 0.809225
O O9 0.127670 0.732107 0.491873
O O10 0.162755 0.762815 0.400537
O O11 0.000000 0.794065 0.434976
O O12 0.121975 0.000000 0.450754
O O13 0.104984 0.500000 0.547651
O O14 0.000000 0.738787 0.551690
O O15 0.895156 0.500000 0.169704
O O16 0.000000 0.264551 0.158628
O O17 0.898641 0.500000 0.899784
O O18 0.821280 0.737145 0.863259
O O19 0.000000 0.740508 0.888496
O O20 0.873397 0.745694 0.949421
O O21 0.715594 0.500000 0.854610
O O22 0.000000 0.221669 0.008511
O O23 0.115490 0.000000 0.997903
#
# Coordination Sequence:
#
# PCOD9374433 Si02
#       8
#     8   8   8   8   8   8   8   8
#     4  11  21  33  52  73  94 126 166 202 237 285
#     4   9  17  30  49  71  93 118 150 190 237 286
#     4   9  16  27  45  68  94 125 160 194 230 278
#     4  10  21  35  49  69 100 132 162 201 244 282
#     4   9  19  35  52  72  98 123 149 188 239 291
#     4   9  17  29  45  65  92 128 166 198 229 272
#     4   9  16  27  45  68  92 120 156 196 234 273
#     4  10  20  32  47  71 103 133 161 198 244 291
#
# _framework density 17.108460999999998
#
# number of rings (size 3 to 8) (size 9 to 14) (size 15 to 20)
#    0.000    2.500    0.000    2.625    0.000    5.500 
#    0.000    2.500    0.000    3.750    0.000    1.750 
#    0.000    0.000    0.000    0.000    0.000    0.000 
#
# Total GULP energy -178527.845036 kJ/mol
# GULP energy per Si atom -5578.995157 kJ/mol
# Density = 1.706952 g / cm^3
# Si number density = 17.108461 Si / 1000 Ang^3
#
#
#
# Elastic Constant Matrix: (Units=GPa)
#
#
# Indices 1 2 3 4 5 6 
#
# 1 116.1683 25.2654 101.6527 0.0000 0.0000 0.0000
# 2 25.2654 11.3970 18.9854 0.0000 0.0000 0.0000
# 3 101.6527 18.9854 121.2816 0.0000 0.0000 0.0000
# 4 0.0000 0.0000 0.0000 23.4739 0.0000 0.0000
# 5 0.0000 0.0000 0.0000 0.0000 32.6607 0.0000
# 6 0.0000 0.0000 0.0000 0.0000 0.0000 18.9861
#
#
#
# Elastic Compliance Matrix: (Units=1/GPa)
#
#
# Indices 1 2 3 4 5 6 
#
# 1 0.048579 -0.053927 -0.032275 0.000000 0.000000 0.000000
# 2 -0.053927 0.178559 0.017248 0.000000 0.000000 0.000000
# 3 -0.032275 0.017248 0.032596 0.000000 0.000000 0.000000
# 4 0.000000 0.000000 0.000000 0.042601 0.000000 0.000000
# 5 0.000000 0.000000 0.000000 0.000000 0.030618 0.000000
# 6 0.000000 0.000000 0.000000 0.000000 0.000000 0.052670
#
#
# Mechanical properties :
#
#
# Convention : Reuss Voigt Hill
#
# Bulk Modulus (GPa) = 8.20843 60.07265 34.14054
# Shear Modulus (GPa) = 8.86305 21.88703 15.37504
#
# Velocity S-wave (km/s) = 2.27854 3.58062 3.00105
# Velocity P-wave (km/s) = 3.42500 7.23074 5.65748
#
# Compressibility (1/GPa) = 0.12182598
#
# Stress axis : x y z
#
# Youngs Moduli (GPa) = 20.58517 5.60038 30.67818
#
# Poissons Ratio (x) = 0.30201 0.99013
# Poissons Ratio (y) = 1.11010 -0.52913
# Poissons Ratio (z) = 0.66438 -0.09659
#
# Static dielectric constant tensor:
#      x y z
#    x 1.605730 0.000000 0.000000 
#    y 0.000000 1.580910 0.000000 
#    z 0.000000 0.000000 1.547110 
# 
# From -- ./inp_files/27512.got.cif
#   From: 2010.05.17/outbox.cif.g08.bks.cpg/sg44_14_cif.got.tgz:27512.got - 2010.06.03 19:37:08.
