data_PCOD9374366
_publ_section_title
;
Structure prediction by ZEFSAII (Michael W. Deem and Ramdas Pophale) SiO2 
 PCOD9374366
Probable space group: I M M 2
;
_chemical_formula_sum "Si O2"
_cell_formula_units_Z 48
_cell_length_a 19.028821
_cell_length_b 7.637628
_cell_length_c 15.565650
_cell_angle_alpha 90.000000
_cell_angle_beta 90.000000
_cell_angle_gamma 90.000000
_cell_volume 2262.234616
_symmetry_space_group_name_H-M "I M M 2"
_symmetry_group_IT_number 44
_symmetry_cell_setting 'orthorhombic'
loop_
_space_group_symop_operation_xyz
x,y,z
-x,-y,z
-x,y,z
x,-y,z
1/2+x,1/2+y,1/2+z
1/2-x,1/2-y,1/2+z
1/2-x,1/2+y,1/2+z
1/2+x,1/2-y,1/2+z
loop_
_atom_site_type_symbol
_atom_site_label
_atom_site_fract_x
_atom_site_fract_y
_atom_site_fract_z
Si Si1 0.000000 0.286454 0.435900
Si Si2 0.880164 0.796458 0.765269
Si Si3 0.154063 0.295526 0.393569
Si Si4 0.771580 0.197150 0.221304
Si Si5 0.774232 0.784757 0.026268
Si Si6 0.000000 0.290412 0.635633
Si Si7 0.075694 0.787214 0.952822
O O1 0.074861 0.222503 0.399237
O O2 0.000000 0.500000 0.426898
O O3 0.000000 0.241770 0.536563
O O4 0.808502 0.695249 0.752745
O O5 0.918941 0.741966 0.852227
O O6 0.931776 0.776328 0.685465
O O7 0.860504 0.000000 0.775878
O O8 0.148057 0.500000 0.416581
O O9 0.184109 0.283267 0.297339
O O10 0.211913 0.224231 0.461971
O O11 0.768008 0.273258 0.125167
O O12 0.799320 0.000000 0.212932
O O13 0.772162 0.000000 0.024650
O O14 0.851370 0.728938 0.994394
O O15 0.000000 0.500000 0.640897
O O16 0.000000 0.725806 0.987293
O O17 0.075362 0.000000 0.958880
#
# Coordination Sequence:
#
# PCOD9374366 Si02
#       7
#     4   8   8   8   8   4   8
#     4   9  20  37  59  82 109 156 200 232 282 356
#     4  11  20  34  57  84 113 150 191 228 281 353
#     4  10  19  38  62  80 107 151 198 235 280 350
#     4  11  22  36  56  86 115 146 191 243 294 335
#     4   9  18  34  56  79 108 149 191 230 278 349
#     4  11  21  35  57  88 119 146 186 244 296 340
#     4   9  16  30  54  80 104 138 186 227 261 326
#
# _framework density 21.217957999999999
#
# number of rings (size 3 to 8) (size 9 to 14) (size 15 to 20)
#    0.000    2.000    2.500    2.250    0.000    2.667 
#    1.500    5.417    0.000    0.000    0.000    0.000 
#    0.000    0.000    0.000    0.000    0.000    0.000 
#
# Total GULP energy -133939.792297 kJ/mol
# GULP energy per Si atom -5580.824679 kJ/mol
# Density = 2.116966 g / cm^3
# Si number density = 21.217958 Si / 1000 Ang^3
#
#
#
# Elastic Constant Matrix: (Units=GPa)
#
#
# Indices 1 2 3 4 5 6 
#
# 1 198.8915 5.9672 73.7466 0.0000 0.0000 0.0000
# 2 5.9672 39.1018 3.6770 0.0000 0.0000 0.0000
# 3 73.7466 3.6770 103.5117 0.0000 0.0000 0.0000
# 4 0.0000 0.0000 0.0000 21.4482 0.0000 0.0000
# 5 0.0000 0.0000 0.0000 0.0000 19.2267 0.0000
# 6 0.0000 0.0000 0.0000 0.0000 0.0000 4.5969
#
#
#
# Elastic Compliance Matrix: (Units=1/GPa)
#
#
# Indices 1 2 3 4 5 6 
#
# 1 0.006846 -0.000588 -0.004857 0.000000 0.000000 0.000000
# 2 -0.000588 0.025710 -0.000494 0.000000 0.000000 0.000000
# 3 -0.004857 -0.000494 0.013138 0.000000 0.000000 0.000000
# 4 0.000000 0.000000 0.000000 0.046624 0.000000 0.000000
# 5 0.000000 0.000000 0.000000 0.000000 0.052011 0.000000
# 6 0.000000 0.000000 0.000000 0.000000 0.000000 0.217536
#
#
# Mechanical properties :
#
#
# Convention : Reuss Voigt Hill
#
# Bulk Modulus (GPa) = 29.57094 56.47628 43.02361
# Shear Modulus (GPa) = 12.98646 26.26199 19.62422
#
# Velocity S-wave (km/s) = 2.47665 3.52195 3.04450
# Velocity P-wave (km/s) = 4.70589 6.57372 5.71661
#
# Compressibility (1/GPa) = 0.03381698
#
# Stress axis : x y z
#
# Youngs Moduli (GPa) = 146.06341 38.89463 76.11222
#
# Poissons Ratio (x) = 0.02287 0.36966
# Poissons Ratio (y) = 0.08590 0.03762
# Poissons Ratio (z) = 0.70940 0.01923
#
# Static dielectric constant tensor:
#      x y z
#    x 1.670240 0.000000 0.000000 
#    y 0.000000 1.798700 0.000000 
#    z 0.000000 0.000000 1.741540 
# 
# From -- ./inp_files/16173.got.cif
#   From: 2010.05.17/outbox.cif.g08.bks.cpg/sg44_9_cif.got.tgz:16173.got - 2010.06.03 19:37:08.
