data_PCOD9374849
_publ_section_title
;
Structure prediction by ZEFSAII (Michael W. Deem and Ramdas Pophale) SiO2 
 PCOD9374849
Probable space group: I M M 2
;
_chemical_formula_sum "Si O2"
_cell_formula_units_Z 56
_cell_length_a 22.299181
_cell_length_b 8.783327
_cell_length_c 14.924961
_cell_angle_alpha 90.000000
_cell_angle_beta 90.000000
_cell_angle_gamma 90.000000
_cell_volume 2923.217765
_symmetry_space_group_name_H-M "I M M 2"
_symmetry_group_IT_number 44
_symmetry_cell_setting 'orthorhombic'
loop_
_space_group_symop_operation_xyz
x,y,z
-x,-y,z
-x,y,z
x,-y,z
1/2+x,1/2+y,1/2+z
1/2-x,1/2-y,1/2+z
1/2-x,1/2+y,1/2+z
1/2+x,1/2-y,1/2+z
loop_
_atom_site_type_symbol
_atom_site_label
_atom_site_fract_x
_atom_site_fract_y
_atom_site_fract_z
Si Si1 0.000000 0.682437 0.401670
Si Si2 0.500000 0.185094 0.107738
Si Si3 0.357637 0.319057 0.402287
Si Si4 0.883408 0.681719 0.719594
Si Si5 0.218218 0.818656 0.599746
Si Si6 0.785256 0.681140 0.407598
Si Si7 0.149653 0.816753 0.102373
Si Si8 0.610907 0.681482 0.794071
O O1 0.058391 0.741158 0.350054
O O2 0.000000 0.500000 0.402408
O O3 0.000000 0.736770 0.504873
O O4 0.440618 0.231839 0.161244
O O5 0.500000 0.000000 0.106613
O O6 0.367136 0.500000 0.390752
O O7 0.389196 0.229781 0.322759
O O8 0.285741 0.291012 0.395697
O O9 0.374902 0.276095 0.504015
O O10 0.877175 0.500000 0.712447
O O11 0.824897 0.760420 0.677844
O O12 0.197767 0.744558 0.505593
O O13 0.286102 0.762759 0.614204
O O14 0.216370 0.000000 0.593660
O O15 0.795172 0.500000 0.404806
O O16 0.825926 0.762239 0.334123
O O17 0.109519 0.780944 0.188391
O O18 0.160072 0.000000 0.100911
O O19 0.606499 0.500000 0.803412
#
# Coordination Sequence:
#
# PCOD9374849 Si02
#       8
#     4   4   8   8   8   8   8   8
#     4  11  23  41  62  81 108 148 187 227 282 339
#     4   9  22  41  58  77 104 142 183 221 266 325
#     4   9  19  36  56  82 113 144 182 225 271 328
#     4  11  21  36  57  79 108 146 186 228 278 330
#     4  11  21  33  54  85 116 145 184 231 276 329
#     4  10  20  35  55  81 116 152 183 222 278 339
#     4   9  20  38  58  80 112 150 183 223 277 333
#     4  11  22  37  58  84 112 145 189 235 279 331
#
# _framework density 19.156970999999999
#
# number of rings (size 3 to 8) (size 9 to 14) (size 15 to 20)
#    0.000    1.857    0.000    5.357    0.000    7.429 
#    0.000    4.286    0.000    2.571    0.000    0.000 
#    0.000    0.000    0.000    0.000    0.000    0.000 
#
# Total GULP energy -156445.731811 kJ/mol
# GULP energy per Si atom -5587.347565 kJ/mol
# Density = 1.911337 g / cm^3
# Si number density = 19.156971 Si / 1000 Ang^3
#
#
#
# Elastic Constant Matrix: (Units=GPa)
#
#
# Indices 1 2 3 4 5 6 
#
# 1 36.1069 24.9868 49.9024 0.0000 0.0000 0.0000
# 2 24.9868 46.8561 46.1498 0.0000 0.0000 0.0000
# 3 49.9024 46.1498 167.8560 0.0000 0.0000 0.0000
# 4 0.0000 0.0000 0.0000 30.9020 0.0000 0.0000
# 5 0.0000 0.0000 0.0000 0.0000 28.5522 0.0000
# 6 0.0000 0.0000 0.0000 0.0000 0.0000 16.7264
#
#
#
# Elastic Compliance Matrix: (Units=1/GPa)
#
#
# Indices 1 2 3 4 5 6 
#
# 1 0.056960 -0.018783 -0.011770 0.000000 0.000000 0.000000
# 2 -0.018783 0.035461 -0.004166 0.000000 0.000000 0.000000
# 3 -0.011770 -0.004166 0.010602 0.000000 0.000000 0.000000
# 4 0.000000 0.000000 0.000000 0.032360 0.000000 0.000000
# 5 0.000000 0.000000 0.000000 0.000000 0.035024 0.000000
# 6 0.000000 0.000000 0.000000 0.000000 0.000000 0.059786
#
#
# Mechanical properties :
#
#
# Convention : Reuss Voigt Hill
#
# Bulk Modulus (GPa) = 29.77345 54.76634 42.26990
# Shear Modulus (GPa) = 16.08627 23.88813 19.98720
#
# Velocity S-wave (km/s) = 2.90092 3.53507 3.23358
# Velocity P-wave (km/s) = 5.17648 6.73146 6.00452
#
# Compressibility (1/GPa) = 0.03358697
#
# Stress axis : x y z
#
# Youngs Moduli (GPa) = 17.55611 28.20012 94.32310
#
# Poissons Ratio (x) = 0.52967 1.11017
# Poissons Ratio (y) = 0.32975 0.39291
# Poissons Ratio (z) = 0.20663 0.11747
#
# Static dielectric constant tensor:
#      x y z
#    x 1.643300 0.000000 0.000000 
#    y 0.000000 1.640140 0.000000 
#    z 0.000000 0.000000 1.692390 
# 
# From -- ./inp_files/19218.got.cif
#   From: 2010.05.17/outbox.cif.g08.bks.cpg/sg44_10_cif.got.tgz:19218.got - 2010.06.03 19:37:08.
