data_PCOD9374502
_publ_section_title
;
Structure prediction by ZEFSAII (Michael W. Deem and Ramdas Pophale) SiO2 
 PCOD9374502
Probable space group: I M M 2
;
_chemical_formula_sum "Si O2"
_cell_formula_units_Z 44
_cell_length_a 27.900065
_cell_length_b 8.478427
_cell_length_c 8.760973
_cell_angle_alpha 90.000000
_cell_angle_beta 90.000000
_cell_angle_gamma 90.000000
_cell_volume 2072.396462
_symmetry_space_group_name_H-M "I M M 2"
_symmetry_group_IT_number 44
_symmetry_cell_setting 'orthorhombic'
loop_
_space_group_symop_operation_xyz
x,y,z
-x,-y,z
-x,y,z
x,-y,z
1/2+x,1/2+y,1/2+z
1/2-x,1/2-y,1/2+z
1/2-x,1/2+y,1/2+z
1/2+x,1/2-y,1/2+z
loop_
_atom_site_type_symbol
_atom_site_label
_atom_site_fract_x
_atom_site_fract_y
_atom_site_fract_z
Si Si1 0.000000 0.745968 0.231140
Si Si2 0.500000 0.500000 0.993855
Si Si3 0.085827 0.000000 0.734048
Si Si4 0.606104 0.170164 0.778573
Si Si5 0.190575 0.181573 0.142276
Si Si6 0.363262 0.184905 0.127960
Si Si7 0.272935 0.683667 0.980842
Si Si8 0.500000 0.500000 0.471564
O O1 0.050787 0.662694 0.238410
O O2 0.000000 0.852414 0.382397
O O3 0.000000 0.850255 0.080596
O O4 0.548170 0.500000 0.092969
O O5 0.116145 0.835324 0.723128
O O6 0.048731 0.000000 0.873938
O O7 0.634649 0.291031 0.672970
O O8 0.629511 0.000000 0.750618
O O9 0.612867 0.202681 0.958600
O O10 0.217804 0.284066 0.017785
O O11 0.213732 0.222466 0.307058
O O12 0.199625 0.000000 0.106659
O O13 0.307135 0.215012 0.092021
O O14 0.370998 0.000000 0.177160
O O15 0.284918 0.500000 0.003627
#
# Coordination Sequence:
#
# PCOD9374502 Si02
#       8
#     4   2   4   8   8   8   8   2
#     4  11  21  40  61  89 119 160 199 258 307 367
#     4  10  20  32  70  84 118 150 204 252 310 348
#     4  11  20  44  60  98 120 166 204 257 308 366
#     4  10  21  37  63  94 117 153 211 264 309 360
#     4  10  22  37  59  89 122 159 202 251 305 366
#     4  10  20  36  66  96 121 156 209 263 306 361
#     4  10  20  38  60  88 125 162 200 251 306 362
#     4  10  28  40  60  90 132 162 206 246 318 386
#
# _framework density 21.231458
#
# number of rings (size 3 to 8) (size 9 to 14) (size 15 to 20)
#    0.000    1.818    2.727    1.364    3.818    2.182 
#    3.273    3.636    0.000    0.000    0.000    0.000 
#    0.000    0.000    0.000    0.000    0.000    0.000 
#
# Total GULP energy -122739.331954 kJ/mol
# GULP energy per Si atom -5579.060543 kJ/mol
# Density = 2.118313 g / cm^3
# Si number density = 21.231458 Si / 1000 Ang^3
#
#
#
# Elastic Constant Matrix: (Units=GPa)
#
#
# Indices 1 2 3 4 5 6 
#
# 1 91.2484 14.3748 8.8220 0.0000 0.0000 0.0000
# 2 14.3748 81.9744 15.6945 0.0000 0.0000 0.0000
# 3 8.8220 15.6945 27.7030 0.0000 0.0000 0.0000
# 4 0.0000 0.0000 0.0000 10.6078 0.0000 0.0000
# 5 0.0000 0.0000 0.0000 0.0000 23.0613 0.0000
# 6 0.0000 0.0000 0.0000 0.0000 0.0000 29.2805
#
#
#
# Elastic Compliance Matrix: (Units=1/GPa)
#
#
# Indices 1 2 3 4 5 6 
#
# 1 0.011463 -0.001471 -0.002817 0.000000 0.000000 0.000000
# 2 -0.001471 0.013872 -0.007390 0.000000 0.000000 0.000000
# 3 -0.002817 -0.007390 0.041181 0.000000 0.000000 0.000000
# 4 0.000000 0.000000 0.000000 0.094270 0.000000 0.000000
# 5 0.000000 0.000000 0.000000 0.000000 0.043363 0.000000
# 6 0.000000 0.000000 0.000000 0.000000 0.000000 0.034152
#
#
# Mechanical properties :
#
#
# Convention : Reuss Voigt Hill
#
# Bulk Modulus (GPa) = 23.16993 30.96762 27.06878
# Shear Modulus (GPa) = 18.11303 23.39224 20.75263
#
# Velocity S-wave (km/s) = 2.92399 3.32290 3.12981
# Velocity P-wave (km/s) = 4.72614 5.41660 5.08311
#
# Compressibility (1/GPa) = 0.04315938
#
# Stress axis : x y z
#
# Youngs Moduli (GPa) = 87.23597 72.08881 24.28295
#
# Poissons Ratio (x) = 0.10603 0.06841
# Poissons Ratio (y) = 0.12831 0.17946
# Poissons Ratio (z) = 0.24576 0.53276
#
# Static dielectric constant tensor:
#      x y z
#    x 1.769830 0.000000 0.000000 
#    y 0.000000 1.758870 0.000000 
#    z 0.000000 0.000000 1.750610 
# 
# From -- ./inp_files/9956.got.cif
#   From: 2010.05.17/outbox.cif.g08.bks.cpg/sg44_5_cif.got.tgz:9956.got - 2010.06.03 19:37:08.
