data_PCOD9374907
_publ_section_title
;
Structure prediction by ZEFSAII (Michael W. Deem and Ramdas Pophale) SiO2 
 PCOD9374907
Probable space group: I M M 2
;
_chemical_formula_sum "Si O2"
_cell_formula_units_Z 32
_cell_length_a 8.829950
_cell_length_b 7.810571
_cell_length_c 24.732287
_cell_angle_alpha 90.000000
_cell_angle_beta 90.000000
_cell_angle_gamma 90.000000
_cell_volume 1705.710436
_symmetry_space_group_name_H-M "I M M 2"
_symmetry_group_IT_number 44
_symmetry_cell_setting 'orthorhombic'
loop_
_space_group_symop_operation_xyz
x,y,z
-x,-y,z
-x,y,z
x,-y,z
1/2+x,1/2+y,1/2+z
1/2-x,1/2-y,1/2+z
1/2-x,1/2+y,1/2+z
1/2+x,1/2-y,1/2+z
loop_
_atom_site_type_symbol
_atom_site_label
_atom_site_fract_x
_atom_site_fract_y
_atom_site_fract_z
Si Si1 0.681618 0.809033 0.659210
Si Si2 0.681078 0.299554 0.431663
Si Si3 0.184494 0.000000 0.235290
Si Si4 0.682227 0.500000 0.859974
Si Si5 0.324978 0.793797 0.046505
O O1 0.500000 0.790994 0.652817
O O2 0.733786 0.665902 0.701435
O O3 0.755263 0.782871 0.600720
O O4 0.713759 0.000000 0.679171
O O5 0.500000 0.287465 0.428293
O O6 0.724207 0.500000 0.422806
O O7 0.734671 0.250638 0.492102
O O8 0.756395 0.168520 0.390143
O O9 0.232531 0.000000 0.297395
O O10 0.000000 0.000000 0.235801
O O11 0.500000 0.500000 0.862082
O O12 0.500000 0.743153 0.040357
O O13 0.318085 0.000000 0.052289
#
# Coordination Sequence:
#
# PCOD9374907 Si02
#       5
#     8   8   4   4   8
#     4  10  20  35  58  85 113 152 196 237 287 351
#     4  10  22  40  61  86 118 159 202 244 296 359
#     4   9  20  39  59  83 117 155 198 243 292 349
#     4  11  23  39  63  91 119 157 202 253 302 351
#     4  10  20  35  57  86 120 154 190 240 299 350
#
# _framework density 18.760511000000001
#
# number of rings (size 3 to 8) (size 9 to 14) (size 15 to 20)
#    0.000    2.000    1.250    1.875    1.750    4.000 
#    0.000    5.000    0.000    0.000    0.000    0.000 
#    0.000    0.000    0.000    0.000    0.000    0.000 
#
# Total GULP energy -89368.081739 kJ/mol
# GULP energy per Si atom -5585.505109 kJ/mol
# Density = 1.871781 g / cm^3
# Si number density = 18.760511 Si / 1000 Ang^3
#
#
#
# Elastic Constant Matrix: (Units=GPa)
#
#
# Indices 1 2 3 4 5 6 
#
# 1 51.7456 53.7695 44.1820 0.0000 0.0000 0.0000
# 2 53.7695 126.0787 96.8848 0.0000 0.0000 0.0000
# 3 44.1820 96.8848 163.2538 0.0000 0.0000 0.0000
# 4 0.0000 0.0000 0.0000 5.3183 0.0000 0.0000
# 5 0.0000 0.0000 0.0000 0.0000 27.8196 0.0000
# 6 0.0000 0.0000 0.0000 0.0000 0.0000 21.1003
#
#
#
# Elastic Compliance Matrix: (Units=1/GPa)
#
#
# Indices 1 2 3 4 5 6 
#
# 1 0.034817 -0.013986 -0.001122 0.000000 0.000000 0.000000
# 2 -0.013986 0.020199 -0.008203 0.000000 0.000000 0.000000
# 3 -0.001122 -0.008203 0.011297 0.000000 0.000000 0.000000
# 4 0.000000 0.000000 0.000000 0.188029 0.000000 0.000000
# 5 0.000000 0.000000 0.000000 0.000000 0.035946 0.000000
# 6 0.000000 0.000000 0.000000 0.000000 0.000000 0.047393
#
#
# Mechanical properties :
#
#
# Convention : Reuss Voigt Hill
#
# Bulk Modulus (GPa) = 50.78372 81.19453 65.98912
# Shear Modulus (GPa) = 12.79210 20.59709 16.69459
#
# Velocity S-wave (km/s) = 2.61408 3.31705 2.98632
# Velocity P-wave (km/s) = 6.01992 7.61865 6.86598
#
# Compressibility (1/GPa) = 0.01969135
#
# Stress axis : x y z
#
# Youngs Moduli (GPa) = 28.72196 49.50647 88.51839
#
# Poissons Ratio (x) = 0.69239 0.09936
# Poissons Ratio (y) = 0.40170 0.72607
# Poissons Ratio (z) = 0.03224 0.40608
#
# Static dielectric constant tensor:
#      x y z
#    x 1.632950 0.000000 0.000000 
#    y 0.000000 1.666290 0.000000 
#    z 0.000000 0.000000 1.603980 
# 
# From -- ./inp_files/22513.got.cif
#   From: 2010.05.17/outbox.cif.g08.bks.cpg/sg44_12_cif.got.tgz:22513.got - 2010.06.03 19:37:08.
