data_PCOD9374646
_publ_section_title
;
Structure prediction by ZEFSAII (Michael W. Deem and Ramdas Pophale) SiO2 
 PCOD9374646
Probable space group: I M M 2
;
_chemical_formula_sum "Si O2"
_cell_formula_units_Z 58
_cell_length_a 16.023942
_cell_length_b 7.448995
_cell_length_c 19.210683
_cell_angle_alpha 90.000000
_cell_angle_beta 90.000000
_cell_angle_gamma 90.000000
_cell_volume 2293.030613
_symmetry_space_group_name_H-M "I M M 2"
_symmetry_group_IT_number 44
_symmetry_cell_setting 'orthorhombic'
loop_
_space_group_symop_operation_xyz
x,y,z
-x,-y,z
-x,y,z
x,-y,z
1/2+x,1/2+y,1/2+z
1/2-x,1/2-y,1/2+z
1/2-x,1/2+y,1/2+z
1/2+x,1/2-y,1/2+z
loop_
_atom_site_type_symbol
_atom_site_label
_atom_site_fract_x
_atom_site_fract_y
_atom_site_fract_z
Si Si1 0.588670 0.286016 0.630380
Si Si2 0.206952 0.796230 0.023754
Si Si3 0.408508 0.713315 0.796786
Si Si4 0.777460 0.713925 0.784884
Si Si5 0.883472 0.204004 0.501039
Si Si6 0.000000 0.500000 0.437584
Si Si7 0.593437 0.714796 0.163538
Si Si8 0.406250 0.217621 0.400471
O O1 0.500000 0.211988 0.604780
O O2 0.589480 0.500000 0.615377
O O3 0.671293 0.213077 0.594610
O O4 0.589388 0.271886 0.712798
O O5 0.284692 0.700467 0.990032
O O6 0.234773 0.000000 0.035315
O O7 0.128688 0.788253 0.972773
O O8 0.500000 0.793986 0.819120
O O9 0.410855 0.500000 0.815353
O O10 0.314458 0.785995 0.806927
O O11 0.766682 0.500000 0.790416
O O12 0.826520 0.736574 0.711038
O O13 0.844442 0.779488 0.840464
O O14 0.896955 0.264238 0.581830
O O15 0.927726 0.342186 0.450607
O O16 0.913018 0.000000 0.493751
O O17 0.500000 0.779825 0.187049
O O18 0.590724 0.500000 0.164838
O O19 0.500000 0.274995 0.387033
O O20 0.404222 0.000000 0.402493
#
# Coordination Sequence:
#
# PCOD9374646 Si02
#       8
#     8   8   8   8   8   2   8   8
#     4   8  14  25  45  79 115 143 181 237 299 366
#     4  11  21  35  58  84 111 152 203 249 303 370
#     4   8  14  27  49  78 110 137 172 233 298 358
#     4  10  20  33  56  82 109 153 208 253 299 364
#     4  11  23  39  60  91 127 162 200 254 306 368
#     4  12  22  40  64  90 122 168 206 240 312 372
#     4  10  21  35  53  83 123 157 187 238 305 363
#     4  10  22  39  54  77 115 158 200 256 318 368
#
# _framework density 25.294035000000001
#
# number of rings (size 3 to 8) (size 9 to 14) (size 15 to 20)
#    0.000    2.207    1.379    3.103    0.966    3.310 
#    0.000    0.000    1.517    0.414    0.000    3.862 
#    0.000    0.000    0.000    0.000    0.000    0.000 
#
# Total GULP energy -161763.222515 kJ/mol
# GULP energy per Si atom -5578.042156 kJ/mol
# Density = 2.523646 g / cm^3
# Si number density = 25.294035 Si / 1000 Ang^3
#
#
#
# Elastic Constant Matrix: (Units=GPa)
#
#
# Indices 1 2 3 4 5 6 
#
# 1 230.6360 20.0455 31.8435 0.0000 0.0000 0.0000
# 2 20.0455 95.2310 -13.4542 0.0000 0.0000 0.0000
# 3 31.8435 -13.4542 70.6577 0.0000 0.0000 0.0000
# 4 0.0000 0.0000 0.0000 83.6027 0.0000 0.0000
# 5 0.0000 0.0000 0.0000 0.0000 131.5314 0.0000
# 6 0.0000 0.0000 0.0000 0.0000 0.0000 -2.8666
#
#
#
# Elastic Compliance Matrix: (Units=1/GPa)
#
#
# Indices 1 2 3 4 5 6 
#
# 1 0.004786 -0.001349 -0.002414 0.000000 0.000000 0.000000
# 2 -0.001349 0.011171 0.002735 0.000000 0.000000 0.000000
# 3 -0.002414 0.002735 0.015761 0.000000 0.000000 0.000000
# 4 0.000000 0.000000 0.000000 0.011961 0.000000 0.000000
# 5 0.000000 0.000000 0.000000 0.000000 0.007603 0.000000
# 6 0.000000 0.000000 0.000000 0.000000 0.000000 -0.348841
#
#
# Mechanical properties :
#
#
# Convention : Reuss Voigt Hill
#
# Bulk Modulus (GPa) = 33.71129 52.59938 43.15533
# Shear Modulus (GPa) = -17.50604 66.32616 24.41006
#
# Velocity S-wave (km/s) = -2.63364 5.12630 3.10990
# Velocity P-wave (km/s) = 2.02698 7.47522 5.47666
#
# Compressibility (1/GPa) = 0.02966365
#
# Stress axis : x y z
#
# Youngs Moduli (GPa) = 208.92892 89.51742 63.44640
#
# Poissons Ratio (x) = 0.12072 0.15315
# Poissons Ratio (y) = 0.28174 -0.17352
# Poissons Ratio (z) = 0.50432 -0.24482
#
# Static dielectric constant tensor:
#      x y z
#    x 2.029980 0.000000 0.000000 
#    y 0.000000 1.956080 0.000000 
#    z 0.000000 0.000000 2.044830 
# 
# From -- ./inp_files/25749.got.cif
#   From: 2010.05.17/outbox.cif.g08.bks.cpg/sg44_13_cif.got.tgz:25749.got - 2010.06.03 19:37:08.
