data_PCOD9374754
_publ_section_title
;
Structure prediction by ZEFSAII (Michael W. Deem and Ramdas Pophale) SiO2 
 PCOD9374754
Probable space group: I M M 2
;
_chemical_formula_sum "Si O2"
_cell_formula_units_Z 64
_cell_length_a 16.810599
_cell_length_b 9.529103
_cell_length_c 20.763019
_cell_angle_alpha 90.000000
_cell_angle_beta 90.000000
_cell_angle_gamma 90.000000
_cell_volume 3326.026547
_symmetry_space_group_name_H-M "I M M 2"
_symmetry_group_IT_number 44
_symmetry_cell_setting 'orthorhombic'
loop_
_space_group_symop_operation_xyz
x,y,z
-x,-y,z
-x,y,z
x,-y,z
1/2+x,1/2+y,1/2+z
1/2-x,1/2-y,1/2+z
1/2-x,1/2+y,1/2+z
1/2+x,1/2-y,1/2+z
loop_
_atom_site_type_symbol
_atom_site_label
_atom_site_fract_x
_atom_site_fract_y
_atom_site_fract_z
Si Si1 0.591566 0.338169 0.559710
Si Si2 0.625183 0.838135 0.433155
Si Si3 0.816450 0.337546 0.164826
Si Si4 0.409001 0.836771 0.040024
Si Si5 0.376570 0.660827 0.310715
Si Si6 0.124516 0.162791 0.664641
Si Si7 0.317899 0.338192 0.933635
Si Si8 0.183042 0.660592 0.311177
O O1 0.500000 0.335046 0.581584
O O2 0.615171 0.500000 0.549361
O O3 0.597336 0.252876 0.493402
O O4 0.645742 0.263863 0.612765
O O5 0.598444 0.765945 0.366641
O O6 0.721787 0.835310 0.435087
O O7 0.600274 0.000000 0.437496
O O8 0.838544 0.500000 0.151442
O O9 0.720718 0.330420 0.162392
O O10 0.841543 0.303932 0.238250
O O11 0.500000 0.828895 0.016251
O O12 0.406162 0.765929 0.110185
O O13 0.385535 0.000000 0.043148
O O14 0.352491 0.750372 0.992573
O O15 0.401092 0.500000 0.324172
O O16 0.400747 0.697156 0.237769
O O17 0.279739 0.661203 0.310762
O O18 0.102290 0.000000 0.651922
O O19 0.343224 0.500000 0.937773
O O20 0.343525 0.265731 0.866697
O O21 0.158618 0.500000 0.325472
#
# Coordination Sequence:
#
# PCOD9374754 Si02
#       8
#     8   8   8   8   8   8   8   8
#     4  11  24  38  51  72 104 141 180 218 256 303
#     4  10  20  34  55  82 107 133 170 214 259 309
#     4   9  18  34  57  83 107 133 169 211 256 309
#     4  11  24  38  51  72 104 141 180 218 256 303
#     4   8  15  30  53  80 108 135 165 206 255 306
#     4   9  18  34  57  83 107 133 169 211 256 309
#     4  10  20  34  55  82 107 133 170 214 259 309
#     4   8  15  30  53  80 108 135 165 206 255 306
#
# _framework density 19.242179
#
# number of rings (size 3 to 8) (size 9 to 14) (size 15 to 20)
#    0.000    2.500    0.000    3.750    0.000    8.000 
#    0.000    3.750    0.000    1.500    0.000    0.000 
#    0.000    0.000    0.000    0.000    0.000    0.000 
#
# Total GULP energy -178665.806292 kJ/mol
# GULP energy per Si atom -5583.306447 kJ/mol
# Density = 1.919838 g / cm^3
# Si number density = 19.242179 Si / 1000 Ang^3
#
#
#
# Elastic Constant Matrix: (Units=GPa)
#
#
# Indices 1 2 3 4 5 6 
#
# 1 34.7600 43.1161 35.9421 0.0000 0.0000 0.0000
# 2 43.1161 147.4948 95.1532 0.0000 0.0000 0.0000
# 3 35.9421 95.1532 118.1311 0.0000 0.0000 0.0000
# 4 0.0000 0.0000 0.0000 42.2478 0.0000 0.0000
# 5 0.0000 0.0000 0.0000 0.0000 -39.1335 0.0000
# 6 0.0000 0.0000 0.0000 0.0000 0.0000 -57.4007
#
#
#
# Elastic Compliance Matrix: (Units=1/GPa)
#
#
# Indices 1 2 3 4 5 6 
#
# 1 0.047637 -0.009524 -0.006822 0.000000 0.000000 0.000000
# 2 -0.009524 0.016018 -0.010005 0.000000 0.000000 0.000000
# 3 -0.006822 -0.010005 0.018600 0.000000 0.000000 0.000000
# 4 0.000000 0.000000 0.000000 0.023670 0.000000 0.000000
# 5 0.000000 0.000000 0.000000 0.000000 -0.025554 0.000000
# 6 0.000000 0.000000 0.000000 0.000000 0.000000 -0.017421
#
#
# Mechanical properties :
#
#
# Convention : Reuss Voigt Hill
#
# Bulk Modulus (GPa) = 33.83823 72.08986 52.96404
# Shear Modulus (GPa) = 39.83969 -2.44564 18.69703
#
# Velocity S-wave (km/s) = 4.55514 -1.12860 3.12054
# Velocity P-wave (km/s) = 6.72974 5.98728 6.36934
#
# Compressibility (1/GPa) = 0.02955238
#
# Stress axis : x y z
#
# Youngs Moduli (GPa) = 20.99226 62.42785 53.76421
#
# Poissons Ratio (x) = 0.59457 0.36679
# Poissons Ratio (y) = 0.19993 0.53791
# Poissons Ratio (z) = 0.14321 0.62459
#
# Static dielectric constant tensor:
#      x y z
#    x 1.675830 0.000000 0.000000 
#    y 0.000000 1.643860 0.000000 
#    z 0.000000 0.000000 1.650350 
# 
# From -- ./inp_files/23296.got.cif
#   From: 2010.05.17/outbox.cif.g08.bks.cpg/sg44_12_cif.got.tgz:23296.got - 2010.06.03 19:37:08.
