data_PCOD9374814
_publ_section_title
;
Structure prediction by ZEFSAII (Michael W. Deem and Ramdas Pophale) SiO2 
 PCOD9374814
Probable space group: I M M 2
;
_chemical_formula_sum "Si O2"
_cell_formula_units_Z 58
_cell_length_a 22.675588
_cell_length_b 7.614381
_cell_length_c 16.797744
_cell_angle_alpha 90.000000
_cell_angle_beta 90.000000
_cell_angle_gamma 90.000000
_cell_volume 2900.307994
_symmetry_space_group_name_H-M "I M M 2"
_symmetry_group_IT_number 44
_symmetry_cell_setting 'orthorhombic'
loop_
_space_group_symop_operation_xyz
x,y,z
-x,-y,z
-x,y,z
x,-y,z
1/2+x,1/2+y,1/2+z
1/2-x,1/2-y,1/2+z
1/2-x,1/2+y,1/2+z
1/2+x,1/2-y,1/2+z
loop_
_atom_site_type_symbol
_atom_site_label
_atom_site_fract_x
_atom_site_fract_y
_atom_site_fract_z
Si Si1 0.678177 0.290873 0.364780
Si Si2 0.000000 0.500000 0.170200
Si Si3 0.318098 0.294633 0.997803
Si Si4 0.105550 0.205412 0.178560
Si Si5 0.935293 0.787713 0.771153
Si Si6 0.194173 0.789186 0.319474
Si Si7 0.435646 0.206768 0.085267
Si Si8 0.303368 0.797821 0.547069
O O1 0.673590 0.500000 0.375619
O O2 0.619676 0.223812 0.321772
O O3 0.736714 0.256866 0.312465
O O4 0.683700 0.210808 0.452625
O O5 0.947829 0.656782 0.170706
O O6 0.303126 0.500000 0.988479
O O7 0.321507 0.220944 0.908271
O O8 0.380121 0.282852 0.040417
O O9 0.263390 0.221351 0.049304
O O10 0.148967 0.265527 0.251015
O O11 0.147090 0.207245 0.100014
O O12 0.087242 0.000000 0.192153
O O13 0.929384 0.734575 0.679449
O O14 0.000000 0.728974 0.799630
O O15 0.934479 0.000000 0.773431
O O16 0.190440 0.000000 0.319548
O O17 0.500000 0.279301 0.061836
O O18 0.435813 0.000000 0.069171
O O19 0.303220 0.000000 0.574321
#
# Coordination Sequence:
#
# PCOD9374814 Si02
#       8
#     8   2   8   8   8   8   8   8
#     4  10  20  34  59  91 121 157 204 262 317 373
#     4  12  26  48  68  98 132 168 218 276 316 386
#     4   9  19  37  60  85 118 158 201 257 310 370
#     4  11  24  45  70  95 128 172 216 267 328 388
#     4   9  19  36  54  77 113 156 198 238 294 367
#     4   9  21  40  61  88 120 157 206 258 315 376
#     4  10  21  35  51  80 117 152 195 244 301 369
#     4  10  21  40  62  90 125 159 209 261 317 377
#
# _framework density 19.997876999999999
#
# number of rings (size 3 to 8) (size 9 to 14) (size 15 to 20)
#    0.000    2.207    0.690    2.276    2.897    4.690 
#    2.483    0.000    0.000    0.000    0.000    0.000 
#    0.000    0.000    0.000    0.000    0.000    0.000 
#
# Total GULP energy -161460.477212 kJ/mol
# GULP energy per Si atom -5567.602662 kJ/mol
# Density = 1.995236 g / cm^3
# Si number density = 19.997877 Si / 1000 Ang^3
#
#
#
# Elastic Constant Matrix: (Units=GPa)
#
#
# Indices 1 2 3 4 5 6 
#
# 1 194.6684 31.5090 72.9538 0.0000 0.0000 0.0000
# 2 31.5090 81.6745 14.6476 0.0000 0.0000 0.0000
# 3 72.9538 14.6476 50.3503 0.0000 0.0000 0.0000
# 4 0.0000 0.0000 0.0000 17.1361 0.0000 0.0000
# 5 0.0000 0.0000 0.0000 0.0000 25.5306 0.0000
# 6 0.0000 0.0000 0.0000 0.0000 0.0000 27.5200
#
#
#
# Elastic Compliance Matrix: (Units=1/GPa)
#
#
# Indices 1 2 3 4 5 6 
#
# 1 0.011416 -0.001517 -0.016099 0.000000 0.000000 0.000000
# 2 -0.001517 0.013119 -0.001619 0.000000 0.000000 0.000000
# 3 -0.016099 -0.001619 0.043659 0.000000 0.000000 0.000000
# 4 0.000000 0.000000 0.000000 0.058356 0.000000 0.000000
# 5 0.000000 0.000000 0.000000 0.000000 0.039169 0.000000
# 6 0.000000 0.000000 0.000000 0.000000 0.000000 0.036337
#
#
# Mechanical properties :
#
#
# Convention : Reuss Voigt Hill
#
# Bulk Modulus (GPa) = 33.64333 62.76823 48.20578
# Shear Modulus (GPa) = 19.96532 27.87619 23.92075
#
# Velocity S-wave (km/s) = 3.16313 3.73762 3.46231
# Velocity P-wave (km/s) = 5.49550 7.07687 6.33571
#
# Compressibility (1/GPa) = 0.02972357
#
# Stress axis : x y z
#
# Youngs Moduli (GPa) = 87.59726 76.22410 22.90491
#
# Poissons Ratio (x) = 0.11562 0.36876
# Poissons Ratio (y) = 0.13287 0.03708
# Poissons Ratio (z) = 1.41027 0.12340
#
# Static dielectric constant tensor:
#      x y z
#    x 1.719480 0.000000 0.000000 
#    y 0.000000 1.759320 0.000000 
#    z 0.000000 0.000000 1.687340 
# 
# From -- ./inp_files/22144.got.cif
#   From: 2010.05.17/outbox.cif.g08.bks.cpg/sg44_12_cif.got.tgz:22144.got - 2010.06.03 19:37:08.
