data_PCOD9374258
_publ_section_title
;
Structure prediction by ZEFSAII (Michael W. Deem and Ramdas Pophale) SiO2 
 PCOD9374258
Probable space group: I M M 2
;
_chemical_formula_sum "Si O2"
_cell_formula_units_Z 64
_cell_length_a 25.503943
_cell_length_b 8.843808
_cell_length_c 15.446960
_cell_angle_alpha 90.000000
_cell_angle_beta 90.000000
_cell_angle_gamma 90.000000
_cell_volume 3484.092338
_symmetry_space_group_name_H-M "I M M 2"
_symmetry_group_IT_number 44
_symmetry_cell_setting 'orthorhombic'
loop_
_space_group_symop_operation_xyz
x,y,z
-x,-y,z
-x,y,z
x,-y,z
1/2+x,1/2+y,1/2+z
1/2-x,1/2-y,1/2+z
1/2-x,1/2+y,1/2+z
1/2+x,1/2-y,1/2+z
loop_
_atom_site_type_symbol
_atom_site_label
_atom_site_fract_x
_atom_site_fract_y
_atom_site_fract_z
Si Si1 0.060173 0.683990 0.058180
Si Si2 0.646304 0.818943 0.043973
Si Si3 0.235693 0.179470 0.008200
Si Si4 0.640589 0.180815 0.409155
Si Si5 0.161771 0.820713 0.731727
Si Si6 0.060202 0.180521 0.418700
Si Si7 0.605171 0.181270 0.746289
Si Si8 0.280373 0.179262 0.693643
O O1 0.060348 0.500000 0.056902
O O2 0.083864 0.726581 0.151534
O O3 0.000000 0.734260 0.049808
O O4 0.097336 0.733245 0.979355
O O5 0.645326 0.750755 0.140363
O O6 0.644274 0.000000 0.049206
O O7 0.702967 0.778515 0.002411
O O8 0.599777 0.756579 0.985821
O O9 0.196834 0.265803 0.944855
O O10 0.230587 0.000000 0.994650
O O11 0.219331 0.224890 0.105742
O O12 0.633617 0.248992 0.314100
O O13 0.638982 0.000000 0.404915
O O14 0.224757 0.793967 0.739237
O O15 0.153524 0.000000 0.729479
O O16 0.075761 0.235385 0.322986
O O17 0.000000 0.222680 0.436521
O O18 0.065011 0.000000 0.424113
O O19 0.667579 0.211376 0.748054
O O20 0.597623 0.000000 0.755600
O O21 0.282608 0.000000 0.670088
#
# Coordination Sequence:
#
# PCOD9374258 Si02
#       8
#     8   8   8   8   8   8   8   8
#     4   9  18  34  57  83 112 149 193 239 281 327
#     4  10  22  41  63  86 112 150 199 243 293 355
#     4  10  20  34  55  84 117 149 186 235 289 348
#     4  11  21  35  56  84 118 155 198 241 285 345
#     4  10  21  37  58  85 121 155 189 240 297 347
#     4  11  25  42  59  85 119 153 194 246 302 353
#     4  10  19  35  59  86 116 153 196 237 284 346
#     4   9  18  34  55  82 115 150 188 230 280 342
#
# _framework density 18.369202999999999
#
# number of rings (size 3 to 8) (size 9 to 14) (size 15 to 20)
#    0.000    2.000    1.250    2.250    1.750    4.000 
#    0.000    0.625    0.000    4.500    0.000    0.000 
#    0.000    0.000    0.000    0.000    0.000    0.000 
#
# Total GULP energy -178709.279470 kJ/mol
# GULP energy per Si atom -5584.664983 kJ/mol
# Density = 1.832739 g / cm^3
# Si number density = 18.369203 Si / 1000 Ang^3
#
#
#
# Elastic Constant Matrix: (Units=GPa)
#
#
# Indices 1 2 3 4 5 6 
#
# 1 123.9271 43.8023 77.3338 0.0000 0.0000 0.0000
# 2 43.8023 38.0818 36.3213 0.0000 0.0000 0.0000
# 3 77.3338 36.3213 117.5746 0.0000 0.0000 0.0000
# 4 0.0000 0.0000 0.0000 33.5606 0.0000 0.0000
# 5 0.0000 0.0000 0.0000 0.0000 25.7207 0.0000
# 6 0.0000 0.0000 0.0000 0.0000 0.0000 20.9007
#
#
#
# Elastic Compliance Matrix: (Units=1/GPa)
#
#
# Indices 1 2 3 4 5 6 
#
# 1 0.017152 -0.012715 -0.007354 0.000000 0.000000 0.000000
# 2 -0.012715 0.046654 -0.006049 0.000000 0.000000 0.000000
# 3 -0.007354 -0.006049 0.015211 0.000000 0.000000 0.000000
# 4 0.000000 0.000000 0.000000 0.029797 0.000000 0.000000
# 5 0.000000 0.000000 0.000000 0.000000 0.038879 0.000000
# 6 0.000000 0.000000 0.000000 0.000000 0.000000 0.047845
#
#
# Mechanical properties :
#
#
# Convention : Reuss Voigt Hill
#
# Bulk Modulus (GPa) = 37.34003 66.05536 51.69770
# Shear Modulus (GPa) = 19.47786 24.17814 21.82800
#
# Velocity S-wave (km/s) = 3.25984 3.63193 3.45090
# Velocity P-wave (km/s) = 5.87711 7.32296 6.63951
#
# Compressibility (1/GPa) = 0.02678091
#
# Stress axis : x y z
#
# Youngs Moduli (GPa) = 58.30061 21.43452 65.74206
#
# Poissons Ratio (x) = 0.27254 0.48346
# Poissons Ratio (y) = 0.74129 0.39768
# Poissons Ratio (z) = 0.42874 0.12966
#
# Static dielectric constant tensor:
#      x y z
#    x 1.632530 0.000000 0.000000 
#    y 0.000000 1.614640 0.000000 
#    z 0.000000 0.000000 1.614760 
# 
# From -- ./inp_files/16785.got.cif
#   From: 2010.05.17/outbox.cif.g08.bks.cpg/sg44_9_cif.got.tgz:16785.got - 2010.06.03 19:37:08.
