data_PCOD9374158
_publ_section_title
;
Structure prediction by ZEFSAII (Michael W. Deem and Ramdas Pophale) SiO2 
 PCOD9374158
Probable space group: I M M 2
;
_chemical_formula_sum "Si O2"
_cell_formula_units_Z 56
_cell_length_a 22.366778
_cell_length_b 8.751078
_cell_length_c 14.924663
_cell_angle_alpha 90.000000
_cell_angle_beta 90.000000
_cell_angle_gamma 90.000000
_cell_volume 2921.255315
_symmetry_space_group_name_H-M "I M M 2"
_symmetry_group_IT_number 44
_symmetry_cell_setting 'orthorhombic'
loop_
_space_group_symop_operation_xyz
x,y,z
-x,-y,z
-x,y,z
x,-y,z
1/2+x,1/2+y,1/2+z
1/2-x,1/2-y,1/2+z
1/2-x,1/2+y,1/2+z
1/2+x,1/2-y,1/2+z
loop_
_atom_site_type_symbol
_atom_site_label
_atom_site_fract_x
_atom_site_fract_y
_atom_site_fract_z
Si Si1 0.115808 0.183970 0.270380
Si Si2 0.717861 0.681521 0.459165
Si Si3 0.649704 0.316274 0.963128
Si Si4 0.500000 0.313896 0.659101
Si Si5 0.111991 0.681046 0.846041
Si Si6 0.783657 0.318780 0.150526
Si Si7 0.858243 0.818186 0.662373
Si Si8 0.000000 0.183603 0.952192
O O1 0.110650 0.218513 0.375882
O O2 0.174962 0.260159 0.230135
O O3 0.059111 0.234968 0.212359
O O4 0.121400 0.000000 0.261807
O O5 0.715048 0.500000 0.449738
O O6 0.785661 0.739832 0.449877
O O7 0.673885 0.758229 0.388123
O O8 0.698707 0.731928 0.559296
O O9 0.659284 0.500000 0.966893
O O10 0.624837 0.272616 0.060785
O O11 0.500000 0.500000 0.659545
O O12 0.500000 0.264840 0.555918
O O13 0.109112 0.500000 0.854250
O O14 0.110119 0.730703 0.742445
O O15 0.058368 0.756100 0.901590
O O16 0.790976 0.500000 0.137119
O O17 0.713429 0.290757 0.168122
O O18 0.868124 0.000000 0.673386
O O19 0.000000 0.000000 0.951109
#
# Coordination Sequence:
#
# PCOD9374158 Si02
#       8
#     8   8   8   4   8   8   8   4
#     4  10  19  34  56  81 111 147 186 226 274 330
#     4  11  21  34  55  82 113 149 186 227 280 339
#     4   9  19  35  56  83 114 146 184 231 277 328
#     4   9  20  37  58  83 108 138 179 223 266 323
#     4  12  24  38  57  82 112 147 188 234 283 333
#     4  10  20  34  54  83 116 146 183 231 280 333
#     4   9  19  36  55  80 113 146 182 227 279 335
#     4  11  23  41  62  83 110 146 187 229 276 333
#
# _framework density 19.169841000000002
#
# number of rings (size 3 to 8) (size 9 to 14) (size 15 to 20)
#    0.000    1.857    0.000    5.786    0.000    6.857 
#    0.000    1.786    0.000    2.571    0.000    0.000 
#    0.000    0.000    0.000    0.000    0.000    0.000 
#
# Total GULP energy -156439.376381 kJ/mol
# GULP energy per Si atom -5587.120585 kJ/mol
# Density = 1.912621 g / cm^3
# Si number density = 19.169841 Si / 1000 Ang^3
#
#
#
# Elastic Constant Matrix: (Units=GPa)
#
#
# Indices 1 2 3 4 5 6 
#
# 1 38.8107 27.9322 54.2005 0.0000 0.0000 0.0000
# 2 27.9322 64.7243 56.6494 0.0000 0.0000 0.0000
# 3 54.2005 56.6494 175.2766 0.0000 0.0000 0.0000
# 4 0.0000 0.0000 0.0000 23.5893 0.0000 0.0000
# 5 0.0000 0.0000 0.0000 0.0000 29.0125 0.0000
# 6 0.0000 0.0000 0.0000 0.0000 0.0000 22.5113
#
#
#
# Elastic Compliance Matrix: (Units=1/GPa)
#
#
# Indices 1 2 3 4 5 6 
#
# 1 0.050727 -0.011382 -0.012007 0.000000 0.000000 0.000000
# 2 -0.011382 0.024099 -0.004269 0.000000 0.000000 0.000000
# 3 -0.012007 -0.004269 0.010798 0.000000 0.000000 0.000000
# 4 0.000000 0.000000 0.000000 0.042392 0.000000 0.000000
# 5 0.000000 0.000000 0.000000 0.000000 0.034468 0.000000
# 6 0.000000 0.000000 0.000000 0.000000 0.000000 0.044422
#
#
# Mechanical properties :
#
#
# Convention : Reuss Voigt Hill
#
# Bulk Modulus (GPa) = 32.99641 61.81950 47.40796
# Shear Modulus (GPa) = 18.36048 24.35794 21.35921
#
# Velocity S-wave (km/s) = 3.09816 3.56847 3.34160
# Velocity P-wave (km/s) = 5.48162 7.02118 6.29861
#
# Compressibility (1/GPa) = 0.03030633
#
# Stress axis : x y z
#
# Youngs Moduli (GPa) = 19.71354 41.49631 92.60927
#
# Poissons Ratio (x) = 0.47231 1.11200
# Poissons Ratio (y) = 0.22438 0.39535
# Poissons Ratio (z) = 0.23671 0.17715
#
# Static dielectric constant tensor:
#      x y z
#    x 1.640860 0.000000 0.000000 
#    y 0.000000 1.637840 0.000000 
#    z 0.000000 0.000000 1.692850 
# 
# From -- ./inp_files/19236.got.cif
#   From: 2010.05.17/outbox.cif.g08.bks.cpg/sg44_10_cif.got.tgz:19236.got - 2010.06.03 19:37:08.
