data_PCOD9374631
_publ_section_title
;
Structure prediction by ZEFSAII (Michael W. Deem and Ramdas Pophale) SiO2 
 PCOD9374631
Probable space group: I M M 2
;
_chemical_formula_sum "Si O2"
_cell_formula_units_Z 56
_cell_length_a 8.036207
_cell_length_b 18.947866
_cell_length_c 17.829165
_cell_angle_alpha 90.000000
_cell_angle_beta 90.000000
_cell_angle_gamma 90.000000
_cell_volume 2714.828651
_symmetry_space_group_name_H-M "I M M 2"
_symmetry_group_IT_number 44
_symmetry_cell_setting 'orthorhombic'
loop_
_space_group_symop_operation_xyz
x,y,z
-x,-y,z
-x,y,z
x,-y,z
1/2+x,1/2+y,1/2+z
1/2-x,1/2-y,1/2+z
1/2-x,1/2+y,1/2+z
1/2+x,1/2-y,1/2+z
loop_
_atom_site_type_symbol
_atom_site_label
_atom_site_fract_x
_atom_site_fract_y
_atom_site_fract_z
Si Si1 0.201890 0.918965 0.166540
Si Si2 0.802919 0.420910 0.380530
Si Si3 0.796212 0.419428 0.948182
Si Si4 0.698634 0.676192 0.252125
Si Si5 0.300325 0.668254 0.522179
Si Si6 0.198807 0.673562 0.808642
Si Si7 0.701158 0.820020 0.578885
O O1 0.266438 0.874218 0.236273
O O2 0.000000 0.917463 0.168143
O O3 0.255952 0.000000 0.170962
O O4 0.257929 0.882783 0.089236
O O5 0.732944 0.500000 0.391906
O O6 0.762469 0.390250 0.298848
O O7 0.741351 0.365803 0.442775
O O8 0.000000 0.424856 0.388543
O O9 0.740697 0.500000 0.937930
O O10 0.737935 0.367654 0.881705
O O11 0.000000 0.420158 0.945897
O O12 0.745908 0.385483 0.027326
O O13 0.500000 0.676980 0.257956
O O14 0.765092 0.748237 0.291047
O O15 0.744369 0.676314 0.164807
O O16 0.500000 0.671389 0.526296
O O17 0.239498 0.747222 0.539900
O O18 0.000000 0.680447 0.818504
O O19 0.500000 0.818753 0.578603
#
# Coordination Sequence:
#
# PCOD9374631 Si02
#       7
#     8   8   8   8   8   8   8
#     4  10  20  33  53  83 118 156 193 232 287 350
#     4  11  25  42  61  87 118 154 199 250 304 360
#     4   9  18  33  55  83 112 145 187 234 282 333
#     4  11  23  39  61  88 117 152 197 243 293 357
#     4  10  20  37  60  84 117 157 198 243 296 357
#     4  10  20  36  58  83 114 151 193 237 287 345
#     4  10  20  37  61  86 116 155 197 240 290 349
#
# _framework density 20.627452999999999
#
# number of rings (size 3 to 8) (size 9 to 14) (size 15 to 20)
#    0.000    1.857    1.429    2.571    0.000    7.143 
#    0.000    2.143    0.000    0.857    0.000    0.000 
#    0.000    0.000    0.000    0.000    0.000    0.000 
#
# Total GULP energy -156439.742575 kJ/mol
# GULP energy per Si atom -5587.133663 kJ/mol
# Density = 2.058050 g / cm^3
# Si number density = 20.627453 Si / 1000 Ang^3
#
#
#
# Elastic Constant Matrix: (Units=GPa)
#
#
# Indices 1 2 3 4 5 6 
#
# 1 6.8609 -6.0927 -5.2065 0.0000 0.0000 0.0000
# 2 -6.0927 27.7162 34.9915 0.0000 0.0000 0.0000
# 3 -5.2065 34.9915 109.6807 0.0000 0.0000 0.0000
# 4 0.0000 0.0000 0.0000 52.2486 0.0000 0.0000
# 5 0.0000 0.0000 0.0000 0.0000 31.0325 0.0000
# 6 0.0000 0.0000 0.0000 0.0000 0.0000 13.0062
#
#
#
# Elastic Compliance Matrix: (Units=1/GPa)
#
#
# Indices 1 2 3 4 5 6 
#
# 1 0.184254 0.049330 -0.006991 0.000000 0.000000 0.000000
# 2 0.049330 0.073620 -0.021145 0.000000 0.000000 0.000000
# 3 -0.006991 -0.021145 0.015531 0.000000 0.000000 0.000000
# 4 0.000000 0.000000 0.000000 0.019139 0.000000 0.000000
# 5 0.000000 0.000000 0.000000 0.000000 0.032224 0.000000
# 6 0.000000 0.000000 0.000000 0.000000 0.000000 0.076886
#
#
# Mechanical properties :
#
#
# Convention : Reuss Voigt Hill
#
# Bulk Modulus (GPa) = 3.16664 21.29359 12.23011
# Shear Modulus (GPa) = 10.76352 27.29516 19.02934
#
# Velocity S-wave (km/s) = 2.28678 3.64159 3.04060
# Velocity P-wave (km/s) = 2.91736 5.29404 4.27422
#
# Compressibility (1/GPa) = 0.31579241
#
# Stress axis : x y z
#
# Youngs Moduli (GPa) = 5.42729 13.58329 64.38529
#
# Poissons Ratio (x) = -0.67007 0.45014
# Poissons Ratio (y) = -0.26773 1.36145
# Poissons Ratio (z) = 0.03794 0.28722
#
# Static dielectric constant tensor:
#      x y z
#    x 1.748050 0.000000 0.000000 
#    y 0.000000 1.740360 0.000000 
#    z 0.000000 0.000000 1.698200 
# 
# From -- ./inp_files/16491.got.cif
#   From: 2010.05.17/outbox.cif.g08.bks.cpg/sg44_9_cif.got.tgz:16491.got - 2010.06.03 19:37:08.
