data_PCOD9374161
_publ_section_title
;
Structure prediction by ZEFSAII (Michael W. Deem and Ramdas Pophale) SiO2 
 PCOD9374161
Probable space group: I M M 2
;
_chemical_formula_sum "Si O2"
_cell_formula_units_Z 40
_cell_length_a 26.774129
_cell_length_b 8.753317
_cell_length_c 9.306843
_cell_angle_alpha 90.000000
_cell_angle_beta 90.000000
_cell_angle_gamma 90.000000
_cell_volume 2181.174421
_symmetry_space_group_name_H-M "I M M 2"
_symmetry_group_IT_number 44
_symmetry_cell_setting 'orthorhombic'
loop_
_space_group_symop_operation_xyz
x,y,z
-x,-y,z
-x,y,z
x,-y,z
1/2+x,1/2+y,1/2+z
1/2-x,1/2-y,1/2+z
1/2-x,1/2+y,1/2+z
1/2+x,1/2-y,1/2+z
loop_
_atom_site_type_symbol
_atom_site_label
_atom_site_fract_x
_atom_site_fract_y
_atom_site_fract_z
Si Si1 0.203646 0.683798 0.471990
Si Si2 0.108437 0.815477 0.967006
Si Si3 0.500000 0.675955 0.134170
Si Si4 0.798269 0.682833 0.137167
Si Si5 0.500000 0.323702 0.484052
Si Si6 0.604712 0.817281 0.147403
O O1 0.209909 0.500000 0.482301
O O2 0.204555 0.726039 0.304643
O O3 0.248611 0.762406 0.556456
O O4 0.150654 0.722896 0.544071
O O5 0.054097 0.758303 0.023998
O O6 0.114057 0.755193 0.804286
O O7 0.107352 0.000000 0.962709
O O8 0.153816 0.757646 0.062246
O O9 0.500000 0.500000 0.088404
O O10 0.500000 0.677640 0.309365
O O11 0.551385 0.757015 0.091296
O O12 0.802519 0.500000 0.127453
O O13 0.500000 0.500000 0.532195
O O14 0.602414 0.000000 0.162299
#
# Coordination Sequence:
#
# PCOD9374161 Si02
#       6
#     8   8   4   8   4   8
#     4  10  23  40  56  78 108 141 179 225 275 327
#     4  10  19  34  56  82 112 143 179 223 269 318
#     4   9  17  31  52  81 114 146 182 222 266 315
#     4  11  23  38  56  79 107 140 180 224 273 329
#     4   7  14  29  50  75 104 138 172 210 254 303
#     4  10  19  34  57  83 111 145 184 223 268 321
#
# _framework density 18.338746
#
# number of rings (size 3 to 8) (size 9 to 14) (size 15 to 20)
#    0.000    2.200    0.000    4.500    0.000    6.400 
#    0.000    2.500    0.000    3.600    0.000    0.000 
#    0.000    0.000    0.000    0.000    0.000    0.000 
#
# Total GULP energy -111611.970880 kJ/mol
# GULP energy per Si atom -5580.598544 kJ/mol
# Density = 1.829701 g / cm^3
# Si number density = 18.338746 Si / 1000 Ang^3
#
#
#
# Elastic Constant Matrix: (Units=GPa)
#
#
# Indices 1 2 3 4 5 6 
#
# 1 210.8682 70.9469 97.3835 0.0000 0.0000 0.0000
# 2 70.9469 58.6430 49.2549 0.0000 0.0000 0.0000
# 3 97.3835 49.2549 109.3292 0.0000 0.0000 0.0000
# 4 0.0000 0.0000 0.0000 20.2436 0.0000 0.0000
# 5 0.0000 0.0000 0.0000 0.0000 30.2321 0.0000
# 6 0.0000 0.0000 0.0000 0.0000 0.0000 24.4545
#
#
#
# Elastic Compliance Matrix: (Units=1/GPa)
#
#
# Indices 1 2 3 4 5 6 
#
# 1 0.009614 -0.007140 -0.005347 0.000000 0.000000 0.000000
# 2 -0.007140 0.032736 -0.008388 0.000000 0.000000 0.000000
# 3 -0.005347 -0.008388 0.017688 0.000000 0.000000 0.000000
# 4 0.000000 0.000000 0.000000 0.049398 0.000000 0.000000
# 5 0.000000 0.000000 0.000000 0.000000 0.033077 0.000000
# 6 0.000000 0.000000 0.000000 0.000000 0.000000 0.040892
#
#
# Mechanical properties :
#
#
# Convention : Reuss Voigt Hill
#
# Bulk Modulus (GPa) = 54.68063 90.44567 72.56315
# Shear Modulus (GPa) = 21.62148 25.73637 23.67893
#
# Velocity S-wave (km/s) = 3.43739 3.75025 3.59722
# Velocity P-wave (km/s) = 6.75544 8.25706 7.54370
#
# Compressibility (1/GPa) = 0.01828801
#
# Stress axis : x y z
#
# Youngs Moduli (GPa) = 104.01711 30.54754 56.53540
#
# Poissons Ratio (x) = 0.21812 0.30227
# Poissons Ratio (y) = 0.74271 0.47422
# Poissons Ratio (z) = 0.55613 0.25623
#
# Static dielectric constant tensor:
#      x y z
#    x 1.639620 0.000000 0.000000 
#    y 0.000000 1.621280 0.000000 
#    z 0.000000 0.000000 1.601950 
# 
# From -- ./inp_files/4673.got.cif
#   From: 2010.05.17/outbox.cif.g08.bks.cpg/sg44_3_cif.got.tgz:4673.got - 2010.06.03 19:37:08.
