data_PCOD9374874
_publ_section_title
;
Structure prediction by ZEFSAII (Michael W. Deem and Ramdas Pophale) SiO2 
 PCOD9374874
Probable space group: I M M 2
;
_chemical_formula_sum "Si O2"
_cell_formula_units_Z 58
_cell_length_a 18.146429
_cell_length_b 9.667949
_cell_length_c 17.712806
_cell_angle_alpha 90.000000
_cell_angle_beta 90.000000
_cell_angle_gamma 90.000000
_cell_volume 3107.512545
_symmetry_space_group_name_H-M "I M M 2"
_symmetry_group_IT_number 44
_symmetry_cell_setting 'orthorhombic'
loop_
_space_group_symop_operation_xyz
x,y,z
-x,-y,z
-x,y,z
x,-y,z
1/2+x,1/2+y,1/2+z
1/2-x,1/2-y,1/2+z
1/2-x,1/2+y,1/2+z
1/2+x,1/2-y,1/2+z
loop_
_atom_site_type_symbol
_atom_site_label
_atom_site_fract_x
_atom_site_fract_y
_atom_site_fract_z
Si Si1 0.201614 0.838003 0.057260
Si Si2 0.304249 0.667786 0.386133
Si Si3 0.133234 0.274145 0.603977
Si Si4 0.915881 0.833084 0.762736
Si Si5 0.500000 0.000000 0.091038
Si Si6 0.586794 0.666022 0.683860
Si Si7 0.354921 0.165404 0.826875
Si Si8 0.912355 0.148330 0.455363
O O1 0.284070 0.827608 0.090000
O O2 0.140250 0.785317 0.115881
O O3 0.184087 0.000000 0.049293
O O4 0.199642 0.778786 0.971998
O O5 0.305647 0.500000 0.390221
O O6 0.374508 0.713945 0.338283
O O7 0.231303 0.699563 0.337861
O O8 0.125396 0.216958 0.688127
O O9 0.066155 0.381278 0.592149
O O10 0.120488 0.162217 0.538431
O O11 0.000000 0.783803 0.760043
O O12 0.916316 0.000000 0.762508
O O13 0.500000 0.686048 0.667400
O O14 0.597731 0.500000 0.696071
O O15 0.609219 0.751566 0.758098
O O16 0.389733 0.222434 0.904330
O O17 0.364212 0.000000 0.819421
O O18 0.000000 0.148775 0.460843
O O19 0.889446 0.000000 0.420844
#
# Coordination Sequence:
#
# PCOD9374874 Si02
#       8
#     8   8   8   8   2   8   8   8
#     4  10  20  36  60  85 116 155 194 244 292 345
#     4   9  19  35  57  86 115 145 191 243 292 347
#     4  12  21  36  56  85 121 153 194 236 289 352
#     4  10  20  35  56  83 114 149 189 239 296 348
#     4  12  24  32  58  92 118 156 200 240 280 360
#     4  10  22  40  60  86 117 153 200 247 294 344
#     4  11  22  37  60  85 116 154 194 240 293 349
#     4  11  23  36  55  83 120 155 188 233 287 346
#
# _framework density 18.664446000000002
#
# number of rings (size 3 to 8) (size 9 to 14) (size 15 to 20)
#    0.000    1.517    3.448    2.069    0.966    3.862 
#    0.000    3.448    0.000    0.000    0.000    0.000 
#    0.000    0.000    0.000    0.000    0.000    0.000 
#
# Total GULP energy -161458.301649 kJ/mol
# GULP energy per Si atom -5567.527643 kJ/mol
# Density = 1.862196 g / cm^3
# Si number density = 18.664446 Si / 1000 Ang^3
#
#
#
# Elastic Constant Matrix: (Units=GPa)
#
#
# Indices 1 2 3 4 5 6 
#
# 1 85.2445 22.0477 78.9375 0.0000 0.0000 0.0000
# 2 22.0477 45.0911 16.4580 0.0000 0.0000 0.0000
# 3 78.9375 16.4580 104.9769 0.0000 0.0000 0.0000
# 4 0.0000 0.0000 0.0000 9.5811 0.0000 0.0000
# 5 0.0000 0.0000 0.0000 0.0000 -62.1104 0.0000
# 6 0.0000 0.0000 0.0000 0.0000 0.0000 21.2222
#
#
#
# Elastic Compliance Matrix: (Units=1/GPa)
#
#
# Indices 1 2 3 4 5 6 
#
# 1 0.042218 -0.009605 -0.030240 0.000000 0.000000 0.000000
# 2 -0.009605 0.025709 0.003192 0.000000 0.000000 0.000000
# 3 -0.030240 0.003192 0.031764 0.000000 0.000000 0.000000
# 4 0.000000 0.000000 0.000000 0.104373 0.000000 0.000000
# 5 0.000000 0.000000 0.000000 0.000000 -0.016100 0.000000
# 6 0.000000 0.000000 0.000000 0.000000 0.000000 0.047121
#
#
# Mechanical properties :
#
#
# Convention : Reuss Voigt Hill
#
# Bulk Modulus (GPa) = 37.90040 52.24433 45.07237
# Shear Modulus (GPa) = 15.76369 1.59653 8.68011
#
# Velocity S-wave (km/s) = 2.90933 0.92587 2.15887
# Velocity P-wave (km/s) = 5.62458 5.40325 5.51502
#
# Compressibility (1/GPa) = 0.02638494
#
# Stress axis : x y z
#
# Youngs Moduli (GPa) = 23.68670 38.89716 31.48187
#
# Poissons Ratio (x) = 0.37362 0.95201
# Poissons Ratio (y) = 0.22752 -0.10050
# Poissons Ratio (z) = 0.71628 -0.12417
#
# Static dielectric constant tensor:
#      x y z
#    x 1.692610 0.000000 0.000000 
#    y 0.000000 1.661970 0.000000 
#    z 0.000000 0.000000 1.650510 
# 
# From -- ./inp_files/20566.got.cif
#   From: 2010.05.17/outbox.cif.g08.bks.cpg/sg44_11_cif.got.tgz:20566.got - 2010.06.03 19:37:08.
