data_PCOD9374184
_publ_section_title
;
Structure prediction by ZEFSAII (Michael W. Deem and Ramdas Pophale) SiO2 
 PCOD9374184
Probable space group: I M M 2
;
_chemical_formula_sum "Si O2"
_cell_formula_units_Z 64
_cell_length_a 7.939212
_cell_length_b 24.223094
_cell_length_c 16.015256
_cell_angle_alpha 90.000000
_cell_angle_beta 90.000000
_cell_angle_gamma 90.000000
_cell_volume 3079.930373
_symmetry_space_group_name_H-M "I M M 2"
_symmetry_group_IT_number 44
_symmetry_cell_setting 'orthorhombic'
loop_
_space_group_symop_operation_xyz
x,y,z
-x,-y,z
-x,y,z
x,-y,z
1/2+x,1/2+y,1/2+z
1/2-x,1/2-y,1/2+z
1/2-x,1/2+y,1/2+z
1/2+x,1/2-y,1/2+z
loop_
_atom_site_type_symbol
_atom_site_label
_atom_site_fract_x
_atom_site_fract_y
_atom_site_fract_z
Si Si1 0.196245 0.376074 0.519660
Si Si2 0.198570 0.366627 0.193659
Si Si3 0.204031 0.749825 0.764638
Si Si4 0.194727 0.238424 0.957253
Si Si5 0.806910 0.145412 0.512336
Si Si6 0.203758 0.562687 0.866130
Si Si7 0.706652 0.870920 0.203503
Si Si8 0.793700 0.564018 0.353420
O O1 0.208031 0.310613 0.502584
O O2 0.268064 0.387262 0.611490
O O3 0.267645 0.407161 0.438708
O O4 0.000000 0.392134 0.523323
O O5 0.228539 0.302694 0.216230
O O6 0.280248 0.378402 0.104564
O O7 0.263419 0.402501 0.271731
O O8 0.000000 0.376884 0.185380
O O9 0.255139 0.754156 0.861793
O O10 0.258465 0.691519 0.726262
O O11 0.000000 0.751175 0.761953
O O12 0.000000 0.221108 0.954433
O O13 0.206593 0.297586 0.001162
O O14 0.756816 0.101947 0.441717
O O15 0.000000 0.160949 0.500878
O O16 0.263411 0.500000 0.876158
O O17 0.259670 0.589170 0.778406
O O18 0.000000 0.562181 0.865021
O O19 0.500000 0.870955 0.202054
O O20 0.746622 0.500000 0.350179
O O21 0.000000 0.567039 0.353349
#
# Coordination Sequence:
#
# PCOD9374184 Si02
#       8
#     8   8   8   8   8   8   8   8
#     4  10  19  34  59  89 120 154 193 240 292 345
#     4  11  22  37  59  86 117 154 200 243 295 355
#     4  10  19  34  57  84 120 154 187 236 295 354
#     4  11  21  36  60  87 119 155 195 240 293 353
#     4  12  25  40  60  86 118 153 197 247 301 353
#     4  10  21  40  63  86 115 154 199 243 293 352
#     4   9  18  34  57  86 116 147 185 233 289 348
#     4   9  19  35  55  83 118 154 195 240 285 341
#
# _framework density 20.779691
#
# number of rings (size 3 to 8) (size 9 to 14) (size 15 to 20)
#    0.000    1.750    2.500    2.625    0.000    2.750 
#    0.000    4.375    0.000    3.000    0.000    0.000 
#    0.000    0.000    0.000    0.000    0.000    0.000 
#
# Total GULP energy -178824.778671 kJ/mol
# GULP energy per Si atom -5588.274333 kJ/mol
# Density = 2.073240 g / cm^3
# Si number density = 20.779691 Si / 1000 Ang^3
#
#
#
# Elastic Constant Matrix: (Units=GPa)
#
#
# Indices 1 2 3 4 5 6 
#
# 1 22.9535 -7.2224 1.3437 0.0000 0.0000 0.0000
# 2 -7.2224 95.4271 45.4776 0.0000 0.0000 0.0000
# 3 1.3437 45.4776 168.4743 0.0000 0.0000 0.0000
# 4 0.0000 0.0000 0.0000 -0.6537 0.0000 0.0000
# 5 0.0000 0.0000 0.0000 0.0000 13.0069 0.0000
# 6 0.0000 0.0000 0.0000 0.0000 0.0000 15.0153
#
#
#
# Elastic Compliance Matrix: (Units=1/GPa)
#
#
# Indices 1 2 3 4 5 6 
#
# 1 0.044942 0.004100 -0.001465 0.000000 0.000000 0.000000
# 2 0.004100 0.012400 -0.003380 0.000000 0.000000 0.000000
# 3 -0.001465 -0.003380 0.006860 0.000000 0.000000 0.000000
# 4 0.000000 0.000000 0.000000 -1.529736 0.000000 0.000000
# 5 0.000000 0.000000 0.000000 0.000000 0.076883 0.000000
# 6 0.000000 0.000000 0.000000 0.000000 0.000000 0.066599
#
#
# Mechanical properties :
#
#
# Convention : Reuss Voigt Hill
#
# Bulk Modulus (GPa) = 15.94609 40.67252 28.30930
# Shear Modulus (GPa) = -3.84717 21.95743 9.05513
#
# Velocity S-wave (km/s) = -1.36214 3.25418 2.08977
# Velocity P-wave (km/s) = 2.28400 5.80821 4.41316
#
# Compressibility (1/GPa) = 0.06271130
#
# Stress axis : x y z
#
# Youngs Moduli (GPa) = 22.25081 80.64329 145.77903
#
# Poissons Ratio (x) = -0.33061 0.21358
# Poissons Ratio (y) = -0.09122 0.49273
# Poissons Ratio (z) = 0.03260 0.27257
#
# Static dielectric constant tensor:
#      x y z
#    x 1.748010 0.000000 0.000000 
#    y 0.000000 1.701080 0.000000 
#    z 0.000000 0.000000 1.743430 
# 
# From -- ./inp_files/16857.got.cif
#   From: 2010.05.17/outbox.cif.g08.bks.cpg/sg44_9_cif.got.tgz:16857.got - 2010.06.03 19:37:08.
