data_PCOD9374120
_publ_section_title
;
Structure prediction by ZEFSAII (Michael W. Deem and Ramdas Pophale) SiO2 
 PCOD9374120
Probable space group: I M M 2
;
_chemical_formula_sum "Si O2"
_cell_formula_units_Z 64
_cell_length_a 20.759254
_cell_length_b 9.081411
_cell_length_c 20.176166
_cell_angle_alpha 90.000000
_cell_angle_beta 90.000000
_cell_angle_gamma 90.000000
_cell_volume 3803.677751
_symmetry_space_group_name_H-M "I M M 2"
_symmetry_group_IT_number 44
_symmetry_cell_setting 'orthorhombic'
loop_
_space_group_symop_operation_xyz
x,y,z
-x,-y,z
-x,y,z
x,-y,z
1/2+x,1/2+y,1/2+z
1/2-x,1/2-y,1/2+z
1/2-x,1/2+y,1/2+z
1/2+x,1/2-y,1/2+z
loop_
_atom_site_type_symbol
_atom_site_label
_atom_site_fract_x
_atom_site_fract_y
_atom_site_fract_z
Si Si1 0.615227 0.175572 0.059310
Si Si2 0.884773 0.824428 0.421121
Si Si3 0.816350 0.822836 0.200971
Si Si4 0.926680 0.674469 0.286755
Si Si5 0.073320 0.825530 0.693676
Si Si6 0.731054 0.324837 0.558352
Si Si7 0.183650 0.322836 0.779459
Si Si8 0.268946 0.824838 0.422079
O O1 0.582031 0.247808 0.122573
O O2 0.692296 0.202714 0.067055
O O3 0.604845 0.000000 0.057455
O O4 0.595010 0.250000 0.990215
O O5 0.917969 0.752193 0.357858
O O6 0.807704 0.797287 0.413376
O O7 0.895156 0.000000 0.422976
O O8 0.875025 0.743573 0.236905
O O9 0.805449 0.777070 0.124801
O O10 0.750000 0.792072 0.240215
O O11 0.825767 0.000000 0.203491
O O12 0.915469 0.500000 0.294148
O O13 0.000000 0.697111 0.263692
O O14 0.124976 0.756427 0.743525
O O15 0.000000 0.802888 0.716738
O O16 0.084530 0.000000 0.686283
O O17 0.723551 0.500000 0.552276
O O18 0.710078 0.250000 0.490215
O O19 0.174234 0.500000 0.776940
O O20 0.194551 0.277070 0.855630
O O21 0.276449 0.000000 0.428155
#
# Coordination Sequence:
#
# PCOD9374120 Si02
#       8
#     8   8   8   8   8   8   8   8
#     4  10  19  34  54  78 109 145 183 222 266 319
#     4  10  19  34  54  78 109 145 183 222 266 319
#     4  10  19  36  58  81 108 140 180 225 272 322
#     4  11  24  38  52  77 111 146 185 226 270 322
#     4  11  24  38  52  77 111 146 185 226 270 322
#     4   9  18  32  53  81 110 137 171 219 268 319
#     4  10  19  36  58  81 108 140 180 225 272 322
#     4   9  18  32  53  81 110 137 171 219 268 319
#
# _framework density 16.825821999999999
#
# number of rings (size 3 to 8) (size 9 to 14) (size 15 to 20)
#    0.000    2.000    2.500    1.500    0.000    5.000 
#    0.000    0.000    0.000    0.750    0.000    0.000 
#    0.000    0.000    0.000    0.000    0.000    0.000 
#
# Total GULP energy -178646.571395 kJ/mol
# GULP energy per Si atom -5582.705356 kJ/mol
# Density = 1.678753 g / cm^3
# Si number density = 16.825822 Si / 1000 Ang^3
#
#
#
# Elastic Constant Matrix: (Units=GPa)
#
#
# Indices 1 2 3 4 5 6 
#
# 1 87.6413 59.5514 65.3903 0.0000 0.0000 0.0000
# 2 59.5514 60.7757 54.6313 0.0000 0.0000 0.0000
# 3 65.3903 54.6313 138.2040 0.0000 0.0000 0.0000
# 4 0.0000 0.0000 0.0000 35.3749 0.0000 0.0000
# 5 0.0000 0.0000 0.0000 0.0000 15.3497 0.0000
# 6 0.0000 0.0000 0.0000 0.0000 0.0000 20.7731
#
#
#
# Elastic Compliance Matrix: (Units=1/GPa)
#
#
# Indices 1 2 3 4 5 6 
#
# 1 0.036087 -0.031042 -0.004804 0.000000 0.000000 0.000000
# 2 -0.031042 0.052226 -0.005957 0.000000 0.000000 0.000000
# 3 -0.004804 -0.005957 0.011863 0.000000 0.000000 0.000000
# 4 0.000000 0.000000 0.000000 0.028269 0.000000 0.000000
# 5 0.000000 0.000000 0.000000 0.000000 0.065148 0.000000
# 6 0.000000 0.000000 0.000000 0.000000 0.000000 0.048139
#
#
# Mechanical properties :
#
#
# Convention : Reuss Voigt Hill
#
# Bulk Modulus (GPa) = 60.34899 71.75189 66.05044
# Shear Modulus (GPa) = 15.11211 21.43606 18.27409
#
# Velocity S-wave (km/s) = 3.00017 3.57318 3.29914
# Velocity P-wave (km/s) = 6.92431 7.73046 7.33846
#
# Compressibility (1/GPa) = 0.01657029
#
# Stress axis : x y z
#
# Youngs Moduli (GPa) = 27.71086 19.14769 84.29386
#
# Poissons Ratio (x) = 0.59438 0.40491
# Poissons Ratio (y) = 0.86020 0.50215
# Poissons Ratio (z) = 0.13311 0.11407
#
# Static dielectric constant tensor:
#      x y z
#    x 1.557770 0.000000 0.000000 
#    y 0.000000 1.558330 0.000000 
#    z 0.000000 0.000000 1.557840 
# 
# From -- ./inp_files/20774.got.cif
#   From: 2010.05.17/outbox.cif.g08.bks.cpg/sg44_11_cif.got.tgz:20774.got - 2010.06.03 19:37:08.
