data_PCOD9374774
_publ_section_title
;
Structure prediction by ZEFSAII (Michael W. Deem and Ramdas Pophale) SiO2 
 PCOD9374774
Probable space group: I M M 2
;
_chemical_formula_sum "Si O2"
_cell_formula_units_Z 48
_cell_length_a 10.652897
_cell_length_b 23.430883
_cell_length_c 9.822104
_cell_angle_alpha 90.000000
_cell_angle_beta 90.000000
_cell_angle_gamma 90.000000
_cell_volume 2451.663784
_symmetry_space_group_name_H-M "I M M 2"
_symmetry_group_IT_number 44
_symmetry_cell_setting 'orthorhombic'
loop_
_space_group_symop_operation_xyz
x,y,z
-x,-y,z
-x,y,z
x,-y,z
1/2+x,1/2+y,1/2+z
1/2-x,1/2-y,1/2+z
1/2-x,1/2+y,1/2+z
1/2+x,1/2-y,1/2+z
loop_
_atom_site_type_symbol
_atom_site_label
_atom_site_fract_x
_atom_site_fract_y
_atom_site_fract_z
Si Si1 0.228462 0.637860 0.441510
Si Si2 0.639995 0.569433 0.892554
Si Si3 0.643362 0.730959 0.600717
Si Si4 0.860541 0.431352 0.694055
Si Si5 0.140286 0.760199 0.415040
Si Si6 0.351484 0.566919 0.205672
O O1 0.340545 0.671012 0.520972
O O2 0.164686 0.595501 0.547532
O O3 0.139882 0.691088 0.406725
O O4 0.276076 0.605071 0.310364
O O5 0.500000 0.588583 0.850935
O O6 0.637667 0.500000 0.890225
O O7 0.751300 0.588260 0.795437
O O8 0.663716 0.585287 0.048919
O O9 0.500000 0.751596 0.588732
O O10 0.749401 0.769995 0.525966
O O11 0.671181 0.721740 0.760628
O O12 0.854658 0.500000 0.685458
O O13 0.000000 0.415287 0.741911
O O14 0.000000 0.780192 0.453464
O O15 0.500000 0.570449 0.236097
O O16 0.315686 0.500000 0.216824
#
# Coordination Sequence:
#
# PCOD9374774 Si02
#       6
#     8   8   8   8   8   8
#     4  10  20  34  56  79 114 145 183 229 272 328
#     4   8  16  32  52  74 104 142 182 223 267 314
#     4   9  20  38  60  83 107 140 185 230 275 333
#     4  10  20  35  55  81 114 150 187 224 269 328
#     4   9  20  39  59  80 110 142 179 230 282 330
#     4   9  17  32  55  84 116 147 183 227 272 321
#
# _framework density 19.578541999999999
#
# number of rings (size 3 to 8) (size 9 to 14) (size 15 to 20)
#    1.000    1.833    0.000    2.500    0.000    2.000 
#    3.000    3.333    0.000    4.000    0.000    0.000 
#    0.000    0.000    0.000    0.000    0.000    0.000 
#
# Total GULP energy -133698.364574 kJ/mol
# GULP energy per Si atom -5570.765191 kJ/mol
# Density = 1.953398 g / cm^3
# Si number density = 19.578542 Si / 1000 Ang^3
#
#
#
# Elastic Constant Matrix: (Units=GPa)
#
#
# Indices 1 2 3 4 5 6 
#
# 1 119.9789 27.9235 58.2991 0.0000 0.0000 0.0000
# 2 27.9235 39.1204 15.4187 0.0001 0.0000 0.0000
# 3 58.2991 15.4187 59.5303 0.0005 -0.0001 0.0002
# 4 0.0000 0.0001 0.0005 -19.5521 0.0000 0.0000
# 5 0.0000 0.0000 -0.0001 0.0000 25.4424 0.0000
# 6 0.0000 0.0000 0.0002 0.0000 0.0000 1.7754
#
#
#
# Elastic Compliance Matrix: (Units=1/GPa)
#
#
# Indices 1 2 3 4 5 6 
#
# 1 0.017181 -0.006272 -0.015201 0.000000 0.000000 0.000001
# 2 -0.006272 0.030758 -0.001824 0.000000 0.000000 0.000000
# 3 -0.015201 -0.001824 0.032157 0.000001 0.000000 -0.000003
# 4 0.000000 0.000000 0.000001 -0.051145 0.000000 0.000000
# 5 0.000000 0.000000 0.000000 0.000000 0.039305 -0.000001
# 6 0.000001 0.000000 -0.000003 0.000000 -0.000001 0.563256
#
#
# Mechanical properties :
#
#
# Convention : Reuss Voigt Hill
#
# Bulk Modulus (GPa) = 29.84929 46.87915 38.36422
# Shear Modulus (GPa) = 7.25402 9.33236 8.29319
#
# Velocity S-wave (km/s) = 1.92695 2.18563 2.06035
# Velocity P-wave (km/s) = 4.49776 5.51048 5.02968
#
# Compressibility (1/GPa) = 0.03350163
#
# Stress axis : x y z
#
# Youngs Moduli (GPa) = 58.20401 32.51188 31.09716
#
# Poissons Ratio (x) = 0.20392 0.47271
# Poissons Ratio (y) = 0.36507 0.05672
# Poissons Ratio (z) = 0.88476 0.05930
#
# Static dielectric constant tensor:
#      x y z
#    x 1.690960 0.000000 0.000000 
#    y 0.000000 1.701330 0.000000 
#    z 0.000000 0.000000 1.648510 
# 
# From -- ./inp_files/6258.got.cif
#   From: 2010.05.17/outbox.cif.g08.bks.cpg/sg44_4_cif.got.tgz:6258.got - 2010.06.03 19:37:08.
