data_PCOD9374115
_publ_section_title
;
Structure prediction by ZEFSAII (Michael W. Deem and Ramdas Pophale) SiO2 
 PCOD9374115
Probable space group: I M M 2
;
_chemical_formula_sum "Si O2"
_cell_formula_units_Z 56
_cell_length_a 19.970532
_cell_length_b 13.837346
_cell_length_c 11.595114
_cell_angle_alpha 90.000000
_cell_angle_beta 90.000000
_cell_angle_gamma 90.000000
_cell_volume 3204.184075
_symmetry_space_group_name_H-M "I M M 2"
_symmetry_group_IT_number 44
_symmetry_cell_setting 'orthorhombic'
loop_
_space_group_symop_operation_xyz
x,y,z
-x,-y,z
-x,y,z
x,-y,z
1/2+x,1/2+y,1/2+z
1/2-x,1/2-y,1/2+z
1/2-x,1/2+y,1/2+z
1/2+x,1/2-y,1/2+z
loop_
_atom_site_type_symbol
_atom_site_label
_atom_site_fract_x
_atom_site_fract_y
_atom_site_fract_z
Si Si1 0.419308 0.264884 0.701550
Si Si2 0.419308 0.764882 0.431367
Si Si3 0.138050 0.250001 0.566458
Si Si4 0.579603 0.107333 0.882344
Si Si5 0.674893 0.610841 0.864019
Si Si6 0.825107 0.389158 0.768899
Si Si7 0.579603 0.607333 0.250571
O O1 0.500000 0.281614 0.714580
O O2 0.405299 0.250001 0.566458
O O3 0.400458 0.166230 0.768423
O O4 0.376821 0.346768 0.768341
O O5 0.500000 0.781612 0.418337
O O6 0.376821 0.846766 0.364576
O O7 0.400458 0.666229 0.364493
O O8 0.096382 0.325399 0.490259
O O9 0.175023 0.182757 0.473434
O O10 0.175023 0.317244 0.659483
O O11 0.096382 0.174602 0.642658
O O12 0.500000 0.098701 0.877079
O O13 0.609120 0.000000 0.890160
O O14 0.656185 0.500000 0.894055
O O15 0.750000 0.610225 0.816459
O O16 0.843816 0.500000 0.738864
O O17 0.500000 0.598701 0.255836
O O18 0.609120 0.500000 0.242754
#
# Coordination Sequence:
#
# PCOD9374115 Si02
#       7
#     8   8   8   8   8   8   8
#     4   9  19  35  56  81 110 144 183 225 274 324
#     4   9  19  35  56  81 110 144 183 225 274 324
#     4  10  19  34  54  72 103 138 178 218 268 320
#     4   9  17  30  50  77 106 134 168 213 262 315
#     4  10  22  37  55  80 109 143 184 228 277 331
#     4  10  22  37  55  80 109 143 184 228 277 331
#     4   9  17  30  50  77 106 134 168 213 262 315
#
# _framework density 17.477146999999999
#
# number of rings (size 3 to 8) (size 9 to 14) (size 15 to 20)
#    0.000    2.571    0.000    1.286    2.000    2.857 
#    0.000    2.857    0.000    4.286    0.000    0.000 
#    0.000    0.000    0.000    0.000    0.000    0.000 
#
# Total GULP energy -155879.134310 kJ/mol
# GULP energy per Si atom -5567.111940 kJ/mol
# Density = 1.743737 g / cm^3
# Si number density = 17.477147 Si / 1000 Ang^3
#
#
#
# Elastic Constant Matrix: (Units=GPa)
#
#
# Indices 1 2 3 4 5 6 
#
# 1 35.4979 32.9516 25.4084 0.0000 0.0000 0.0000
# 2 32.9516 163.5314 65.7627 0.0000 0.0000 0.0000
# 3 25.4084 65.7627 129.2264 0.0000 0.0000 0.0000
# 4 0.0000 0.0000 0.0000 17.6263 0.0000 0.0000
# 5 0.0000 0.0000 0.0000 0.0000 14.5467 0.0000
# 6 0.0000 0.0000 0.0000 0.0000 0.0000 22.5345
#
#
#
# Elastic Compliance Matrix: (Units=1/GPa)
#
#
# Indices 1 2 3 4 5 6 
#
# 1 0.036469 -0.005614 -0.004314 0.000000 0.000000 0.000000
# 2 -0.005614 0.008553 -0.003249 0.000000 0.000000 0.000000
# 3 -0.004314 -0.003249 0.010240 0.000000 0.000000 0.000000
# 4 0.000000 0.000000 0.000000 0.056733 0.000000 0.000000
# 5 0.000000 0.000000 0.000000 0.000000 0.068744 0.000000
# 6 0.000000 0.000000 0.000000 0.000000 0.000000 0.044376
#
#
# Mechanical properties :
#
#
# Convention : Reuss Voigt Hill
#
# Bulk Modulus (GPa) = 34.59080 64.05568 49.32324
# Shear Modulus (GPa) = 19.14941 24.55036 21.84989
#
# Velocity S-wave (km/s) = 3.31370 3.75202 3.53965
# Velocity P-wave (km/s) = 5.87161 7.44989 6.70733
#
# Compressibility (1/GPa) = 0.02890942
#
# Stress axis : x y z
#
# Youngs Moduli (GPa) = 27.42018 116.92309 97.65899
#
# Poissons Ratio (x) = 0.65639 0.42127
# Poissons Ratio (y) = 0.15393 0.31725
# Poissons Ratio (z) = 0.11828 0.37984
#
# Static dielectric constant tensor:
#      x y z
#    x 1.575370 0.000000 0.000000 
#    y 0.000000 1.628400 0.000000 
#    z 0.000000 0.000000 1.601150 
# 
# From -- ./inp_files/14323.got.cif
#   From: 2010.05.17/outbox.cif.g08.bks.cpg/sg44_8_cif.got.tgz:14323.got - 2010.06.03 19:37:08.
