data_PCOD9374196
_publ_section_title
;
Structure prediction by ZEFSAII (Michael W. Deem and Ramdas Pophale) SiO2 
 PCOD9374196
Probable space group: I M M 2
;
_chemical_formula_sum "Si O2"
_cell_formula_units_Z 48
_cell_length_a 34.952500
_cell_length_b 14.656149
_cell_length_c 5.020678
_cell_angle_alpha 90.000000
_cell_angle_beta 90.000000
_cell_angle_gamma 90.000000
_cell_volume 2571.937939
_symmetry_space_group_name_H-M "I M M 2"
_symmetry_group_IT_number 44
_symmetry_cell_setting 'orthorhombic'
loop_
_space_group_symop_operation_xyz
x,y,z
-x,-y,z
-x,y,z
x,-y,z
1/2+x,1/2+y,1/2+z
1/2-x,1/2-y,1/2+z
1/2-x,1/2+y,1/2+z
1/2+x,1/2-y,1/2+z
loop_
_atom_site_type_symbol
_atom_site_label
_atom_site_fract_x
_atom_site_fract_y
_atom_site_fract_z
Si Si1 0.270142 0.290632 0.491340
Si Si2 0.045107 0.702148 0.513743
Si Si3 0.292879 0.500000 0.459879
Si Si4 0.855530 0.268891 0.129340
Si Si5 0.653561 0.500000 0.961098
Si Si6 0.919916 0.605717 0.012174
Si Si7 0.611787 0.318918 0.127396
O O1 0.240509 0.247622 0.701286
O O2 0.271770 0.401859 0.497583
O O3 0.311513 0.250747 0.573793
O O4 0.056330 0.665964 0.222822
O O5 0.067728 0.795912 0.572698
O O6 0.000000 0.708361 0.546743
O O7 0.063869 0.631921 0.723905
O O8 0.328006 0.500000 0.669605
O O9 0.310731 0.500000 0.165060
O O10 0.875696 0.363156 0.043924
O O11 0.865280 0.252391 0.438029
O O12 0.877861 0.197985 0.934562
O O13 0.627737 0.413523 0.025619
O O14 0.924752 0.500000 0.067169
#
# Coordination Sequence:
#
# PCOD9374196 Si02
#       7
#     8   8   4   8   4   8   8
#     4  12  24  41  62  88 124 152 190 247 301 351
#     4  10  21  35  54  82 117 147 185 237 290 336
#     4  12  24  40  64  90 115 154 204 240 283 358
#     4  10  20  39  56  81 112 146 187 234 280 336
#     4  12  18  36  65  86 108 146 204 240 264 344
#     4  10  21  36  57  80 110 152 195 230 277 344
#     4  10  19  34  59  83 108 146 185 233 282 326
#
# _framework density 18.662969
#
# number of rings (size 3 to 8) (size 9 to 14) (size 15 to 20)
#    0.000    1.333    3.333    3.000    0.000    2.000 
#    3.000    0.417    0.000    0.000    0.000    8.167 
#    0.000    0.000    0.000    0.000    0.000    0.000 
#
# Total GULP energy -133903.744826 kJ/mol
# GULP energy per Si atom -5579.322701 kJ/mol
# Density = 1.862049 g / cm^3
# Si number density = 18.662969 Si / 1000 Ang^3
#
#
#
# Elastic Constant Matrix: (Units=GPa)
#
#
# Indices 1 2 3 4 5 6 
#
# 1 81.4265 25.2126 -6.0581 0.0009 0.0001 0.0001
# 2 25.2126 79.2880 -5.7729 -0.0007 -0.0009 -0.0002
# 3 -6.0581 -5.7729 63.1546 0.0027 -0.0009 0.0023
# 4 0.0009 -0.0007 0.0027 16.0902 -0.0004 0.0016
# 5 0.0001 -0.0009 -0.0009 -0.0004 24.5515 -0.0008
# 6 0.0001 -0.0002 0.0023 0.0016 -0.0008 13.5624
#
#
#
# Elastic Compliance Matrix: (Units=1/GPa)
#
#
# Indices 1 2 3 4 5 6 
#
# 1 0.013675 -0.004282 0.000920 -0.000001 0.000000 0.000000
# 2 -0.004282 0.014037 0.000872 0.000001 0.000001 0.000000
# 3 0.000920 0.000872 0.016002 -0.000003 0.000001 -0.000003
# 4 -0.000001 0.000001 -0.000003 0.062150 0.000001 -0.000007
# 5 0.000000 0.000001 0.000001 0.000001 0.040731 0.000002
# 6 0.000000 0.000000 -0.000003 -0.000007 0.000002 0.073734
#
#
# Mechanical properties :
#
#
# Convention : Reuss Voigt Hill
#
# Bulk Modulus (GPa) = 25.81491 27.84802 26.83147
# Shear Modulus (GPa) = 20.98914 24.87330 22.93122
#
# Velocity S-wave (km/s) = 3.35720 3.65466 3.50909
# Velocity P-wave (km/s) = 5.37494 5.72387 5.55214
#
# Compressibility (1/GPa) = 0.03873730
#
# Stress axis : x y z
#
# Youngs Moduli (GPa) = 73.12498 71.23900 62.49137
#
# Poissons Ratio (x) = 0.30501 -0.05752
# Poissons Ratio (y) = 0.31309 -0.05452
# Poissons Ratio (z) = -0.06731 -0.06215
#
# Static dielectric constant tensor:
#      x y z
#    x 1.639680 0.000000 0.000000 
#    y 0.000000 1.647750 0.000000 
#    z 0.000000 0.000000 1.639650 
# 
# From -- ./inp_files/3282.got.cif
#   From: 2010.05.17/outbox.cif.g08.bks.cpg/sg44_2_cif.got.tgz:3282.got - 2010.06.03 19:37:08.
