data_PCOD9374723
_publ_section_title
;
Structure prediction by ZEFSAII (Michael W. Deem and Ramdas Pophale) SiO2 
 PCOD9374723
Probable space group: I M M 2
;
_chemical_formula_sum "Si O2"
_cell_formula_units_Z 56
_cell_length_a 14.628188
_cell_length_b 8.967454
_cell_length_c 23.173047
_cell_angle_alpha 90.000000
_cell_angle_beta 90.000000
_cell_angle_gamma 90.000000
_cell_volume 3039.784760
_symmetry_space_group_name_H-M "I M M 2"
_symmetry_group_IT_number 44
_symmetry_cell_setting 'orthorhombic'
loop_
_space_group_symop_operation_xyz
x,y,z
-x,-y,z
-x,y,z
x,-y,z
1/2+x,1/2+y,1/2+z
1/2-x,1/2-y,1/2+z
1/2-x,1/2+y,1/2+z
1/2+x,1/2-y,1/2+z
loop_
_atom_site_type_symbol
_atom_site_label
_atom_site_fract_x
_atom_site_fract_y
_atom_site_fract_z
Si Si1 0.401673 0.179293 0.904150
Si Si2 0.393547 0.179401 0.254383
Si Si3 0.645562 0.331105 0.020974
Si Si4 0.200734 0.178307 0.865179
Si Si5 0.355391 0.831803 0.478707
Si Si6 0.207768 0.678726 0.635322
Si Si7 0.399887 0.180483 0.605163
O O1 0.500000 0.222555 0.877308
O O2 0.307253 0.227761 0.873564
O O3 0.398052 0.000000 0.906590
O O4 0.400632 0.242134 0.969120
O O5 0.500000 0.223930 0.251865
O O6 0.343452 0.252729 0.308510
O O7 0.341554 0.217298 0.195133
O O8 0.390292 0.000000 0.260625
O O9 0.611035 0.500000 0.026942
O O10 0.651091 0.247514 0.081833
O O11 0.750305 0.340448 0.999318
O O12 0.145260 0.232942 0.921696
O O13 0.199075 0.000000 0.862483
O O14 0.401950 0.776385 0.537265
O O15 0.387142 0.000000 0.465271
O O16 0.211289 0.500000 0.629121
O O17 0.310850 0.743947 0.632515
O O18 0.500000 0.215756 0.630540
O O19 0.388021 0.000000 0.606571
#
# Coordination Sequence:
#
# PCOD9374723 Si02
#       7
#     8   8   8   8   8   8   8
#     4   9  18  33  53  79 112 145 173 206 256 317
#     4  10  23  42  59  73  95 134 179 219 265 320
#     4   9  17  30  50  77 107 138 173 212 255 303
#     4  10  20  34  54  80 107 135 173 221 264 303
#     4   8  15  29  49  73 104 140 172 203 245 299
#     4  10  20  35  55  78 105 138 178 223 267 312
#     4   9  18  33  54  81 112 145 177 209 254 314
#
# _framework density 18.422357000000002
#
# number of rings (size 3 to 8) (size 9 to 14) (size 15 to 20)
#    0.000    2.714    0.000    2.143    0.000    7.143 
#    0.000    3.571    0.000    2.571    0.000    0.000 
#    0.000    0.000    0.000    0.000    0.000    0.000 
#
# Total GULP energy -156034.041548 kJ/mol
# GULP energy per Si atom -5572.644341 kJ/mol
# Density = 1.838043 g / cm^3
# Si number density = 18.422357 Si / 1000 Ang^3
#
#
#
# Elastic Constant Matrix: (Units=GPa)
#
#
# Indices 1 2 3 4 5 6 
#
# 1 138.6336 35.6099 67.6187 0.0000 0.0000 0.0000
# 2 35.6099 36.6737 49.8902 0.0000 0.0000 0.0000
# 3 67.6187 49.8902 133.6222 0.0000 0.0000 0.0000
# 4 0.0000 0.0000 0.0000 29.3159 0.0000 0.0000
# 5 0.0000 0.0000 0.0000 0.0000 17.9260 0.0000
# 6 0.0000 0.0000 0.0000 0.0000 0.0000 15.7335
#
#
#
# Elastic Compliance Matrix: (Units=1/GPa)
#
#
# Indices 1 2 3 4 5 6 
#
# 1 0.010156 -0.005832 -0.002962 0.000000 0.000000 0.000000
# 2 -0.005832 0.058762 -0.018989 0.000000 0.000000 0.000000
# 3 -0.002962 -0.018989 0.016072 0.000000 0.000000 0.000000
# 4 0.000000 0.000000 0.000000 0.034111 0.000000 0.000000
# 5 0.000000 0.000000 0.000000 0.000000 0.055785 0.000000
# 6 0.000000 0.000000 0.000000 0.000000 0.000000 0.063559
#
#
# Mechanical properties :
#
#
# Convention : Reuss Voigt Hill
#
# Bulk Modulus (GPa) = 33.98431 68.35188 51.16810
# Shear Modulus (GPa) = 16.45719 22.98246 19.71982
#
# Velocity S-wave (km/s) = 2.99210 3.53587 3.27529
# Velocity P-wave (km/s) = 5.51582 7.33847 6.49143
#
# Compressibility (1/GPa) = 0.02942534
#
# Stress axis : x y z
#
# Youngs Moduli (GPa) = 98.46438 17.01776 62.21880
#
# Poissons Ratio (x) = 0.09925 0.18428
# Poissons Ratio (y) = 0.57426 1.18144
# Poissons Ratio (z) = 0.29163 0.32314
#
# Static dielectric constant tensor:
#      x y z
#    x 1.692110 0.000000 0.000000 
#    y 0.000000 1.627530 0.000000 
#    z 0.000000 0.000000 1.602600 
# 
# From -- ./inp_files/24147.got.cif
#   From: 2010.05.17/outbox.cif.g08.bks.cpg/sg44_13_cif.got.tgz:24147.got - 2010.06.03 19:37:08.
