data_PCOD9374250
_publ_section_title
;
Structure prediction by ZEFSAII (Michael W. Deem and Ramdas Pophale) SiO2 
 PCOD9374250
Probable space group: I M M 2
;
_chemical_formula_sum "Si O2"
_cell_formula_units_Z 64
_cell_length_a 7.880774
_cell_length_b 29.138410
_cell_length_c 12.748939
_cell_angle_alpha 90.000000
_cell_angle_beta 90.000000
_cell_angle_gamma 90.000000
_cell_volume 2927.579964
_symmetry_space_group_name_H-M "I M M 2"
_symmetry_group_IT_number 44
_symmetry_cell_setting 'orthorhombic'
loop_
_space_group_symop_operation_xyz
x,y,z
-x,-y,z
-x,y,z
x,-y,z
1/2+x,1/2+y,1/2+z
1/2-x,1/2-y,1/2+z
1/2-x,1/2+y,1/2+z
1/2+x,1/2-y,1/2+z
loop_
_atom_site_type_symbol
_atom_site_label
_atom_site_fract_x
_atom_site_fract_y
_atom_site_fract_z
Si Si1 0.305603 0.190420 0.011410
Si Si2 0.202681 0.948811 0.753033
Si Si3 0.796809 0.412883 0.479125
Si Si4 0.304138 0.677814 0.735552
Si Si5 0.696416 0.375762 0.087644
Si Si6 0.696224 0.049622 0.432565
Si Si7 0.709255 0.709928 0.963738
Si Si8 0.307349 0.431476 0.707648
O O1 0.500000 0.189119 0.974057
O O2 0.300645 0.195286 0.137089
O O3 0.230804 0.140242 0.984405
O O4 0.228410 0.237912 0.971911
O O5 0.231958 0.937045 0.874686
O O6 0.272187 0.907486 0.680094
O O7 0.000000 0.950310 0.734232
O O8 0.271003 0.000000 0.730011
O O9 0.750259 0.437991 0.588045
O O10 0.000000 0.411071 0.475355
O O11 0.500000 0.693288 0.724000
O O12 0.242138 0.691510 0.849604
O O13 0.302307 0.623158 0.725058
O O14 0.500000 0.367335 0.115516
O O15 0.705120 0.408593 0.985235
O O16 0.768585 0.326501 0.051932
O O17 0.500000 0.054114 0.463583
O O18 0.705673 0.050057 0.306644
O O19 0.762416 0.000000 0.469125
O O20 0.500000 0.709972 0.968621
O O21 0.500000 0.447327 0.718499
#
# Coordination Sequence:
#
# PCOD9374250 Si02
#       8
#     8   8   8   8   8   8   8   8
#     4   9  19  34  53  80 113 149 185 228 282 338
#     4  10  22  39  59  83 112 150 197 247 292 342
#     4  10  21  37  57  82 115 153 190 233 289 346
#     4   9  17  32  53  76 105 140 179 226 276 327
#     4  10  20  38  61  83 109 148 195 238 283 339
#     4  11  23  36  53  82 117 146 176 224 286 346
#     4   9  17  33  56  81 110 146 186 231 283 335
#     4  10  19  35  59  82 105 142 187 231 280 335
#
# _framework density 21.861059999999998
#
# number of rings (size 3 to 8) (size 9 to 14) (size 15 to 20)
#    0.000    2.250    1.250    1.500    0.000    4.750 
#    0.000    1.250    0.000    0.000    0.000    0.000 
#    0.000    0.000    0.000    0.000    0.000    0.000 
#
# Total GULP energy -178522.044039 kJ/mol
# GULP energy per Si atom -5578.813876 kJ/mol
# Density = 2.181130 g / cm^3
# Si number density = 21.861060 Si / 1000 Ang^3
#
#
#
# Elastic Constant Matrix: (Units=GPa)
#
#
# Indices 1 2 3 4 5 6 
#
# 1 30.6105 -3.0777 -11.4714 -0.0002 0.0000 0.0000
# 2 -3.0777 69.9370 9.1133 -0.0002 0.0000 0.0000
# 3 -11.4714 9.1133 88.3566 -0.0006 0.0000 -0.0001
# 4 -0.0002 -0.0002 -0.0006 57.8145 0.0000 -0.0001
# 5 0.0000 0.0000 0.0000 0.0000 18.3217 0.0000
# 6 0.0000 0.0000 -0.0001 -0.0001 0.0000 -2.2683
#
#
#
# Elastic Compliance Matrix: (Units=1/GPa)
#
#
# Indices 1 2 3 4 5 6 
#
# 1 0.034401 0.000945 0.004369 0.000000 0.000000 0.000000
# 2 0.000945 0.014519 -0.001375 0.000000 0.000000 0.000000
# 3 0.004369 -0.001375 0.012027 0.000000 0.000000 -0.000001
# 4 0.000000 0.000000 0.000000 0.017297 0.000000 -0.000001
# 5 0.000000 0.000000 0.000000 0.000000 0.054580 0.000000
# 6 0.000000 0.000000 -0.000001 -0.000001 0.000000 -0.440853
#
#
# Mechanical properties :
#
#
# Convention : Reuss Voigt Hill
#
# Bulk Modulus (GPa) = 14.52986 19.78141 17.15563
# Shear Modulus (GPa) = -17.06687 27.72958 5.33135
#
# Velocity S-wave (km/s) = -2.79713 3.56539 1.56334
# Velocity P-wave (km/s) = 1.94191 5.10075 3.33517
#
# Compressibility (1/GPa) = 0.06882378
#
# Stress axis : x y z
#
# Youngs Moduli (GPa) = 29.06917 68.87381 83.14768
#
# Poissons Ratio (x) = -0.06506 -0.36326
# Poissons Ratio (y) = -0.02746 0.11432
# Poissons Ratio (z) = -0.12700 0.09470
#
# Static dielectric constant tensor:
#      x y z
#    x 1.797530 0.000000 0.000000 
#    y 0.000000 1.828800 0.000000 
#    z 0.000000 0.000000 1.784300 
# 
# From -- ./inp_files/11522.got.cif
#   From: 2010.05.17/outbox.cif.g08.bks.cpg/sg44_6_cif.got.tgz:11522.got - 2010.06.03 19:37:08.
