data_PCOD9374421
_publ_section_title
;
Structure prediction by ZEFSAII (Michael W. Deem and Ramdas Pophale) SiO2 
 PCOD9374421
Probable space group: I M M 2
;
_chemical_formula_sum "Si O2"
_cell_formula_units_Z 48
_cell_length_a 7.331263
_cell_length_b 9.448756
_cell_length_c 31.883646
_cell_angle_alpha 90.000000
_cell_angle_beta 90.000000
_cell_angle_gamma 90.000000
_cell_volume 2208.622094
_symmetry_space_group_name_H-M "I M M 2"
_symmetry_group_IT_number 44
_symmetry_cell_setting 'orthorhombic'
loop_
_space_group_symop_operation_xyz
x,y,z
-x,-y,z
-x,y,z
x,-y,z
1/2+x,1/2+y,1/2+z
1/2-x,1/2-y,1/2+z
1/2-x,1/2+y,1/2+z
1/2+x,1/2-y,1/2+z
loop_
_atom_site_type_symbol
_atom_site_label
_atom_site_fract_x
_atom_site_fract_y
_atom_site_fract_z
Si Si1 0.282800 0.339528 0.237730
Si Si2 0.781670 0.840084 0.154266
Si Si3 0.722210 0.836753 0.574937
Si Si4 0.277409 0.662533 0.400061
Si Si5 0.222814 0.663100 0.818107
Si Si6 0.221971 0.663225 0.980593
O O1 0.500000 0.349899 0.243518
O O2 0.211197 0.500000 0.236287
O O3 0.253566 0.256433 0.194596
O O4 0.214803 0.248490 0.277115
O O5 0.713900 0.764478 0.112005
O O6 0.000000 0.848702 0.150204
O O7 0.712574 0.000000 0.159690
O O8 0.500000 0.835079 0.575197
O O9 0.778796 0.796469 0.527752
O O10 0.775997 0.000000 0.582497
O O11 0.500000 0.662560 0.400201
O O12 0.219478 0.500000 0.396512
O O13 0.221178 0.755479 0.360184
O O14 0.217811 0.735187 0.443355
O O15 0.281140 0.500000 0.817529
O O16 0.000000 0.661934 0.817827
O O17 0.275927 0.500000 0.973032
O O18 0.000000 0.664704 0.980419
#
# Coordination Sequence:
#
# PCOD9374421 Si02
#       6
#     8   8   8   8   8   8
#     4  10  20  33  49  68  90 118 153 191 230 272
#     4  10  20  32  47  68  93 121 153 188 227 272
#     4   8  14  25  40  57  80 112 147 182 221 264
#     4   9  15  21  31  50  77 108 141 176 214 259
#     4   9  16  26  40  57  80 111 144 179 221 267
#     4   8  13  21  33  50  74 106 142 176 213 259
#
# _framework density 21.733008000000002
#
# number of rings (size 3 to 8) (size 9 to 14) (size 15 to 20)
#    0.000    3.000    0.000    3.000    0.000    6.667 
#    0.000    3.333    0.000    0.000    0.000    0.000 
#    0.000    1.333    0.000   11.667    0.000   16.500 
#
# Total GULP energy -134074.734358 kJ/mol
# GULP energy per Si atom -5586.447265 kJ/mol
# Density = 2.168354 g / cm^3
# Si number density = 21.733008 Si / 1000 Ang^3
#
#
#
# Elastic Constant Matrix: (Units=GPa)
#
#
# Indices 1 2 3 4 5 6 
#
# 1 85.2392 7.7762 3.1273 0.0000 0.0000 0.0000
# 2 7.7762 233.2763 166.6409 0.0000 0.0000 0.0000
# 3 3.1273 166.6409 227.0668 0.0000 0.0000 0.0000
# 4 0.0000 0.0000 0.0000 47.7535 0.0000 0.0000
# 5 0.0000 0.0000 0.0000 0.0000 5.9006 0.0000
# 6 0.0000 0.0000 0.0000 0.0000 0.0000 -4.0392
#
#
#
# Elastic Compliance Matrix: (Units=1/GPa)
#
#
# Indices 1 2 3 4 5 6 
#
# 1 0.011775 -0.000582 0.000265 0.000000 0.000000 0.000000
# 2 -0.000582 0.009039 -0.006626 0.000000 0.000000 0.000000
# 3 0.000265 -0.006626 0.009263 0.000000 0.000000 0.000000
# 4 0.000000 0.000000 0.000000 0.020941 0.000000 0.000000
# 5 0.000000 0.000000 0.000000 0.000000 0.169475 0.000000
# 6 0.000000 0.000000 0.000000 0.000000 0.000000 -0.247574
#
#
# Mechanical properties :
#
#
# Convention : Reuss Voigt Hill
#
# Bulk Modulus (GPa) = 61.75968 100.07456 80.91712
# Shear Modulus (GPa) = -641.18031 34.45884 -303.36074
#
# Velocity S-wave (km/s) = -17.19496 3.98622 -11.82744
# Velocity P-wave (km/s) = 19.12440 8.20572 12.21493
#
# Compressibility (1/GPa) = 0.01619179
#
# Stress axis : x y z
#
# Youngs Moduli (GPa) = 84.92546 110.62843 107.95753
#
# Poissons Ratio (x) = 0.06434 -0.02857
# Poissons Ratio (y) = 0.04939 0.71530
# Poissons Ratio (z) = -0.02247 0.73300
#
# Static dielectric constant tensor:
#      x y z
#    x 1.969390 0.000000 0.000000 
#    y 0.000000 1.703420 0.000000 
#    z 0.000000 0.000000 1.738860 
# 
# From -- ./inp_files/26029.got.cif
#   From: 2010.05.17/outbox.cif.g08.bks.cpg/sg44_14_cif.got.tgz:26029.got - 2010.06.03 19:37:08.
