data_PCOD9374308
_publ_section_title
;
Structure prediction by ZEFSAII (Michael W. Deem and Ramdas Pophale) SiO2 
 PCOD9374308
Probable space group: I M M 2
;
_chemical_formula_sum "Si O2"
_cell_formula_units_Z 56
_cell_length_a 20.213802
_cell_length_b 7.656448
_cell_length_c 15.977112
_cell_angle_alpha 90.000000
_cell_angle_beta 90.000000
_cell_angle_gamma 90.000000
_cell_volume 2472.712500
_symmetry_space_group_name_H-M "I M M 2"
_symmetry_group_IT_number 44
_symmetry_cell_setting 'orthorhombic'
loop_
_space_group_symop_operation_xyz
x,y,z
-x,-y,z
-x,y,z
x,-y,z
1/2+x,1/2+y,1/2+z
1/2-x,1/2-y,1/2+z
1/2-x,1/2+y,1/2+z
1/2+x,1/2-y,1/2+z
loop_
_atom_site_type_symbol
_atom_site_label
_atom_site_fract_x
_atom_site_fract_y
_atom_site_fract_z
Si Si1 0.358628 0.802848 0.295800
Si Si2 0.500000 0.297331 0.033033
Si Si3 0.627875 0.289397 0.634287
Si Si4 0.357857 0.800966 0.972419
Si Si5 0.573719 0.292272 0.458918
Si Si6 0.074551 0.708732 0.315925
Si Si7 0.500000 0.297807 0.232236
Si Si8 0.280686 0.785238 0.135171
O O1 0.369412 0.734757 0.389642
O O2 0.433279 0.792680 0.261144
O O3 0.315300 0.721057 0.221040
O O4 0.335010 0.000000 0.304748
O O5 0.500000 0.500000 0.005274
O O6 0.500000 0.299877 0.132807
O O7 0.566427 0.203563 0.004194
O O8 0.627093 0.500000 0.630835
O O9 0.593432 0.222311 0.549911
O O10 0.592541 0.238734 0.719951
O O11 0.704320 0.235620 0.635541
O O12 0.369027 0.721330 0.879797
O O13 0.333411 0.000000 0.962104
O O14 0.315809 0.723332 0.049179
O O15 0.500000 0.226402 0.434472
O O16 0.568131 0.500000 0.466562
O O17 0.072820 0.500000 0.329673
O O18 0.000000 0.776384 0.332564
O O19 0.500000 0.500000 0.263460
O O20 0.286583 0.000000 0.135045
#
# Coordination Sequence:
#
# PCOD9374308 Si02
#       8
#     8   4   8   8   8   8   4   8
#     4  11  21  34  58  87 113 150 190 231 283 337
#     4  11  21  31  51  86 119 146 183 235 288 332
#     4  10  22  41  60  80 112 156 196 234 281 337
#     4  10  19  36  59  82 114 153 188 228 281 343
#     4  10  21  37  58  84 113 146 188 241 290 334
#     4  10  21  37  60  89 114 142 189 245 289 330
#     4  11  21  33  51  82 121 150 181 233 286 338
#     4   9  20  37  58  84 115 152 195 227 269 345
#
# _framework density 22.647195
#
# number of rings (size 3 to 8) (size 9 to 14) (size 15 to 20)
#    0.000    1.857    2.857    1.286    0.000    3.714 
#    0.000    3.571    0.000    0.000    0.000    0.000 
#    0.000    0.000    0.000    0.000    0.000    0.000 
#
# Total GULP energy -156269.876612 kJ/mol
# GULP energy per Si atom -5581.067022 kJ/mol
# Density = 2.259565 g / cm^3
# Si number density = 22.647195 Si / 1000 Ang^3
#
#
#
# Elastic Constant Matrix: (Units=GPa)
#
#
# Indices 1 2 3 4 5 6 
#
# 1 66.0395 1.9240 43.1692 0.0000 0.0000 0.0000
# 2 1.9240 46.6211 12.5493 0.0000 0.0000 0.0000
# 3 43.1692 12.5493 191.7758 0.0000 0.0000 0.0000
# 4 0.0000 0.0000 0.0000 -10.3266 0.0000 0.0000
# 5 0.0000 0.0000 0.0000 0.0000 24.9836 0.0000
# 6 0.0000 0.0000 0.0000 0.0000 0.0000 8.9928
#
#
#
# Elastic Compliance Matrix: (Units=1/GPa)
#
#
# Indices 1 2 3 4 5 6 
#
# 1 0.017761 0.000349 -0.004021 0.000000 0.000000 0.000000
# 2 0.000349 0.021841 -0.001508 0.000000 0.000000 0.000000
# 3 -0.004021 -0.001508 0.006218 0.000000 0.000000 0.000000
# 4 0.000000 0.000000 0.000000 -0.096837 0.000000 0.000000
# 5 0.000000 0.000000 0.000000 0.000000 0.040026 0.000000
# 6 0.000000 0.000000 0.000000 0.000000 0.000000 0.111200
#
#
# Mechanical properties :
#
#
# Convention : Reuss Voigt Hill
#
# Bulk Modulus (GPa) = 28.19988 46.63572 37.41780
# Shear Modulus (GPa) = 40.85369 21.18290 31.01829
#
# Velocity S-wave (km/s) = 4.25186 3.06166 3.70487
# Velocity P-wave (km/s) = 6.04841 5.75633 5.90418
#
# Compressibility (1/GPa) = 0.03546115
#
# Stress axis : x y z
#
# Youngs Moduli (GPa) = 56.30431 45.78554 160.81849
#
# Poissons Ratio (x) = -0.01600 0.64662
# Poissons Ratio (y) = -0.01967 0.24249
# Poissons Ratio (z) = 0.22639 0.06904
#
# Static dielectric constant tensor:
#      x y z
#    x 1.793320 0.000000 0.000000 
#    y 0.000000 1.916300 0.000000 
#    z 0.000000 0.000000 1.892730 
# 
# From -- ./inp_files/19234.got.cif
#   From: 2010.05.17/outbox.cif.g08.bks.cpg/sg44_10_cif.got.tgz:19234.got - 2010.06.03 19:37:08.
