data_PCOD9374942
_publ_section_title
;
Structure prediction by ZEFSAII (Michael W. Deem and Ramdas Pophale) SiO2 
 PCOD9374942
Probable space group: I M M 2
;
_chemical_formula_sum "Si O2"
_cell_formula_units_Z 48
_cell_length_a 16.135651
_cell_length_b 14.580262
_cell_length_c 9.405549
_cell_angle_alpha 90.000000
_cell_angle_beta 90.000000
_cell_angle_gamma 90.000000
_cell_volume 2212.768449
_symmetry_space_group_name_H-M "I M M 2"
_symmetry_group_IT_number 44
_symmetry_cell_setting 'orthorhombic'
loop_
_space_group_symop_operation_xyz
x,y,z
-x,-y,z
-x,y,z
x,-y,z
1/2+x,1/2+y,1/2+z
1/2-x,1/2-y,1/2+z
1/2-x,1/2+y,1/2+z
1/2+x,1/2-y,1/2+z
loop_
_atom_site_type_symbol
_atom_site_label
_atom_site_fract_x
_atom_site_fract_y
_atom_site_fract_z
Si Si1 0.405813 0.820040 0.181300
Si Si2 0.826510 0.201562 0.897555
Si Si3 0.163173 0.705472 0.200247
Si Si4 0.897099 0.500000 0.839388
Si Si5 0.904609 0.000000 0.535504
Si Si6 0.665985 0.500000 0.330338
Si Si7 0.840794 0.500000 0.162148
Si Si8 0.403290 0.306975 0.942249
O O1 0.500000 0.845922 0.147899
O O2 0.400377 0.742112 0.301337
O O3 0.369326 0.911001 0.250739
O O4 0.368207 0.775225 0.040280
O O5 0.747629 0.211354 0.792240
O O6 0.836589 0.093039 0.919822
O O7 0.822589 0.261213 0.039937
O O8 0.127612 0.601454 0.207354
O O9 0.104758 0.777082 0.280905
O O10 0.000000 0.500000 0.857900
O O11 0.854408 0.500000 0.992893
O O12 0.902229 0.000000 0.705957
O O13 0.864965 0.094665 0.480114
O O14 0.000000 0.000000 0.484664
O O15 0.749103 0.500000 0.231379
O O16 0.500000 0.312788 0.983068
#
# Coordination Sequence:
#
# PCOD9374942 Si02
#       8
#     8   8   8   4   4   4   4   8
#     4  10  20  36  60  89 118 154 199 241 290 353
#     4  11  22  39  60  87 120 154 202 243 298 350
#     4  11  24  40  61  87 121 159 199 249 297 353
#     4  10  20  35  60  92 121 156 199 242 291 355
#     4  10  20  37  62  89 118 158 201 241 299 357
#     4  10  22  37  61  89 121 154 198 248 294 358
#     4  10  22  39  57  90 120 154 202 241 300 356
#     4  10  22  39  60  89 122 158 199 247 296 352
#
# _framework density 21.692284000000001
#
# number of rings (size 3 to 8) (size 9 to 14) (size 15 to 20)
#    0.000    1.667    3.333    1.000    2.333    2.667 
#    0.000    4.167    0.000    0.000    0.000    0.000 
#    0.000    0.000    0.000    0.000    0.000    0.000 
#
# Total GULP energy -133817.157160 kJ/mol
# GULP energy per Si atom -5575.714882 kJ/mol
# Density = 2.164291 g / cm^3
# Si number density = 21.692284 Si / 1000 Ang^3
#
#
#
# Elastic Constant Matrix: (Units=GPa)
#
#
# Indices 1 2 3 4 5 6 
#
# 1 12.5223 2.3882 -0.7373 0.0000 0.0000 0.0000
# 2 2.3882 136.7376 26.0364 0.0000 0.0000 0.0000
# 3 -0.7373 26.0364 93.2147 0.0000 0.0000 0.0000
# 4 0.0000 0.0000 0.0000 21.9605 0.0000 0.0000
# 5 0.0000 0.0000 0.0000 0.0000 24.7313 0.0000
# 6 0.0000 0.0000 0.0000 0.0000 0.0000 5.0299
#
#
#
# Elastic Compliance Matrix: (Units=1/GPa)
#
#
# Indices 1 2 3 4 5 6 
#
# 1 0.080228 -0.001608 0.001084 0.000000 0.000000 0.000000
# 2 -0.001608 0.007756 -0.002179 0.000000 0.000000 0.000000
# 3 0.001084 -0.002179 0.011345 0.000000 0.000000 0.000000
# 4 0.000000 0.000000 0.000000 0.045536 0.000000 0.000000
# 5 0.000000 0.000000 0.000000 0.000000 0.040435 0.000000
# 6 0.000000 0.000000 0.000000 0.000000 0.000000 0.198810
#
#
# Mechanical properties :
#
#
# Convention : Reuss Voigt Hill
#
# Bulk Modulus (GPa) = 10.64698 33.09436 21.87067
# Shear Modulus (GPa) = 11.88144 24.66348 18.27246
#
# Velocity S-wave (km/s) = 2.34289 3.37556 2.90547
# Velocity P-wave (km/s) = 3.49825 5.52104 4.62167
#
# Compressibility (1/GPa) = 0.09392333
#
# Stress axis : x y z
#
# Youngs Moduli (GPa) = 12.46445 128.92747 88.14315
#
# Poissons Ratio (x) = 0.20726 -0.09551
# Poissons Ratio (y) = 0.02004 0.19208
# Poissons Ratio (z) = -0.01351 0.28096
#
# Static dielectric constant tensor:
#      x y z
#    x 1.851410 0.000000 0.000000 
#    y 0.000000 1.827270 0.000000 
#    z 0.000000 0.000000 1.729980 
# 
# From -- ./inp_files/8145.got.cif
#   From: 2010.05.17/outbox.cif.g08.bks.cpg/sg44_5_cif.got.tgz:8145.got - 2010.06.03 19:37:08.
