data_PCOD9374593
_publ_section_title
;
Structure prediction by ZEFSAII (Michael W. Deem and Ramdas Pophale) SiO2 
 PCOD9374593
Probable space group: I M M 2
;
_chemical_formula_sum "Si O2"
_cell_formula_units_Z 64
_cell_length_a 19.077776
_cell_length_b 8.348156
_cell_length_c 21.672378
_cell_angle_alpha 90.000000
_cell_angle_beta 90.000000
_cell_angle_gamma 90.000000
_cell_volume 3451.635032
_symmetry_space_group_name_H-M "I M M 2"
_symmetry_group_IT_number 44
_symmetry_cell_setting 'orthorhombic'
loop_
_space_group_symop_operation_xyz
x,y,z
-x,-y,z
-x,y,z
x,-y,z
1/2+x,1/2+y,1/2+z
1/2-x,1/2-y,1/2+z
1/2-x,1/2+y,1/2+z
1/2+x,1/2-y,1/2+z
loop_
_atom_site_type_symbol
_atom_site_label
_atom_site_fract_x
_atom_site_fract_y
_atom_site_fract_z
Si Si1 0.671135 0.192761 0.204420
Si Si2 0.581295 0.196392 0.087790
Si Si3 0.918885 0.693947 0.085661
Si Si4 0.414917 0.185274 0.450518
Si Si5 0.081251 0.694304 0.319082
Si Si6 0.419474 0.310295 0.318158
Si Si7 0.330983 0.691871 0.702416
Si Si8 0.914686 0.685853 0.453379
O O1 0.628649 0.250897 0.144383
O O2 0.629899 0.237504 0.266244
O O3 0.750936 0.251506 0.204126
O O4 0.672891 0.000000 0.200671
O O5 0.500000 0.242061 0.097273
O O6 0.582352 0.000000 0.085949
O O7 0.605587 0.254749 0.019976
O O8 0.919545 0.500000 0.083618
O O9 0.871203 0.749385 0.141611
O O10 0.000000 0.745645 0.094929
O O11 0.893139 0.749317 0.017780
O O12 0.500000 0.188377 0.453061
O O13 0.394703 0.273365 0.387834
O O14 0.393241 0.000000 0.444975
O O15 0.081964 0.500000 0.320953
O O16 0.128079 0.751466 0.263033
O O17 0.105634 0.754854 0.386803
O O18 0.000000 0.742634 0.309775
O O19 0.500000 0.248629 0.311972
O O20 0.421178 0.500000 0.309805
O O21 0.330300 0.500000 0.701660
O O22 0.891886 0.500000 0.453357
O O23 0.000000 0.685129 0.453376
#
# Coordination Sequence:
#
# PCOD9374593 Si02
#       8
#     8   8   8   8   8   8   8   8
#     4  10  21  35  49  68  99 138 173 202 238 292
#     4   8  13  25  49  75  92 112 150 197 240 283
#     4   9  18  34  56  78  98 127 169 209 248 303
#     4   8  15  30  53  78 101 127 162 203 247 300
#     4   9  17  31  52  74  95 123 160 201 247 302
#     4  10  20  33  52  79 105 128 161 208 257 300
#     4  11  23  34  45  68 103 137 169 209 250 286
#     4   7  11  22  44  74  97 110 140 196 247 283
#
# _framework density 18.541936
#
# number of rings (size 3 to 8) (size 9 to 14) (size 15 to 20)
#    0.000    3.000    0.000    3.750    0.000    4.750 
#    0.000    2.500    0.000    2.250    0.000    1.750 
#    0.000    0.000    0.000    0.000    0.000    0.000 
#
# Total GULP energy -178280.053480 kJ/mol
# GULP energy per Si atom -5571.251671 kJ/mol
# Density = 1.849973 g / cm^3
# Si number density = 18.541936 Si / 1000 Ang^3
#
#
#
# Elastic Constant Matrix: (Units=GPa)
#
#
# Indices 1 2 3 4 5 6 
#
# 1 92.3400 13.8527 94.7712 0.0000 0.0000 0.0000
# 2 13.8527 7.2910 15.8593 0.0000 0.0000 0.0000
# 3 94.7712 15.8593 212.4797 0.0000 0.0000 0.0000
# 4 0.0000 0.0000 0.0000 7.0270 0.0000 0.0000
# 5 0.0000 0.0000 0.0000 0.0000 -6.3840 0.0000
# 6 0.0000 0.0000 0.0000 0.0000 0.0000 16.6003
#
#
#
# Elastic Compliance Matrix: (Units=1/GPa)
#
#
# Indices 1 2 3 4 5 6 
#
# 1 0.023505 -0.026090 -0.008536 0.000000 0.000000 0.000000
# 2 -0.026090 0.192699 -0.002746 0.000000 0.000000 0.000000
# 3 -0.008536 -0.002746 0.008719 0.000000 0.000000 0.000000
# 4 0.000000 0.000000 0.000000 0.142308 0.000000 0.000000
# 5 0.000000 0.000000 0.000000 0.000000 -0.156642 0.000000
# 6 0.000000 0.000000 0.000000 0.000000 0.000000 0.060240
#
#
# Mechanical properties :
#
#
# Convention : Reuss Voigt Hill
#
# Bulk Modulus (GPa) = 6.65878 62.34189 34.50034
# Shear Modulus (GPa) = 12.63803 15.95717 14.29760
#
# Velocity S-wave (km/s) = 2.61356 2.93678 2.77987
# Velocity P-wave (km/s) = 3.56463 6.72270 5.38058
#
# Compressibility (1/GPa) = 0.15017768
#
# Stress axis : x y z
#
# Youngs Moduli (GPa) = 42.54496 5.18944 114.69608
#
# Poissons Ratio (x) = 0.13539 0.97908
# Poissons Ratio (y) = 1.10999 0.31497
# Poissons Ratio (z) = 0.36318 0.01425
#
# Static dielectric constant tensor:
#      x y z
#    x 1.616720 0.000000 0.000000 
#    y 0.000000 1.648920 0.000000 
#    z 0.000000 0.000000 1.664020 
# 
# From -- ./inp_files/24346.got.cif
#   From: 2010.05.17/outbox.cif.g08.bks.cpg/sg44_13_cif.got.tgz:24346.got - 2010.06.03 19:37:08.
