data_PCOD9374921
_publ_section_title
;
Structure prediction by ZEFSAII (Michael W. Deem and Ramdas Pophale) SiO2 
 PCOD9374921
Probable space group: I M M 2
;
_chemical_formula_sum "Si O2"
_cell_formula_units_Z 58
_cell_length_a 7.375519
_cell_length_b 30.296662
_cell_length_c 9.875530
_cell_angle_alpha 90.000000
_cell_angle_beta 90.000000
_cell_angle_gamma 90.000000
_cell_volume 2206.722792
_symmetry_space_group_name_H-M "I M M 2"
_symmetry_group_IT_number 44
_symmetry_cell_setting 'orthorhombic'
loop_
_space_group_symop_operation_xyz
x,y,z
-x,-y,z
-x,y,z
x,-y,z
1/2+x,1/2+y,1/2+z
1/2-x,1/2-y,1/2+z
1/2-x,1/2+y,1/2+z
1/2+x,1/2-y,1/2+z
loop_
_atom_site_type_symbol
_atom_site_label
_atom_site_fract_x
_atom_site_fract_y
_atom_site_fract_z
Si Si1 0.500000 0.500000 0.793170
Si Si2 0.281342 0.724488 0.820388
Si Si3 0.722909 0.354111 0.022237
Si Si4 0.789616 0.432520 0.680363
Si Si5 0.706596 0.947247 0.875759
Si Si6 0.709194 0.449738 0.069612
Si Si7 0.218794 0.159537 0.105960
Si Si8 0.707667 0.325885 0.316679
O O1 0.660394 0.461925 0.770396
O O2 0.500000 0.727576 0.827469
O O3 0.227834 0.705514 0.673619
O O4 0.208832 0.773343 0.837321
O O5 0.224361 0.686442 0.925538
O O6 0.500000 0.356065 0.016139
O O7 0.785413 0.405093 0.002391
O O8 0.783866 0.339408 0.172515
O O9 0.718677 0.435814 0.523679
O O10 0.778311 0.380302 0.701603
O O11 0.000000 0.446662 0.683731
O O12 0.500000 0.931427 0.868042
O O13 0.704614 0.000000 0.879425
O O14 0.793492 0.937604 0.730425
O O15 0.500000 0.455491 0.026806
O O16 0.788289 0.500000 0.056138
O O17 0.000000 0.158886 0.103157
O O18 0.290106 0.154953 0.953965
O O19 0.500000 0.341361 0.313443
#
# Coordination Sequence:
#
# PCOD9374921 Si02
#       8
#     2   8   8   8   8   8   8   8
#     4  12  22  36  60  82 128 166 218 260 316 360
#     4  10  21  37  58  80 116 155 198 249 314 374
#     4   9  18  34  54  80 113 149 188 243 299 362
#     4  11  22  35  56  86 121 166 211 256 316 381
#     4   9  17  28  43  72 108 142 187 240 290 346
#     4   9  17  28  50  75 102 144 195 236 288 354
#     4  10  21  37  57  84 120 160 203 259 314 377
#     4  10  20  35  58  85 116 151 201 252 312 374
#
# _framework density 26.28332
#
# number of rings (size 3 to 8) (size 9 to 14) (size 15 to 20)
#    0.000    2.207    1.379    1.862    0.966    2.207 
#    0.000    1.379    1.517    0.000    0.000    0.000 
#    0.000    0.000    0.000    0.000    0.000    0.000 
#
# Total GULP energy -161973.025945 kJ/mol
# GULP energy per Si atom -5585.276757 kJ/mol
# Density = 2.622350 g / cm^3
# Si number density = 26.283320 Si / 1000 Ang^3
#
#
#
# Elastic Constant Matrix: (Units=GPa)
#
#
# Indices 1 2 3 4 5 6 
#
# 1 111.2097 8.4686 12.0193 0.0003 -0.0001 0.0000
# 2 8.4686 173.1571 30.7192 0.0008 -0.0002 0.0000
# 3 12.0193 30.7192 113.5667 0.0016 -0.0003 0.0001
# 4 0.0003 0.0008 0.0016 50.5367 -0.0001 0.0000
# 5 -0.0001 -0.0002 -0.0003 -0.0001 1.3554 0.0002
# 6 0.0000 0.0000 0.0001 0.0000 0.0002 18.9471
#
#
#
# Elastic Compliance Matrix: (Units=1/GPa)
#
#
# Indices 1 2 3 4 5 6 
#
# 1 0.009110 -0.000288 -0.000886 0.000000 0.000000 0.000000
# 2 -0.000288 0.006075 -0.001613 0.000000 0.000001 0.000000
# 3 -0.000886 -0.001613 0.009335 0.000000 0.000002 0.000000
# 4 0.000000 0.000000 0.000000 0.019788 0.000002 0.000000
# 5 0.000000 0.000001 0.000002 0.000002 0.737809 -0.000006
# 6 0.000000 0.000000 0.000000 0.000000 -0.000006 0.052778
#
#
# Mechanical properties :
#
#
# Convention : Reuss Voigt Hill
#
# Bulk Modulus (GPa) = 52.78176 55.59419 54.18798
# Shear Modulus (GPa) = 5.90469 37.28293 21.59381
#
# Velocity S-wave (km/s) = 1.50048 3.77039 2.86943
# Velocity P-wave (km/s) = 4.80909 6.33658 5.62493
#
# Compressibility (1/GPa) = 0.01894594
#
# Stress axis : x y z
#
# Youngs Moduli (GPa) = 109.77249 164.60014 107.11860
#
# Poissons Ratio (x) = 0.04746 0.09492
# Poissons Ratio (y) = 0.03165 0.17276
# Poissons Ratio (z) = 0.09727 0.26547
#
# Static dielectric constant tensor:
#      x y z
#    x 2.011600 0.000000 0.000000 
#    y 0.000000 2.000420 0.000000 
#    z 0.000000 0.000000 2.150170 
# 
# From -- ./inp_files/11324.got.cif
#   From: 2010.05.17/outbox.cif.g08.bks.cpg/sg44_6_cif.got.tgz:11324.got - 2010.06.03 19:37:08.
