data_PCOD9374480
_publ_section_title
;
Structure prediction by ZEFSAII (Michael W. Deem and Ramdas Pophale) SiO2 
 PCOD9374480
Probable space group: I M M 2
;
_chemical_formula_sum "Si O2"
_cell_formula_units_Z 64
_cell_length_a 18.940271
_cell_length_b 9.271547
_cell_length_c 21.975213
_cell_angle_alpha 90.000000
_cell_angle_beta 90.000000
_cell_angle_gamma 90.000000
_cell_volume 3858.970745
_symmetry_space_group_name_H-M "I M M 2"
_symmetry_group_IT_number 44
_symmetry_cell_setting 'orthorhombic'
loop_
_space_group_symop_operation_xyz
x,y,z
-x,-y,z
-x,y,z
x,-y,z
1/2+x,1/2+y,1/2+z
1/2-x,1/2-y,1/2+z
1/2-x,1/2+y,1/2+z
1/2+x,1/2-y,1/2+z
loop_
_atom_site_type_symbol
_atom_site_label
_atom_site_fract_x
_atom_site_fract_y
_atom_site_fract_z
Si Si1 0.213492 0.326004 0.692690
Si Si2 0.080719 0.341544 0.199036
Si Si3 0.672074 0.669580 0.785798
Si Si4 0.919623 0.828565 0.642488
Si Si5 0.578441 0.167618 0.552709
Si Si6 0.419671 0.827018 0.884255
Si Si7 0.781497 0.829196 0.063498
Si Si8 0.874488 0.671135 0.521373
O O1 0.205916 0.500000 0.689385
O O2 0.252849 0.289484 0.755611
O O3 0.138908 0.249395 0.683545
O O4 0.260531 0.283710 0.632944
O O5 0.112062 0.500000 0.214730
O O6 0.119667 0.211311 0.230811
O O7 0.079092 0.329492 0.126460
O O8 0.000000 0.342802 0.220261
O O9 0.672224 0.500000 0.798099
O O10 0.639697 0.754419 0.842518
O O11 0.909345 0.762673 0.575021
O O12 0.000000 0.802143 0.662366
O O13 0.907240 0.000000 0.641038
O O14 0.500000 0.221194 0.533681
O O15 0.649518 0.252282 0.536897
O O16 0.583730 0.000000 0.534374
O O17 0.500000 0.780281 0.869044
O O18 0.416462 0.000000 0.876422
O O19 0.404565 0.795886 0.955078
O O20 0.709848 0.803529 0.025568
O O21 0.794955 0.000000 0.065497
O O22 0.885759 0.500000 0.533603
#
# Coordination Sequence:
#
# PCOD9374480 Si02
#       8
#     8   8   8   8   8   8   8   8
#     4   9  19  33  47  67  96 130 163 193 238 301
#     4   9  17  28  41  59  87 125 163 192 224 276
#     4  11  21  32  46  67  96 127 163 206 243 277
#     4  10  20  32  50  78 104 124 154 201 251 293
#     4   9  17  27  40  62  92 124 156 189 230 283
#     4  10  21  36  52  70  95 133 175 205 237 288
#     4   9  16  29  47  68  92 120 159 202 241 285
#     4   9  19  35  53  71  96 131 169 204 242 293
#
# _framework density 16.584734000000001
#
# number of rings (size 3 to 8) (size 9 to 14) (size 15 to 20)
#    0.000    2.500    1.250    3.000    0.000    7.250 
#    0.000    1.250    0.000    0.000    0.000    0.875 
#    0.000    1.000    0.000    0.000    0.000    0.000 
#
# Total GULP energy -178260.286406 kJ/mol
# GULP energy per Si atom -5570.633950 kJ/mol
# Density = 1.654699 g / cm^3
# Si number density = 16.584734 Si / 1000 Ang^3
#
#
#
# Elastic Constant Matrix: (Units=GPa)
#
#
# Indices 1 2 3 4 5 6 
#
# 1 118.0840 49.7168 31.5740 0.0000 0.0000 0.0000
# 2 49.7168 34.2716 22.6404 0.0000 0.0000 0.0000
# 3 31.5740 22.6404 55.3993 0.0000 0.0000 0.0000
# 4 0.0000 0.0000 0.0000 18.6870 0.0000 0.0000
# 5 0.0000 0.0000 0.0000 0.0000 18.5656 0.0000
# 6 0.0000 0.0000 0.0000 0.0000 0.0000 27.9002
#
#
#
# Elastic Compliance Matrix: (Units=1/GPa)
#
#
# Indices 1 2 3 4 5 6 
#
# 1 0.021776 -0.032042 0.000684 0.000000 0.000000 0.000000
# 2 -0.032042 0.087117 -0.017341 0.000000 0.000000 0.000000
# 3 0.000684 -0.017341 0.024748 0.000000 0.000000 0.000000
# 4 0.000000 0.000000 0.000000 0.053513 0.000000 0.000000
# 5 0.000000 0.000000 0.000000 0.000000 0.053863 0.000000
# 6 0.000000 0.000000 0.000000 0.000000 0.000000 0.035842
#
#
# Mechanical properties :
#
#
# Convention : Reuss Voigt Hill
#
# Bulk Modulus (GPa) = 27.59161 46.17972 36.88566
# Shear Modulus (GPa) = 12.94200 19.95213 16.44706
#
# Velocity S-wave (km/s) = 2.79652 3.47225 3.15254
# Velocity P-wave (km/s) = 5.20579 6.63178 5.96157
#
# Compressibility (1/GPa) = 0.03624291
#
# Stress axis : x y z
#
# Youngs Moduli (GPa) = 45.92125 11.47881 40.40755
#
# Poissons Ratio (x) = 0.36781 -0.02763
# Poissons Ratio (y) = 1.47142 0.70070
# Poissons Ratio (z) = -0.03140 0.19905
#
# Static dielectric constant tensor:
#      x y z
#    x 1.590050 0.000000 0.000000 
#    y 0.000000 1.569440 0.000000 
#    z 0.000000 0.000000 1.552500 
# 
# From -- ./inp_files/25210.got.cif
#   From: 2010.05.17/outbox.cif.g08.bks.cpg/sg44_13_cif.got.tgz:25210.got - 2010.06.03 19:37:08.
