data_PCOD9374083
_publ_section_title
;
Structure prediction by ZEFSAII (Michael W. Deem and Ramdas Pophale) SiO2 
 PCOD9374083
Probable space group: I M M 2
;
_chemical_formula_sum "Si O2"
_cell_formula_units_Z 58
_cell_length_a 26.202441
_cell_length_b 8.945292
_cell_length_c 11.511465
_cell_angle_alpha 90.000000
_cell_angle_beta 90.000000
_cell_angle_gamma 90.000000
_cell_volume 2698.154851
_symmetry_space_group_name_H-M "I M M 2"
_symmetry_group_IT_number 44
_symmetry_cell_setting 'orthorhombic'
loop_
_space_group_symop_operation_xyz
x,y,z
-x,-y,z
-x,y,z
x,-y,z
1/2+x,1/2+y,1/2+z
1/2-x,1/2-y,1/2+z
1/2-x,1/2+y,1/2+z
1/2+x,1/2-y,1/2+z
loop_
_atom_site_type_symbol
_atom_site_label
_atom_site_fract_x
_atom_site_fract_y
_atom_site_fract_z
Si Si1 0.500000 0.500000 0.911120
Si Si2 0.899332 0.328936 0.889018
Si Si3 0.261077 0.322301 0.164084
Si Si4 0.895843 0.838111 0.353326
Si Si5 0.059024 0.672510 0.148154
Si Si6 0.644172 0.829458 0.059087
Si Si7 0.940121 0.832184 0.678501
Si Si8 0.222150 0.322596 0.907343
O O1 0.453362 0.372618 0.902498
O O2 0.907657 0.500000 0.845639
O O3 0.927405 0.207575 0.810658
O O4 0.838771 0.303244 0.891770
O O5 0.922170 0.323016 0.017047
O O6 0.253741 0.500000 0.173385
O O7 0.318958 0.276531 0.132516
O O8 0.251769 0.252010 0.292760
O O9 0.234576 0.271796 0.040848
O O10 0.905761 0.774530 0.226853
O O11 0.862154 0.726565 0.428482
O O12 0.870027 0.000000 0.352686
O O13 0.062005 0.500000 0.188573
O O14 0.000000 0.720697 0.155329
O O15 0.588583 0.797101 0.110336
O O16 0.660265 0.000000 0.069715
O O17 0.000000 0.832983 0.657467
O O18 0.921581 0.000000 0.647684
O O19 0.233303 0.500000 0.903688
#
# Coordination Sequence:
#
# PCOD9374083 Si02
#       8
#     2   8   8   8   8   8   8   8
#     4   8  20  36  58  80 122 172 206 264 320 378
#     4  10  21  39  62  90 125 164 207 260 316 381
#     4  11  24  44  70  99 133 174 220 275 341 407
#     4  10  20  37  56  83 118 163 208 256 316 372
#     4  10  19  33  55  85 125 169 212 256 308 376
#     4  12  25  40  62  90 123 163 211 267 323 386
#     4  11  24  39  59  90 127 167 209 255 313 381
#     4  10  23  44  69  98 132 170 218 277 339 403
#
# _framework density 21.496171
#
# number of rings (size 3 to 8) (size 9 to 14) (size 15 to 20)
#    0.414    1.103    2.069    2.897    0.966    4.414 
#    0.000    1.379    0.000    0.000    0.000    0.000 
#    0.000    0.000    0.000    0.000    0.000    0.000 
#
# Total GULP energy -161560.686899 kJ/mol
# GULP energy per Si atom -5571.058169 kJ/mol
# Density = 2.144725 g / cm^3
# Si number density = 21.496171 Si / 1000 Ang^3
#
#
#
# Elastic Constant Matrix: (Units=GPa)
#
#
# Indices 1 2 3 4 5 6 
#
# 1 24.1010 -4.5289 2.7925 0.0000 0.0000 0.0000
# 2 -4.5289 30.9402 28.5303 0.0000 0.0000 0.0000
# 3 2.7925 28.5303 98.3586 0.0000 0.0000 0.0000
# 4 0.0000 0.0000 0.0000 35.4123 0.0000 0.0000
# 5 0.0000 0.0000 0.0000 0.0000 25.6993 0.0000
# 6 0.0000 0.0000 0.0000 0.0000 0.0000 14.2031
#
#
#
# Elastic Compliance Matrix: (Units=1/GPa)
#
#
# Indices 1 2 3 4 5 6 
#
# 1 0.043929 0.010348 -0.004249 0.000000 0.000000 0.000000
# 2 0.010348 0.046559 -0.013799 0.000000 0.000000 0.000000
# 3 -0.004249 -0.013799 0.014290 0.000000 0.000000 0.000000
# 4 0.000000 0.000000 0.000000 0.028239 0.000000 0.000000
# 5 0.000000 0.000000 0.000000 0.000000 0.038912 0.000000
# 6 0.000000 0.000000 0.000000 0.000000 0.000000 0.070407
#
#
# Mechanical properties :
#
#
# Convention : Reuss Voigt Hill
#
# Bulk Modulus (GPa) = 11.18833 22.99861 17.09347
# Shear Modulus (GPa) = 17.38961 23.50334 20.44648
#
# Velocity S-wave (km/s) = 2.84731 3.31021 3.08745
# Velocity P-wave (km/s) = 4.00321 5.03310 4.54741
#
# Compressibility (1/GPa) = 0.08937886
#
# Stress axis : x y z
#
# Youngs Moduli (GPa) = 22.76405 21.47799 69.97856
#
# Poissons Ratio (x) = -0.22225 0.29732
# Poissons Ratio (y) = -0.23556 0.96563
# Poissons Ratio (z) = 0.09672 0.29637
#
# Static dielectric constant tensor:
#      x y z
#    x 1.794010 0.000000 0.000000 
#    y 0.000000 1.763350 0.000000 
#    z 0.000000 0.000000 1.842760 
# 
# From -- ./inp_files/14861.got.cif
#   From: 2010.05.17/outbox.cif.g08.bks.cpg/sg44_8_cif.got.tgz:14861.got - 2010.06.03 19:37:08.
