data_PCOD9374261
_publ_section_title
;
Structure prediction by ZEFSAII (Michael W. Deem and Ramdas Pophale) SiO2 
 PCOD9374261
Probable space group: I M M 2
;
_chemical_formula_sum "Si O2"
_cell_formula_units_Z 48
_cell_length_a 20.864159
_cell_length_b 8.915907
_cell_length_c 14.804480
_cell_angle_alpha 90.000000
_cell_angle_beta 90.000000
_cell_angle_gamma 90.000000
_cell_volume 2753.972322
_symmetry_space_group_name_H-M "I M M 2"
_symmetry_group_IT_number 44
_symmetry_cell_setting 'orthorhombic'
loop_
_space_group_symop_operation_xyz
x,y,z
-x,-y,z
-x,y,z
x,-y,z
1/2+x,1/2+y,1/2+z
1/2-x,1/2-y,1/2+z
1/2-x,1/2+y,1/2+z
1/2+x,1/2-y,1/2+z
loop_
_atom_site_type_symbol
_atom_site_label
_atom_site_fract_x
_atom_site_fract_y
_atom_site_fract_z
Si Si1 0.427345 0.680750 0.187700
Si Si2 0.121864 0.820233 0.489355
Si Si3 0.073740 0.320624 0.304317
Si Si4 0.312532 0.819353 0.299968
Si Si5 0.226324 0.680024 0.000506
Si Si6 0.185568 0.179788 0.186898
O O1 0.500000 0.726433 0.209367
O O2 0.423320 0.500000 0.193010
O O3 0.374469 0.750391 0.252903
O O4 0.410757 0.721497 0.084101
O O5 0.091790 0.737875 0.403993
O O6 0.197628 0.787357 0.496236
O O7 0.114929 0.000000 0.476408
O O8 0.079902 0.500000 0.301520
O O9 0.123422 0.247829 0.234728
O O10 0.000000 0.280565 0.284425
O O11 0.303953 0.775941 0.404479
O O12 0.248607 0.774844 0.244761
O O13 0.316314 0.000000 0.296300
O O14 0.219823 0.500000 0.011257
O O15 0.195480 0.761108 0.085826
O O16 0.181777 0.000000 0.188461
#
# Coordination Sequence:
#
# PCOD9374261 Si02
#       6
#     8   8   8   8   8   8
#     4  10  21  36  56  84 116 151 190 230 280 339
#     4  10  19  35  59  86 118 152 186 234 289 341
#     4  11  24  39  57  85 119 155 194 237 289 346
#     4  10  21  37  57  83 115 149 189 231 278 339
#     4  10  20  37  59  86 116 148 188 234 285 338
#     4  11  22  38  60  87 115 149 193 237 284 343
#
# _framework density 17.429369000000001
#
# number of rings (size 3 to 8) (size 9 to 14) (size 15 to 20)
#    0.000    1.667    3.333    1.500    0.000    5.000 
#    0.000    0.833    0.000    1.000    0.000    0.000 
#    0.000    0.000    0.000    0.000    0.000    0.000 
#
# Total GULP energy -134074.970155 kJ/mol
# GULP energy per Si atom -5586.457090 kJ/mol
# Density = 1.738970 g / cm^3
# Si number density = 17.429369 Si / 1000 Ang^3
#
#
#
# Elastic Constant Matrix: (Units=GPa)
#
#
# Indices 1 2 3 4 5 6 
#
# 1 174.4910 59.6600 103.4159 0.0000 0.0000 0.0000
# 2 59.6600 33.9497 52.5523 0.0000 0.0000 0.0000
# 3 103.4159 52.5523 161.5648 0.0000 0.0000 0.0000
# 4 0.0000 0.0000 0.0000 35.3212 0.0000 0.0000
# 5 0.0000 0.0000 0.0000 0.0000 18.4113 0.0000
# 6 0.0000 0.0000 0.0000 0.0000 0.0000 25.9501
#
#
#
# Elastic Compliance Matrix: (Units=1/GPa)
#
#
# Indices 1 2 3 4 5 6 
#
# 1 0.014679 -0.022661 -0.002025 0.000000 0.000000 0.000000
# 2 -0.022661 0.094310 -0.016171 0.000000 0.000000 0.000000
# 3 -0.002025 -0.016171 0.012746 0.000000 0.000000 0.000000
# 4 0.000000 0.000000 0.000000 0.028312 0.000000 0.000000
# 5 0.000000 0.000000 0.000000 0.000000 0.054315 0.000000
# 6 0.000000 0.000000 0.000000 0.000000 0.000000 0.038536
#
#
# Mechanical properties :
#
#
# Convention : Reuss Voigt Hill
#
# Bulk Modulus (GPa) = 24.98729 89.02909 57.00819
# Shear Modulus (GPa) = 14.79501 26.22833 20.51167
#
# Velocity S-wave (km/s) = 2.91667 3.88343 3.43424
# Velocity P-wave (km/s) = 5.07051 8.44386 6.96451
#
# Compressibility (1/GPa) = 0.04002035
#
# Stress axis : x y z
#
# Youngs Moduli (GPa) = 68.12362 10.60329 78.45875
#
# Poissons Ratio (x) = 0.24029 0.15887
# Poissons Ratio (y) = 1.54378 1.26876
# Poissons Ratio (z) = 0.13794 0.17147
#
# Static dielectric constant tensor:
#      x y z
#    x 1.573370 0.000000 0.000000 
#    y 0.000000 1.585290 0.000000 
#    z 0.000000 0.000000 1.565120 
# 
# From -- ./inp_files/16067.got.cif
#   From: 2010.05.17/outbox.cif.g08.bks.cpg/sg44_9_cif.got.tgz:16067.got - 2010.06.03 19:37:08.
