data_PCOD9374424
_publ_section_title
;
Structure prediction by ZEFSAII (Michael W. Deem and Ramdas Pophale) SiO2 
 PCOD9374424
Probable space group: I M M 2
;
_chemical_formula_sum "Si O2"
_cell_formula_units_Z 48
_cell_length_a 14.183165
_cell_length_b 8.023465
_cell_length_c 18.265119
_cell_angle_alpha 90.000000
_cell_angle_beta 90.000000
_cell_angle_gamma 90.000000
_cell_volume 2078.536349
_symmetry_space_group_name_H-M "I M M 2"
_symmetry_group_IT_number 44
_symmetry_cell_setting 'orthorhombic'
loop_
_space_group_symop_operation_xyz
x,y,z
-x,-y,z
-x,y,z
x,-y,z
1/2+x,1/2+y,1/2+z
1/2-x,1/2-y,1/2+z
1/2-x,1/2+y,1/2+z
1/2+x,1/2-y,1/2+z
loop_
_atom_site_type_symbol
_atom_site_label
_atom_site_fract_x
_atom_site_fract_y
_atom_site_fract_z
Si Si1 0.638727 0.307883 0.980840
Si Si2 0.101347 0.807633 0.857564
Si Si3 0.310928 0.702149 0.667251
Si Si4 0.599782 0.805811 0.137207
Si Si5 0.313007 0.698604 0.826377
Si Si6 0.138262 0.312168 0.012529
O O1 0.604907 0.500000 0.983109
O O2 0.634486 0.235447 0.898815
O O3 0.599134 0.207822 0.048977
O O4 0.750042 0.313888 0.997280
O O5 0.199536 0.725513 0.832785
O O6 0.000000 0.734710 0.833072
O O7 0.105559 0.000000 0.835148
O O8 0.100628 0.797429 0.946195
O O9 0.308089 0.500000 0.665784
O O10 0.201659 0.764165 0.660407
O O11 0.345628 0.758287 0.746892
O O12 0.369839 0.756532 0.596434
O O13 0.500000 0.729729 0.162858
O O14 0.600337 0.000000 0.158525
O O15 0.327411 0.500000 0.829423
O O16 0.103683 0.500000 0.003272
#
# Coordination Sequence:
#
# PCOD9374424 Si02
#       6
#     8   8   8   8   8   8
#     4   8  15  28  44  63  86 114 150 185 217 258
#     4  10  20  32  47  69  96 125 157 194 236 280
#     4   9  17  30  48  69  94 122 150 186 231 275
#     4   9  17  28  43  65  90 116 147 180 217 264
#     4   9  18  31  48  70  94 121 154 190 229 277
#     4   9  17  30  48  68  90 119 156 193 228 274
#
# _framework density 23.093174000000001
#
# number of rings (size 3 to 8) (size 9 to 14) (size 15 to 20)
#    0.000    3.000    0.000    2.000    0.000    7.000 
#    0.000    1.667    0.000    1.000    0.000    2.333 
#    0.000    0.000    0.000    0.000    0.000    0.000 
#
# Total GULP energy -133757.934618 kJ/mol
# GULP energy per Si atom -5573.247276 kJ/mol
# Density = 2.304061 g / cm^3
# Si number density = 23.093174 Si / 1000 Ang^3
#
#
#
# Elastic Constant Matrix: (Units=GPa)
#
#
# Indices 1 2 3 4 5 6 
#
# 1 46.6856 -7.5337 -15.9825 0.0000 0.0000 0.0000
# 2 -7.5337 24.5765 -3.0545 0.0000 0.0000 0.0000
# 3 -15.9825 -3.0545 154.3232 0.0000 0.0000 0.0000
# 4 0.0000 0.0000 0.0000 19.5723 0.0000 0.0000
# 5 0.0000 0.0000 0.0000 0.0000 -9.4671 0.0000
# 6 0.0000 0.0000 0.0000 0.0000 0.0000 -146.3272
#
#
#
# Elastic Compliance Matrix: (Units=1/GPa)
#
#
# Indices 1 2 3 4 5 6 
#
# 1 0.023520 0.007531 0.002585 0.000000 0.000000 0.000000
# 2 0.007531 0.043201 0.001635 0.000000 0.000000 0.000000
# 3 0.002585 0.001635 0.006780 0.000000 0.000000 0.000000
# 4 0.000000 0.000000 0.000000 0.051093 0.000000 0.000000
# 5 0.000000 0.000000 0.000000 0.000000 -0.105629 0.000000
# 6 0.000000 0.000000 0.000000 0.000000 0.000000 -0.006834
#
#
# Mechanical properties :
#
#
# Convention : Reuss Voigt Hill
#
# Bulk Modulus (GPa) = 10.30891 19.16043 14.73467
# Shear Modulus (GPa) = 238.52068 -10.43399 114.04335
#
# Velocity S-wave (km/s) = 10.17401 -2.12791 7.03500
# Velocity P-wave (km/s) = 11.93682 1.50919 8.50780
#
# Compressibility (1/GPa) = 0.09700346
#
# Stress axis : x y z
#
# Youngs Moduli (GPa) = 42.51673 23.14759 147.49311
#
# Poissons Ratio (x) = -0.17433 -0.38126
# Poissons Ratio (y) = -0.32020 -0.24116
# Poissons Ratio (z) = -0.10990 -0.03785
#
# Static dielectric constant tensor:
#      x y z
#    x 1.922000 0.000000 0.000000 
#    y 0.000000 1.820570 0.000000 
#    z 0.000000 0.000000 1.918310 
# 
# From -- ./inp_files/16089.got.cif
#   From: 2010.05.17/outbox.cif.g08.bks.cpg/sg44_9_cif.got.tgz:16089.got - 2010.06.03 19:37:08.
