data_PCOD9374578
_publ_section_title
;
Structure prediction by ZEFSAII (Michael W. Deem and Ramdas Pophale) SiO2 
 PCOD9374578
Probable space group: I M M 2
;
_chemical_formula_sum "Si O2"
_cell_formula_units_Z 56
_cell_length_a 7.839841
_cell_length_b 14.689758
_cell_length_c 23.654764
_cell_angle_alpha 90.000000
_cell_angle_beta 90.000000
_cell_angle_gamma 90.000000
_cell_volume 2724.209579
_symmetry_space_group_name_H-M "I M M 2"
_symmetry_group_IT_number 44
_symmetry_cell_setting 'orthorhombic'
loop_
_space_group_symop_operation_xyz
x,y,z
-x,-y,z
-x,y,z
x,-y,z
1/2+x,1/2+y,1/2+z
1/2-x,1/2-y,1/2+z
1/2-x,1/2+y,1/2+z
1/2+x,1/2-y,1/2+z
loop_
_atom_site_type_symbol
_atom_site_label
_atom_site_fract_x
_atom_site_fract_y
_atom_site_fract_z
Si Si1 0.790974 0.402181 0.816370
Si Si2 0.197449 0.597823 0.108408
Si Si3 0.805884 0.856083 0.729596
Si Si4 0.709524 0.700854 0.349487
Si Si5 0.298862 0.800332 0.077625
Si Si6 0.703492 0.602894 0.462737
Si Si7 0.194682 0.643564 0.695238
O O1 0.742802 0.500000 0.842158
O O2 0.737467 0.306956 0.844492
O O3 0.728920 0.400838 0.751108
O O4 0.000000 0.399159 0.814742
O O5 0.272564 0.500000 0.090153
O O6 0.210203 0.601273 0.176730
O O7 0.273437 0.691915 0.085316
O O8 0.000000 0.599232 0.092130
O O9 0.736019 0.854674 0.793254
O O10 0.815596 0.749368 0.713408
O O11 0.000000 0.891547 0.729946
O O12 0.500000 0.700538 0.347570
O O13 0.768799 0.654108 0.406905
O O14 0.500000 0.816328 0.079451
O O15 0.224378 0.852456 0.133052
O O16 0.233180 0.839584 0.019188
O O17 0.500000 0.596479 0.455215
O O18 0.771386 0.500000 0.468100
O O19 0.000000 0.608847 0.689952
#
# Coordination Sequence:
#
# PCOD9374578 Si02
#       7
#     8   8   8   8   8   8   8
#     4   8  12  20  39  68  98 123 149 191 248 304
#     4  10  20  33  51  78 110 139 166 203 258 320
#     4   8  14  27  48  72  99 133 171 208 245 290
#     4   8  15  29  47  68  97 134 176 216 254 304
#     4  10  20  35  54  74  99 133 174 220 263 306
#     4  10  21  36  52  70  97 136 178 221 270 317
#     4   7  12  23  40  65  94 121 151 192 244 294
#
# _framework density 20.556421
#
# number of rings (size 3 to 8) (size 9 to 14) (size 15 to 20)
#    0.000    3.286    0.000    3.429    0.000    2.571 
#    0.000    4.286    0.000    2.571    0.000    0.000 
#    0.000   11.429    0.000    0.000    0.000    0.000 
#
# Total GULP energy -155888.025470 kJ/mol
# GULP energy per Si atom -5567.429481 kJ/mol
# Density = 2.050963 g / cm^3
# Si number density = 20.556421 Si / 1000 Ang^3
#
#
#
# Elastic Constant Matrix: (Units=GPa)
#
#
# Indices 1 2 3 4 5 6 
#
# 1 21.7539 -0.7839 -0.1942 0.0000 0.0000 0.0000
# 2 -0.7839 129.3090 59.9335 0.0000 0.0000 0.0000
# 3 -0.1942 59.9335 143.6981 0.0000 0.0000 0.0000
# 4 0.0000 0.0000 0.0000 14.1540 0.0000 0.0000
# 5 0.0000 0.0000 0.0000 0.0000 17.0612 0.0000
# 6 0.0000 0.0000 0.0000 0.0000 0.0000 1.8230
#
#
#
# Elastic Compliance Matrix: (Units=1/GPa)
#
#
# Indices 1 2 3 4 5 6 
#
# 1 0.045979 0.000310 -0.000067 0.000000 0.000000 0.000000
# 2 0.000310 0.009589 -0.003999 0.000000 0.000000 0.000000
# 3 -0.000067 -0.003999 0.008627 0.000000 0.000000 0.000000
# 4 0.000000 0.000000 0.000000 0.070651 0.000000 0.000000
# 5 0.000000 0.000000 0.000000 0.000000 0.058612 0.000000
# 6 0.000000 0.000000 0.000000 0.000000 0.000000 0.548536
#
#
# Mechanical properties :
#
#
# Convention : Reuss Voigt Hill
#
# Bulk Modulus (GPa) = 17.64206 45.85241 31.74723
# Shear Modulus (GPa) = 6.50702 22.32804 14.41753
#
# Velocity S-wave (km/s) = 1.78110 3.29930 2.65120
# Velocity P-wave (km/s) = 3.58199 6.07190 4.98491
#
# Compressibility (1/GPa) = 0.05668272
#
# Stress axis : x y z
#
# Youngs Moduli (GPa) = 21.74888 104.28929 115.91821
#
# Poissons Ratio (x) = -0.03231 0.00778
# Poissons Ratio (y) = -0.00674 0.46354
# Poissons Ratio (z) = 0.00146 0.41704
#
# Static dielectric constant tensor:
#      x y z
#    x 1.757830 0.000000 0.000000 
#    y 0.000000 1.771500 0.000000 
#    z 0.000000 0.000000 1.743580 
# 
# From -- ./inp_files/23088.got.cif
#   From: 2010.05.17/outbox.cif.g08.bks.cpg/sg44_12_cif.got.tgz:23088.got - 2010.06.03 19:37:08.
