data_PCOD9374778
_publ_section_title
;
Structure prediction by ZEFSAII (Michael W. Deem and Ramdas Pophale) SiO2 
 PCOD9374778
Probable space group: I M M 2
;
_chemical_formula_sum "Si O2"
_cell_formula_units_Z 40
_cell_length_a 7.644770
_cell_length_b 9.433478
_cell_length_c 30.365786
_cell_angle_alpha 90.000000
_cell_angle_beta 90.000000
_cell_angle_gamma 90.000000
_cell_volume 2189.882393
_symmetry_space_group_name_H-M "I M M 2"
_symmetry_group_IT_number 44
_symmetry_cell_setting 'orthorhombic'
loop_
_space_group_symop_operation_xyz
x,y,z
-x,-y,z
-x,y,z
x,-y,z
1/2+x,1/2+y,1/2+z
1/2-x,1/2-y,1/2+z
1/2-x,1/2+y,1/2+z
1/2+x,1/2-y,1/2+z
loop_
_atom_site_type_symbol
_atom_site_label
_atom_site_fract_x
_atom_site_fract_y
_atom_site_fract_z
Si Si1 0.209938 0.160765 0.183620
Si Si2 0.299419 0.672471 0.586808
Si Si3 0.206280 0.331560 0.855865
Si Si4 0.000000 0.671512 0.518991
Si Si5 0.209642 0.840015 0.769785
Si Si6 0.500000 0.669421 0.926799
O O1 0.267389 0.215058 0.135494
O O2 0.251534 0.258664 0.224713
O O3 0.000000 0.152128 0.180110
O O4 0.276574 0.000000 0.190826
O O5 0.500000 0.719932 0.580147
O O6 0.301989 0.500000 0.588385
O O7 0.169275 0.713036 0.547965
O O8 0.222443 0.500000 0.847197
O O9 0.267745 0.247191 0.812653
O O10 0.329627 0.297391 0.897079
O O11 0.000000 0.301974 0.864107
O O12 0.000000 0.500000 0.514408
O O13 0.000000 0.745206 0.471931
O O14 0.000000 0.846831 0.773316
O O15 0.279081 0.000000 0.769341
O O16 0.500000 0.500000 0.935163
#
# Coordination Sequence:
#
# PCOD9374778 Si02
#       6
#     8   8   8   4   8   4
#     4   9  18  32  52  77 104 139 182 221 259 307
#     4   8  16  32  52  77 107 136 175 223 259 304
#     4   9  19  37  57  75 101 139 180 221 263 314
#     4  10  20  34  56  82 104 136 178 218 271 320
#     4  10  21  34  49  76 111 142 173 215 269 322
#     4  10  22  38  56  80 106 134 176 226 271 320
#
# _framework density 18.265820999999999
#
# number of rings (size 3 to 8) (size 9 to 14) (size 15 to 20)
#    0.000    2.800    0.000    1.800    2.800    3.200 
#    0.000    1.000    0.000    1.200    0.000    0.000 
#    0.000    0.000    0.000    0.000    0.000    0.000 
#
# Total GULP energy -111526.606604 kJ/mol
# GULP energy per Si atom -5576.330330 kJ/mol
# Density = 1.822425 g / cm^3
# Si number density = 18.265821 Si / 1000 Ang^3
#
#
#
# Elastic Constant Matrix: (Units=GPa)
#
#
# Indices 1 2 3 4 5 6 
#
# 1 80.1432 37.7738 73.2638 0.0000 0.0000 0.0000
# 2 37.7738 60.2904 84.8634 0.0000 0.0000 0.0000
# 3 73.2638 84.8634 210.4915 0.0000 0.0000 0.0000
# 4 0.0000 0.0000 0.0000 34.6619 0.0000 0.0000
# 5 0.0000 0.0000 0.0000 0.0000 32.3079 0.0000
# 6 0.0000 0.0000 0.0000 0.0000 0.0000 11.6652
#
#
#
# Elastic Compliance Matrix: (Units=1/GPa)
#
#
# Indices 1 2 3 4 5 6 
#
# 1 0.019215 -0.006069 -0.004241 0.000000 0.000000 0.000000
# 2 -0.006069 0.040266 -0.014122 0.000000 0.000000 0.000000
# 3 -0.004241 -0.014122 0.011920 0.000000 0.000000 0.000000
# 4 0.000000 0.000000 0.000000 0.028850 0.000000 0.000000
# 5 0.000000 0.000000 0.000000 0.000000 0.030952 0.000000
# 6 0.000000 0.000000 0.000000 0.000000 0.000000 0.085725
#
#
# Mechanical properties :
#
#
# Convention : Reuss Voigt Hill
#
# Bulk Modulus (GPa) = 44.36965 82.52523 63.44744
# Shear Modulus (GPa) = 18.29452 26.06193 22.17822
#
# Velocity S-wave (km/s) = 3.16819 3.78142 3.48831
# Velocity P-wave (km/s) = 6.14224 8.02145 7.14391
#
# Compressibility (1/GPa) = 0.02253793
#
# Stress axis : x y z
#
# Youngs Moduli (GPa) = 52.04155 24.83476 83.89012
#
# Poissons Ratio (x) = 0.15073 0.35580
# Poissons Ratio (y) = 0.31585 1.18466
# Poissons Ratio (z) = 0.22072 0.35071
#
# Static dielectric constant tensor:
#      x y z
#    x 1.650640 0.000000 0.000000 
#    y 0.000000 1.622730 0.000000 
#    z 0.000000 0.000000 1.606390 
# 
# From -- ./inp_files/25931.got.cif
#   From: 2010.05.17/outbox.cif.g08.bks.cpg/sg44_13_cif.got.tgz:25931.got - 2010.06.03 19:37:08.
