data_PCOD9374463
_publ_section_title
;
Structure prediction by ZEFSAII (Michael W. Deem and Ramdas Pophale) SiO2 
 PCOD9374463
Probable space group: I M M 2
;
_chemical_formula_sum "Si O2"
_cell_formula_units_Z 64
_cell_length_a 26.826061
_cell_length_b 14.207455
_cell_length_c 8.749204
_cell_angle_alpha 90.000000
_cell_angle_beta 90.000000
_cell_angle_gamma 90.000000
_cell_volume 3334.584597
_symmetry_space_group_name_H-M "I M M 2"
_symmetry_group_IT_number 44
_symmetry_cell_setting 'orthorhombic'
loop_
_space_group_symop_operation_xyz
x,y,z
-x,-y,z
-x,y,z
x,-y,z
1/2+x,1/2+y,1/2+z
1/2-x,1/2-y,1/2+z
1/2-x,1/2+y,1/2+z
1/2+x,1/2-y,1/2+z
loop_
_atom_site_type_symbol
_atom_site_label
_atom_site_fract_x
_atom_site_fract_y
_atom_site_fract_z
Si Si1 0.710546 0.761385 0.369150
Si Si2 0.152374 0.609628 0.631309
Si Si3 0.443437 0.611973 0.752234
Si Si4 0.354678 0.895294 0.783173
Si Si5 0.058758 0.704259 0.759060
Si Si6 0.110514 0.250171 0.057881
Si Si7 0.560533 0.605478 0.093697
Si Si8 0.248978 0.109992 0.625840
O O1 0.687178 0.831806 0.243882
O O2 0.664719 0.736505 0.482372
O O3 0.749692 0.822111 0.474162
O O4 0.726609 0.670330 0.268690
O O5 0.161047 0.500000 0.658327
O O6 0.161711 0.630408 0.453836
O O7 0.095006 0.635453 0.667275
O O8 0.500000 0.649577 0.742233
O O9 0.445905 0.500000 0.742935
O O10 0.411678 0.653189 0.616208
O O11 0.422862 0.631678 0.922296
O O12 0.387957 0.816552 0.706144
O O13 0.306666 0.900350 0.674224
O O14 0.377429 0.000000 0.790371
O O15 0.073079 0.810440 0.706343
O O16 0.000000 0.689823 0.735578
O O17 0.075020 0.700614 0.934445
O O18 0.500000 0.601062 0.087192
O O19 0.578073 0.500000 0.133444
O O20 0.230457 0.000000 0.606583
#
# Coordination Sequence:
#
# PCOD9374463 Si02
#       8
#     8   8   8   8   8   8   8   8
#     4  10  21  36  58  85 112 142 178 220 270 330
#     4  10  20  36  57  79 104 137 180 225 271 321
#     4   9  17  30  49  71  99 140 184 222 261 306
#     4   9  19  36  58  79 101 134 172 215 267 322
#     4  10  20  32  49  74 104 140 179 221 266 314
#     4  10  20  32  50  76 108 138 172 216 263 314
#     4   8  15  29  48  69  94 130 178 225 267 311
#     4  10  20  37  60  85 115 147 181 223 274 331
#
# _framework density 19.192795
#
# number of rings (size 3 to 8) (size 9 to 14) (size 15 to 20)
#    0.000    2.500    0.000    3.000    0.000    4.250 
#    0.000    4.375    0.000   13.875    0.000    0.000 
#    0.000    0.000    0.000    0.000    0.000    0.000 
#
# Total GULP energy -178233.166783 kJ/mol
# GULP energy per Si atom -5569.786462 kJ/mol
# Density = 1.914911 g / cm^3
# Si number density = 19.192795 Si / 1000 Ang^3
#
#
#
# Elastic Constant Matrix: (Units=GPa)
#
#
# Indices 1 2 3 4 5 6 
#
# 1 21.3978 20.2668 7.3282 0.0000 0.0000 0.0000
# 2 20.2668 72.8072 43.8327 0.0000 0.0000 0.0000
# 3 7.3282 43.8327 47.8610 0.0000 0.0000 0.0000
# 4 0.0000 0.0000 0.0000 26.9372 0.0000 0.0000
# 5 0.0000 0.0000 0.0000 0.0000 15.8607 0.0000
# 6 0.0000 0.0000 0.0000 0.0000 0.0000 24.4786
#
#
#
# Elastic Compliance Matrix: (Units=1/GPa)
#
#
# Indices 1 2 3 4 5 6 
#
# 1 0.068258 -0.028327 0.015492 0.000000 0.000000 0.000000
# 2 -0.028327 0.042371 -0.034467 0.000000 0.000000 0.000000
# 3 0.015492 -0.034467 0.050088 0.000000 0.000000 0.000000
# 4 0.000000 0.000000 0.000000 0.037123 0.000000 0.000000
# 5 0.000000 0.000000 0.000000 0.000000 0.063049 0.000000
# 6 0.000000 0.000000 0.000000 0.000000 0.000000 0.040852
#
#
# Mechanical properties :
#
#
# Convention : Reuss Voigt Hill
#
# Bulk Modulus (GPa) = 15.12598 31.65792 23.39195
# Shear Modulus (GPa) = 11.95077 18.16453 15.05765
#
# Velocity S-wave (km/s) = 2.49804 3.07974 2.80402
# Velocity P-wave (km/s) = 4.02722 5.40156 4.76421
#
# Compressibility (1/GPa) = 0.06611141
#
# Stress axis : x y z
#
# Youngs Moduli (GPa) = 14.65032 23.60125 19.96483
#
# Poissons Ratio (x) = 0.66855 -0.30929
# Poissons Ratio (y) = 0.41500 0.68813
# Poissons Ratio (z) = -0.22696 0.81347
#
# Static dielectric constant tensor:
#      x y z
#    x 1.669650 0.000000 0.000000 
#    y 0.000000 1.696030 0.000000 
#    z 0.000000 0.000000 1.689560 
# 
# From -- ./inp_files/10155.got.cif
#   From: 2010.05.17/outbox.cif.g08.bks.cpg/sg44_6_cif.got.tgz:10155.got - 2010.06.03 19:37:08.
