data_PCOD9374283
_publ_section_title
;
Structure prediction by ZEFSAII (Michael W. Deem and Ramdas Pophale) SiO2 
 PCOD9374283
Probable space group: I M M 2
;
_chemical_formula_sum "Si O2"
_cell_formula_units_Z 64
_cell_length_a 15.734833
_cell_length_b 8.762937
_cell_length_c 24.343822
_cell_angle_alpha 90.000000
_cell_angle_beta 90.000000
_cell_angle_gamma 90.000000
_cell_volume 3356.607736
_symmetry_space_group_name_H-M "I M M 2"
_symmetry_group_IT_number 44
_symmetry_cell_setting 'orthorhombic'
loop_
_space_group_symop_operation_xyz
x,y,z
-x,-y,z
-x,y,z
x,-y,z
1/2+x,1/2+y,1/2+z
1/2-x,1/2-y,1/2+z
1/2-x,1/2+y,1/2+z
1/2+x,1/2-y,1/2+z
loop_
_atom_site_type_symbol
_atom_site_label
_atom_site_fract_x
_atom_site_fract_y
_atom_site_fract_z
Si Si1 0.403425 0.682522 0.221970
Si Si2 0.596410 0.181473 0.721003
Si Si3 0.147488 0.679994 0.605735
Si Si4 0.249067 0.818306 0.291482
Si Si5 0.148066 0.180319 0.106907
Si Si6 0.097290 0.182340 0.488961
Si Si7 0.594478 0.685772 0.484878
Si Si8 0.244352 0.316334 0.413153
O O1 0.500000 0.718490 0.239229
O O2 0.392847 0.500000 0.222545
O O3 0.389180 0.742933 0.160242
O O4 0.332704 0.756635 0.260647
O O5 0.500000 0.221168 0.737396
O O6 0.667320 0.265720 0.756627
O O7 0.610187 0.228458 0.657736
O O8 0.607681 0.000000 0.726865
O O9 0.127364 0.500000 0.605506
O O10 0.249854 0.695442 0.606898
O O11 0.113584 0.756414 0.550369
O O12 0.243338 0.749626 0.352206
O O13 0.251951 0.000000 0.293521
O O14 0.128045 0.000000 0.113750
O O15 0.113772 0.231098 0.047661
O O16 0.164303 0.259484 0.448307
O O17 0.000000 0.216749 0.473288
O O18 0.108834 0.000000 0.488230
O O19 0.500000 0.735617 0.468481
O O20 0.595618 0.500000 0.484710
O O21 0.670133 0.734791 0.445027
O O22 0.243718 0.500000 0.411213
#
# Coordination Sequence:
#
# PCOD9374283 Si02
#       8
#     8   8   8   8   8   8   8   8
#     4  11  24  42  65  93 125 164 208 256 312 371
#     4  11  24  41  63  93 126 162 204 252 309 369
#     4  11  21  36  62  96 128 163 204 251 311 372
#     4  12  26  44  65  90 121 162 210 258 313 372
#     4  10  19  35  61  93 126 163 201 244 303 364
#     4  11  24  41  62  90 125 166 209 255 310 370
#     4   9  18  35  61  91 122 156 195 238 290 357
#     4  11  23  42  65  90 121 159 207 258 310 365
#
# _framework density 19.066869000000001
#
# number of rings (size 3 to 8) (size 9 to 14) (size 15 to 20)
#    0.000    1.250    2.500    3.750    0.000    6.500 
#    0.000    1.250    0.000    1.875    0.000    0.000 
#    0.000    0.000    0.000    0.000    0.000    0.000 
#
# Total GULP energy -178963.230210 kJ/mol
# GULP energy per Si atom -5592.600944 kJ/mol
# Density = 1.902347 g / cm^3
# Si number density = 19.066869 Si / 1000 Ang^3
#
#
#
# Elastic Constant Matrix: (Units=GPa)
#
#
# Indices 1 2 3 4 5 6 
#
# 1 154.2725 75.7894 76.1909 0.0000 0.0000 0.0000
# 2 75.7894 86.2890 50.4195 0.0000 0.0000 0.0000
# 3 76.1909 50.4195 141.2775 0.0000 0.0000 0.0000
# 4 0.0000 0.0000 0.0000 37.2458 0.0000 0.0000
# 5 0.0000 0.0000 0.0000 0.0000 -6.5740 0.0000
# 6 0.0000 0.0000 0.0000 0.0000 0.0000 24.5347
#
#
#
# Elastic Compliance Matrix: (Units=1/GPa)
#
#
# Indices 1 2 3 4 5 6 
#
# 1 0.012723 -0.009053 -0.003630 0.000000 0.000000 0.000000
# 2 -0.009053 0.021085 -0.002642 0.000000 0.000000 0.000000
# 3 -0.003630 -0.002642 0.009979 0.000000 0.000000 0.000000
# 4 0.000000 0.000000 0.000000 0.026849 0.000000 0.000000
# 5 0.000000 0.000000 0.000000 0.000000 -0.152115 0.000000
# 6 0.000000 0.000000 0.000000 0.000000 0.000000 0.040759
#
#
# Mechanical properties :
#
#
# Convention : Reuss Voigt Hill
#
# Bulk Modulus (GPa) = 76.13567 87.40428 81.76998
# Shear Modulus (GPa) = -878.47004 23.00392 -427.73306
#
# Velocity S-wave (km/s) = -21.48793 3.47722 -14.99400
# Velocity P-wave (km/s) = 23.99217 7.87793 16.02439
#
# Compressibility (1/GPa) = 0.01313445
#
# Stress axis : x y z
#
# Youngs Moduli (GPa) = 78.60072 47.42817 100.20959
#
# Poissons Ratio (x) = 0.42938 0.36379
# Poissons Ratio (y) = 0.71159 0.26478
# Poissons Ratio (z) = 0.28535 0.12532
#
# Static dielectric constant tensor:
#      x y z
#    x 1.665040 0.000000 0.000000 
#    y 0.000000 1.640800 0.000000 
#    z 0.000000 0.000000 1.618790 
# 
# From -- ./inp_files/25796.got.cif
#   From: 2010.05.17/outbox.cif.g08.bks.cpg/sg44_13_cif.got.tgz:25796.got - 2010.06.03 19:37:08.
