data_PCOD9374869
_publ_section_title
;
Structure prediction by ZEFSAII (Michael W. Deem and Ramdas Pophale) SiO2 
 PCOD9374869
Probable space group: I M M 2
;
_chemical_formula_sum "Si O2"
_cell_formula_units_Z 56
_cell_length_a 21.242295
_cell_length_b 7.701702
_cell_length_c 14.437139
_cell_angle_alpha 90.000000
_cell_angle_beta 90.000000
_cell_angle_gamma 90.000000
_cell_volume 2361.942301
_symmetry_space_group_name_H-M "I M M 2"
_symmetry_group_IT_number 44
_symmetry_cell_setting 'orthorhombic'
loop_
_space_group_symop_operation_xyz
x,y,z
-x,-y,z
-x,y,z
x,-y,z
1/2+x,1/2+y,1/2+z
1/2-x,1/2-y,1/2+z
1/2-x,1/2+y,1/2+z
1/2+x,1/2-y,1/2+z
loop_
_atom_site_type_symbol
_atom_site_label
_atom_site_fract_x
_atom_site_fract_y
_atom_site_fract_z
Si Si1 0.828412 0.306981 0.741860
Si Si2 0.430512 0.286610 0.703224
Si Si3 0.660524 0.702469 0.552902
Si Si4 0.096337 0.801429 0.407545
Si Si5 0.068907 0.296992 0.611307
Si Si6 0.571092 0.703016 0.382690
Si Si7 0.738529 0.795352 0.903958
O O1 0.806293 0.500000 0.715641
O O2 0.866189 0.223010 0.655527
O O3 0.885447 0.310591 0.815248
O O4 0.774002 0.223603 0.804865
O O5 0.500000 0.239102 0.665946
O O6 0.427613 0.500000 0.701491
O O7 0.369300 0.222937 0.646530
O O8 0.426599 0.229633 0.809599
O O9 0.676366 0.500000 0.570196
O O10 0.600939 0.707975 0.483865
O O11 0.717278 0.771919 0.488836
O O12 0.073916 0.712566 0.501037
O O13 0.171811 0.794841 0.403785
O O14 0.075003 0.000000 0.413816
O O15 0.069044 0.500000 0.637825
O O16 0.000000 0.223760 0.640273
O O17 0.500000 0.760583 0.381777
O O18 0.574876 0.500000 0.353259
O O19 0.728904 0.000000 0.919434
#
# Coordination Sequence:
#
# PCOD9374869 Si02
#       7
#     8   8   8   8   8   8   8
#     4  10  20  35  56  81 110 145 187 235 284 337
#     4   9  17  31  53  81 109 136 172 222 276 325
#     4   8  15  29  51  77 105 138 177 220 267 325
#     4  11  23  37  56  83 113 148 191 238 282 330
#     4  10  22  40  60  82 111 151 195 238 291 349
#     4   9  16  27  47  77 110 143 179 221 275 339
#     4  10  21  38  58  83 114 149 187 226 279 342
#
# _framework density 23.709301
#
# number of rings (size 3 to 8) (size 9 to 14) (size 15 to 20)
#    0.000    2.429    0.000    3.429    0.000    5.714 
#    0.000    2.857    0.000    7.714    0.000    0.000 
#    0.000    0.000    0.000    0.000    0.000    0.000 
#
# Total GULP energy -156233.375761 kJ/mol
# GULP energy per Si atom -5579.763420 kJ/mol
# Density = 2.365534 g / cm^3
# Si number density = 23.709301 Si / 1000 Ang^3
#
#
#
# Elastic Constant Matrix: (Units=GPa)
#
#
# Indices 1 2 3 4 5 6 
#
# 1 124.0394 -0.4835 24.7867 0.0000 0.0000 0.0000
# 2 -0.4835 42.5959 9.0950 0.0000 0.0000 0.0000
# 3 24.7867 9.0950 98.0071 0.0000 0.0000 0.0000
# 4 0.0000 0.0000 0.0000 67.3163 0.0000 0.0000
# 5 0.0000 0.0000 0.0000 0.0000 25.8360 0.0000
# 6 0.0000 0.0000 0.0000 0.0000 0.0000 -19.3991
#
#
#
# Elastic Compliance Matrix: (Units=1/GPa)
#
#
# Indices 1 2 3 4 5 6 
#
# 1 0.008504 0.000567 -0.002203 0.000000 0.000000 0.000000
# 2 0.000567 0.023989 -0.002370 0.000000 0.000000 0.000000
# 3 -0.002203 -0.002370 0.010981 0.000000 0.000000 0.000000
# 4 0.000000 0.000000 0.000000 0.014855 0.000000 0.000000
# 5 0.000000 0.000000 0.000000 0.000000 0.038706 0.000000
# 6 0.000000 0.000000 0.000000 0.000000 0.000000 -0.051549
#
#
# Mechanical properties :
#
#
# Convention : Reuss Voigt Hill
#
# Bulk Modulus (GPa) = 28.19934 36.82653 32.51293
# Shear Modulus (GPa) = 76.54788 30.16691 53.35740
#
# Velocity S-wave (km/s) = 5.68824 3.57089 4.74907
# Velocity P-wave (km/s) = 7.42032 5.70683 6.61925
#
# Compressibility (1/GPa) = 0.03546183
#
# Stress axis : x y z
#
# Youngs Moduli (GPa) = 117.58506 41.68606 91.07043
#
# Poissons Ratio (x) = -0.02364 0.20067
# Poissons Ratio (y) = -0.06667 0.21580
# Poissons Ratio (z) = 0.25909 0.09878
#
# Static dielectric constant tensor:
#      x y z
#    x 1.904860 0.000000 0.000000 
#    y 0.000000 1.878050 0.000000 
#    z 0.000000 0.000000 1.936850 
# 
# From -- ./inp_files/19204.got.cif
#   From: 2010.05.17/outbox.cif.g08.bks.cpg/sg44_10_cif.got.tgz:19204.got - 2010.06.03 19:37:08.
