data_PCOD9374514
_publ_section_title
;
Structure prediction by ZEFSAII (Michael W. Deem and Ramdas Pophale) SiO2 
 PCOD9374514
Probable space group: I M M 2
;
_chemical_formula_sum "Si O2"
_cell_formula_units_Z 64
_cell_length_a 8.868796
_cell_length_b 23.772717
_cell_length_c 19.423893
_cell_angle_alpha 90.000000
_cell_angle_beta 90.000000
_cell_angle_gamma 90.000000
_cell_volume 4095.243812
_symmetry_space_group_name_H-M "I M M 2"
_symmetry_group_IT_number 44
_symmetry_cell_setting 'orthorhombic'
loop_
_space_group_symop_operation_xyz
x,y,z
-x,-y,z
-x,y,z
x,-y,z
1/2+x,1/2+y,1/2+z
1/2-x,1/2-y,1/2+z
1/2-x,1/2+y,1/2+z
1/2+x,1/2-y,1/2+z
loop_
_atom_site_type_symbol
_atom_site_label
_atom_site_fract_x
_atom_site_fract_y
_atom_site_fract_z
Si Si1 0.680998 0.882779 0.058650
Si Si2 0.320280 0.228567 0.700508
Si Si3 0.320055 0.662029 0.322026
Si Si4 0.318630 0.065601 0.910321
Si Si5 0.180485 0.335614 0.777941
Si Si6 0.179635 0.728614 0.914042
Si Si7 0.819694 0.934536 0.196131
Si Si8 0.679395 0.250345 0.057578
O O1 0.500000 0.888272 0.067651
O O2 0.761971 0.912161 0.122458
O O3 0.716998 0.816464 0.056552
O O4 0.722317 0.911408 0.986239
O O5 0.500000 0.230805 0.702924
O O6 0.258331 0.180425 0.751220
O O7 0.252320 0.286913 0.730400
O O8 0.261812 0.222890 0.622929
O O9 0.500000 0.661535 0.312930
O O10 0.260507 0.604408 0.353892
O O11 0.284237 0.711941 0.376752
O O12 0.500000 0.071435 0.903804
O O13 0.280114 0.000000 0.904441
O O14 0.214651 0.318410 0.856604
O O15 0.244358 0.394780 0.753181
O O16 0.000000 0.333447 0.768919
O O17 0.000000 0.727800 0.927053
O O18 0.267360 0.724557 0.985117
O O19 0.000000 0.928921 0.199400
O O20 0.779738 0.000000 0.204076
O O21 0.500000 0.255425 0.065559
#
# Coordination Sequence:
#
# PCOD9374514 Si02
#       8
#     8   8   8   8   8   8   8   8
#     4  10  20  33  49  70 101 139 177 211 244 291
#     4  11  21  33  52  73 100 132 166 208 256 302
#     4  10  20  34  51  72 100 131 169 212 253 299
#     4  10  20  34  51  72 100 136 177 213 249 296
#     4  10  20  35  52  73  99 130 169 210 253 300
#     4   9  19  33  50  72  99 129 164 207 254 302
#     4  11  23  35  49  72 101 136 177 214 250 294
#     4  11  20  31  51  77 103 133 169 204 248 304
#
# _framework density 15.627884999999999
#
# number of rings (size 3 to 8) (size 9 to 14) (size 15 to 20)
#    0.000    1.750    2.500    3.750    0.000    5.250 
#    0.000    0.000    0.000    0.000    0.000    0.875 
#    0.000    3.000    0.000    0.000    0.000    0.000 
#
# Total GULP energy -178687.889365 kJ/mol
# GULP energy per Si atom -5583.996543 kJ/mol
# Density = 1.559232 g / cm^3
# Si number density = 15.627885 Si / 1000 Ang^3
#
#
#
# Elastic Constant Matrix: (Units=GPa)
#
#
# Indices 1 2 3 4 5 6 
#
# 1 61.2399 44.6936 64.4052 0.0000 0.0000 0.0000
# 2 44.6936 89.5694 67.0405 0.0000 0.0000 0.0000
# 3 64.4052 67.0405 132.0508 0.0000 0.0000 0.0000
# 4 0.0000 0.0000 0.0000 20.4412 0.0000 0.0000
# 5 0.0000 0.0000 0.0000 0.0000 29.2958 0.0000
# 6 0.0000 0.0000 0.0000 0.0000 0.0000 23.3275
#
#
#
# Elastic Compliance Matrix: (Units=1/GPa)
#
#
# Indices 1 2 3 4 5 6 
#
# 1 0.036716 -0.007931 -0.013881 0.000000 0.000000 0.000000
# 2 -0.007931 0.019720 -0.006144 0.000000 0.000000 0.000000
# 3 -0.013881 -0.006144 0.017462 0.000000 0.000000 0.000000
# 4 0.000000 0.000000 0.000000 0.048921 0.000000 0.000000
# 5 0.000000 0.000000 0.000000 0.000000 0.034135 0.000000
# 6 0.000000 0.000000 0.000000 0.000000 0.000000 0.042868
#
#
# Mechanical properties :
#
#
# Convention : Reuss Voigt Hill
#
# Bulk Modulus (GPa) = 55.59545 70.57096 63.08320
# Shear Modulus (GPa) = 19.10383 21.72764 20.41573
#
# Velocity S-wave (km/s) = 3.50010 3.73273 3.61829
# Velocity P-wave (km/s) = 7.21014 7.98955 7.60983
#
# Compressibility (1/GPa) = 0.01798708
#
# Stress axis : x y z
#
# Youngs Moduli (GPa) = 27.23624 50.70936 57.26721
#
# Poissons Ratio (x) = 0.40218 0.79492
# Poissons Ratio (y) = 0.21601 0.35182
# Poissons Ratio (z) = 0.37807 0.31153
#
# Static dielectric constant tensor:
#      x y z
#    x 1.519970 0.000000 0.000000 
#    y 0.000000 1.501730 0.000000 
#    z 0.000000 0.000000 1.510660 
# 
# From -- ./inp_files/20764.got.cif
#   From: 2010.05.17/outbox.cif.g08.bks.cpg/sg44_11_cif.got.tgz:20764.got - 2010.06.03 19:37:08.
