data_PCOD9374682
_publ_section_title
;
Structure prediction by ZEFSAII (Michael W. Deem and Ramdas Pophale) SiO2 
 PCOD9374682
Probable space group: I M M 2
;
_chemical_formula_sum "Si O2"
_cell_formula_units_Z 64
_cell_length_a 18.953970
_cell_length_b 28.815298
_cell_length_c 5.497208
_cell_angle_alpha 90.000000
_cell_angle_beta 90.000000
_cell_angle_gamma 90.000000
_cell_volume 3002.378725
_symmetry_space_group_name_H-M "I M M 2"
_symmetry_group_IT_number 44
_symmetry_cell_setting 'orthorhombic'
loop_
_space_group_symop_operation_xyz
x,y,z
-x,-y,z
-x,y,z
x,-y,z
1/2+x,1/2+y,1/2+z
1/2-x,1/2-y,1/2+z
1/2-x,1/2+y,1/2+z
1/2+x,1/2-y,1/2+z
loop_
_atom_site_type_symbol
_atom_site_label
_atom_site_fract_x
_atom_site_fract_y
_atom_site_fract_z
Si Si1 0.337747 0.615029 0.300400
Si Si2 0.416036 0.634856 0.780722
Si Si3 0.320223 0.130707 0.296464
Si Si4 0.072846 0.323058 0.494092
Si Si5 0.761322 0.197391 0.659712
Si Si6 0.781788 0.552653 0.427754
Si Si7 0.079311 0.414805 0.166835
Si Si8 0.864723 0.237006 0.305194
O O1 0.385136 0.608364 0.542625
O O2 0.290568 0.661691 0.360510
O O3 0.282525 0.572779 0.268690
O O4 0.380072 0.622692 0.044840
O O5 0.500000 0.628477 0.800885
O O6 0.398860 0.689129 0.721510
O O7 0.355697 0.171212 0.139856
O O8 0.270170 0.158356 0.477387
O O9 0.386912 0.104795 0.420649
O O10 0.284703 0.089721 0.146101
O O11 0.072759 0.369068 0.332496
O O12 0.079008 0.277490 0.333626
O O13 0.000000 0.321422 0.640727
O O14 0.830372 0.222723 0.562426
O O15 0.701780 0.236724 0.682050
O O16 0.770279 0.500000 0.504263
O O17 0.857547 0.555970 0.289962
O O18 0.000000 0.434876 0.142138
#
# Coordination Sequence:
#
# PCOD9374682 Si02
#       8
#     8   8   8   8   8   8   8   8
#     4  11  23  45  69  98 134 179 222 280 352 416
#     4  11  25  44  69  99 139 182 226 280 347 409
#     4  11  20  39  59  88 124 172 220 269 343 398
#     4  10  20  34  52  79 120 169 219 268 319 383
#     4  11  20  36  58  93 127 179 220 277 332 390
#     4  11  24  42  67  97 126 165 225 288 342 418
#     4  10  21  39  60  86 127 175 216 265 336 402
#     4  11  20  33  55  90 128 169 227 277 316 383
#
# _framework density 21.316433
#
# number of rings (size 3 to 8) (size 9 to 14) (size 15 to 20)
#    0.000    1.250    2.500    4.875    0.000    2.250 
#    0.000    2.500    0.000    2.250    0.000    0.000 
#    0.000    0.000    0.000    0.000    0.000    0.000 
#
# Total GULP energy -178335.876123 kJ/mol
# GULP energy per Si atom -5572.996129 kJ/mol
# Density = 2.126792 g / cm^3
# Si number density = 21.316433 Si / 1000 Ang^3
#
#
#
# Elastic Constant Matrix: (Units=GPa)
#
#
# Indices 1 2 3 4 5 6 
#
# 1 128.3496 17.8078 28.1726 0.0000 0.0000 0.0000
# 2 17.8078 76.7270 5.5544 0.0000 0.0000 0.0000
# 3 28.1726 5.5544 59.3767 0.0000 0.0001 0.0000
# 4 0.0000 0.0000 0.0000 12.3837 0.0000 0.0000
# 5 0.0000 0.0000 0.0001 0.0000 27.8250 0.0000
# 6 0.0000 0.0000 0.0000 0.0000 0.0000 -43.4296
#
#
#
# Elastic Compliance Matrix: (Units=1/GPa)
#
#
# Indices 1 2 3 4 5 6 
#
# 1 0.008932 -0.001778 -0.004071 0.000000 0.000000 0.000000
# 2 -0.001778 0.013476 -0.000417 0.000000 0.000000 0.000000
# 3 -0.004071 -0.000417 0.018812 0.000000 0.000000 0.000000
# 4 0.000000 0.000000 0.000000 0.080751 0.000000 0.000000
# 5 0.000000 0.000000 0.000000 0.000000 0.035939 0.000000
# 6 0.000000 0.000000 0.000000 0.000000 0.000000 -0.023026
#
#
# Mechanical properties :
#
#
# Convention : Reuss Voigt Hill
#
# Bulk Modulus (GPa) = 34.85900 40.83585 37.84743
# Shear Modulus (GPa) = 31.85118 13.55039 22.70078
#
# Velocity S-wave (km/s) = 3.86969 2.52400 3.26689
# Velocity P-wave (km/s) = 6.02948 5.26238 5.65894
#
# Compressibility (1/GPa) = 0.02868699
#
# Stress axis : x y z
#
# Youngs Moduli (GPa) = 111.96174 74.20532 53.15635
#
# Poissons Ratio (x) = 0.13195 0.21642
# Poissons Ratio (y) = 0.19909 0.02216
# Poissons Ratio (z) = 0.45585 0.03094
#
# Static dielectric constant tensor:
#      x y z
#    x 1.885970 0.000000 0.000000 
#    y 0.000000 1.742420 0.000000 
#    z 0.000000 0.000000 1.886130 
# 
# From -- ./inp_files/2187.got.cif
#   From: 2010.05.17/outbox.cif.g08.bks.cpg/sg44_2_cif.got.tgz:2187.got - 2010.06.03 19:37:08.
