data_PCOD9374964
_publ_section_title
;
Structure prediction by ZEFSAII (Michael W. Deem and Ramdas Pophale) SiO2 
 PCOD9374964
Probable space group: I M M 2
;
_chemical_formula_sum "Si O2"
_cell_formula_units_Z 64
_cell_length_a 7.862254
_cell_length_b 29.095713
_cell_length_c 13.537256
_cell_angle_alpha 90.000000
_cell_angle_beta 90.000000
_cell_angle_gamma 90.000000
_cell_volume 3096.754064
_symmetry_space_group_name_H-M "I M M 2"
_symmetry_group_IT_number 44
_symmetry_cell_setting 'orthorhombic'
loop_
_space_group_symop_operation_xyz
x,y,z
-x,-y,z
-x,y,z
x,-y,z
1/2+x,1/2+y,1/2+z
1/2-x,1/2-y,1/2+z
1/2-x,1/2+y,1/2+z
1/2+x,1/2-y,1/2+z
loop_
_atom_site_type_symbol
_atom_site_label
_atom_site_fract_x
_atom_site_fract_y
_atom_site_fract_z
Si Si1 0.695787 0.298622 0.052140
Si Si2 0.698912 0.614483 0.478357
Si Si3 0.201654 0.122859 0.412118
Si Si4 0.200805 0.258701 0.716320
Si Si5 0.200914 0.136299 0.193548
Si Si6 0.702956 0.947273 0.578297
Si Si7 0.705537 0.553260 0.296832
Si Si8 0.694831 0.213297 0.913258
O O1 0.500000 0.314621 0.068701
O O2 0.774314 0.285264 0.156428
O O3 0.774572 0.334614 0.976283
O O4 0.692016 0.248260 0.004171
O O5 0.500000 0.602074 0.487808
O O6 0.773112 0.616149 0.590280
O O7 0.769897 0.581688 0.391796
O O8 0.711782 0.666483 0.438707
O O9 0.271147 0.119568 0.300266
O O10 0.223922 0.080148 0.485318
O O11 0.000000 0.132143 0.398577
O O12 0.280581 0.308294 0.695050
O O13 0.224774 0.243744 0.828015
O O14 0.000000 0.262922 0.695665
O O15 0.000000 0.125599 0.191464
O O16 0.500000 0.946989 0.568539
O O17 0.745493 0.928206 0.687838
O O18 0.764841 0.000000 0.577067
O O19 0.500000 0.553790 0.299477
O O20 0.762922 0.500000 0.302314
O O21 0.500000 0.202010 0.888281
#
# Coordination Sequence:
#
# PCOD9374964 Si02
#       8
#     8   8   8   8   8   8   8   8
#     4   9  19  34  51  73 107 145 183 225 267 314
#     4  10  21  36  56  85 114 143 185 232 277 328
#     4  10  20  37  58  80 110 149 189 226 272 330
#     4  11  21  34  51  75 108 149 191 232 276 322
#     4  10  20  36  56  80 113 150 186 229 275 323
#     4  10  22  40  60  85 114 139 175 231 283 330
#     4   9  19  38  62  84 110 145 180 221 279 339
#     4  11  21  36  53  76 110 149 188 227 274 325
#
# _framework density 20.666801
#
# number of rings (size 3 to 8) (size 9 to 14) (size 15 to 20)
#    0.000    2.000    2.500    1.125    1.750    1.750 
#    0.000    1.250    0.000    2.250    0.000    1.750 
#    0.000    0.000    0.000    0.000    0.000    0.000 
#
# Total GULP energy -178338.828466 kJ/mol
# GULP energy per Si atom -5573.088390 kJ/mol
# Density = 2.061976 g / cm^3
# Si number density = 20.666801 Si / 1000 Ang^3
#
#
#
# Elastic Constant Matrix: (Units=GPa)
#
#
# Indices 1 2 3 4 5 6 
#
# 1 23.7914 -8.3922 -5.1753 0.0000 0.0000 0.0000
# 2 -8.3922 44.6277 35.2524 0.0000 0.0000 -0.0001
# 3 -5.1753 35.2524 118.2453 0.0000 0.0000 0.0000
# 4 0.0000 0.0000 0.0000 37.7628 0.0000 0.0000
# 5 0.0000 0.0000 0.0000 0.0000 11.4028 0.0000
# 6 0.0000 -0.0001 0.0000 0.0000 0.0000 6.9493
#
#
#
# Elastic Compliance Matrix: (Units=1/GPa)
#
#
# Indices 1 2 3 4 5 6 
#
# 1 0.045066 0.009047 -0.000725 0.000000 0.000000 0.000000
# 2 0.009047 0.031126 -0.008884 0.000000 0.000000 0.000000
# 3 -0.000725 -0.008884 0.011074 0.000000 0.000000 0.000000
# 4 0.000000 0.000000 0.000000 0.026481 0.000000 0.000000
# 5 0.000000 0.000000 0.000000 0.000000 0.087697 0.000000
# 6 0.000000 0.000000 0.000000 0.000000 0.000000 0.143899
#
#
# Mechanical properties :
#
#
# Convention : Reuss Voigt Hill
#
# Bulk Modulus (GPa) = 11.60863 25.55937 18.58400
# Shear Modulus (GPa) = 13.32691 22.22162 17.77427
#
# Velocity S-wave (km/s) = 2.54214 3.28263 2.93582
# Velocity P-wave (km/s) = 3.77437 5.17318 4.52811
#
# Compressibility (1/GPa) = 0.08614280
#
# Stress axis : x y z
#
# Youngs Moduli (GPa) = 22.18991 32.12710 90.30348
#
# Poissons Ratio (x) = -0.29066 0.06545
# Poissons Ratio (y) = -0.20075 0.80223
# Poissons Ratio (z) = 0.01608 0.28541
#
# Static dielectric constant tensor:
#      x y z
#    x 1.775000 0.000000 0.000000 
#    y 0.000000 1.720200 0.000000 
#    z 0.000000 0.000000 1.816120 
# 
# From -- ./inp_files/11558.got.cif
#   From: 2010.05.17/outbox.cif.g08.bks.cpg/sg44_6_cif.got.tgz:11558.got - 2010.06.03 19:37:08.
