data_PCOD9374291
_publ_section_title
;
Structure prediction by ZEFSAII (Michael W. Deem and Ramdas Pophale) SiO2 
 PCOD9374291
Probable space group: I M M 2
;
_chemical_formula_sum "Si O2"
_cell_formula_units_Z 48
_cell_length_a 21.160293
_cell_length_b 7.655951
_cell_length_c 14.901991
_cell_angle_alpha 90.000000
_cell_angle_beta 90.000000
_cell_angle_gamma 90.000000
_cell_volume 2414.154825
_symmetry_space_group_name_H-M "I M M 2"
_symmetry_group_IT_number 44
_symmetry_cell_setting 'orthorhombic'
loop_
_space_group_symop_operation_xyz
x,y,z
-x,-y,z
-x,y,z
x,-y,z
1/2+x,1/2+y,1/2+z
1/2-x,1/2-y,1/2+z
1/2-x,1/2+y,1/2+z
1/2+x,1/2-y,1/2+z
loop_
_atom_site_type_symbol
_atom_site_label
_atom_site_fract_x
_atom_site_fract_y
_atom_site_fract_z
Si Si1 0.763374 0.292889 0.685770
Si Si2 0.929650 0.204555 0.381497
Si Si3 0.071106 0.286145 0.993994
Si Si4 0.810835 0.210941 0.491598
Si Si5 0.382387 0.798243 0.687159
Si Si6 0.689052 0.786622 0.377137
O O1 0.753231 0.500000 0.695095
O O2 0.801256 0.258544 0.594874
O O3 0.693452 0.212379 0.680670
O O4 0.799439 0.231144 0.774941
O O5 0.874463 0.279080 0.444661
O O6 0.906523 0.213862 0.278632
O O7 0.000000 0.280870 0.390228
O O8 0.934092 0.000000 0.404573
O O9 0.072985 0.500000 0.995385
O O10 0.089048 0.226977 0.094553
O O11 0.000000 0.233458 0.971034
O O12 0.124708 0.228004 0.924490
O O13 0.749307 0.270179 0.435962
O O14 0.811130 0.000000 0.485404
O O15 0.401611 0.000000 0.693350
O O16 0.688138 0.000000 0.378140
#
# Coordination Sequence:
#
# PCOD9374291 Si02
#       6
#     8   8   8   8   8   8
#     4  11  21  34  54  82 109 138 180 226 267 317
#     4  10  21  37  56  78 109 149 185 223 278 335
#     4   9  17  30  50  76 103 133 169 210 261 317
#     4  10  19  36  56  76 106 143 181 221 267 324
#     4  11  20  32  54  83 112 140 174 224 277 328
#     4   9  17  32  52  73 103 138 172 212 260 317
#
# _framework density 19.882735
#
# number of rings (size 3 to 8) (size 9 to 14) (size 15 to 20)
#    0.000    2.000    3.333    1.500    0.000    1.667 
#    0.000    0.833    0.000    1.000    0.000    0.000 
#    0.000    0.000    0.000    0.000    0.000    0.000 
#
# Total GULP energy -134035.625532 kJ/mol
# GULP energy per Si atom -5584.817730 kJ/mol
# Density = 1.983748 g / cm^3
# Si number density = 19.882735 Si / 1000 Ang^3
#
#
#
# Elastic Constant Matrix: (Units=GPa)
#
#
# Indices 1 2 3 4 5 6 
#
# 1 176.0367 1.5780 95.0841 0.0000 0.0000 0.0000
# 2 1.5780 36.5769 -3.9405 0.0000 0.0000 0.0000
# 3 95.0841 -3.9405 166.2987 0.0000 0.0000 0.0000
# 4 0.0000 0.0000 0.0000 18.7244 0.0000 0.0000
# 5 0.0000 0.0000 0.0000 0.0000 19.4387 0.0000
# 6 0.0000 0.0000 0.0000 0.0000 0.0000 -0.4880
#
#
#
# Elastic Compliance Matrix: (Units=1/GPa)
#
#
# Indices 1 2 3 4 5 6 
#
# 1 0.008246 -0.000866 -0.004735 0.000000 0.000000 0.000000
# 2 -0.000866 0.027501 0.001147 0.000000 0.000000 0.000000
# 3 -0.004735 0.001147 0.008748 0.000000 0.000000 0.000000
# 4 0.000000 0.000000 0.000000 0.053406 0.000000 0.000000
# 5 0.000000 0.000000 0.000000 0.000000 0.051444 0.000000
# 6 0.000000 0.000000 0.000000 0.000000 0.000000 -2.049385
#
#
# Mechanical properties :
#
#
# Convention : Reuss Voigt Hill
#
# Bulk Modulus (GPa) = 28.10125 62.70616 45.40371
# Shear Modulus (GPa) = -2.66061 26.61440 11.97690
#
# Velocity S-wave (km/s) = -1.15804 3.66261 2.45700
# Velocity P-wave (km/s) = 3.51797 7.03511 5.56187
#
# Compressibility (1/GPa) = 0.03558560
#
# Stress axis : x y z
#
# Youngs Moduli (GPa) = 121.26848 36.36285 114.31188
#
# Poissons Ratio (x) = 0.03149 0.54131
# Poissons Ratio (y) = 0.10501 -0.13109
# Poissons Ratio (z) = 0.57426 -0.04170
#
# Static dielectric constant tensor:
#      x y z
#    x 1.690520 0.000000 0.000000 
#    y 0.000000 1.745240 0.000000 
#    z 0.000000 0.000000 1.668490 
# 
# From -- ./inp_files/16092.got.cif
#   From: 2010.05.17/outbox.cif.g08.bks.cpg/sg44_9_cif.got.tgz:16092.got - 2010.06.03 19:37:08.
