data_PCOD9374194
_publ_section_title
;
Structure prediction by ZEFSAII (Michael W. Deem and Ramdas Pophale) SiO2 
 PCOD9374194
Probable space group: I M M 2
;
_chemical_formula_sum "Si O2"
_cell_formula_units_Z 58
_cell_length_a 20.092435
_cell_length_b 7.352140
_cell_length_c 15.651798
_cell_angle_alpha 90.000000
_cell_angle_beta 90.000000
_cell_angle_gamma 90.000000
_cell_volume 2312.121088
_symmetry_space_group_name_H-M "I M M 2"
_symmetry_group_IT_number 44
_symmetry_cell_setting 'orthorhombic'
loop_
_space_group_symop_operation_xyz
x,y,z
-x,-y,z
-x,y,z
x,-y,z
1/2+x,1/2+y,1/2+z
1/2-x,1/2-y,1/2+z
1/2-x,1/2+y,1/2+z
1/2+x,1/2-y,1/2+z
loop_
_atom_site_type_symbol
_atom_site_label
_atom_site_fract_x
_atom_site_fract_y
_atom_site_fract_z
Si Si1 0.219474 0.722423 0.957330
Si Si2 0.842523 0.792490 0.365133
Si Si3 0.074256 0.722425 0.903219
Si Si4 0.574699 0.780869 0.028047
Si Si5 0.399105 0.708660 0.698237
Si Si6 0.890583 0.708216 0.714093
Si Si7 0.000000 0.500000 0.133302
Si Si8 0.749508 0.281843 0.146395
O O1 0.219410 0.500000 0.954493
O O2 0.268961 0.786833 0.881875
O O3 0.142446 0.780097 0.949947
O O4 0.251936 0.776845 0.047346
O O5 0.876269 0.792822 0.457342
O O6 0.895082 0.718053 0.296381
O O7 0.832600 0.000000 0.337043
O O8 0.074228 0.500000 0.906968
O O9 0.084885 0.781570 0.804470
O O10 0.000000 0.777859 0.932680
O O11 0.500000 0.738973 0.001589
O O12 0.585503 0.711156 0.124320
O O13 0.583185 0.000000 0.029988
O O14 0.422044 0.500000 0.693771
O O15 0.321637 0.720745 0.675545
O O16 0.442206 0.841267 0.640734
O O17 0.914479 0.500000 0.714794
O O18 0.810950 0.710007 0.703060
O O19 0.745972 0.500000 0.149331
#
# Coordination Sequence:
#
# PCOD9374194 Si02
#       8
#     8   8   8   8   8   8   2   8
#     4   9  18  34  56  87 125 163 213 268 321 389
#     4  10  21  38  59  85 121 165 213 262 323 394
#     4   9  17  32  56  86 118 156 206 265 329 393
#     4  10  21  33  52  84 123 163 207 265 325 387
#     4  11  25  44  68  95 130 174 220 270 331 391
#     4  10  19  34  58  87 121 160 206 263 327 391
#     4  12  26  48  68  98 132 172 218 280 324 398
#     4  11  21  38  60  90 124 163 216 270 322 380
#
# _framework density 25.085191999999999
#
# number of rings (size 3 to 8) (size 9 to 14) (size 15 to 20)
#    0.000    1.931    2.069    1.862    1.931    4.138 
#    1.241    0.000    0.000    2.069    0.000    0.000 
#    0.000    0.000    0.000    0.000    0.000    0.000 
#
# Total GULP energy -161873.516642 kJ/mol
# GULP energy per Si atom -5581.845401 kJ/mol
# Density = 2.502810 g / cm^3
# Si number density = 25.085192 Si / 1000 Ang^3
#
#
#
# Elastic Constant Matrix: (Units=GPa)
#
#
# Indices 1 2 3 4 5 6 
#
# 1 133.0957 8.9532 -12.6698 0.0000 0.0000 0.0000
# 2 8.9532 119.4505 -2.6264 0.0000 0.0000 0.0000
# 3 -12.6698 -2.6264 36.7193 0.0000 0.0000 0.0000
# 4 0.0000 0.0000 0.0000 171.9153 0.0000 0.0000
# 5 0.0000 0.0000 0.0000 0.0000 19.5370 0.0000
# 6 0.0000 0.0000 0.0000 0.0000 0.0000 17.9014
#
#
#
# Elastic Compliance Matrix: (Units=1/GPa)
#
#
# Indices 1 2 3 4 5 6 
#
# 1 0.007801 -0.000526 0.002654 0.000000 0.000000 0.000000
# 2 -0.000526 0.008420 0.000421 0.000000 0.000000 0.000000
# 3 0.002654 0.000421 0.028180 0.000000 0.000000 0.000000
# 4 0.000000 0.000000 0.000000 0.005817 0.000000 0.000000
# 5 0.000000 0.000000 0.000000 0.000000 0.051185 0.000000
# 6 0.000000 0.000000 0.000000 0.000000 0.000000 0.055862
#
#
# Mechanical properties :
#
#
# Convention : Reuss Voigt Hill
#
# Bulk Modulus (GPa) = 20.20267 30.73103 25.46685
# Shear Modulus (GPa) = 29.64419 61.57799 45.61109
#
# Velocity S-wave (km/s) = 3.44137 4.95992 4.26872
# Velocity P-wave (km/s) = 4.88486 6.71404 5.87113
#
# Compressibility (1/GPa) = 0.04949841
#
# Stress axis : x y z
#
# Youngs Moduli (GPa) = 128.18104 118.75958 35.48668
#
# Poissons Ratio (x) = 0.06251 -0.09419
# Poissons Ratio (y) = 0.06747 -0.01493
# Poissons Ratio (z) = -0.34022 -0.04996
#
# Static dielectric constant tensor:
#      x y z
#    x 1.953780 0.000000 0.000000 
#    y 0.000000 1.957240 0.000000 
#    z 0.000000 0.000000 2.074030 
# 
# From -- ./inp_files/22120.got.cif
#   From: 2010.05.17/outbox.cif.g08.bks.cpg/sg44_12_cif.got.tgz:22120.got - 2010.06.03 19:37:08.
