data_PCOD9374342
_publ_section_title
;
Structure prediction by ZEFSAII (Michael W. Deem and Ramdas Pophale) SiO2 
 PCOD9374342
Probable space group: I M M 2
;
_chemical_formula_sum "Si O2"
_cell_formula_units_Z 64
_cell_length_a 24.244211
_cell_length_b 8.714298
_cell_length_c 15.775795
_cell_angle_alpha 90.000000
_cell_angle_beta 90.000000
_cell_angle_gamma 90.000000
_cell_volume 3332.972394
_symmetry_space_group_name_H-M "I M M 2"
_symmetry_group_IT_number 44
_symmetry_cell_setting 'orthorhombic'
loop_
_space_group_symop_operation_xyz
x,y,z
-x,-y,z
-x,y,z
x,-y,z
1/2+x,1/2+y,1/2+z
1/2-x,1/2-y,1/2+z
1/2-x,1/2+y,1/2+z
1/2+x,1/2-y,1/2+z
loop_
_atom_site_type_symbol
_atom_site_label
_atom_site_fract_x
_atom_site_fract_y
_atom_site_fract_z
Si Si1 0.934763 0.681999 0.980680
Si Si2 0.370972 0.683645 0.321309
Si Si3 0.362057 0.182281 0.815604
Si Si4 0.754240 0.318620 0.871269
Si Si5 0.132871 0.181278 0.136352
Si Si6 0.435543 0.685577 0.966473
Si Si7 0.631505 0.686615 0.131854
Si Si8 0.752988 0.317616 0.074739
O O1 0.925070 0.500000 0.988973
O O2 0.907527 0.739203 0.893664
O O3 0.000000 0.711224 0.980787
O O4 0.905137 0.765053 0.058799
O O5 0.376341 0.500000 0.327574
O O6 0.307572 0.730448 0.337280
O O7 0.386079 0.733828 0.225892
O O8 0.302005 0.256215 0.831504
O O9 0.382479 0.235332 0.723573
O O10 0.402324 0.241833 0.889026
O O11 0.357312 0.000000 0.818949
O O12 0.759770 0.500000 0.854232
O O13 0.751429 0.298568 0.973131
O O14 0.195290 0.228980 0.112641
O O15 0.129119 0.000000 0.147763
O O16 0.500000 0.724159 0.964163
O O17 0.430258 0.500000 0.960925
O O18 0.407685 0.735308 0.055056
O O19 0.631795 0.500000 0.131233
O O20 0.694438 0.733690 0.112557
O O21 0.760019 0.500000 0.092096
#
# Coordination Sequence:
#
# PCOD9374342 Si02
#       8
#     8   8   8   8   8   8   8   8
#     4  11  25  45  65  86 120 166 211 258 313 369
#     4  11  22  37  63  96 128 162 204 254 310 372
#     4  12  25  41  63  91 128 165 205 253 310 375
#     4  11  21  37  64  93 127 166 205 250 308 369
#     4  12  25  41  65  94 124 157 205 257 311 375
#     4  10  21  41  66  89 118 160 211 260 308 365
#     4   9  19  37  61  91 123 160 202 247 301 359
#     4  10  19  36  63  91 127 164 198 246 308 369
#
# _framework density 19.202079999999999
#
# number of rings (size 3 to 8) (size 9 to 14) (size 15 to 20)
#    0.000    1.250    2.500    4.125    0.000    3.750 
#    0.000    3.125    0.000    0.000    0.000    0.000 
#    0.000    0.000    0.000    0.000    0.000    0.000 
#
# Total GULP energy -178978.480860 kJ/mol
# GULP energy per Si atom -5593.077527 kJ/mol
# Density = 1.915838 g / cm^3
# Si number density = 19.202080 Si / 1000 Ang^3
#
#
#
# Elastic Constant Matrix: (Units=GPa)
#
#
# Indices 1 2 3 4 5 6 
#
# 1 62.2565 15.4262 22.5209 0.0000 0.0000 0.0000
# 2 15.4262 30.1601 11.1507 0.0000 0.0000 0.0000
# 3 22.5209 11.1507 110.6664 0.0000 0.0000 0.0000
# 4 0.0000 0.0000 0.0000 24.7764 0.0000 0.0000
# 5 0.0000 0.0000 0.0000 0.0000 -7.1463 0.0000
# 6 0.0000 0.0000 0.0000 0.0000 0.0000 -11.9445
#
#
#
# Elastic Compliance Matrix: (Units=1/GPa)
#
#
# Indices 1 2 3 4 5 6 
#
# 1 0.019338 -0.008762 -0.003052 0.000000 0.000000 0.000000
# 2 -0.008762 0.038410 -0.002087 0.000000 0.000000 0.000000
# 3 -0.003052 -0.002087 0.009868 0.000000 0.000000 0.000000
# 4 0.000000 0.000000 0.000000 0.040361 0.000000 0.000000
# 5 0.000000 0.000000 0.000000 0.000000 -0.139932 0.000000
# 6 0.000000 0.000000 0.000000 0.000000 0.000000 -0.083720
#
#
# Mechanical properties :
#
#
# Convention : Reuss Voigt Hill
#
# Bulk Modulus (GPa) = 25.11825 33.47541 29.29683
# Shear Modulus (GPa) = -67.02238 11.40280 -27.80979
#
# Velocity S-wave (km/s) = -5.91435 2.43951 -3.80974
# Velocity P-wave (km/s) = 5.79050 5.04044 2.01543
#
# Compressibility (1/GPa) = 0.03981169
#
# Stress axis : x y z
#
# Youngs Moduli (GPa) = 51.71173 26.03510 101.34149
#
# Poissons Ratio (x) = 0.22813 0.30934
# Poissons Ratio (y) = 0.45312 0.21150
# Poissons Ratio (z) = 0.15785 0.05433
#
# Static dielectric constant tensor:
#      x y z
#    x 1.635640 0.000000 0.000000 
#    y 0.000000 1.643400 0.000000 
#    z 0.000000 0.000000 1.663370 
# 
# From -- ./inp_files/19450.got.cif
#   From: 2010.05.17/outbox.cif.g08.bks.cpg/sg44_10_cif.got.tgz:19450.got - 2010.06.03 19:37:08.
