data_PCOD9374187
_publ_section_title
;
Structure prediction by ZEFSAII (Michael W. Deem and Ramdas Pophale) SiO2 
 PCOD9374187
Probable space group: I M M 2
;
_chemical_formula_sum "Si O2"
_cell_formula_units_Z 48
_cell_length_a 8.577766
_cell_length_b 14.888071
_cell_length_c 20.968983
_cell_angle_alpha 90.000000
_cell_angle_beta 90.000000
_cell_angle_gamma 90.000000
_cell_volume 2677.873105
_symmetry_space_group_name_H-M "I M M 2"
_symmetry_group_IT_number 44
_symmetry_cell_setting 'orthorhombic'
loop_
_space_group_symop_operation_xyz
x,y,z
-x,-y,z
-x,y,z
x,-y,z
1/2+x,1/2+y,1/2+z
1/2-x,1/2-y,1/2+z
1/2-x,1/2+y,1/2+z
1/2+x,1/2-y,1/2+z
loop_
_atom_site_type_symbol
_atom_site_label
_atom_site_fract_x
_atom_site_fract_y
_atom_site_fract_z
Si Si1 0.189037 0.194138 0.428200
Si Si2 0.188229 0.807050 0.572981
Si Si3 0.685756 0.690913 0.311388
Si Si4 0.687169 0.696368 0.691066
Si Si5 0.188245 0.000000 0.628333
Si Si6 0.310289 0.500000 0.729942
Si Si7 0.810414 0.000000 0.377605
Si Si8 0.814290 0.500000 0.272462
O O1 0.235528 0.214628 0.500737
O O2 0.256426 0.260753 0.375495
O O3 0.000000 0.197218 0.424409
O O4 0.238284 0.092198 0.411033
O O5 0.257707 0.741744 0.625960
O O6 0.232415 0.909304 0.591336
O O7 0.000000 0.802401 0.576200
O O8 0.500000 0.689189 0.309256
O O9 0.747375 0.747682 0.250865
O O10 0.749882 0.590230 0.304581
O O11 0.500000 0.699170 0.694848
O O12 0.739391 0.592841 0.697604
O O13 0.259976 0.000000 0.698711
O O14 0.000000 0.000000 0.634904
O O15 0.500000 0.500000 0.730078
O O16 0.260447 0.500000 0.803879
O O17 0.000000 0.000000 0.378247
O O18 0.000000 0.500000 0.274870
#
# Coordination Sequence:
#
# PCOD9374187 Si02
#       8
#     8   8   8   8   4   4   4   4
#     4  10  20  37  60  86 118 159 201 238 289 354
#     4  10  21  36  57  87 122 157 193 239 293 348
#     4  12  24  39  59  86 120 154 192 244 300 352
#     4  11  21  37  60  84 114 154 199 243 290 350
#     4  10  19  34  57  89 127 157 187 236 297 353
#     4   9  18  33  57  86 111 143 195 243 281 334
#     4   9  15  30  58  87 114 146 190 240 284 336
#     4  12  24  39  62  90 114 150 200 247 292 353
#
# _framework density 17.924672999999999
#
# number of rings (size 3 to 8) (size 9 to 14) (size 15 to 20)
#    0.000    1.500    3.333    3.250    0.000    2.667 
#    0.000    3.750    0.000    6.000    0.000    0.000 
#    0.000    0.000    0.000    0.000    0.000    0.000 
#
# Total GULP energy -134086.613264 kJ/mol
# GULP energy per Si atom -5586.942219 kJ/mol
# Density = 1.788388 g / cm^3
# Si number density = 17.924673 Si / 1000 Ang^3
#
#
#
# Elastic Constant Matrix: (Units=GPa)
#
#
# Indices 1 2 3 4 5 6 
#
# 1 47.6205 44.6051 50.9764 0.0000 0.0000 0.0000
# 2 44.6051 173.7614 105.4190 0.0000 0.0000 0.0000
# 3 50.9764 105.4190 183.3264 0.0000 0.0000 0.0000
# 4 0.0000 0.0000 0.0000 22.7507 0.0000 0.0000
# 5 0.0000 0.0000 0.0000 0.0000 30.1812 0.0000
# 6 0.0000 0.0000 0.0000 0.0000 0.0000 14.3769
#
#
#
# Elastic Compliance Matrix: (Units=1/GPa)
#
#
# Indices 1 2 3 4 5 6 
#
# 1 0.031868 -0.004307 -0.006385 0.000000 0.000000 0.000000
# 2 -0.004307 0.009421 -0.004219 0.000000 0.000000 0.000000
# 3 -0.006385 -0.004219 0.009656 0.000000 0.000000 0.000000
# 4 0.000000 0.000000 0.000000 0.043955 0.000000 0.000000
# 5 0.000000 0.000000 0.000000 0.000000 0.033133 0.000000
# 6 0.000000 0.000000 0.000000 0.000000 0.000000 0.069556
#
#
# Mechanical properties :
#
#
# Convention : Reuss Voigt Hill
#
# Bulk Modulus (GPa) = 47.34233 89.63435 68.48834
# Shear Modulus (GPa) = 21.32625 27.04229 24.18427
#
# Velocity S-wave (km/s) = 3.45305 3.88836 3.67715
# Velocity P-wave (km/s) = 6.50901 8.38295 7.50470
#
# Compressibility (1/GPa) = 0.02112275
#
# Stress axis : x y z
#
# Youngs Moduli (GPa) = 31.37902 106.15018 103.55780
#
# Poissons Ratio (x) = 0.45721 0.66118
# Poissons Ratio (y) = 0.13516 0.43696
# Poissons Ratio (z) = 0.20034 0.44790
#
# Static dielectric constant tensor:
#      x y z
#    x 1.613550 0.000000 0.000000 
#    y 0.000000 1.602190 0.000000 
#    z 0.000000 0.000000 1.584470 
# 
# From -- ./inp_files/20356.got.cif
#   From: 2010.05.17/outbox.cif.g08.bks.cpg/sg44_11_cif.got.tgz:20356.got - 2010.06.03 19:37:08.
