data_PCOD9374166
_publ_section_title
;
Structure prediction by ZEFSAII (Michael W. Deem and Ramdas Pophale) SiO2 
 PCOD9374166
Probable space group: I M M 2
;
_chemical_formula_sum "Si O2"
_cell_formula_units_Z 40
_cell_length_a 7.694779
_cell_length_b 29.396253
_cell_length_c 9.519223
_cell_angle_alpha 90.000000
_cell_angle_beta 90.000000
_cell_angle_gamma 90.000000
_cell_volume 2153.226065
_symmetry_space_group_name_H-M "I M M 2"
_symmetry_group_IT_number 44
_symmetry_cell_setting 'orthorhombic'
loop_
_space_group_symop_operation_xyz
x,y,z
-x,-y,z
-x,y,z
x,-y,z
1/2+x,1/2+y,1/2+z
1/2-x,1/2-y,1/2+z
1/2-x,1/2+y,1/2+z
1/2+x,1/2-y,1/2+z
loop_
_atom_site_type_symbol
_atom_site_label
_atom_site_fract_x
_atom_site_fract_y
_atom_site_fract_z
Si Si1 0.500000 0.054278 0.062750
Si Si2 0.789567 0.210962 0.536091
Si Si3 0.293020 0.607815 0.066800
Si Si4 0.804555 0.101875 0.232337
Si Si5 0.702667 0.796647 0.214811
Si Si6 0.000000 0.554502 0.231953
O O1 0.666537 0.074879 0.141278
O O2 0.500000 0.000000 0.075674
O O3 0.500000 0.065811 0.897531
O O4 0.745391 0.160815 0.593632
O O5 0.719026 0.214442 0.379100
O O6 0.730657 0.253598 0.627839
O O7 0.000000 0.211754 0.528359
O O8 0.500000 0.601711 0.093472
O O9 0.264611 0.599809 0.899566
O O10 0.169229 0.575819 0.157008
O O11 0.795194 0.155263 0.192503
O O12 0.000000 0.084967 0.211225
O O13 0.500000 0.803594 0.179700
O O14 0.000000 0.500000 0.216770
#
# Coordination Sequence:
#
# PCOD9374166 Si02
#       6
#     4   8   8   8   8   4
#     4  11  25  43  61  89 123 155 201 251 308 371
#     4   9  20  35  52  83 119 153 198 240 286 349
#     4   9  20  40  62  86 118 155 198 248 297 353
#     4  10  21  40  64  88 120 158 200 252 300 354
#     4  10  19  34  56  84 119 156 196 242 290 346
#     4  11  25  41  61  89 119 155 197 251 308 361
#
# _framework density 18.576778000000001
#
# number of rings (size 3 to 8) (size 9 to 14) (size 15 to 20)
#    0.000    2.200    1.000    2.400    4.200    6.400 
#    0.000    6.000    0.000    0.000    0.000    0.000 
#    0.000    0.000    0.000    0.000    0.000    0.000 
#
# Total GULP energy -111659.846904 kJ/mol
# GULP energy per Si atom -5582.992345 kJ/mol
# Density = 1.853450 g / cm^3
# Si number density = 18.576778 Si / 1000 Ang^3
#
#
#
# Elastic Constant Matrix: (Units=GPa)
#
#
# Indices 1 2 3 4 5 6 
#
# 1 98.6054 59.9080 68.1535 0.0000 0.0000 0.0000
# 2 59.9080 100.5900 79.0630 -0.0001 0.0000 0.0000
# 3 68.1535 79.0630 85.9657 0.0001 -0.0001 0.0000
# 4 0.0000 -0.0001 0.0001 39.0059 -0.0001 0.0000
# 5 0.0000 0.0000 -0.0001 -0.0001 61.1419 0.0000
# 6 0.0000 0.0000 0.0000 0.0000 0.0000 28.9299
#
#
#
# Elastic Compliance Matrix: (Units=1/GPa)
#
#
# Indices 1 2 3 4 5 6 
#
# 1 0.022575 0.002246 -0.019962 0.000000 0.000000 0.000000
# 2 0.002246 0.036097 -0.034979 0.000000 0.000000 0.000000
# 3 -0.019962 -0.034979 0.059629 0.000000 0.000000 0.000000
# 4 0.000000 0.000000 0.000000 0.025637 0.000000 0.000000
# 5 0.000000 0.000000 0.000000 0.000000 0.016355 0.000000
# 6 0.000000 0.000000 0.000000 0.000000 0.000000 0.034566
#
#
# Mechanical properties :
#
#
# Convention : Reuss Voigt Hill
#
# Bulk Modulus (GPa) = 77.46418 77.71222 77.58820
# Shear Modulus (GPa) = 16.41739 31.01798 23.71768
#
# Velocity S-wave (km/s) = 2.97603 4.09065 3.57702
# Velocity P-wave (km/s) = 7.32114 8.01468 7.67574
#
# Compressibility (1/GPa) = 0.01290919
#
# Stress axis : x y z
#
# Youngs Moduli (GPa) = 44.29759 27.70290 16.77027
#
# Poissons Ratio (x) = -0.06221 0.33478
# Poissons Ratio (y) = -0.09948 0.58661
# Poissons Ratio (z) = 0.88429 0.96903
#
# Static dielectric constant tensor:
#      x y z
#    x 1.624030 0.000000 0.000000 
#    y 0.000000 1.631010 0.000000 
#    z 0.000000 0.000000 1.609340 
# 
# From -- ./inp_files/4675.got.cif
#   From: 2010.05.17/outbox.cif.g08.bks.cpg/sg44_3_cif.got.tgz:4675.got - 2010.06.03 19:37:08.
