data_PCOD9374140
_publ_section_title
;
Structure prediction by ZEFSAII (Michael W. Deem and Ramdas Pophale) SiO2 
 PCOD9374140
Probable space group: I M M 2
;
_chemical_formula_sum "Si O2"
_cell_formula_units_Z 64
_cell_length_a 16.132209
_cell_length_b 23.867312
_cell_length_c 9.175481
_cell_angle_alpha 90.000000
_cell_angle_beta 90.000000
_cell_angle_gamma 90.000000
_cell_volume 3532.858071
_symmetry_space_group_name_H-M "I M M 2"
_symmetry_group_IT_number 44
_symmetry_cell_setting 'orthorhombic'
loop_
_space_group_symop_operation_xyz
x,y,z
-x,-y,z
-x,y,z
x,-y,z
1/2+x,1/2+y,1/2+z
1/2-x,1/2-y,1/2+z
1/2-x,1/2+y,1/2+z
1/2+x,1/2-y,1/2+z
loop_
_atom_site_type_symbol
_atom_site_label
_atom_site_fract_x
_atom_site_fract_y
_atom_site_fract_z
Si Si1 0.901549 0.678025 0.141900
Si Si2 0.098500 0.176631 0.633842
Si Si3 0.316050 0.249169 0.891811
Si Si4 0.598691 0.279671 0.444794
Si Si5 0.223146 0.175071 0.130596
Si Si6 0.597946 0.936095 0.496967
Si Si7 0.902205 0.935498 0.481791
Si Si8 0.246321 0.436684 0.764657
O O1 0.860504 0.706672 0.280924
O O2 0.000000 0.681437 0.160612
O O3 0.879307 0.717327 0.002853
O O4 0.880704 0.613740 0.108443
O O5 0.127607 0.212716 0.496330
O O6 0.131622 0.200972 0.786823
O O7 0.118383 0.111732 0.601480
O O8 0.000000 0.180651 0.641247
O O9 0.270784 0.292922 0.784108
O O10 0.266691 0.211264 0.005814
O O11 0.500000 0.280863 0.436549
O O12 0.628996 0.321323 0.572355
O O13 0.255216 0.112744 0.148279
O O14 0.500000 0.928139 0.453785
O O15 0.665270 0.931516 0.367876
O O16 0.604521 0.000000 0.553789
O O17 0.831908 0.929101 0.357248
O O18 0.000000 0.927083 0.437460
O O19 0.895933 0.000000 0.533169
O O20 0.246985 0.500000 0.706211
#
# Coordination Sequence:
#
# PCOD9374140 Si02
#       8
#     8   8   8   8   8   8   8   8
#     4   9  19  36  56  80 108 142 182 229 280 334
#     4  10  19  34  55  82 112 147 184 222 273 330
#     4  11  22  33  52  81 112 144 179 226 278 329
#     4   9  20  35  53  78 111 146 182 224 275 327
#     4  11  23  36  54  79 109 146 184 228 277 335
#     4   9  19  36  59  83 107 141 186 233 279 331
#     4   9  18  33  55  83 113 147 187 227 266 322
#     4  10  21  37  56  80 110 146 188 231 276 331
#
# _framework density 18.115645000000001
#
# number of rings (size 3 to 8) (size 9 to 14) (size 15 to 20)
#    0.000    2.250    1.250    1.125    5.250    2.000 
#    0.000    1.875    0.000    0.750    0.000    0.000 
#    0.000    0.000    0.000    0.000    0.000    0.000 
#
# Total GULP energy -178219.047512 kJ/mol
# GULP energy per Si atom -5569.345235 kJ/mol
# Density = 1.807441 g / cm^3
# Si number density = 18.115645 Si / 1000 Ang^3
#
#
#
# Elastic Constant Matrix: (Units=GPa)
#
#
# Indices 1 2 3 4 5 6 
#
# 1 29.1103 32.2053 14.8772 0.0000 0.0000 0.0000
# 2 32.2053 132.6048 49.6426 0.0000 0.0000 0.0000
# 3 14.8772 49.6426 77.6402 0.0000 0.0000 0.0000
# 4 0.0000 0.0000 0.0000 25.2573 0.0000 0.0000
# 5 0.0000 0.0000 0.0000 0.0000 29.6036 0.0000
# 6 0.0000 0.0000 0.0000 0.0000 0.0000 24.1620
#
#
#
# Elastic Compliance Matrix: (Units=1/GPa)
#
#
# Indices 1 2 3 4 5 6 
#
# 1 0.047272 -0.010636 -0.002258 0.000000 0.000000 0.000000
# 2 -0.010636 0.012307 -0.005831 0.000000 0.000000 0.000000
# 3 -0.002258 -0.005831 0.017041 0.000000 0.000000 0.000000
# 4 0.000000 0.000000 0.000000 0.039593 0.000000 0.000000
# 5 0.000000 0.000000 0.000000 0.000000 0.033780 0.000000
# 6 0.000000 0.000000 0.000000 0.000000 0.000000 0.041387
#
#
# Mechanical properties :
#
#
# Convention : Reuss Voigt Hill
#
# Bulk Modulus (GPa) = 25.52888 48.08950 36.80919
# Shear Modulus (GPa) = 20.67083 25.31326 22.99204
#
# Velocity S-wave (km/s) = 3.38161 3.74212 3.56642
# Velocity P-wave (km/s) = 5.41939 6.72865 6.10920
#
# Compressibility (1/GPa) = 0.03917132
#
# Stress axis : x y z
#
# Youngs Moduli (GPa) = 21.15395 81.25288 58.68199
#
# Poissons Ratio (x) = 0.86418 0.13250
# Poissons Ratio (y) = 0.22499 0.34219
# Poissons Ratio (z) = 0.04776 0.47380
#
# Static dielectric constant tensor:
#      x y z
#    x 1.709400 0.000000 0.000000 
#    y 0.000000 1.626640 0.000000 
#    z 0.000000 0.000000 1.601670 
# 
# From -- ./inp_files/8443.got.cif
#   From: 2010.05.17/outbox.cif.g08.bks.cpg/sg44_5_cif.got.tgz:8443.got - 2010.06.03 19:37:08.
