data_PCOD9374498
_publ_section_title
;
Structure prediction by ZEFSAII (Michael W. Deem and Ramdas Pophale) SiO2 
 PCOD9374498
Probable space group: I M M 2
;
_chemical_formula_sum "Si O2"
_cell_formula_units_Z 42
_cell_length_a 15.488185
_cell_length_b 12.615301
_cell_length_c 9.991728
_cell_angle_alpha 90.000000
_cell_angle_beta 90.000000
_cell_angle_gamma 90.000000
_cell_volume 1952.264907
_symmetry_space_group_name_H-M "I M M 2"
_symmetry_group_IT_number 44
_symmetry_cell_setting 'orthorhombic'
loop_
_space_group_symop_operation_xyz
x,y,z
-x,-y,z
-x,y,z
x,-y,z
1/2+x,1/2+y,1/2+z
1/2-x,1/2-y,1/2+z
1/2-x,1/2+y,1/2+z
1/2+x,1/2-y,1/2+z
loop_
_atom_site_type_symbol
_atom_site_label
_atom_site_fract_x
_atom_site_fract_y
_atom_site_fract_z
Si Si1 0.845812 0.655949 0.273360
Si Si2 0.406384 0.625874 0.087168
Si Si3 0.000000 0.500000 0.344891
Si Si4 0.159828 0.827611 0.874809
Si Si5 0.279482 0.880321 0.480967
Si Si6 0.897258 0.882040 0.173710
O O1 0.924440 0.593006 0.336330
O O2 0.756555 0.631566 0.348267
O O3 0.832120 0.618482 0.120158
O O4 0.859196 0.782507 0.253568
O O5 0.500000 0.669009 0.042181
O O6 0.407419 0.500000 0.062144
O O7 0.396289 0.642474 0.246518
O O8 0.315862 0.662776 0.023399
O O9 0.171830 0.700863 0.885358
O O10 0.124999 0.867288 0.016686
O O11 0.274285 0.000000 0.430795
O O12 0.000000 0.877270 0.188741
O O13 0.868819 0.000000 0.216213
#
# Coordination Sequence:
#
# PCOD9374498 Si02
#       6
#     8   8   2   8   8   8
#     4  10  21  35  54  79 105 144 175 215 257 313
#     4   9  17  32  54  76  99 129 168 216 259 304
#     4  12  20  36  58  72 110 138 184 210 256 312
#     4  10  20  32  53  81 104 135 175 213 266 308
#     4   9  18  34  53  75 105 136 173 212 260 311
#     4  10  20  35  55  81 108 134 173 223 270 309
#
# _framework density 21.513475
#
# number of rings (size 3 to 8) (size 9 to 14) (size 15 to 20)
#    0.000    2.286    1.905    1.143    2.667    2.286 
#    1.714    0.000    0.000    0.000    0.000    0.000 
#    0.000    0.000    0.000    0.000    0.000    0.000 
#
# Total GULP energy -117020.137688 kJ/mol
# GULP energy per Si atom -5572.387509 kJ/mol
# Density = 2.146451 g / cm^3
# Si number density = 21.513475 Si / 1000 Ang^3
#
#
#
# Elastic Constant Matrix: (Units=GPa)
#
#
# Indices 1 2 3 4 5 6 
#
# 1 69.7230 13.3947 -7.0599 0.0000 0.0000 0.0000
# 2 13.3947 121.6764 10.1596 0.0000 0.0000 0.0000
# 3 -7.0599 10.1596 53.6097 0.0000 0.0000 0.0000
# 4 0.0000 0.0000 0.0000 -1.7507 0.0000 0.0000
# 5 0.0000 0.0000 0.0000 0.0000 2.2869 0.0000
# 6 0.0000 0.0000 0.0000 0.0000 0.0000 24.7843
#
#
#
# Elastic Compliance Matrix: (Units=1/GPa)
#
#
# Indices 1 2 3 4 5 6 
#
# 1 0.014930 -0.001837 0.002314 0.000000 0.000000 0.000000
# 2 -0.001837 0.008577 -0.001867 0.000000 0.000000 0.000000
# 3 0.002314 -0.001867 0.019312 0.000000 0.000000 0.000000
# 4 0.000000 0.000000 0.000000 -0.571190 0.000000 0.000000
# 5 0.000000 0.000000 0.000000 0.000000 0.437265 0.000000
# 6 0.000000 0.000000 0.000000 0.000000 0.000000 0.040348
#
#
# Mechanical properties :
#
#
# Convention : Reuss Voigt Hill
#
# Bulk Modulus (GPa) = 24.97589 30.88864 27.93227
# Shear Modulus (GPa) = -144.36966 20.29843 -62.03562
#
# Velocity S-wave (km/s) = -8.20075 3.07501 -5.37571
# Velocity P-wave (km/s) = 8.83375 5.19582 5.05166
#
# Compressibility (1/GPa) = 0.04003861
#
# Stress axis : x y z
#
# Youngs Moduli (GPa) = 66.98075 116.59593 51.78144
#
# Poissons Ratio (x) = 0.21416 -0.11983
# Poissons Ratio (y) = 0.12303 0.09669
# Poissons Ratio (z) = -0.15501 0.21771
#
# Static dielectric constant tensor:
#      x y z
#    x 1.778480 0.000000 0.000000 
#    y 0.000000 1.847570 0.000000 
#    z 0.000000 0.000000 1.787500 
# 
# From -- ./inp_files/13788.got.cif
#   From: 2010.05.17/outbox.cif.g08.bks.cpg/sg44_7_cif.got.tgz:13788.got - 2010.06.03 19:37:08.
