data_PCOD9374711
_publ_section_title
;
Structure prediction by ZEFSAII (Michael W. Deem and Ramdas Pophale) SiO2 
 PCOD9374711
Probable space group: I M M 2
;
_chemical_formula_sum "Si O2"
_cell_formula_units_Z 58
_cell_length_a 13.247730
_cell_length_b 22.767881
_cell_length_c 10.112461
_cell_angle_alpha 90.000000
_cell_angle_beta 90.000000
_cell_angle_gamma 90.000000
_cell_volume 3050.148197
_symmetry_space_group_name_H-M "I M M 2"
_symmetry_group_IT_number 44
_symmetry_cell_setting 'orthorhombic'
loop_
_space_group_symop_operation_xyz
x,y,z
-x,-y,z
-x,y,z
x,-y,z
1/2+x,1/2+y,1/2+z
1/2-x,1/2-y,1/2+z
1/2-x,1/2+y,1/2+z
1/2+x,1/2-y,1/2+z
loop_
_atom_site_type_symbol
_atom_site_label
_atom_site_fract_x
_atom_site_fract_y
_atom_site_fract_z
Si Si1 0.893539 0.121565 0.148750
Si Si2 0.174617 0.654804 0.704902
Si Si3 0.611289 0.318120 0.380231
Si Si4 0.669712 0.807814 0.486109
Si Si5 0.120327 0.434373 0.478048
Si Si6 0.885734 0.244401 0.499743
Si Si7 0.500000 0.500000 0.683951
Si Si8 0.174315 0.335989 0.277125
O O1 0.796111 0.151741 0.208838
O O2 0.000000 0.151780 0.187115
O O3 0.913419 0.053297 0.180360
O O4 0.882795 0.130922 0.990850
O O5 0.138645 0.656484 0.855471
O O6 0.144996 0.600427 0.612557
O O7 0.136467 0.712028 0.624702
O O8 0.500000 0.318687 0.319866
O O9 0.627458 0.257680 0.460804
O O10 0.705449 0.324012 0.284062
O O11 0.791709 0.799743 0.490259
O O12 0.637733 0.832446 0.627443
O O13 0.162236 0.500000 0.479524
O O14 0.156899 0.396699 0.353281
O O15 0.000000 0.436708 0.468815
O O16 0.875474 0.286784 0.371327
O O17 0.000000 0.221581 0.507718
#
# Coordination Sequence:
#
# PCOD9374711 Si02
#       8
#     8   8   8   8   8   8   2   8
#     4   9  18  33  55  86 108 142 193 244 288 325
#     4  11  20  36  57  84 116 146 195 234 288 345
#     4  10  20  34  53  82 115 153 192 230 277 346
#     4  11  23  34  52  85 122 156 182 232 292 354
#     4  10  22  41  64  81 101 141 195 242 287 344
#     4  10  20  36  56  78 114 161 196 225 268 340
#     4   8  20  32  60  88 112 132 200 264 288 308
#     4  10  20  37  54  82 115 145 189 231 288 337
#
# _framework density 19.015470000000001
#
# number of rings (size 3 to 8) (size 9 to 14) (size 15 to 20)
#    0.414    1.517    4.138    3.310    0.966    4.414 
#    0.000    0.690    0.000    1.655    0.000    0.966 
#    0.000    0.000    0.000    0.000    0.000    0.000 
#
# Total GULP energy -161469.014099 kJ/mol
# GULP energy per Si atom -5567.897038 kJ/mol
# Density = 1.897219 g / cm^3
# Si number density = 19.015470 Si / 1000 Ang^3
#
#
#
# Elastic Constant Matrix: (Units=GPa)
#
#
# Indices 1 2 3 4 5 6 
#
# 1 81.2751 -6.6860 1.4605 0.0000 0.0000 0.0000
# 2 -6.6860 63.1123 42.1279 -0.0002 0.0000 0.0000
# 3 1.4605 42.1279 157.2144 -0.0002 -0.0001 0.0000
# 4 0.0000 -0.0002 -0.0002 9.2858 0.0000 0.0001
# 5 0.0000 0.0000 -0.0001 0.0000 -4.6424 0.0000
# 6 0.0000 0.0000 0.0000 0.0001 0.0000 20.4075
#
#
#
# Elastic Compliance Matrix: (Units=1/GPa)
#
#
# Indices 1 2 3 4 5 6 
#
# 1 0.012454 0.001701 -0.000571 0.000000 0.000000 0.000000
# 2 0.001701 0.019529 -0.005249 0.000000 0.000000 0.000000
# 3 -0.000571 -0.005249 0.007773 0.000000 0.000000 0.000000
# 4 0.000000 0.000000 0.000000 0.107691 0.000001 -0.000001
# 5 0.000000 0.000000 0.000000 0.000001 -0.215405 0.000000
# 6 0.000000 0.000000 0.000000 -0.000001 0.000000 0.049002
#
#
# Mechanical properties :
#
#
# Convention : Reuss Voigt Hill
#
# Bulk Modulus (GPa) = 31.72959 41.71185 36.72072
# Shear Modulus (GPa) = -23429.53899 22.65680 -11703.44109
#
# Velocity S-wave (km/s) = -111.12179 3.45555 -78.53697
# Velocity P-wave (km/s) = 128.24721 6.15666 90.57992
#
# Compressibility (1/GPa) = 0.03151632
#
# Stress axis : x y z
#
# Youngs Moduli (GPa) = 80.29501 51.20711 128.65818
#
# Poissons Ratio (x) = -0.08709 0.07352
# Poissons Ratio (y) = -0.13657 0.67530
# Poissons Ratio (z) = 0.04588 0.26877
#
# Static dielectric constant tensor:
#      x y z
#    x 1.726470 0.000000 0.000000 
#    y 0.000000 1.649090 0.000000 
#    z 0.000000 0.000000 1.686620 
# 
# From -- ./inp_files/7518.got.cif
#   From: 2010.05.17/outbox.cif.g08.bks.cpg/sg44_4_cif.got.tgz:7518.got - 2010.06.03 19:37:08.
