data_PCOD9374976
_publ_section_title
;
Structure prediction by ZEFSAII (Michael W. Deem and Ramdas Pophale) SiO2 
 PCOD9374976
Probable space group: I M M 2
;
_chemical_formula_sum "Si O2"
_cell_formula_units_Z 64
_cell_length_a 14.079676
_cell_length_b 20.234995
_cell_length_c 11.980125
_cell_angle_alpha 90.000000
_cell_angle_beta 90.000000
_cell_angle_gamma 90.000000
_cell_volume 3413.163651
_symmetry_space_group_name_H-M "I M M 2"
_symmetry_group_IT_number 44
_symmetry_cell_setting 'orthorhombic'
loop_
_space_group_symop_operation_xyz
x,y,z
-x,-y,z
-x,y,z
x,-y,z
1/2+x,1/2+y,1/2+z
1/2-x,1/2-y,1/2+z
1/2-x,1/2+y,1/2+z
1/2+x,1/2-y,1/2+z
loop_
_atom_site_type_symbol
_atom_site_label
_atom_site_fract_x
_atom_site_fract_y
_atom_site_fract_z
Si Si1 0.887166 0.816828 0.441700
Si Si2 0.721562 0.425539 0.085038
Si Si3 0.613346 0.729430 0.699835
Si Si4 0.611282 0.275088 0.448928
Si Si5 0.112049 0.617162 0.944221
Si Si6 0.262111 0.153891 0.793683
Si Si7 0.885703 0.334325 0.495126
Si Si8 0.884509 0.574312 0.697274
O O1 0.835933 0.873666 0.509556
O O2 0.867592 0.815646 0.308498
O O3 0.860123 0.743539 0.487070
O O4 0.000000 0.823151 0.456078
O O5 0.686867 0.500000 0.072779
O O6 0.722708 0.401532 0.212226
O O7 0.828390 0.418941 0.038440
O O8 0.500000 0.747099 0.704533
O O9 0.630482 0.701745 0.576255
O O10 0.678603 0.793389 0.719714
O O11 0.500000 0.285964 0.424205
O O12 0.627364 0.196085 0.448481
O O13 0.677266 0.309579 0.358656
O O14 0.144095 0.591752 0.822866
O O15 0.000000 0.605188 0.956230
O O16 0.334972 0.131781 0.890058
O O17 0.855687 0.370217 0.608521
O O18 0.000000 0.338105 0.484738
O O19 0.853643 0.500000 0.667368
O O20 0.000000 0.574690 0.697016
#
# Coordination Sequence:
#
# PCOD9374976 Si02
#       8
#     8   8   8   8   8   8   8   8
#     4   9  20  39  61  81 107 144 194 250 293 329
#     4  12  26  39  53  81 119 159 198 232 279 346
#     4   9  18  36  61  88 114 140 180 239 298 348
#     4  10  21  36  59  88 114 144 187 240 295 347
#     4  10  20  36  57  82 116 153 186 227 285 352
#     4  11  22  34  55  81 116 152 189 232 284 345
#     4   9  19  35  59  86 112 146 191 242 290 339
#     4   9  18  32  52  81 116 150 186 229 281 344
#
# _framework density 18.750931000000001
#
# number of rings (size 3 to 8) (size 9 to 14) (size 15 to 20)
#    0.000    2.125    1.250    3.000    1.750    3.500 
#    0.000    0.000    0.000    0.750    0.000    1.750 
#    0.000    0.000    0.000    0.000    0.000    0.000 
#
# Total GULP energy -178657.096303 kJ/mol
# GULP energy per Si atom -5583.034259 kJ/mol
# Density = 1.870825 g / cm^3
# Si number density = 18.750931 Si / 1000 Ang^3
#
#
#
# Elastic Constant Matrix: (Units=GPa)
#
#
# Indices 1 2 3 4 5 6 
#
# 1 49.7437 28.7861 29.2691 0.0000 0.0000 0.0000
# 2 28.7861 85.9372 53.9273 0.0000 0.0000 0.0000
# 3 29.2691 53.9273 95.9333 0.0000 0.0000 0.0000
# 4 0.0000 0.0000 0.0000 9.5049 0.0000 0.0000
# 5 0.0000 0.0000 0.0000 0.0000 26.4419 0.0000
# 6 0.0000 0.0000 0.0000 0.0000 0.0000 13.3422
#
#
#
# Elastic Compliance Matrix: (Units=1/GPa)
#
#
# Indices 1 2 3 4 5 6 
#
# 1 0.026261 -0.005823 -0.004739 0.000000 0.000000 0.000000
# 2 -0.005823 0.019269 -0.009055 0.000000 0.000000 0.000000
# 3 -0.004739 -0.009055 0.016960 0.000000 0.000000 0.000000
# 4 0.000000 0.000000 0.000000 0.105209 0.000000 0.000000
# 5 0.000000 0.000000 0.000000 0.000000 0.037819 0.000000
# 6 0.000000 0.000000 0.000000 0.000000 0.000000 0.074950
#
#
# Mechanical properties :
#
#
# Convention : Reuss Voigt Hill
#
# Bulk Modulus (GPa) = 42.99951 50.61991 46.80971
# Shear Modulus (GPa) = 15.26927 17.83324 16.55125
#
# Velocity S-wave (km/s) = 2.85673 3.08727 2.97423
# Velocity P-wave (km/s) = 5.81918 6.30578 6.06736
#
# Compressibility (1/GPa) = 0.02325608
#
# Stress axis : x y z
#
# Youngs Moduli (GPa) = 38.07926 51.89608 58.96192
#
# Poissons Ratio (x) = 0.30218 0.27942
# Poissons Ratio (y) = 0.22173 0.53392
# Poissons Ratio (z) = 0.18046 0.46994
#
# Static dielectric constant tensor:
#      x y z
#    x 1.678740 0.000000 0.000000 
#    y 0.000000 1.632630 0.000000 
#    z 0.000000 0.000000 1.657560 
# 
# From -- ./inp_files/13426.got.cif
#   From: 2010.05.17/outbox.cif.g08.bks.cpg/sg44_7_cif.got.tgz:13426.got - 2010.06.03 19:37:08.
