data_PCOD9374977
_publ_section_title
;
Structure prediction by ZEFSAII (Michael W. Deem and Ramdas Pophale) SiO2 
 PCOD9374977
Probable space group: I M M 2
;
_chemical_formula_sum "Si O2"
_cell_formula_units_Z 58
_cell_length_a 15.376342
_cell_length_b 7.629996
_cell_length_c 24.633740
_cell_angle_alpha 90.000000
_cell_angle_beta 90.000000
_cell_angle_gamma 90.000000
_cell_volume 2890.065553
_symmetry_space_group_name_H-M "I M M 2"
_symmetry_group_IT_number 44
_symmetry_cell_setting 'orthorhombic'
loop_
_space_group_symop_operation_xyz
x,y,z
-x,-y,z
-x,y,z
x,-y,z
1/2+x,1/2+y,1/2+z
1/2-x,1/2-y,1/2+z
1/2-x,1/2+y,1/2+z
1/2+x,1/2-y,1/2+z
loop_
_atom_site_type_symbol
_atom_site_label
_atom_site_fract_x
_atom_site_fract_y
_atom_site_fract_z
Si Si1 0.097455 0.798197 0.090770
Si Si2 0.748233 0.798580 0.513567
Si Si3 0.254817 0.300110 0.791293
Si Si4 0.900814 0.285519 0.720056
Si Si5 0.841459 0.782975 0.403427
Si Si6 0.500000 0.000000 0.908810
Si Si7 0.900528 0.287752 0.595839
Si Si8 0.900279 0.700887 0.209681
O O1 0.166442 0.787646 0.042922
O O2 0.124931 0.703695 0.146267
O O3 0.000000 0.737792 0.075637
O O4 0.092269 0.000000 0.107425
O O5 0.779546 0.741536 0.454544
O O6 0.830741 0.780065 0.553558
O O7 0.723703 0.000000 0.509028
O O8 0.230016 0.500000 0.803508
O O9 0.170867 0.218626 0.762050
O O10 0.293561 0.232896 0.847375
O O11 0.331676 0.298031 0.746860
O O12 0.898214 0.500000 0.719623
O O13 0.881365 0.233011 0.657807
O O14 0.000000 0.234734 0.732590
O O15 0.924576 0.657241 0.408605
O O16 0.858573 0.000000 0.403539
O O17 0.897384 0.500000 0.594002
O O18 0.000000 0.236087 0.582793
O O19 0.900528 0.500000 0.228666
O O20 0.000000 0.766818 0.213533
#
# Coordination Sequence:
#
# PCOD9374977 Si02
#       8
#     8   8   8   8   8   2   8   8
#     4  10  21  38  60  85 113 151 197 245 301 363
#     4  11  23  38  56  82 120 154 195 253 298 352
#     4  10  20  36  57  82 119 156 196 251 297 350
#     4   8  15  31  55  83 110 145 192 243 293 353
#     4  10  26  43  61  95 124 157 210 252 299 366
#     4  12  26  44  72  82 122 172 202 248 316 344
#     4   9  18  31  54  86 116 149 196 238 287 358
#     4  10  21  34  54  85 118 151 194 238 296 367
#
# _framework density 20.068749
#
# number of rings (size 3 to 8) (size 9 to 14) (size 15 to 20)
#    0.000    2.207    0.000    3.103    4.828    3.034 
#    0.000    0.690    0.000    3.724    0.000    0.000 
#    0.000    0.000    0.000    0.000    0.000    0.000 
#
# Total GULP energy -161518.054477 kJ/mol
# GULP energy per Si atom -5569.588085 kJ/mol
# Density = 2.002307 g / cm^3
# Si number density = 20.068749 Si / 1000 Ang^3
#
#
#
# Elastic Constant Matrix: (Units=GPa)
#
#
# Indices 1 2 3 4 5 6 
#
# 1 93.2306 11.5540 78.1996 0.0000 0.0000 0.0000
# 2 11.5540 50.7808 17.6734 0.0000 0.0000 0.0000
# 3 78.1996 17.6734 115.1361 0.0000 0.0000 0.0000
# 4 0.0000 0.0000 0.0000 11.7697 0.0000 0.0000
# 5 0.0000 0.0000 0.0000 0.0000 -16.8175 0.0000
# 6 0.0000 0.0000 0.0000 0.0000 0.0000 -9.9074
#
#
#
# Elastic Compliance Matrix: (Units=1/GPa)
#
#
# Indices 1 2 3 4 5 6 
#
# 1 0.024929 0.000233 -0.016967 0.000000 0.000000 0.000000
# 2 0.000233 0.020806 -0.003352 0.000000 0.000000 0.000000
# 3 -0.016967 -0.003352 0.020724 0.000000 0.000000 0.000000
# 4 0.000000 0.000000 0.000000 0.084964 0.000000 0.000000
# 5 0.000000 0.000000 0.000000 0.000000 -0.059462 0.000000
# 6 0.000000 0.000000 0.000000 0.000000 0.000000 -0.100935
#
#
# Mechanical properties :
#
#
# Convention : Reuss Voigt Hill
#
# Bulk Modulus (GPa) = 38.04235 52.66684 45.35460
# Shear Modulus (GPa) = 125.12033 7.12366 66.12199
#
# Velocity S-wave (km/s) = 7.90451 1.88609 5.74624
# Velocity P-wave (km/s) = 10.11462 5.57165 8.16544
#
# Compressibility (1/GPa) = 0.02628649
#
# Stress axis : x y z
#
# Youngs Moduli (GPa) = 40.11392 48.06289 48.25316
#
# Poissons Ratio (x) = -0.01121 0.81873
# Poissons Ratio (y) = -0.00935 0.16175
# Poissons Ratio (z) = 0.68063 0.16111
#
# Static dielectric constant tensor:
#      x y z
#    x 1.703850 0.000000 0.000000 
#    y 0.000000 1.783660 0.000000 
#    z 0.000000 0.000000 1.699340 
# 
# From -- ./inp_files/25743.got.cif
#   From: 2010.05.17/outbox.cif.g08.bks.cpg/sg44_13_cif.got.tgz:25743.got - 2010.06.03 19:37:08.
