data_PCOD9374360
_publ_section_title
;
Structure prediction by ZEFSAII (Michael W. Deem and Ramdas Pophale) SiO2 
 PCOD9374360
Probable space group: I M M 2
;
_chemical_formula_sum "Si O2"
_cell_formula_units_Z 64
_cell_length_a 14.764877
_cell_length_b 17.735692
_cell_length_c 11.971528
_cell_angle_alpha 90.000000
_cell_angle_beta 90.000000
_cell_angle_gamma 90.000000
_cell_volume 3134.927902
_symmetry_space_group_name_H-M "I M M 2"
_symmetry_group_IT_number 44
_symmetry_cell_setting 'orthorhombic'
loop_
_space_group_symop_operation_xyz
x,y,z
-x,-y,z
-x,y,z
x,-y,z
1/2+x,1/2+y,1/2+z
1/2-x,1/2-y,1/2+z
1/2-x,1/2+y,1/2+z
1/2+x,1/2-y,1/2+z
loop_
_atom_site_type_symbol
_atom_site_label
_atom_site_fract_x
_atom_site_fract_y
_atom_site_fract_z
Si Si1 0.901493 0.254211 0.753240
Si Si2 0.396855 0.589679 0.492387
Si Si3 0.819469 0.585234 0.103692
Si Si4 0.394070 0.791611 0.006113
Si Si5 0.392534 0.408824 0.741784
Si Si6 0.893133 0.415464 0.330760
Si Si7 0.253623 0.322707 0.902567
Si Si8 0.639878 0.414689 0.248461
O O1 0.890784 0.300818 0.638809
O O2 0.816421 0.273367 0.830276
O O3 0.904777 0.165511 0.720097
O O4 0.000000 0.272811 0.804076
O O5 0.500000 0.615971 0.465953
O O6 0.402272 0.500000 0.508983
O O7 0.371025 0.618870 0.614643
O O8 0.339265 0.599010 0.380287
O O9 0.852900 0.500000 0.081954
O O10 0.875699 0.618830 0.207733
O O11 0.721656 0.580934 0.162642
O O12 0.806491 0.629971 0.990191
O O13 0.500000 0.773443 0.978455
O O14 0.365854 0.863773 0.933482
O O15 0.323842 0.727784 0.971575
O O16 0.500000 0.390687 0.763070
O O17 0.385890 0.500000 0.748483
O O18 0.319250 0.373122 0.824546
O O19 0.852120 0.500000 0.332972
O O20 0.000000 0.423274 0.341825
O O21 0.598081 0.500000 0.245520
#
# Coordination Sequence:
#
# PCOD9374360 Si02
#       8
#     8   8   8   8   8   8   8   8
#     4  11  25  42  59  89 129 168 210 260 316 383
#     4   8  15  30  54  84 115 143 184 244 298 352
#     4  10  21  37  59  91 122 155 206 253 300 373
#     4  10  22  41  63  90 124 157 203 263 319 375
#     4   9  19  37  60  89 124 163 211 262 312 376
#     4   9  19  39  66  88 111 150 204 264 312 355
#     4  12  23  38  61  85 127 174 204 248 316 383
#     4  10  19  37  62  87 117 156 200 256 314 365
#
# _framework density 20.415141999999999
#
# number of rings (size 3 to 8) (size 9 to 14) (size 15 to 20)
#    0.000    2.125    1.250    2.625    0.000    3.250 
#    0.000    2.500    0.000    2.625    0.000    0.000 
#    0.000    0.000    0.000    0.000    0.000    0.000 
#
# Total GULP energy -178199.623511 kJ/mol
# GULP energy per Si atom -5568.738235 kJ/mol
# Density = 2.036868 g / cm^3
# Si number density = 20.415142 Si / 1000 Ang^3
#
#
#
# Elastic Constant Matrix: (Units=GPa)
#
#
# Indices 1 2 3 4 5 6 
#
# 1 57.6215 15.5394 5.8653 0.0000 0.0000 0.0000
# 2 15.5394 60.0102 34.0171 0.0000 0.0000 0.0000
# 3 5.8653 34.0171 82.4487 0.0000 0.0000 0.0000
# 4 0.0000 0.0000 0.0000 28.0033 0.0000 0.0000
# 5 0.0000 0.0000 0.0000 0.0000 25.9572 0.0000
# 6 0.0000 0.0000 0.0000 0.0000 0.0000 50.6644
#
#
#
# Elastic Compliance Matrix: (Units=1/GPa)
#
#
# Indices 1 2 3 4 5 6 
#
# 1 0.018705 -0.005338 0.000872 0.000000 0.000000 0.000000
# 2 -0.005338 0.023274 -0.009223 0.000000 0.000000 0.000000
# 3 0.000872 -0.009223 0.015872 0.000000 0.000000 0.000000
# 4 0.000000 0.000000 0.000000 0.035710 0.000000 0.000000
# 5 0.000000 0.000000 0.000000 0.000000 0.038525 0.000000
# 6 0.000000 0.000000 0.000000 0.000000 0.000000 0.019738
#
#
# Mechanical properties :
#
#
# Convention : Reuss Voigt Hill
#
# Bulk Modulus (GPa) = 32.81542 34.54709 33.68126
# Shear Modulus (GPa) = 26.40475 30.56887 28.48681
#
# Velocity S-wave (km/s) = 3.60028 3.87378 3.73953
# Velocity P-wave (km/s) = 5.77855 6.08007 5.93122
#
# Compressibility (1/GPa) = 0.03047348
#
# Stress axis : x y z
#
# Youngs Moduli (GPa) = 53.46047 42.96639 63.00427
#
# Poissons Ratio (x) = 0.22934 -0.05491
# Poissons Ratio (y) = 0.28536 0.58108
# Poissons Ratio (z) = -0.04660 0.39627
#
# Static dielectric constant tensor:
#      x y z
#    x 1.754290 0.000000 0.000000 
#    y 0.000000 1.765820 0.000000 
#    z 0.000000 0.000000 1.728660 
# 
# From -- ./inp_files/13451.got.cif
#   From: 2010.05.17/outbox.cif.g08.bks.cpg/sg44_7_cif.got.tgz:13451.got - 2010.06.03 19:37:08.
