data_PCOD9374427
_publ_section_title
;
Structure prediction by ZEFSAII (Michael W. Deem and Ramdas Pophale) SiO2 
 PCOD9374427
Probable space group: I M M 2
;
_chemical_formula_sum "Si O2"
_cell_formula_units_Z 48
_cell_length_a 7.576768
_cell_length_b 12.216005
_cell_length_c 26.566194
_cell_angle_alpha 90.000000
_cell_angle_beta 90.000000
_cell_angle_gamma 90.000000
_cell_volume 2458.909421
_symmetry_space_group_name_H-M "I M M 2"
_symmetry_group_IT_number 44
_symmetry_cell_setting 'orthorhombic'
loop_
_space_group_symop_operation_xyz
x,y,z
-x,-y,z
-x,y,z
x,-y,z
1/2+x,1/2+y,1/2+z
1/2-x,1/2-y,1/2+z
1/2-x,1/2+y,1/2+z
1/2+x,1/2-y,1/2+z
loop_
_atom_site_type_symbol
_atom_site_label
_atom_site_fract_x
_atom_site_fract_y
_atom_site_fract_z
Si Si1 0.793226 0.755338 0.561620
Si Si2 0.285066 0.000000 0.696258
Si Si3 0.289197 0.000000 0.581986
Si Si4 0.284644 0.127517 0.852441
Si Si5 0.215749 0.276053 0.250224
Si Si6 0.215178 0.626772 0.465234
Si Si7 0.290513 0.622958 0.662164
O O1 0.766203 0.885143 0.558531
O O2 0.717931 0.697203 0.511957
O O3 0.729483 0.702777 0.614100
O O4 0.000000 0.732733 0.561849
O O5 0.231633 0.889840 0.723918
O O6 0.500000 0.000000 0.695907
O O7 0.221745 0.000000 0.639256
O O8 0.500000 0.000000 0.583650
O O9 0.500000 0.126854 0.851984
O O10 0.227241 0.208765 0.808022
O O11 0.227148 0.158141 0.908825
O O12 0.233346 0.000000 0.842796
O O13 0.278731 0.179705 0.213334
O O14 0.000000 0.271501 0.250533
O O15 0.262190 0.500000 0.473090
O O16 0.000000 0.632535 0.464593
O O17 0.500000 0.613176 0.669192
O O18 0.220156 0.500000 0.652952
#
# Coordination Sequence:
#
# PCOD9374427 Si02
#       7
#     8   4   4   8   8   8   8
#     4  11  21  33  50  72 101 130 162 202 248 298
#     4   9  14  23  43  69  93 117 145 190 245 288
#     4  11  21  35  53  73  99 127 161 200 243 294
#     4   8  12  20  39  66  93 122 157 197 248 295
#     4   9  14  23  42  68  95 122 156 201 249 292
#     4   8  15  27  43  66  97 130 159 195 243 290
#     4  10  20  32  47  70 101 134 168 203 242 291
#
# _framework density 19.520848999999998
#
# number of rings (size 3 to 8) (size 9 to 14) (size 15 to 20)
#    0.000    2.667    2.500    2.250    0.000    1.000 
#    0.000    0.000    1.833    0.000    0.000    2.333 
#    0.000    2.667    0.000    0.000    0.000    0.000 
#
# Total GULP energy -133805.347912 kJ/mol
# GULP energy per Si atom -5575.222830 kJ/mol
# Density = 1.947642 g / cm^3
# Si number density = 19.520849 Si / 1000 Ang^3
#
#
#
# Elastic Constant Matrix: (Units=GPa)
#
#
# Indices 1 2 3 4 5 6 
#
# 1 42.0452 -2.8352 2.1584 0.0000 0.0000 0.0000
# 2 -2.8352 115.6164 81.7585 0.0000 0.0000 0.0000
# 3 2.1584 81.7585 176.0168 0.0000 0.0000 0.0000
# 4 0.0000 0.0000 0.0000 32.9693 0.0000 0.0000
# 5 0.0000 0.0000 0.0000 0.0000 8.0373 0.0000
# 6 0.0000 0.0000 0.0000 0.0000 0.0000 5.6274
#
#
#
# Elastic Compliance Matrix: (Units=1/GPa)
#
#
# Indices 1 2 3 4 5 6 
#
# 1 0.023907 0.001182 -0.000842 0.000000 0.000000 0.000000
# 2 0.001182 0.012938 -0.006024 0.000000 0.000000 0.000000
# 3 -0.000842 -0.006024 0.008490 0.000000 0.000000 0.000000
# 4 0.000000 0.000000 0.000000 0.030331 0.000000 0.000000
# 5 0.000000 0.000000 0.000000 0.000000 0.124419 0.000000
# 6 0.000000 0.000000 0.000000 0.000000 0.000000 0.177702
#
#
# Mechanical properties :
#
#
# Convention : Reuss Voigt Hill
#
# Bulk Modulus (GPa) = 29.44135 55.09355 42.26745
# Shear Modulus (GPa) = 12.48505 26.16659 19.32582
#
# Velocity S-wave (km/s) = 2.53173 3.66518 3.14985
# Velocity P-wave (km/s) = 4.86425 6.79673 5.91001
#
# Compressibility (1/GPa) = 0.03396583
#
# Stress axis : x y z
#
# Youngs Moduli (GPa) = 41.82900 77.28961 117.78803
#
# Poissons Ratio (x) = -0.09133 0.09918
# Poissons Ratio (y) = -0.04943 0.70959
# Poissons Ratio (z) = 0.03522 0.46561
#
# Static dielectric constant tensor:
#      x y z
#    x 1.775110 0.000000 0.000000 
#    y 0.000000 1.653580 0.000000 
#    z 0.000000 0.000000 1.706220 
# 
# From -- ./inp_files/25415.got.cif
#   From: 2010.05.17/outbox.cif.g08.bks.cpg/sg44_13_cif.got.tgz:25415.got - 2010.06.03 19:37:08.
