data_PCOD9374050
_publ_section_title
;
Structure prediction by ZEFSAII (Michael W. Deem and Ramdas Pophale) SiO2 
 PCOD9374050
Probable space group: I M M 2
;
_chemical_formula_sum "Si O2"
_cell_formula_units_Z 56
_cell_length_a 17.433877
_cell_length_b 7.537551
_cell_length_c 20.567252
_cell_angle_alpha 90.000000
_cell_angle_beta 90.000000
_cell_angle_gamma 90.000000
_cell_volume 2702.716609
_symmetry_space_group_name_H-M "I M M 2"
_symmetry_group_IT_number 44
_symmetry_cell_setting 'orthorhombic'
loop_
_space_group_symop_operation_xyz
x,y,z
-x,-y,z
-x,y,z
x,-y,z
1/2+x,1/2+y,1/2+z
1/2-x,1/2-y,1/2+z
1/2-x,1/2+y,1/2+z
1/2+x,1/2-y,1/2+z
loop_
_atom_site_type_symbol
_atom_site_label
_atom_site_fract_x
_atom_site_fract_y
_atom_site_fract_z
Si Si1 0.161779 0.293081 0.966110
Si Si2 0.000000 0.710915 0.767348
Si Si3 0.000000 0.718451 0.919007
Si Si4 0.915486 0.208932 0.156358
Si Si5 0.747993 0.215537 0.837462
Si Si6 0.917558 0.285711 0.309634
Si Si7 0.165307 0.211207 0.708869
Si Si8 0.240977 0.701855 0.089846
O O1 0.151861 0.500000 0.983926
O O2 0.076399 0.219995 0.955963
O O3 0.201338 0.281343 0.896448
O O4 0.217458 0.213462 0.020984
O O5 0.000000 0.776496 0.842736
O O6 0.922942 0.762490 0.728797
O O7 0.000000 0.500000 0.772035
O O8 0.000000 0.500000 0.917874
O O9 0.912970 0.233058 0.234025
O O10 0.841021 0.299438 0.126757
O O11 0.000000 0.274165 0.134504
O O12 0.910737 0.000000 0.141507
O O13 0.660097 0.274664 0.843380
O O14 0.783525 0.277952 0.769127
O O15 0.750593 0.000000 0.837935
O O16 0.917394 0.500000 0.311554
O O17 0.000000 0.223441 0.335318
O O18 0.197568 0.282676 0.640277
O O19 0.178825 0.000000 0.705940
O O20 0.267290 0.500000 0.076644
#
# Coordination Sequence:
#
# PCOD9374050 Si02
#       8
#     8   4   4   8   8   8   8   8
#     4  10  21  36  55  79 109 145 182 225 275 332
#     4  11  21  35  59  87 111 142 183 232 286 332
#     4   9  18  33  51  81 115 138 177 224 270 328
#     4  10  20  31  46  75 112 141 169 211 260 306
#     4  10  19  33  54  80 108 140 177 223 279 329
#     4   9  17  32  54  77 101 135 180 220 258 316
#     4  10  20  36  56  83 111 141 184 231 275 329
#     4  10  21  37  57  78 105 147 190 221 267 332
#
# _framework density 20.719891000000001
#
# number of rings (size 3 to 8) (size 9 to 14) (size 15 to 20)
#    0.000    2.143    2.857    0.643    1.000    2.571 
#    0.000    0.357    1.571    0.000    0.000    0.000 
#    0.000    0.000    0.000    0.000    0.000    0.000 
#
# Total GULP energy -156229.087654 kJ/mol
# GULP energy per Si atom -5579.610273 kJ/mol
# Density = 2.067273 g / cm^3
# Si number density = 20.719891 Si / 1000 Ang^3
#
#
#
# Elastic Constant Matrix: (Units=GPa)
#
#
# Indices 1 2 3 4 5 6 
#
# 1 119.6164 2.0099 44.4623 0.0000 0.0000 0.0000
# 2 2.0099 54.0415 3.0917 0.0000 0.0000 0.0000
# 3 44.4623 3.0917 106.2379 0.0000 0.0000 0.0000
# 4 0.0000 0.0000 0.0000 13.3804 0.0000 0.0000
# 5 0.0000 0.0000 0.0000 0.0000 18.0244 0.0000
# 6 0.0000 0.0000 0.0000 0.0000 0.0000 -6.5997
#
#
#
# Elastic Compliance Matrix: (Units=1/GPa)
#
#
# Indices 1 2 3 4 5 6 
#
# 1 0.009901 -0.000131 -0.004140 0.000000 0.000000 0.000000
# 2 -0.000131 0.018537 -0.000484 0.000000 0.000000 0.000000
# 3 -0.004140 -0.000484 0.011160 0.000000 0.000000 0.000000
# 4 0.000000 0.000000 0.000000 0.074736 0.000000 0.000000
# 5 0.000000 0.000000 0.000000 0.000000 0.055480 0.000000
# 6 0.000000 0.000000 0.000000 0.000000 0.000000 -0.151521
#
#
# Mechanical properties :
#
#
# Convention : Reuss Voigt Hill
#
# Bulk Modulus (GPa) = 33.23810 42.11373 37.67592
# Shear Modulus (GPa) = 132.15811 20.31646 76.23729
#
# Velocity S-wave (km/s) = 7.99510 3.13474 6.07241
# Velocity P-wave (km/s) = 10.06506 5.78546 8.20905
#
# Compressibility (1/GPa) = 0.03008595
#
# Stress axis : x y z
#
# Youngs Moduli (GPa) = 100.99870 53.94649 89.60911
#
# Poissons Ratio (x) = 0.00709 0.37098
# Poissons Ratio (y) = 0.01327 0.04341
# Poissons Ratio (z) = 0.41813 0.02614
#
# Static dielectric constant tensor:
#      x y z
#    x 1.771040 0.000000 0.000000 
#    y 0.000000 1.798030 0.000000 
#    z 0.000000 0.000000 1.737660 
# 
# From -- ./inp_files/23152.got.cif
#   From: 2010.05.17/outbox.cif.g08.bks.cpg/sg44_12_cif.got.tgz:23152.got - 2010.06.03 19:37:08.
