data_PCOD9374330
_publ_section_title
;
Structure prediction by ZEFSAII (Michael W. Deem and Ramdas Pophale) SiO2 
 PCOD9374330
Probable space group: I M M 2
;
_chemical_formula_sum "Si O2"
_cell_formula_units_Z 40
_cell_length_a 11.779430
_cell_length_b 8.667721
_cell_length_c 20.402466
_cell_angle_alpha 90.000000
_cell_angle_beta 90.000000
_cell_angle_gamma 90.000000
_cell_volume 2083.108361
_symmetry_space_group_name_H-M "I M M 2"
_symmetry_group_IT_number 44
_symmetry_cell_setting 'orthorhombic'
loop_
_space_group_symop_operation_xyz
x,y,z
-x,-y,z
-x,y,z
x,-y,z
1/2+x,1/2+y,1/2+z
1/2-x,1/2-y,1/2+z
1/2-x,1/2+y,1/2+z
1/2+x,1/2-y,1/2+z
loop_
_atom_site_type_symbol
_atom_site_label
_atom_site_fract_x
_atom_site_fract_y
_atom_site_fract_z
Si Si1 0.276047 0.686033 0.188580
Si Si2 0.742041 0.816528 0.942332
Si Si3 0.000000 0.813171 0.609191
Si Si4 0.500000 0.314520 0.957974
Si Si5 0.130427 0.313703 0.067531
Si Si6 0.368934 0.815582 0.318663
O O1 0.277085 0.500000 0.196241
O O2 0.388033 0.734151 0.147861
O O3 0.172424 0.727387 0.140644
O O4 0.288782 0.760968 0.259379
O O5 0.617008 0.748412 0.928887
O O6 0.826619 0.758088 0.886062
O O7 0.737029 0.000000 0.942877
O O8 0.788710 0.756293 0.012079
O O9 0.000000 0.762083 0.534234
O O10 0.000000 0.000000 0.607552
O O11 0.500000 0.500000 0.955544
O O12 0.138983 0.500000 0.062203
O O13 0.000000 0.268565 0.056583
O O14 0.500000 0.769212 0.304902
O O15 0.365483 0.000000 0.324319
#
# Coordination Sequence:
#
# PCOD9374330 Si02
#       6
#     8   8   4   4   8   8
#     4  10  19  36  61  89 119 155 198 248 305 366
#     4  12  25  40  61  91 123 159 202 251 303 361
#     4   9  16  31  61  91 115 146 189 238 301 363
#     4  11  21  41  67  91 121 158 197 244 301 361
#     4  10  21  39  63  90 122 163 205 248 301 362
#     4  11  24  41  61  87 119 160 207 255 306 359
#
# _framework density 19.202074
#
# number of rings (size 3 to 8) (size 9 to 14) (size 15 to 20)
#    0.000    1.400    3.000    3.300    0.000    4.800 
#    1.800    0.000    0.000    0.000    0.000    0.000 
#    0.000    0.000    0.000    0.000    0.000    0.000 
#
# Total GULP energy -111741.485657 kJ/mol
# GULP energy per Si atom -5587.074283 kJ/mol
# Density = 1.915837 g / cm^3
# Si number density = 19.202074 Si / 1000 Ang^3
#
#
#
# Elastic Constant Matrix: (Units=GPa)
#
#
# Indices 1 2 3 4 5 6 
#
# 1 98.6698 36.8355 21.1573 0.0000 0.0000 0.0000
# 2 36.8355 56.8336 30.8242 0.0000 0.0000 0.0000
# 3 21.1573 30.8242 90.9413 0.0000 0.0000 0.0000
# 4 0.0000 0.0000 0.0000 30.5446 0.0000 0.0000
# 5 0.0000 0.0000 0.0000 0.0000 35.3477 0.0000
# 6 0.0000 0.0000 0.0000 0.0000 0.0000 22.1944
#
#
#
# Elastic Compliance Matrix: (Units=1/GPa)
#
#
# Indices 1 2 3 4 5 6 
#
# 1 0.013373 -0.008552 -0.000212 0.000000 0.000000 0.000000
# 2 -0.008552 0.027028 -0.007171 0.000000 0.000000 0.000000
# 3 -0.000212 -0.007171 0.013476 0.000000 0.000000 0.000000
# 4 0.000000 0.000000 0.000000 0.032739 0.000000 0.000000
# 5 0.000000 0.000000 0.000000 0.000000 0.028290 0.000000
# 6 0.000000 0.000000 0.000000 0.000000 0.000000 0.045056
#
#
# Mechanical properties :
#
#
# Convention : Reuss Voigt Hill
#
# Bulk Modulus (GPa) = 45.44429 47.11985 46.28207
# Shear Modulus (GPa) = 25.10425 28.12586 26.61505
#
# Velocity S-wave (km/s) = 3.61968 3.83133 3.72701
# Velocity P-wave (km/s) = 6.41772 6.64563 6.53267
#
# Compressibility (1/GPa) = 0.02200497
#
# Stress axis : x y z
#
# Youngs Moduli (GPa) = 74.77698 36.99931 74.20497
#
# Poissons Ratio (x) = 0.31643 0.01577
# Poissons Ratio (y) = 0.63951 0.53214
# Poissons Ratio (z) = 0.01589 0.26533
#
# Static dielectric constant tensor:
#      x y z
#    x 1.659790 0.000000 0.000000 
#    y 0.000000 1.645970 0.000000 
#    z 0.000000 0.000000 1.646870 
# 
# From -- ./inp_files/22805.got.cif
#   From: 2010.05.17/outbox.cif.g08.bks.cpg/sg44_12_cif.got.tgz:22805.got - 2010.06.03 19:37:08.
