data_PCOD9374757
_publ_section_title
;
Structure prediction by ZEFSAII (Michael W. Deem and Ramdas Pophale) SiO2 
 PCOD9374757
Probable space group: I M M 2
;
_chemical_formula_sum "Si O2"
_cell_formula_units_Z 64
_cell_length_a 13.826244
_cell_length_b 26.510309
_cell_length_c 9.523698
_cell_angle_alpha 90.000000
_cell_angle_beta 90.000000
_cell_angle_gamma 90.000000
_cell_volume 3490.797225
_symmetry_space_group_name_H-M "I M M 2"
_symmetry_group_IT_number 44
_symmetry_cell_setting 'orthorhombic'
loop_
_space_group_symop_operation_xyz
x,y,z
-x,-y,z
-x,y,z
x,-y,z
1/2+x,1/2+y,1/2+z
1/2-x,1/2-y,1/2+z
1/2-x,1/2+y,1/2+z
1/2+x,1/2-y,1/2+z
loop_
_atom_site_type_symbol
_atom_site_label
_atom_site_fract_x
_atom_site_fract_y
_atom_site_fract_z
Si Si1 0.704930 0.059591 0.688980
Si Si2 0.110422 0.342451 0.582669
Si Si3 0.110857 0.349320 0.040439
Si Si4 0.890086 0.279527 0.307931
Si Si5 0.756341 0.186025 0.300213
Si Si6 0.394468 0.440646 0.026226
Si Si7 0.216346 0.557340 0.525740
Si Si8 0.113466 0.905888 0.210712
O O1 0.628273 0.097426 0.619632
O O2 0.806451 0.077469 0.620721
O O3 0.688608 0.000000 0.654985
O O4 0.711925 0.063099 0.857299
O O5 0.117237 0.323395 0.423437
O O6 0.179589 0.307690 0.675283
O O7 0.148260 0.399723 0.591426
O O8 0.000000 0.338941 0.627961
O O9 0.121535 0.305392 0.156768
O O10 0.000000 0.347787 0.986758
O O11 0.192355 0.339354 0.923112
O O12 0.810534 0.237293 0.337676
O O13 0.000000 0.258705 0.317654
O O14 0.838625 0.148179 0.242669
O O15 0.500000 0.417375 0.056423
O O16 0.400260 0.500000 0.055216
O O17 0.376145 0.434069 0.860471
O O18 0.187798 0.500000 0.560024
O O19 0.322355 0.567943 0.590624
O O20 0.000000 0.903448 0.176152
#
# Coordination Sequence:
#
# PCOD9374757 Si02
#       8
#     8   8   8   8   8   8   8   8
#     4  10  20  36  56  82 113 148 189 232 280 333
#     4  10  21  38  57  82 114 146 185 229 277 332
#     4  11  22  38  59  86 117 149 187 232 281 332
#     4  10  21  38  61  84 110 146 187 231 281 334
#     4  11  21  37  59  84 113 148 186 230 281 331
#     4   9  17  31  52  77 108 145 181 221 273 330
#     4  10  21  35  56  82 111 149 191 233 278 332
#     4  10  20  34  55  82 113 147 187 230 277 332
#
# _framework density 18.333921
#
# number of rings (size 3 to 8) (size 9 to 14) (size 15 to 20)
#    0.000    1.875    2.500    1.875    0.000    1.750 
#    0.000    2.500    0.000    3.000    0.000    0.000 
#    0.000    0.000    0.000    0.000    0.000    0.000 
#
# Total GULP energy -178404.511616 kJ/mol
# GULP energy per Si atom -5575.140988 kJ/mol
# Density = 1.829219 g / cm^3
# Si number density = 18.333921 Si / 1000 Ang^3
#
#
#
# Elastic Constant Matrix: (Units=GPa)
#
#
# Indices 1 2 3 4 5 6 
#
# 1 86.7197 38.5625 10.7611 -0.0006 0.0004 0.0001
# 2 38.5625 72.8679 5.3908 0.0015 0.0003 0.0000
# 3 10.7611 5.3908 38.8118 0.0037 0.0006 -0.0001
# 4 -0.0006 0.0015 0.0037 21.0590 0.0000 -0.0001
# 5 0.0004 0.0003 0.0006 0.0000 12.3527 0.0002
# 6 0.0001 0.0000 -0.0001 -0.0001 0.0002 22.2413
#
#
#
# Elastic Compliance Matrix: (Units=1/GPa)
#
#
# Indices 1 2 3 4 5 6 
#
# 1 0.015460 -0.007946 -0.003183 0.000002 0.000000 0.000000
# 2 -0.007946 0.017950 -0.000290 -0.000001 0.000000 0.000000
# 3 -0.003183 -0.000290 0.026688 -0.000005 -0.000001 0.000000
# 4 0.000002 -0.000001 -0.000005 0.047486 0.000000 0.000000
# 5 0.000000 0.000000 -0.000001 0.000000 0.080954 -0.000001
# 6 0.000000 0.000000 0.000000 0.000000 -0.000001 0.044961
#
#
# Mechanical properties :
#
#
# Convention : Reuss Voigt Hill
#
# Bulk Modulus (GPa) = 26.83823 34.20312 30.52068
# Shear Modulus (GPa) = 18.60419 20.70960 19.65690
#
# Velocity S-wave (km/s) = 3.18896 3.36457 3.27794
# Velocity P-wave (km/s) = 5.31315 5.81291 5.56864
#
# Compressibility (1/GPa) = 0.03726028
#
# Stress axis : x y z
#
# Youngs Moduli (GPa) = 64.68388 55.71016 37.46989
#
# Poissons Ratio (x) = 0.44267 0.11926
# Poissons Ratio (y) = 0.51398 0.01087
# Poissons Ratio (z) = 0.20587 0.01616
#
# Static dielectric constant tensor:
#      x y z
#    x 1.647620 0.000000 0.000000 
#    y 0.000000 1.624420 0.000000 
#    z 0.000000 0.000000 1.619920 
# 
# From -- ./inp_files/7570.got.cif
#   From: 2010.05.17/outbox.cif.g08.bks.cpg/sg44_4_cif.got.tgz:7570.got - 2010.06.03 19:37:08.
