data_PCOD9374189
_publ_section_title
;
Structure prediction by ZEFSAII (Michael W. Deem and Ramdas Pophale) SiO2 
 PCOD9374189
Probable space group: I M M 2
;
_chemical_formula_sum "Si O2"
_cell_formula_units_Z 64
_cell_length_a 23.095401
_cell_length_b 24.988172
_cell_length_c 5.413078
_cell_angle_alpha 90.000000
_cell_angle_beta 90.000000
_cell_angle_gamma 90.000000
_cell_volume 3123.951473
_symmetry_space_group_name_H-M "I M M 2"
_symmetry_group_IT_number 44
_symmetry_cell_setting 'orthorhombic'
loop_
_space_group_symop_operation_xyz
x,y,z
-x,-y,z
-x,y,z
x,-y,z
1/2+x,1/2+y,1/2+z
1/2-x,1/2-y,1/2+z
1/2-x,1/2+y,1/2+z
1/2+x,1/2-y,1/2+z
loop_
_atom_site_type_symbol
_atom_site_label
_atom_site_fract_x
_atom_site_fract_y
_atom_site_fract_z
Si Si1 0.564151 0.360458 0.995740
Si Si2 0.783119 0.298976 0.308833
Si Si3 0.819769 0.359753 0.808533
Si Si4 0.898184 0.245390 0.301479
Si Si5 0.675433 0.644263 0.341023
Si Si6 0.742974 0.558236 0.048191
Si Si7 0.628966 0.440943 0.721512
Si Si8 0.066773 0.692258 0.803146
O O1 0.500000 0.357135 0.107483
O O2 0.572457 0.312411 0.802345
O O3 0.574596 0.418433 0.873726
O O4 0.619296 0.349791 0.170395
O O5 0.801781 0.334541 0.546905
O O6 0.827635 0.248713 0.322045
O O7 0.713256 0.301007 0.342996
O O8 0.797398 0.323147 0.037964
O O9 0.790726 0.416391 0.868159
O O10 0.888894 0.357227 0.811066
O O11 0.920984 0.275403 0.548716
O O12 0.917338 0.273704 0.047837
O O13 0.649296 0.610322 0.564722
O O14 0.724069 0.602047 0.246818
O O15 0.759579 0.500000 0.147630
O O16 0.683201 0.552664 0.901506
O O17 0.619406 0.500000 0.603202
O O18 0.000000 0.677551 0.811124
#
# Coordination Sequence:
#
# PCOD9374189 Si02
#       8
#     8   8   8   8   8   8   8   8
#     4  11  25  41  56  81 117 157 198 243 292 354
#     4   9  18  36  58  85 118 145 187 239 299 353
#     4   9  17  31  53  84 117 148 188 237 291 347
#     4  10  22  39  59  87 117 155 195 243 291 351
#     4  10  20  37  58  84 112 149 191 249 303 352
#     4   9  17  32  55  81 110 143 186 242 300 352
#     4  10  21  38  60  81 106 146 196 249 299 346
#     4  10  19  34  58  83 116 159 200 236 279 346
#
# _framework density 20.486872000000002
#
# number of rings (size 3 to 8) (size 9 to 14) (size 15 to 20)
#    0.000    2.250    1.250    1.500    1.750    1.250 
#    2.250    0.000    0.000    0.375    0.000    0.000 
#    0.000    6.500    0.000    0.000    0.000    1.375 
#
# Total GULP energy -178154.432792 kJ/mol
# GULP energy per Si atom -5567.326025 kJ/mol
# Density = 2.044024 g / cm^3
# Si number density = 20.486872 Si / 1000 Ang^3
#
#
#
# Elastic Constant Matrix: (Units=GPa)
#
#
# Indices 1 2 3 4 5 6 
#
# 1 150.5752 43.9957 33.3224 0.0000 0.0000 0.0000
# 2 43.9957 47.1843 6.5486 0.0000 0.0000 0.0000
# 3 33.3224 6.5486 83.2885 0.0000 0.0000 0.0000
# 4 0.0000 0.0000 0.0000 2.2367 0.0000 0.0000
# 5 0.0000 0.0000 0.0000 0.0000 24.4773 0.0000
# 6 0.0000 0.0000 0.0000 0.0000 0.0000 30.1208
#
#
#
# Elastic Compliance Matrix: (Units=1/GPa)
#
#
# Indices 1 2 3 4 5 6 
#
# 1 0.009944 -0.008816 -0.003285 0.000000 0.000000 0.000000
# 2 -0.008816 0.029243 0.001228 0.000000 0.000000 0.000000
# 3 -0.003285 0.001228 0.013224 0.000000 0.000000 0.000000
# 4 0.000000 0.000000 0.000000 0.447083 0.000000 0.000000
# 5 0.000000 0.000000 0.000000 0.000000 0.040854 0.000000
# 6 0.000000 0.000000 0.000000 0.000000 0.000000 0.033200
#
#
# Mechanical properties :
#
#
# Convention : Reuss Voigt Hill
#
# Bulk Modulus (GPa) = 32.61071 49.86459 41.23765
# Shear Modulus (GPa) = 8.25740 24.51239 16.38489
#
# Velocity S-wave (km/s) = 2.00981 3.46279 2.83110
# Velocity P-wave (km/s) = 4.61933 6.35456 5.55512
#
# Compressibility (1/GPa) = 0.03066477
#
# Stress axis : x y z
#
# Youngs Moduli (GPa) = 100.56107 34.19567 75.61828
#
# Poissons Ratio (x) = 0.30148 0.24843
# Poissons Ratio (y) = 0.88657 -0.09285
# Poissons Ratio (z) = 0.33038 -0.04199
#
# Static dielectric constant tensor:
#      x y z
#    x 1.747410 0.000000 0.000000 
#    y 0.000000 1.858380 0.000000 
#    z 0.000000 0.000000 1.820420 
# 
# From -- ./inp_files/2541.got.cif
#   From: 2010.05.17/outbox.cif.g08.bks.cpg/sg44_2_cif.got.tgz:2541.got - 2010.06.03 19:37:08.
