data_PCOD9374575
_publ_section_title
;
Structure prediction by ZEFSAII (Michael W. Deem and Ramdas Pophale) SiO2 
 PCOD9374575
Probable space group: I M M 2
;
_chemical_formula_sum "Si O2"
_cell_formula_units_Z 64
_cell_length_a 7.525232
_cell_length_b 9.374668
_cell_length_c 42.492002
_cell_angle_alpha 90.000000
_cell_angle_beta 90.000000
_cell_angle_gamma 90.000000
_cell_volume 2997.664213
_symmetry_space_group_name_H-M "I M M 2"
_symmetry_group_IT_number 44
_symmetry_cell_setting 'orthorhombic'
loop_
_space_group_symop_operation_xyz
x,y,z
-x,-y,z
-x,y,z
x,-y,z
1/2+x,1/2+y,1/2+z
1/2-x,1/2-y,1/2+z
1/2-x,1/2+y,1/2+z
1/2+x,1/2-y,1/2+z
loop_
_atom_site_type_symbol
_atom_site_label
_atom_site_fract_x
_atom_site_fract_y
_atom_site_fract_z
Si Si1 0.286394 0.661384 0.970030
Si Si2 0.213097 0.337848 0.847122
Si Si3 0.287112 0.662892 0.600266
Si Si4 0.712958 0.662026 0.407195
Si Si5 0.212844 0.662799 0.529674
Si Si6 0.713238 0.837573 0.783997
Si Si7 0.782669 0.164445 0.222812
Si Si8 0.782579 0.336188 0.160767
O O1 0.500000 0.653270 0.972631
O O2 0.218807 0.500000 0.966491
O O3 0.247686 0.756345 0.939600
O O4 0.219061 0.738178 0.001659
O O5 0.281545 0.500000 0.845289
O O6 0.281767 0.252783 0.877575
O O7 0.248800 0.249540 0.815594
O O8 0.000000 0.346924 0.850371
O O9 0.500000 0.655804 0.603389
O O10 0.218715 0.500000 0.602846
O O11 0.249265 0.715313 0.564995
O O12 0.222305 0.761943 0.628476
O O13 0.500000 0.653299 0.403653
O O14 0.781949 0.500000 0.407700
O O15 0.281668 0.500000 0.527155
O O16 0.000000 0.655522 0.526359
O O17 0.500000 0.845800 0.781029
O O18 0.777691 0.751614 0.753439
O O19 0.781018 0.000000 0.785484
O O20 0.727750 0.244090 0.190952
O O21 0.000000 0.163751 0.223051
O O22 0.725582 0.000000 0.223632
O O23 0.725520 0.500000 0.163134
O O24 0.000000 0.336704 0.160649
#
# Coordination Sequence:
#
# PCOD9374575 Si02
#       8
#     8   8   8   8   8   8   8   8
#     4  10  21  36  54  77 104 134 168 206 250 300
#     4  10  21  37  56  77 103 136 171 206 249 301
#     4   9  17  29  46  69  95 123 159 202 245 291
#     4  10  21  37  57  79 102 131 168 208 251 299
#     4   9  18  33  51  70  96 131 166 200 243 295
#     4  10  20  33  51  77 106 135 170 211 253 298
#     4   9  16  27  45  69  98 131 165 204 251 298
#     4   9  16  26  42  66  96 127 159 199 248 298
#
# _framework density 21.349957
#
# number of rings (size 3 to 8) (size 9 to 14) (size 15 to 20)
#    0.000    2.500    0.000    2.250    0.000    7.500 
#    0.000    1.250    0.000    0.750    0.000    1.750 
#    0.000    0.000    0.000    0.000    0.000    0.000 
#
# Total GULP energy -178781.301934 kJ/mol
# GULP energy per Si atom -5586.915685 kJ/mol
# Density = 2.130136 g / cm^3
# Si number density = 21.349957 Si / 1000 Ang^3
#
#
#
# Elastic Constant Matrix: (Units=GPa)
#
#
# Indices 1 2 3 4 5 6 
#
# 1 54.7856 7.6432 -1.7918 0.0000 0.0000 0.0000
# 2 7.6432 226.7042 155.8953 0.0000 0.0000 0.0000
# 3 -1.7918 155.8953 237.3185 0.0000 0.0000 0.0000
# 4 0.0000 0.0000 0.0000 42.9727 0.0000 0.0000
# 5 0.0000 0.0000 0.0000 0.0000 13.5270 0.0000
# 6 0.0000 0.0000 0.0000 0.0000 0.0000 12.7873
#
#
#
# Elastic Compliance Matrix: (Units=1/GPa)
#
#
# Indices 1 2 3 4 5 6 
#
# 1 0.018469 -0.001311 0.001000 0.000000 0.000000 0.000000
# 2 -0.001311 0.008138 -0.005356 0.000000 0.000000 0.000000
# 3 0.001000 -0.005356 0.007740 0.000000 0.000000 0.000000
# 4 0.000000 0.000000 0.000000 0.023271 0.000000 0.000000
# 5 0.000000 0.000000 0.000000 0.000000 0.073926 0.000000
# 6 0.000000 0.000000 0.000000 0.000000 0.000000 0.078202
#
#
# Mechanical properties :
#
#
# Convention : Reuss Voigt Hill
#
# Bulk Modulus (GPa) = 43.45154 93.58907 68.52030
# Shear Modulus (GPa) = 21.85800 37.66153 29.75977
#
# Velocity S-wave (km/s) = 3.20315 4.20457 3.73755
# Velocity P-wave (km/s) = 5.83751 8.21596 7.12666
#
# Compressibility (1/GPa) = 0.02301414
#
# Stress axis : x y z
#
# Youngs Moduli (GPa) = 54.14613 122.87571 129.20470
#
# Poissons Ratio (x) = 0.16104 -0.12925
# Poissons Ratio (y) = 0.07096 0.69202
# Poissons Ratio (z) = -0.05417 0.65812
#
# Static dielectric constant tensor:
#      x y z
#    x 1.842920 0.000000 0.000000 
#    y 0.000000 1.750930 0.000000 
#    z 0.000000 0.000000 1.719670 
# 
# From -- ./inp_files/27448.got.cif
#   From: 2010.05.17/outbox.cif.g08.bks.cpg/sg44_14_cif.got.tgz:27448.got - 2010.06.03 19:37:08.
