data_PCOD9374316
_publ_section_title
;
Structure prediction by ZEFSAII (Michael W. Deem and Ramdas Pophale) SiO2 
 PCOD9374316
Probable space group: I M M 2
;
_chemical_formula_sum "Si O2"
_cell_formula_units_Z 40
_cell_length_a 26.102479
_cell_length_b 8.772853
_cell_length_c 9.720492
_cell_angle_alpha 90.000000
_cell_angle_beta 90.000000
_cell_angle_gamma 90.000000
_cell_volume 2225.926678
_symmetry_space_group_name_H-M "I M M 2"
_symmetry_group_IT_number 44
_symmetry_cell_setting 'orthorhombic'
loop_
_space_group_symop_operation_xyz
x,y,z
-x,-y,z
-x,y,z
x,-y,z
1/2+x,1/2+y,1/2+z
1/2-x,1/2-y,1/2+z
1/2-x,1/2+y,1/2+z
1/2+x,1/2-y,1/2+z
loop_
_atom_site_type_symbol
_atom_site_label
_atom_site_fract_x
_atom_site_fract_y
_atom_site_fract_z
Si Si1 0.090594 0.683047 0.937080
Si Si2 0.207910 0.318533 0.929973
Si Si3 0.000000 0.816477 0.754720
Si Si4 0.592928 0.317350 0.741807
Si Si5 0.000000 0.185265 0.437243
Si Si6 0.297851 0.180303 0.752527
O O1 0.086119 0.500000 0.938639
O O2 0.149078 0.722284 0.895471
O O3 0.049507 0.754642 0.835009
O O4 0.082714 0.743989 0.092293
O O5 0.213977 0.500000 0.908314
O O6 0.250339 0.231404 0.843923
O O7 0.213879 0.287492 0.092329
O O8 0.000000 0.764940 0.595569
O O9 0.000000 0.000000 0.758744
O O10 0.590783 0.500000 0.727844
O O11 0.550162 0.267915 0.851538
O O12 0.649605 0.266945 0.787348
O O13 0.000000 0.000000 0.439528
O O14 0.307039 0.000000 0.765091
#
# Coordination Sequence:
#
# PCOD9374316 Si02
#       6
#     8   8   4   8   4   8
#     4  10  21  38  57  81 111 142 182 229 272 321
#     4   9  20  37  55  78 109 143 179 221 270 323
#     4  11  22  37  56  80 110 145 182 221 274 330
#     4  10  19  36  60  82 107 143 184 223 269 327
#     4   9  21  37  54  80 110 139 178 225 268 320
#     4  10  21  36  55  82 112 142 181 226 271 321
#
# _framework density 17.970044999999999
#
# number of rings (size 3 to 8) (size 9 to 14) (size 15 to 20)
#    0.000    2.200    0.000    3.900    0.000    7.200 
#    0.000   11.500    0.000    0.000    0.000    0.000 
#    0.000    0.000    0.000    0.000    0.000    0.000 
#
# Total GULP energy -111668.559890 kJ/mol
# GULP energy per Si atom -5583.427995 kJ/mol
# Density = 1.792914 g / cm^3
# Si number density = 17.970045 Si / 1000 Ang^3
#
#
#
# Elastic Constant Matrix: (Units=GPa)
#
#
# Indices 1 2 3 4 5 6 
#
# 1 151.2691 59.5868 103.7926 0.0000 0.0000 0.0000
# 2 59.5868 58.0952 46.5436 0.0000 0.0000 0.0000
# 3 103.7926 46.5436 102.9936 0.0000 0.0000 0.0000
# 4 0.0000 0.0000 0.0000 24.7155 0.0000 0.0000
# 5 0.0000 0.0000 0.0000 0.0000 32.9789 0.0000
# 6 0.0000 0.0000 0.0000 0.0000 0.0000 28.6031
#
#
#
# Elastic Compliance Matrix: (Units=1/GPa)
#
#
# Indices 1 2 3 4 5 6 
#
# 1 0.023623 -0.008083 -0.020153 0.000000 0.000000 0.000000
# 2 -0.008083 0.029748 -0.005297 0.000000 0.000000 0.000000
# 3 -0.020153 -0.005297 0.032413 0.000000 0.000000 0.000000
# 4 0.000000 0.000000 0.000000 0.040460 0.000000 0.000000
# 5 0.000000 0.000000 0.000000 0.000000 0.030322 0.000000
# 6 0.000000 0.000000 0.000000 0.000000 0.000000 0.034961
#
#
# Mechanical properties :
#
#
# Convention : Reuss Voigt Hill
#
# Bulk Modulus (GPa) = 53.43034 81.35599 67.39316
# Shear Modulus (GPa) = 18.87973 24.08850 21.48411
#
# Velocity S-wave (km/s) = 3.24485 3.66523 3.46143
# Velocity P-wave (km/s) = 6.62090 7.95508 7.31845
#
# Compressibility (1/GPa) = 0.01871596
#
# Stress axis : x y z
#
# Youngs Moduli (GPa) = 42.33169 33.61563 30.85208
#
# Poissons Ratio (x) = 0.27173 0.62177
# Poissons Ratio (y) = 0.34219 0.16343
# Poissons Ratio (z) = 0.85312 0.17807
#
# Static dielectric constant tensor:
#      x y z
#    x 1.599830 0.000000 0.000000 
#    y 0.000000 1.601410 0.000000 
#    z 0.000000 0.000000 1.588590 
# 
# From -- ./inp_files/4638.got.cif
#   From: 2010.05.17/outbox.cif.g08.bks.cpg/sg44_3_cif.got.tgz:4638.got - 2010.06.03 19:37:08.
