data_PCOD9374702
_publ_section_title
;
Structure prediction by ZEFSAII (Michael W. Deem and Ramdas Pophale) SiO2 
 PCOD9374702
Probable space group: I M M 2
;
_chemical_formula_sum "Si O2"
_cell_formula_units_Z 58
_cell_length_a 15.067679
_cell_length_b 7.281593
_cell_length_c 25.411524
_cell_angle_alpha 90.000000
_cell_angle_beta 90.000000
_cell_angle_gamma 90.000000
_cell_volume 2788.068706
_symmetry_space_group_name_H-M "I M M 2"
_symmetry_group_IT_number 44
_symmetry_cell_setting 'orthorhombic'
loop_
_space_group_symop_operation_xyz
x,y,z
-x,-y,z
-x,y,z
x,-y,z
1/2+x,1/2+y,1/2+z
1/2-x,1/2-y,1/2+z
1/2-x,1/2+y,1/2+z
1/2+x,1/2-y,1/2+z
loop_
_atom_site_type_symbol
_atom_site_label
_atom_site_fract_x
_atom_site_fract_y
_atom_site_fract_z
Si Si1 0.792218 0.275104 0.202010
Si Si2 0.404319 0.221417 0.332307
Si Si3 0.903709 0.214215 0.707726
Si Si4 0.400330 0.785561 0.802772
Si Si5 0.729704 0.280375 0.892948
Si Si6 0.841913 0.722172 0.986055
Si Si7 0.000000 0.000000 0.956212
Si Si8 0.398767 0.778181 0.599778
O O1 0.788104 0.500000 0.203090
O O2 0.691839 0.210357 0.191440
O O3 0.833239 0.212728 0.257884
O O4 0.855877 0.218843 0.154410
O O5 0.500000 0.290703 0.352877
O O6 0.400784 0.272908 0.271209
O O7 0.316284 0.287200 0.360804
O O8 0.405241 0.000000 0.336088
O O9 0.000000 0.292326 0.691566
O O10 0.905077 0.000000 0.692836
O O11 0.500000 0.708307 0.800703
O O12 0.356421 0.775634 0.860358
O O13 0.408159 0.000000 0.789984
O O14 0.729157 0.500000 0.890081
O O15 0.752825 0.233521 0.953123
O O16 0.857833 0.500000 0.980696
O O17 0.921983 0.838860 0.962042
O O18 0.842614 0.767452 0.047927
O O19 0.500000 0.712988 0.592905
O O20 0.402308 0.000000 0.601955
#
# Coordination Sequence:
#
# PCOD9374702 Si02
#       8
#     8   8   8   8   8   8   2   8
#     4   9  16  28  50  78 105 141 184 222 275 342
#     4   9  17  28  44  65  95 134 168 204 255 316
#     4   9  16  27  43  69 101 131 166 217 265 315
#     4  10  20  34  53  78 107 140 187 238 281 339
#     4  10  21  35  52  74 108 144 183 224 277 340
#     4  10  22  38  56  83 117 153 190 236 284 343
#     4  12  22  36  60  86 118 156 190 228 292 344
#     4   9  16  30  53  75 103 142 181 225 278 330
#
# _framework density 20.802931999999998
#
# number of rings (size 3 to 8) (size 9 to 14) (size 15 to 20)
#    0.000    2.483    2.069    0.621    1.931    1.931 
#    0.000    0.000    3.034    0.828    0.000    3.862 
#    0.000    0.000    0.000    0.000    0.000    0.000 
#
# Total GULP energy -161492.019336 kJ/mol
# GULP energy per Si atom -5568.690322 kJ/mol
# Density = 2.075558 g / cm^3
# Si number density = 20.802932 Si / 1000 Ang^3
#
#
#
# Elastic Constant Matrix: (Units=GPa)
#
#
# Indices 1 2 3 4 5 6 
#
# 1 128.2075 9.0198 47.6403 0.0000 0.0000 0.0000
# 2 9.0198 97.9070 -3.4685 0.0000 0.0000 0.0000
# 3 47.6403 -3.4685 95.8939 0.0000 0.0000 0.0000
# 4 0.0000 0.0000 0.0000 6.2817 0.0000 0.0000
# 5 0.0000 0.0000 0.0000 0.0000 31.7652 0.0000
# 6 0.0000 0.0000 0.0000 0.0000 0.0000 10.8830
#
#
#
# Elastic Compliance Matrix: (Units=1/GPa)
#
#
# Indices 1 2 3 4 5 6 
#
# 1 0.009675 -0.001063 -0.004845 0.000000 0.000000 0.000000
# 2 -0.001063 0.010344 0.000902 0.000000 0.000000 0.000000
# 3 -0.004845 0.000902 0.012868 0.000000 0.000000 0.000000
# 4 0.000000 0.000000 0.000000 0.159194 0.000000 0.000000
# 5 0.000000 0.000000 0.000000 0.000000 0.031481 0.000000
# 6 0.000000 0.000000 0.000000 0.000000 0.000000 0.091887
#
#
# Mechanical properties :
#
#
# Convention : Reuss Voigt Hill
#
# Bulk Modulus (GPa) = 43.71588 47.59906 45.65747
# Shear Modulus (GPa) = 15.01121 27.70709 21.35915
#
# Velocity S-wave (km/s) = 2.68916 3.65346 3.20775
# Velocity P-wave (km/s) = 5.54094 6.38182 5.97619
#
# Compressibility (1/GPa) = 0.02287498
#
# Stress axis : x y z
#
# Youngs Moduli (GPa) = 103.35942 96.67760 77.71318
#
# Poissons Ratio (x) = 0.10276 0.37652
# Poissons Ratio (y) = 0.10987 -0.07011
# Poissons Ratio (z) = 0.50078 -0.08722
#
# Static dielectric constant tensor:
#      x y z
#    x 1.752570 0.000000 0.000000 
#    y 0.000000 1.833930 0.000000 
#    z 0.000000 0.000000 1.749590 
# 
# From -- ./inp_files/26575.got.cif
#   From: 2010.05.17/outbox.cif.g08.bks.cpg/sg44_14_cif.got.tgz:26575.got - 2010.06.03 19:37:08.
