data_PCOD9374534
_publ_section_title
;
Structure prediction by ZEFSAII (Michael W. Deem and Ramdas Pophale) SiO2 
 PCOD9374534
Probable space group: I M M 2
;
_chemical_formula_sum "Si O2"
_cell_formula_units_Z 64
_cell_length_a 7.600511
_cell_length_b 14.678508
_cell_length_c 29.223336
_cell_angle_alpha 90.000000
_cell_angle_beta 90.000000
_cell_angle_gamma 90.000000
_cell_volume 3260.276978
_symmetry_space_group_name_H-M "I M M 2"
_symmetry_group_IT_number 44
_symmetry_cell_setting 'orthorhombic'
loop_
_space_group_symop_operation_xyz
x,y,z
-x,-y,z
-x,y,z
x,-y,z
1/2+x,1/2+y,1/2+z
1/2-x,1/2-y,1/2+z
1/2-x,1/2+y,1/2+z
1/2+x,1/2-y,1/2+z
loop_
_atom_site_type_symbol
_atom_site_label
_atom_site_fract_x
_atom_site_fract_y
_atom_site_fract_z
Si Si1 0.785279 0.603464 0.533520
Si Si2 0.293064 0.738221 0.351215
Si Si3 0.295681 0.761855 0.207238
Si Si4 0.714965 0.743952 0.104855
Si Si5 0.284303 0.104121 0.284568
Si Si6 0.711897 0.755972 0.957617
Si Si7 0.795401 0.602687 0.274842
Si Si8 0.284943 0.603838 0.028142
O O1 0.723422 0.500000 0.535465
O O2 0.734208 0.665759 0.576642
O O3 0.729227 0.657874 0.488030
O O4 0.000000 0.601799 0.533208
O O5 0.500000 0.733509 0.342183
O O6 0.228731 0.830918 0.326594
O O7 0.264219 0.739391 0.405088
O O8 0.216667 0.651994 0.324055
O O9 0.500000 0.785285 0.200086
O O10 0.220129 0.746379 0.156835
O O11 0.222837 0.843177 0.238825
O O12 0.288113 0.671097 0.238095
O O13 0.500000 0.740753 0.105357
O O14 0.769886 0.657879 0.073939
O O15 0.500000 0.102894 0.284159
O O16 0.225644 0.000000 0.287651
O O17 0.500000 0.755698 0.958921
O O18 0.770648 0.665537 0.984930
O O19 0.723565 0.500000 0.275390
O O20 0.000000 0.598097 0.262556
O O21 0.500000 0.602799 0.027960
O O22 0.224613 0.500000 0.026371
#
# Coordination Sequence:
#
# PCOD9374534 Si02
#       8
#     8   8   8   8   8   8   8   8
#     4   8  14  25  42  66  95 123 152 188 226 267
#     4  10  20  33  50  71  94 121 155 196 240 282
#     4   9  17  29  48  74  99 123 155 196 238 275
#     4   8  14  24  40  66  95 121 153 190 227 269
#     4   8  15  28  44  64  92 122 150 185 232 282
#     4   9  17  29  45  66  92 121 156 194 231 276
#     4  10  21  36  52  69  92 124 158 191 232 283
#     4   8  14  25  41  63  93 126 157 191 230 271
#
# _framework density 19.630234000000002
#
# number of rings (size 3 to 8) (size 9 to 14) (size 15 to 20)
#    0.000    3.250    0.000    3.000    0.000    3.000 
#    0.000    5.000    0.000   12.000    0.000    0.000 
#    0.000    0.000    0.000    0.000    0.000    0.000 
#
# Total GULP energy -178381.043532 kJ/mol
# GULP energy per Si atom -5574.407610 kJ/mol
# Density = 1.958555 g / cm^3
# Si number density = 19.630234 Si / 1000 Ang^3
#
#
#
# Elastic Constant Matrix: (Units=GPa)
#
#
# Indices 1 2 3 4 5 6 
#
# 1 38.1795 -5.1276 -8.1076 0.0000 0.0000 0.0000
# 2 -5.1276 174.9921 73.1044 0.0000 0.0000 0.0000
# 3 -8.1076 73.1044 163.4642 0.0000 0.0000 0.0000
# 4 0.0000 0.0000 0.0000 7.0778 0.0000 0.0000
# 5 0.0000 0.0000 0.0000 0.0000 13.8934 0.0000
# 6 0.0000 0.0000 0.0000 0.0000 0.0000 92.7974
#
#
#
# Elastic Compliance Matrix: (Units=1/GPa)
#
#
# Indices 1 2 3 4 5 6 
#
# 1 0.026482 0.000279 0.001188 0.000000 0.000000 0.000000
# 2 0.000279 0.007030 -0.003130 0.000000 0.000000 0.000000
# 3 0.001188 -0.003130 0.007576 0.000000 0.000000 0.000000
# 4 0.000000 0.000000 0.000000 0.141286 0.000000 0.000000
# 5 0.000000 0.000000 0.000000 0.000000 0.071976 0.000000
# 6 0.000000 0.000000 0.000000 0.000000 0.000000 0.010776
#
#
# Mechanical properties :
#
#
# Convention : Reuss Voigt Hill
#
# Bulk Modulus (GPa) = 26.48013 55.15269 40.81641
# Shear Modulus (GPa) = 17.79102 43.87151 30.83127
#
# Velocity S-wave (km/s) = 3.01376 4.73260 3.96738
# Velocity P-wave (km/s) = 5.06252 7.61709 6.46719
#
# Compressibility (1/GPa) = 0.03776416
#
# Stress axis : x y z
#
# Youngs Moduli (GPa) = 37.76152 142.23873 131.98854
#
# Poissons Ratio (x) = -0.03975 -0.15687
# Poissons Ratio (y) = -0.01055 0.41316
# Poissons Ratio (z) = -0.04488 0.44525
#
# Static dielectric constant tensor:
#      x y z
#    x 1.750440 0.000000 0.000000 
#    y 0.000000 1.673030 0.000000 
#    z 0.000000 0.000000 1.669270 
# 
# From -- ./inp_files/27273.got.cif
#   From: 2010.05.17/outbox.cif.g08.bks.cpg/sg44_14_cif.got.tgz:27273.got - 2010.06.03 19:37:08.
