data_PCOD9374163
_publ_section_title
;
Structure prediction by ZEFSAII (Michael W. Deem and Ramdas Pophale) SiO2 
 PCOD9374163
Probable space group: I M M 2
;
_chemical_formula_sum "Si O2"
_cell_formula_units_Z 64
_cell_length_a 12.878168
_cell_length_b 20.501587
_cell_length_c 11.705934
_cell_angle_alpha 90.000000
_cell_angle_beta 90.000000
_cell_angle_gamma 90.000000
_cell_volume 3090.634427
_symmetry_space_group_name_H-M "I M M 2"
_symmetry_group_IT_number 44
_symmetry_cell_setting 'orthorhombic'
loop_
_space_group_symop_operation_xyz
x,y,z
-x,-y,z
-x,y,z
x,-y,z
1/2+x,1/2+y,1/2+z
1/2-x,1/2-y,1/2+z
1/2-x,1/2+y,1/2+z
1/2+x,1/2-y,1/2+z
loop_
_atom_site_type_symbol
_atom_site_label
_atom_site_fract_x
_atom_site_fract_y
_atom_site_fract_z
Si Si1 0.385187 0.224332 0.945340
Si Si2 0.333020 0.574839 0.202233
Si Si3 0.884919 0.119097 0.447658
Si Si4 0.384919 0.880904 0.619830
Si Si5 0.163628 0.810196 0.864470
Si Si6 0.666980 0.925161 0.365255
Si Si7 0.836371 0.310195 0.703018
Si Si8 0.885187 0.775667 0.122148
O O1 0.500000 0.209844 0.899292
O O2 0.369377 0.302595 0.945952
O O3 0.289060 0.193198 0.879098
O O4 0.378889 0.200662 0.076308
O O5 0.358516 0.500000 0.223655
O O6 0.208870 0.584313 0.184633
O O7 0.366724 0.623600 0.301834
O O8 0.377855 0.597450 0.080120
O O9 0.791131 0.084314 0.382855
O O10 0.000000 0.103969 0.404214
O O11 0.500000 0.896032 0.663275
O O12 0.377855 0.902552 0.487368
O O13 0.369376 0.802596 0.621535
O O14 0.132921 0.750001 0.783743
O O15 0.121111 0.799337 0.991180
O O16 0.633277 0.876399 0.265655
O O17 0.641486 0.000000 0.343830
O O18 0.710940 0.306801 0.688390
O O19 0.000000 0.790155 0.168196
#
# Coordination Sequence:
#
# PCOD9374163 Si02
#       8
#     8   8   8   8   8   8   8   8
#     4  10  21  35  57  84 107 135 178 228 266 302
#     4  11  22  35  53  80 112 145 175 214 267 319
#     4  10  19  34  56  83 111 137 170 221 275 321
#     4  10  19  34  56  83 111 137 170 221 275 321
#     4  11  19  37  57  78 109 140 180 219 258 317
#     4  11  22  35  53  80 112 145 175 214 267 319
#     4  11  19  37  57  78 109 140 180 219 258 317
#     4  10  21  35  57  84 107 135 178 228 266 302
#
# _framework density 20.707723000000001
#
# number of rings (size 3 to 8) (size 9 to 14) (size 15 to 20)
#    0.000    1.500    5.000    3.000    0.000    5.000 
#    0.000    2.500    0.000    1.500    0.000    0.000 
#    0.000    0.000    0.000    0.000    0.000    0.000 
#
# Total GULP energy -179043.154628 kJ/mol
# GULP energy per Si atom -5595.098582 kJ/mol
# Density = 2.066059 g / cm^3
# Si number density = 20.707723 Si / 1000 Ang^3
#
#
#
# Elastic Constant Matrix: (Units=GPa)
#
#
# Indices 1 2 3 4 5 6 
#
# 1 97.1366 4.1102 -8.4098 0.0000 0.0000 0.0000
# 2 4.1102 112.8443 36.2649 0.0001 0.0000 0.0000
# 3 -8.4098 36.2649 94.7285 0.0006 0.0001 0.0000
# 4 0.0000 0.0001 0.0006 21.0004 0.0000 0.0000
# 5 0.0000 0.0000 0.0001 0.0000 -11.1975 0.0000
# 6 0.0000 0.0000 0.0000 0.0000 0.0000 9.3302
#
#
#
# Elastic Compliance Matrix: (Units=1/GPa)
#
#
# Indices 1 2 3 4 5 6 
#
# 1 0.010433 -0.000773 0.001222 0.000000 0.000000 0.000000
# 2 -0.000773 0.010162 -0.003959 0.000000 0.000000 0.000000
# 3 0.001222 -0.003959 0.012181 0.000000 0.000000 0.000000
# 4 0.000000 0.000000 0.000000 0.047618 0.000000 0.000000
# 5 0.000000 0.000000 0.000000 0.000000 -0.089306 0.000000
# 6 0.000000 0.000000 0.000000 0.000000 0.000000 0.107179
#
#
# Mechanical properties :
#
#
# Convention : Reuss Voigt Hill
#
# Bulk Modulus (GPa) = 38.82479 40.96000 39.89239
# Shear Modulus (GPa) = 43.90874 22.00956 32.95915
#
# Velocity S-wave (km/s) = 4.60978 3.26370 3.99386
# Velocity P-wave (km/s) = 6.86462 5.83312 6.36979
#
# Compressibility (1/GPa) = 0.02575674
#
# Stress axis : x y z
#
# Youngs Moduli (GPa) = 95.84708 98.40365 82.09774
#
# Poissons Ratio (x) = 0.07604 -0.10033
# Poissons Ratio (y) = 0.07407 0.32503
# Poissons Ratio (z) = -0.11713 0.38958
#
# Static dielectric constant tensor:
#      x y z
#    x 1.803650 0.000000 0.000000 
#    y 0.000000 1.689810 0.000000 
#    z 0.000000 0.000000 1.726330 
# 
# From -- ./inp_files/13437.got.cif
#   From: 2010.05.17/outbox.cif.g08.bks.cpg/sg44_7_cif.got.tgz:13437.got - 2010.06.03 19:37:08.
