data_PCOD9374443
_publ_section_title
;
Structure prediction by ZEFSAII (Michael W. Deem and Ramdas Pophale) SiO2 
 PCOD9374443
Probable space group: I M M 2
;
_chemical_formula_sum "Si O2"
_cell_formula_units_Z 64
_cell_length_a 30.948216
_cell_length_b 8.958017
_cell_length_c 14.679414
_cell_angle_alpha 90.000000
_cell_angle_beta 90.000000
_cell_angle_gamma 90.000000
_cell_volume 4069.642130
_symmetry_space_group_name_H-M "I M M 2"
_symmetry_group_IT_number 44
_symmetry_cell_setting 'orthorhombic'
loop_
_space_group_symop_operation_xyz
x,y,z
-x,-y,z
-x,y,z
x,-y,z
1/2+x,1/2+y,1/2+z
1/2-x,1/2-y,1/2+z
1/2-x,1/2+y,1/2+z
1/2+x,1/2-y,1/2+z
loop_
_atom_site_type_symbol
_atom_site_label
_atom_site_fract_x
_atom_site_fract_y
_atom_site_fract_z
Si Si1 0.234185 0.675704 0.510320
Si Si2 0.296216 0.822605 0.210212
Si Si3 0.950156 0.823002 0.109268
Si Si4 0.324852 0.829330 0.497282
Si Si5 0.211469 0.321332 0.304231
Si Si6 0.630846 0.323471 0.329190
Si Si7 0.449794 0.822759 0.410056
Si Si8 0.871287 0.673313 0.192360
O O1 0.247325 0.500000 0.512256
O O2 0.207234 0.702893 0.601797
O O3 0.276072 0.779276 0.513485
O O4 0.211997 0.701511 0.412845
O O5 0.253127 0.756435 0.258578
O O6 0.338509 0.747139 0.252572
O O7 0.297266 0.000000 0.226665
O O8 0.915525 0.763262 0.181524
O O9 0.000000 0.792842 0.135378
O O10 0.944930 0.000000 0.096688
O O11 0.942941 0.744082 0.011362
O O12 0.345427 0.720066 0.423572
O O13 0.349608 0.821656 0.592475
O O14 0.327195 0.000000 0.463317
O O15 0.215286 0.500000 0.286649
O O16 0.166217 0.270902 0.260026
O O17 0.628168 0.500000 0.318752
O O18 0.583596 0.251820 0.340718
O O19 0.500000 0.796438 0.386484
O O20 0.442061 0.000000 0.414213
O O21 0.880630 0.500000 0.214172
#
# Coordination Sequence:
#
# PCOD9374443 Si02
#       8
#     8   8   8   8   8   8   8   8
#     4  10  21  35  51  71 100 135 170 211 255 295
#     4  11  22  34  50  74 100 132 172 209 249 298
#     4  10  20  32  48  72 102 134 167 205 250 301
#     4  11  20  30  48  74 102 134 171 209 247 291
#     4  10  20  35  51  71  99 133 170 209 252 297
#     4  12  23  34  50  72 101 139 173 206 248 296
#     4  10  20  34  52  74 101 131 164 205 251 300
#     4  10  20  32  49  72 101 137 172 207 248 295
#
# _framework density 15.726198
#
# number of rings (size 3 to 8) (size 9 to 14) (size 15 to 20)
#    0.000    1.500    3.750    2.625    0.000    3.000 
#    0.000    0.000    0.000    0.000    0.000    0.875 
#    0.000    3.000    0.000    0.000    0.000    0.000 
#
# Total GULP energy -178610.380052 kJ/mol
# GULP energy per Si atom -5581.574377 kJ/mol
# Density = 1.569040 g / cm^3
# Si number density = 15.726198 Si / 1000 Ang^3
#
#
#
# Elastic Constant Matrix: (Units=GPa)
#
#
# Indices 1 2 3 4 5 6 
#
# 1 131.3219 67.9394 47.3573 0.0000 0.0000 0.0000
# 2 67.9394 78.3254 39.6462 0.0000 0.0000 0.0000
# 3 47.3573 39.6462 73.6095 0.0000 0.0000 0.0000
# 4 0.0000 0.0000 0.0000 14.8259 0.0000 0.0000
# 5 0.0000 0.0000 0.0000 0.0000 22.7949 0.0000
# 6 0.0000 0.0000 0.0000 0.0000 0.0000 24.4532
#
#
#
# Elastic Compliance Matrix: (Units=1/GPa)
#
#
# Indices 1 2 3 4 5 6 
#
# 1 0.014440 -0.010755 -0.003498 0.000000 0.000000 0.000000
# 2 -0.010755 0.025563 -0.006849 0.000000 0.000000 0.000000
# 3 -0.003498 -0.006849 0.019524 0.000000 0.000000 0.000000
# 4 0.000000 0.000000 0.000000 0.067449 0.000000 0.000000
# 5 0.000000 0.000000 0.000000 0.000000 0.043869 0.000000
# 6 0.000000 0.000000 0.000000 0.000000 0.000000 0.040895
#
#
# Mechanical properties :
#
#
# Convention : Reuss Voigt Hill
#
# Bulk Modulus (GPa) = 57.72218 65.90473 61.81345
# Shear Modulus (GPa) = 19.25161 20.96908 20.11034
#
# Velocity S-wave (km/s) = 3.50262 3.65552 3.57988
# Velocity P-wave (km/s) = 7.28985 7.73406 7.51524
#
# Compressibility (1/GPa) = 0.01732436
#
# Stress axis : x y z
#
# Youngs Moduli (GPa) = 69.25039 39.11909 51.21859
#
# Poissons Ratio (x) = 0.42073 0.17914
# Poissons Ratio (y) = 0.74480 0.35079
# Poissons Ratio (z) = 0.24221 0.26792
#
# Static dielectric constant tensor:
#      x y z
#    x 1.534220 0.000000 0.000000 
#    y 0.000000 1.533520 0.000000 
#    z 0.000000 0.000000 1.513840 
# 
# From -- ./inp_files/17107.got.cif
#   From: 2010.05.17/outbox.cif.g08.bks.cpg/sg44_9_cif.got.tgz:17107.got - 2010.06.03 19:37:08.
