data_PCOD9374361
_publ_section_title
;
Structure prediction by ZEFSAII (Michael W. Deem and Ramdas Pophale) SiO2 
 PCOD9374361
Probable space group: I M M 2
;
_chemical_formula_sum "Si O2"
_cell_formula_units_Z 40
_cell_length_a 19.524561
_cell_length_b 14.433808
_cell_length_c 7.058648
_cell_angle_alpha 90.000000
_cell_angle_beta 90.000000
_cell_angle_gamma 90.000000
_cell_volume 1989.224167
_symmetry_space_group_name_H-M "I M M 2"
_symmetry_group_IT_number 44
_symmetry_cell_setting 'orthorhombic'
loop_
_space_group_symop_operation_xyz
x,y,z
-x,-y,z
-x,y,z
x,-y,z
1/2+x,1/2+y,1/2+z
1/2-x,1/2-y,1/2+z
1/2-x,1/2+y,1/2+z
1/2+x,1/2-y,1/2+z
loop_
_atom_site_type_symbol
_atom_site_label
_atom_site_fract_x
_atom_site_fract_y
_atom_site_fract_z
Si Si1 0.273578 0.601900 0.112260
Si Si2 0.423396 0.739848 0.758811
Si Si3 0.834185 0.708041 0.624982
Si Si4 0.195307 0.893229 0.161051
Si Si5 0.880913 0.393474 0.999268
O O1 0.294087 0.500000 0.181364
O O2 0.310970 0.690362 0.198618
O O3 0.289805 0.605484 0.887475
O O4 0.191808 0.610117 0.111802
O O5 0.500000 0.704358 0.799929
O O6 0.374070 0.666078 0.652537
O O7 0.427786 0.827173 0.620361
O O8 0.384541 0.773308 0.949642
O O9 0.762669 0.655980 0.573301
O O10 0.868292 0.648586 0.791188
O O11 0.189084 0.000000 0.102036
O O12 0.902019 0.500000 0.986165
#
# Coordination Sequence:
#
# PCOD9374361 Si02
#       5
#     8   8   8   8   8
#     4   8  15  30  56  87 115 147 196 248 293 345
#     4  11  24  39  59  91 126 159 198 253 315 367
#     4  10  19  37  63  88 117 156 206 251 294 364
#     4   9  18  35  61  89 116 155 203 249 296 356
#     4  10  21  37  56  81 119 160 198 245 298 359
#
# _framework density 20.108343999999999
#
# number of rings (size 3 to 8) (size 9 to 14) (size 15 to 20)
#    0.000    2.400    2.000    1.800    0.000    3.200 
#    0.000    3.000    0.000    0.000    0.000    2.800 
#    0.000    0.000    0.000    0.000    0.000    0.000 
#
# Total GULP energy -111602.713200 kJ/mol
# GULP energy per Si atom -5580.135660 kJ/mol
# Density = 2.006258 g / cm^3
# Si number density = 20.108344 Si / 1000 Ang^3
#
#
#
# Elastic Constant Matrix: (Units=GPa)
#
#
# Indices 1 2 3 4 5 6 
#
# 1 132.4293 56.4457 34.8418 0.0000 0.0000 0.0000
# 2 56.4457 144.4412 14.4867 0.0000 0.0000 0.0000
# 3 34.8418 14.4867 72.3420 0.0000 0.0000 0.0000
# 4 0.0000 0.0000 0.0000 24.5490 0.0000 0.0000
# 5 0.0000 0.0000 0.0000 0.0000 0.3008 0.0000
# 6 0.0000 0.0000 0.0000 0.0000 0.0000 6.5169
#
#
#
# Elastic Compliance Matrix: (Units=1/GPa)
#
#
# Indices 1 2 3 4 5 6 
#
# 1 0.010167 -0.003553 -0.004185 0.000000 0.000000 0.000000
# 2 -0.003553 0.008307 0.000048 0.000000 0.000000 0.000000
# 3 -0.004185 0.000048 0.015829 0.000000 0.000000 0.000000
# 4 0.000000 0.000000 0.000000 0.040735 0.000000 0.000000
# 5 0.000000 0.000000 0.000000 0.000000 3.324915 0.000000
# 6 0.000000 0.000000 0.000000 0.000000 0.000000 0.153448
#
#
# Mechanical properties :
#
#
# Convention : Reuss Voigt Hill
#
# Bulk Modulus (GPa) = 52.84819 62.30673 57.57746
# Shear Modulus (GPa) = 1.39857 22.50255 11.95056
#
# Velocity S-wave (km/s) = 0.83488 3.34887 2.44049
# Velocity P-wave (km/s) = 5.22189 6.78278 6.05286
#
# Compressibility (1/GPa) = 0.01892213
#
# Stress axis : x y z
#
# Youngs Moduli (GPa) = 98.35924 120.38011 63.17412
#
# Poissons Ratio (x) = 0.42775 0.26439
# Poissons Ratio (y) = 0.34950 -0.00302
# Poissons Ratio (z) = 0.41164 -0.00576
#
# Static dielectric constant tensor:
#      x y z
#    x 1.706970 0.000000 0.000000 
#    y 0.000000 1.728050 0.000000 
#    z 0.000000 0.000000 1.754460 
# 
# From -- ./inp_files/6962.got.cif
#   From: 2010.05.17/outbox.cif.g08.bks.cpg/sg44_4_cif.got.tgz:6962.got - 2010.06.03 19:37:08.
