data_PCOD9374522
_publ_section_title
;
Structure prediction by ZEFSAII (Michael W. Deem and Ramdas Pophale) SiO2 
 PCOD9374522
Probable space group: I M M 2
;
_chemical_formula_sum "Si O2"
_cell_formula_units_Z 64
_cell_length_a 14.693400
_cell_length_b 8.958646
_cell_length_c 28.843467
_cell_angle_alpha 90.000000
_cell_angle_beta 90.000000
_cell_angle_gamma 90.000000
_cell_volume 3796.751201
_symmetry_space_group_name_H-M "I M M 2"
_symmetry_group_IT_number 44
_symmetry_cell_setting 'orthorhombic'
loop_
_space_group_symop_operation_xyz
x,y,z
-x,-y,z
-x,y,z
x,-y,z
1/2+x,1/2+y,1/2+z
1/2-x,1/2-y,1/2+z
1/2-x,1/2+y,1/2+z
1/2+x,1/2-y,1/2+z
loop_
_atom_site_type_symbol
_atom_site_label
_atom_site_fract_x
_atom_site_fract_y
_atom_site_fract_z
Si Si1 0.104963 0.820556 0.918090
Si Si2 0.604726 0.320883 0.309667
Si Si3 0.394153 0.821569 0.583695
Si Si4 0.109099 0.174605 0.642120
Si Si5 0.106843 0.677891 0.542739
Si Si6 0.228931 0.321046 0.995759
Si Si7 0.714687 0.178782 0.227713
Si Si8 0.396703 0.320473 0.682106
O O1 0.120077 0.785657 0.863797
O O2 0.176107 0.740287 0.951226
O O3 0.000000 0.778831 0.929487
O O4 0.112035 0.000000 0.923309
O O5 0.500000 0.279597 0.298315
O O6 0.611732 0.500000 0.304491
O O7 0.672761 0.242278 0.274706
O O8 0.500000 0.785691 0.573683
O O9 0.331611 0.777995 0.540739
O O10 0.369760 0.743663 0.631923
O O11 0.387043 0.000000 0.589729
O O12 0.129794 0.250565 0.592795
O O13 0.158804 0.254605 0.684422
O O14 0.000000 0.184306 0.648953
O O15 0.134486 0.000000 0.640393
O O16 0.119486 0.500000 0.544828
O O17 0.172794 0.749510 0.504757
O O18 0.000000 0.708404 0.533956
O O19 0.235095 0.500000 0.994041
O O20 0.819945 0.221565 0.219026
O O21 0.707461 0.000000 0.227181
O O22 0.500000 0.269878 0.692305
O O23 0.397638 0.500000 0.678939
#
# Coordination Sequence:
#
# PCOD9374522 Si02
#       8
#     8   8   8   8   8   8   8   8
#     4   9  19  36  56  77 102 132 165 202 248 303
#     4   9  19  36  55  75 101 131 161 198 248 302
#     4   9  18  31  46  69 101 132 162 197 238 286
#     4  10  20  33  49  71 102 137 168 201 247 302
#     4  10  21  36  52  71  99 135 174 215 253 291
#     4  11  21  32  51  77 104 134 167 205 251 303
#     4  11  21  31  49  75  99 128 168 210 251 298
#     4   9  19  34  48  65  94 131 167 202 240 283
#
# _framework density 16.856515999999999
#
# number of rings (size 3 to 8) (size 9 to 14) (size 15 to 20)
#    0.000    2.250    0.000    3.750    0.000    8.500 
#    0.000    2.500    0.000    0.750    0.000    3.500 
#    0.000    0.000    0.000    0.000    0.000    0.000 
#
# Total GULP energy -178640.594574 kJ/mol
# GULP energy per Si atom -5582.518580 kJ/mol
# Density = 1.681815 g / cm^3
# Si number density = 16.856516 Si / 1000 Ang^3
#
#
#
# Elastic Constant Matrix: (Units=GPa)
#
#
# Indices 1 2 3 4 5 6 
#
# 1 96.7370 51.2805 78.7167 0.0000 0.0000 0.0000
# 2 51.2805 47.7702 47.8487 0.0000 0.0000 0.0000
# 3 78.7167 47.8487 94.7569 0.0000 0.0000 0.0000
# 4 0.0000 0.0000 0.0000 31.7371 0.0000 0.0000
# 5 0.0000 0.0000 0.0000 0.0000 33.5834 0.0000
# 6 0.0000 0.0000 0.0000 0.0000 0.0000 24.5344
#
#
#
# Elastic Compliance Matrix: (Units=1/GPa)
#
#
# Indices 1 2 3 4 5 6 
#
# 1 0.038891 -0.018996 -0.022715 0.000000 0.000000 0.000000
# 2 -0.018996 0.051637 -0.010294 0.000000 0.000000 0.000000
# 3 -0.022715 -0.010294 0.034621 0.000000 0.000000 0.000000
# 4 0.000000 0.000000 0.000000 0.031509 0.000000 0.000000
# 5 0.000000 0.000000 0.000000 0.000000 0.029777 0.000000
# 6 0.000000 0.000000 0.000000 0.000000 0.000000 0.040759
#
#
# Mechanical properties :
#
#
# Convention : Reuss Voigt Hill
#
# Bulk Modulus (GPa) = 47.30779 66.10621 56.70700
# Shear Modulus (GPa) = 14.78190 22.06550 18.42370
#
# Velocity S-wave (km/s) = 2.96450 3.62196 3.30960
# Velocity P-wave (km/s) = 6.31218 7.53615 6.95116
#
# Compressibility (1/GPa) = 0.02113817
#
# Stress axis : x y z
#
# Youngs Moduli (GPa) = 25.71269 19.36609 28.88381
#
# Poissons Ratio (x) = 0.36789 0.65611
# Poissons Ratio (y) = 0.48845 0.29732
# Poissons Ratio (z) = 0.58407 0.19935
#
# Static dielectric constant tensor:
#      x y z
#    x 1.589160 0.000000 0.000000 
#    y 0.000000 1.560060 0.000000 
#    z 0.000000 0.000000 1.535600 
# 
# From -- ./inp_files/25137.got.cif
#   From: 2010.05.17/outbox.cif.g08.bks.cpg/sg44_13_cif.got.tgz:25137.got - 2010.06.03 19:37:08.
