data_PCOD9374736
_publ_section_title
;
Structure prediction by ZEFSAII (Michael W. Deem and Ramdas Pophale) SiO2 
 PCOD9374736
Probable space group: I M M 2
;
_chemical_formula_sum "Si O2"
_cell_formula_units_Z 64
_cell_length_a 25.225507
_cell_length_b 24.411103
_cell_length_c 5.154331
_cell_angle_alpha 90.000000
_cell_angle_beta 90.000000
_cell_angle_gamma 90.000000
_cell_volume 3173.946569
_symmetry_space_group_name_H-M "I M M 2"
_symmetry_group_IT_number 44
_symmetry_cell_setting 'orthorhombic'
loop_
_space_group_symop_operation_xyz
x,y,z
-x,-y,z
-x,y,z
x,-y,z
1/2+x,1/2+y,1/2+z
1/2-x,1/2-y,1/2+z
1/2-x,1/2+y,1/2+z
1/2+x,1/2-y,1/2+z
loop_
_atom_site_type_symbol
_atom_site_label
_atom_site_fract_x
_atom_site_fract_y
_atom_site_fract_z
Si Si1 0.346021 0.173003 0.856870
Si Si2 0.370000 0.280417 0.568073
Si Si3 0.243565 0.215272 0.088084
Si Si4 0.939211 0.709959 0.726249
Si Si5 0.436385 0.365800 0.871788
Si Si6 0.941168 0.590384 0.887670
Si Si7 0.618001 0.059675 0.868784
Si Si8 0.436353 0.562618 0.360470
O O1 0.346290 0.220877 0.646167
O O2 0.295038 0.178562 0.039493
O O3 0.347423 0.110623 0.770877
O O4 0.400387 0.188241 0.004703
O O5 0.313849 0.309755 0.511430
O O6 0.412835 0.263652 0.351919
O O7 0.402046 0.313185 0.787338
O O8 0.255197 0.264754 0.884664
O O9 0.939539 0.656750 0.915715
O O10 0.000000 0.719845 0.647138
O O11 0.500000 0.353310 0.882834
O O12 0.428002 0.409627 0.639216
O O13 0.418624 0.395417 0.136183
O O14 0.901335 0.571369 0.661711
O O15 0.000000 0.576749 0.794762
O O16 0.929793 0.563231 0.162811
O O17 0.642733 0.000000 0.855149
O O18 0.500000 0.559165 0.324969
O O19 0.416089 0.500000 0.342230
#
# Coordination Sequence:
#
# PCOD9374736 Si02
#       8
#     8   8   8   8   8   8   8   8
#     4  10  22  39  56  82 116 154 196 239 296 348
#     4  11  21  36  56  85 119 152 190 238 292 345
#     4  10  21  37  61  82 106 147 196 236 276 344
#     4  10  20  34  54  81 119 158 186 226 297 359
#     4  10  21  32  52  85 116 146 185 230 283 346
#     4  10  21  36  52  76 109 149 191 233 284 340
#     4  11  22  36  56  78 105 147 198 246 285 338
#     4   9  18  35  55  76 109 154 195 229 271 333
#
# _framework density 20.164169999999999
#
# number of rings (size 3 to 8) (size 9 to 14) (size 15 to 20)
#    0.000    1.875    2.500    1.500    1.750    4.500 
#    0.000    0.000    0.000    1.500    0.000    0.000 
#    0.000    0.000    0.000    0.000    0.000    0.000 
#
# Total GULP energy -178341.205472 kJ/mol
# GULP energy per Si atom -5573.162671 kJ/mol
# Density = 2.011827 g / cm^3
# Si number density = 20.164170 Si / 1000 Ang^3
#
#
#
# Elastic Constant Matrix: (Units=GPa)
#
#
# Indices 1 2 3 4 5 6 
#
# 1 95.7768 11.6857 6.1241 0.0000 0.0000 0.0000
# 2 11.6857 98.0742 6.5343 0.0000 0.0000 0.0000
# 3 6.1241 6.5343 50.3135 0.0000 0.0000 0.0000
# 4 0.0000 0.0000 0.0000 19.7369 0.0000 0.0000
# 5 0.0000 0.0000 0.0000 0.0000 17.9502 0.0000
# 6 0.0000 0.0000 0.0000 0.0000 0.0000 3.5577
#
#
#
# Elastic Compliance Matrix: (Units=1/GPa)
#
#
# Indices 1 2 3 4 5 6 
#
# 1 0.010660 -0.001194 -0.001142 0.000000 0.000000 0.000000
# 2 -0.001194 0.010419 -0.001208 0.000000 0.000000 0.000000
# 3 -0.001142 -0.001208 0.020171 0.000000 0.000000 0.000000
# 4 0.000000 0.000000 0.000000 0.050667 0.000000 0.000000
# 5 0.000000 0.000000 0.000000 0.000000 0.055710 0.000000
# 6 0.000000 0.000000 0.000000 0.000000 0.000000 0.281082
#
#
# Mechanical properties :
#
#
# Convention : Reuss Voigt Hill
#
# Bulk Modulus (GPa) = 29.27263 32.53919 30.90591
# Shear Modulus (GPa) = 11.18108 22.90365 17.04236
#
# Velocity S-wave (km/s) = 2.35734 3.37391 2.91035
# Velocity P-wave (km/s) = 4.68594 5.59909 5.16275
#
# Compressibility (1/GPa) = 0.03416161
#
# Stress axis : x y z
#
# Youngs Moduli (GPa) = 93.81157 95.97759 49.57537
#
# Poissons Ratio (x) = 0.11460 0.05664
# Poissons Ratio (y) = 0.11201 0.05988
# Poissons Ratio (z) = 0.10717 0.11592
#
# Static dielectric constant tensor:
#      x y z
#    x 1.773770 0.000000 0.000000 
#    y 0.000000 1.788250 0.000000 
#    z 0.000000 0.000000 1.752670 
# 
# From -- ./inp_files/2845.got.cif
#   From: 2010.05.17/outbox.cif.g08.bks.cpg/sg44_2_cif.got.tgz:2845.got - 2010.06.03 19:37:08.
