data_PCOD9374550
_publ_section_title
;
Structure prediction by ZEFSAII (Michael W. Deem and Ramdas Pophale) SiO2 
 PCOD9374550
Probable space group: I M M 2
;
_chemical_formula_sum "Si O2"
_cell_formula_units_Z 64
_cell_length_a 14.492831
_cell_length_b 8.883934
_cell_length_c 28.964303
_cell_angle_alpha 90.000000
_cell_angle_beta 90.000000
_cell_angle_gamma 90.000000
_cell_volume 3729.251160
_symmetry_space_group_name_H-M "I M M 2"
_symmetry_group_IT_number 44
_symmetry_cell_setting 'orthorhombic'
loop_
_space_group_symop_operation_xyz
x,y,z
-x,-y,z
-x,y,z
x,-y,z
1/2+x,1/2+y,1/2+z
1/2-x,1/2-y,1/2+z
1/2-x,1/2+y,1/2+z
1/2+x,1/2-y,1/2+z
loop_
_atom_site_type_symbol
_atom_site_label
_atom_site_fract_x
_atom_site_fract_y
_atom_site_fract_z
Si Si1 0.891843 0.179623 0.478640
Si Si2 0.279286 0.179366 0.895378
Si Si3 0.778558 0.680504 0.668415
Si Si4 0.610374 0.676459 0.253037
Si Si5 0.607311 0.180149 0.077899
Si Si6 0.889546 0.823378 0.310564
Si Si7 0.892313 0.679595 0.210981
Si Si8 0.107918 0.679630 0.852418
O O1 0.827935 0.259610 0.441297
O O2 0.871166 0.235629 0.530350
O O3 0.000000 0.216103 0.469512
O O4 0.881491 0.000000 0.475259
O O5 0.337349 0.242058 0.851907
O O6 0.176697 0.244038 0.888380
O O7 0.278546 0.000000 0.894821
O O8 0.776795 0.500000 0.671599
O O9 0.837583 0.746623 0.710800
O O10 0.827584 0.722743 0.620439
O O11 0.676622 0.747004 0.674516
O O12 0.500000 0.688283 0.245986
O O13 0.634796 0.500000 0.255920
O O14 0.631514 0.756604 0.301569
O O15 0.500000 0.211710 0.089846
O O16 0.615059 0.000000 0.070546
O O17 0.869028 0.747905 0.261293
O O18 0.000000 0.812149 0.317821
O O19 0.864833 0.000000 0.309465
O O20 0.880651 0.500000 0.212250
O O21 0.000000 0.713117 0.201960
O O22 0.119750 0.500000 0.852661
O O23 0.000000 0.713753 0.860911
#
# Coordination Sequence:
#
# PCOD9374550 Si02
#       8
#     8   8   8   8   8   8   8   8
#     4  10  21  37  57  81 108 136 168 209 256 306
#     4  12  23  34  53  78 106 139 173 211 256 309
#     4  11  21  33  53  78 105 138 175 214 257 308
#     4  10  20  33  50  75 108 142 176 214 255 303
#     4   9  19  36  56  79 107 136 166 204 255 312
#     4  10  20  34  52  75 105 139 176 217 258 304
#     4  10  21  36  52  72 102 139 178 219 261 305
#     4  10  21  37  55  74 101 138 178 219 260 302
#
# _framework density 17.161622000000001
#
# number of rings (size 3 to 8) (size 9 to 14) (size 15 to 20)
#    0.000    1.750    0.000    4.875    0.000    6.750 
#    0.000    1.250    0.000    0.750    0.000    3.500 
#    0.000    0.000    0.000    0.000    0.000    0.000 
#
# Total GULP energy -178845.546632 kJ/mol
# GULP energy per Si atom -5588.923332 kJ/mol
# Density = 1.712256 g / cm^3
# Si number density = 17.161622 Si / 1000 Ang^3
#
#
#
# Elastic Constant Matrix: (Units=GPa)
#
#
# Indices 1 2 3 4 5 6 
#
# 1 98.5722 67.6168 87.7864 0.0000 0.0000 0.0000
# 2 67.6168 106.0827 71.5475 0.0000 0.0000 0.0000
# 3 87.7864 71.5475 116.8590 0.0000 0.0000 0.0000
# 4 0.0000 0.0000 0.0000 29.9037 0.0000 0.0000
# 5 0.0000 0.0000 0.0000 0.0000 32.3600 0.0000
# 6 0.0000 0.0000 0.0000 0.0000 0.0000 29.2199
#
#
#
# Elastic Compliance Matrix: (Units=1/GPa)
#
#
# Indices 1 2 3 4 5 6 
#
# 1 0.033856 -0.007540 -0.020817 0.000000 0.000000 0.000000
# 2 -0.007540 0.017736 -0.005195 0.000000 0.000000 0.000000
# 3 -0.020817 -0.005195 0.027376 0.000000 0.000000 0.000000
# 4 0.000000 0.000000 0.000000 0.033441 0.000000 0.000000
# 5 0.000000 0.000000 0.000000 0.000000 0.030902 0.000000
# 6 0.000000 0.000000 0.000000 0.000000 0.000000 0.034223
#
#
# Mechanical properties :
#
#
# Convention : Reuss Voigt Hill
#
# Bulk Modulus (GPa) = 84.28341 86.15725 85.22033
# Shear Modulus (GPa) = 20.11321 24.60095 22.35708
#
# Velocity S-wave (km/s) = 3.42714 3.79025 3.61326
# Velocity P-wave (km/s) = 8.05473 8.33469 8.19590
#
# Compressibility (1/GPa) = 0.01186473
#
# Stress axis : x y z
#
# Youngs Moduli (GPa) = 29.53699 56.38167 36.52821
#
# Poissons Ratio (x) = 0.42510 0.76040
# Poissons Ratio (y) = 0.22270 0.18977
# Poissons Ratio (z) = 0.61487 0.29291
#
# Static dielectric constant tensor:
#      x y z
#    x 1.600340 0.000000 0.000000 
#    y 0.000000 1.570030 0.000000 
#    z 0.000000 0.000000 1.541200 
# 
# From -- ./inp_files/25193.got.cif
#   From: 2010.05.17/outbox.cif.g08.bks.cpg/sg44_13_cif.got.tgz:25193.got - 2010.06.03 19:37:08.
