data_PCOD9374928
_publ_section_title
;
Structure prediction by ZEFSAII (Michael W. Deem and Ramdas Pophale) SiO2 
 PCOD9374928
Probable space group: I M M 2
;
_chemical_formula_sum "Si O2"
_cell_formula_units_Z 56
_cell_length_a 8.815398
_cell_length_b 15.883335
_cell_length_c 20.453157
_cell_angle_alpha 90.000000
_cell_angle_beta 90.000000
_cell_angle_gamma 90.000000
_cell_volume 2863.808492
_symmetry_space_group_name_H-M "I M M 2"
_symmetry_group_IT_number 44
_symmetry_cell_setting 'orthorhombic'
loop_
_space_group_symop_operation_xyz
x,y,z
-x,-y,z
-x,y,z
x,-y,z
1/2+x,1/2+y,1/2+z
1/2-x,1/2-y,1/2+z
1/2-x,1/2+y,1/2+z
1/2+x,1/2-y,1/2+z
loop_
_atom_site_type_symbol
_atom_site_label
_atom_site_fract_x
_atom_site_fract_y
_atom_site_fract_z
Si Si1 0.817822 0.901614 0.145480
Si Si2 0.177295 0.735816 0.916942
Si Si3 0.825996 0.407415 0.393819
Si Si4 0.833422 0.646357 0.249884
Si Si5 0.821281 0.315749 0.772784
Si Si6 0.675126 0.908530 0.608621
Si Si7 0.677379 0.245776 0.055827
O O1 0.758505 0.873047 0.217698
O O2 0.756344 0.835008 0.090961
O O3 0.000000 0.896112 0.145045
O O4 0.775066 0.000000 0.133269
O O5 0.205647 0.835657 0.908272
O O6 0.228885 0.688118 0.849978
O O7 0.000000 0.717403 0.925724
O O8 0.267926 0.725332 0.983766
O O9 0.790861 0.500000 0.419668
O O10 0.827917 0.406749 0.315469
O O11 0.000000 0.385037 0.414502
O O12 0.710112 0.719745 0.250779
O O13 0.826371 0.589922 0.186764
O O14 0.000000 0.690345 0.249038
O O15 0.000000 0.334376 0.772309
O O16 0.500000 0.892316 0.587293
O O17 0.779236 0.829436 0.594807
O O18 0.721957 0.000000 0.582485
O O19 0.500000 0.228614 0.055891
#
# Coordination Sequence:
#
# PCOD9374928 Si02
#       7
#     8   8   8   8   8   8   8
#     4  11  24  42  66  94 125 166 213 263 321 383
#     4  10  22  39  59  82 116 161 204 249 309 373
#     4   9  17  30  50  80 115 149 190 236 285 347
#     4   9  16  29  53  82 116 153 186 226 278 342
#     4  10  20  36  60  90 120 154 198 250 305 360
#     4  10  20  35  58  87 119 156 194 235 291 356
#     4  12  25  41  62  89 123 162 207 260 314 369
#
# _framework density 19.554379999999998
#
# number of rings (size 3 to 8) (size 9 to 14) (size 15 to 20)
#    0.000    1.857    1.429    3.000    0.000    5.714 
#    0.000    0.714    0.000    3.429    0.000    0.000 
#    0.000    0.000    0.000    0.000    0.000    0.000 
#
# Total GULP energy -155904.546088 kJ/mol
# GULP energy per Si atom -5568.019503 kJ/mol
# Density = 1.950987 g / cm^3
# Si number density = 19.554380 Si / 1000 Ang^3
#
#
#
# Elastic Constant Matrix: (Units=GPa)
#
#
# Indices 1 2 3 4 5 6 
#
# 1 62.7732 17.7516 26.8810 0.0000 0.0000 0.0000
# 2 17.7516 62.2196 13.6272 0.0000 0.0000 0.0000
# 3 26.8810 13.6272 80.3134 0.0000 0.0000 0.0000
# 4 0.0000 0.0000 0.0000 1.9344 0.0000 0.0000
# 5 0.0000 0.0000 0.0000 0.0000 28.3420 0.0000
# 6 0.0000 0.0000 0.0000 0.0000 0.0000 -5.7901
#
#
#
# Elastic Compliance Matrix: (Units=1/GPa)
#
#
# Indices 1 2 3 4 5 6 
#
# 1 0.019657 -0.004328 -0.005845 0.000000 0.000000 0.000000
# 2 -0.004328 0.017645 -0.001545 0.000000 0.000000 0.000000
# 3 -0.005845 -0.001545 0.014670 0.000000 0.000000 0.000000
# 4 0.000000 0.000000 0.000000 0.516944 0.000000 0.000000
# 5 0.000000 0.000000 0.000000 0.000000 0.035283 0.000000
# 6 0.000000 0.000000 0.000000 0.000000 0.000000 -0.172708
#
#
# Mechanical properties :
#
#
# Convention : Reuss Voigt Hill
#
# Bulk Modulus (GPa) = 35.04404 35.75840 35.40122
# Shear Modulus (GPa) = 10.76566 14.70037 12.73302
#
# Velocity S-wave (km/s) = 2.34892 2.74481 2.55455
# Velocity P-wave (km/s) = 5.03158 5.32651 5.18114
#
# Compressibility (1/GPa) = 0.02853552
#
# Stress axis : x y z
#
# Youngs Moduli (GPa) = 50.87175 56.67198 68.16756
#
# Poissons Ratio (x) = 0.24529 0.39843
# Poissons Ratio (y) = 0.22018 0.10534
# Poissons Ratio (z) = 0.29734 0.08758
#
# Static dielectric constant tensor:
#      x y z
#    x 1.700210 0.000000 0.000000 
#    y 0.000000 1.710160 0.000000 
#    z 0.000000 0.000000 1.763550 
# 
# From -- ./inp_files/23089.got.cif
#   From: 2010.05.17/outbox.cif.g08.bks.cpg/sg44_12_cif.got.tgz:23089.got - 2010.06.03 19:37:08.
