data_PCOD9374652
_publ_section_title
;
Structure prediction by ZEFSAII (Michael W. Deem and Ramdas Pophale) SiO2 
 PCOD9374652
Probable space group: I M M 2
;
_chemical_formula_sum "Si O2"
_cell_formula_units_Z 58
_cell_length_a 22.987036
_cell_length_b 7.344342
_cell_length_c 15.306008
_cell_angle_alpha 90.000000
_cell_angle_beta 90.000000
_cell_angle_gamma 90.000000
_cell_volume 2584.031504
_symmetry_space_group_name_H-M "I M M 2"
_symmetry_group_IT_number 44
_symmetry_cell_setting 'orthorhombic'
loop_
_space_group_symop_operation_xyz
x,y,z
-x,-y,z
-x,y,z
x,-y,z
1/2+x,1/2+y,1/2+z
1/2-x,1/2-y,1/2+z
1/2-x,1/2+y,1/2+z
1/2+x,1/2-y,1/2+z
loop_
_atom_site_type_symbol
_atom_site_label
_atom_site_fract_x
_atom_site_fract_y
_atom_site_fract_z
Si Si1 0.433586 0.277291 0.496890
Si Si2 0.099776 0.721761 0.550727
Si Si3 0.873996 0.295686 0.360421
Si Si4 0.930747 0.793744 0.186785
Si Si5 0.000000 0.000000 0.604229
Si Si6 0.181424 0.777767 0.910314
Si Si7 0.262145 0.780379 0.762223
Si Si8 0.734221 0.212211 0.066127
O O1 0.500000 0.218868 0.480563
O O2 0.434990 0.500000 0.500421
O O3 0.412339 0.216944 0.593355
O O4 0.384305 0.220742 0.429761
O O5 0.092230 0.500000 0.561814
O O6 0.095282 0.774706 0.447028
O O7 0.167086 0.775105 0.571721
O O8 0.051597 0.839635 0.599708
O O9 0.857112 0.500000 0.386677
O O10 0.914429 0.300999 0.275896
O O11 0.815428 0.210628 0.321575
O O12 0.000000 0.800791 0.179957
O O13 0.908186 0.000000 0.193838
O O14 0.205165 0.724245 0.815688
O O15 0.181555 0.000000 0.912879
O O16 0.225199 0.714740 0.987804
O O17 0.263074 0.728255 0.661362
O O18 0.265597 0.000000 0.761856
O O19 0.729069 0.000000 0.046114
#
# Coordination Sequence:
#
# PCOD9374652 Si02
#       8
#     8   8   8   8   2   8   8   8
#     4   8  14  26  46  75 108 141 183 239 297 357
#     4  10  23  42  62  88 126 165 215 264 320 387
#     4  10  20  34  49  75 115 156 193 245 308 372
#     4   9  18  29  46  74 106 137 182 238 284 353
#     4  12  26  40  68  94 116 176 214 268 328 378
#     4   9  16  31  54  77 109 155 195 236 307 376
#     4  10  20  34  55  82 113 150 196 254 312 368
#     4  10  20  38  61  84 116 160 202 257 320 376
#
# _framework density 22.445546
#
# number of rings (size 3 to 8) (size 9 to 14) (size 15 to 20)
#    0.000    2.483    1.379    1.862    2.897    1.931 
#    0.000    0.690    1.517    0.828    0.000    0.000 
#    0.000    0.000    0.000    0.000    0.000    0.000 
#
# Total GULP energy -161486.971273 kJ/mol
# GULP energy per Si atom -5568.516251 kJ/mol
# Density = 2.239446 g / cm^3
# Si number density = 22.445546 Si / 1000 Ang^3
#
#
#
# Elastic Constant Matrix: (Units=GPa)
#
#
# Indices 1 2 3 4 5 6 
#
# 1 77.6577 10.4557 -3.6202 0.0000 0.0000 0.0000
# 2 10.4557 99.5315 -6.9414 0.0000 0.0000 0.0000
# 3 -3.6202 -6.9414 50.9998 0.0000 0.0000 0.0000
# 4 0.0000 0.0000 0.0000 11.2213 0.0000 0.0000
# 5 0.0000 0.0000 0.0000 0.0000 31.1805 0.0000
# 6 0.0000 0.0000 0.0000 0.0000 0.0000 11.0231
#
#
#
# Elastic Compliance Matrix: (Units=1/GPa)
#
#
# Indices 1 2 3 4 5 6 
#
# 1 0.013090 -0.001323 0.000749 0.000000 0.000000 0.000000
# 2 -0.001323 0.010277 0.001305 0.000000 0.000000 0.000000
# 3 0.000749 0.001305 0.019839 0.000000 0.000000 0.000000
# 4 0.000000 0.000000 0.000000 0.089116 0.000000 0.000000
# 5 0.000000 0.000000 0.000000 0.000000 0.032071 0.000000
# 6 0.000000 0.000000 0.000000 0.000000 0.000000 0.090718
#
#
# Mechanical properties :
#
#
# Convention : Reuss Voigt Hill
#
# Bulk Modulus (GPa) = 22.38734 25.33079 23.85906
# Shear Modulus (GPa) = 18.61929 25.90466 22.26197
#
# Velocity S-wave (km/s) = 2.88328 3.40091 3.15274
# Velocity P-wave (km/s) = 4.59131 5.17025 4.88936
#
# Compressibility (1/GPa) = 0.04466811
#
# Stress axis : x y z
#
# Youngs Moduli (GPa) = 76.39384 97.30429 50.40657
#
# Poissons Ratio (x) = 0.12872 -0.03776
# Poissons Ratio (y) = 0.10106 -0.06577
# Poissons Ratio (z) = -0.05723 -0.12697
#
# Static dielectric constant tensor:
#      x y z
#    x 1.848090 0.000000 0.000000 
#    y 0.000000 1.850930 0.000000 
#    z 0.000000 0.000000 1.818330 
# 
# From -- ./inp_files/19425.got.cif
#   From: 2010.05.17/outbox.cif.g08.bks.cpg/sg44_10_cif.got.tgz:19425.got - 2010.06.03 19:37:08.
