data_PCOD9374649
_publ_section_title
;
Structure prediction by ZEFSAII (Michael W. Deem and Ramdas Pophale) SiO2 
 PCOD9374649
Probable space group: I M M 2
;
_chemical_formula_sum "Si O2"
_cell_formula_units_Z 58
_cell_length_a 7.605862
_cell_length_b 18.229265
_cell_length_c 17.583796
_cell_angle_alpha 90.000000
_cell_angle_beta 90.000000
_cell_angle_gamma 90.000000
_cell_volume 2437.980549
_symmetry_space_group_name_H-M "I M M 2"
_symmetry_group_IT_number 44
_symmetry_cell_setting 'orthorhombic'
loop_
_space_group_symop_operation_xyz
x,y,z
-x,-y,z
-x,y,z
x,-y,z
1/2+x,1/2+y,1/2+z
1/2-x,1/2-y,1/2+z
1/2-x,1/2+y,1/2+z
1/2+x,1/2-y,1/2+z
loop_
_atom_site_type_symbol
_atom_site_label
_atom_site_fract_x
_atom_site_fract_y
_atom_site_fract_z
Si Si1 0.791747 0.614174 0.483240
Si Si2 0.285846 0.840184 0.149012
Si Si3 0.212737 0.822779 0.608039
Si Si4 0.212161 0.084006 0.755703
Si Si5 0.804224 0.628303 0.810510
Si Si6 0.698079 0.219878 0.860208
Si Si7 0.500000 0.500000 0.437004
Si Si8 0.706470 0.580081 0.975087
O O1 0.748531 0.615554 0.572375
O O2 0.768893 0.694699 0.446361
O O3 0.654993 0.562431 0.442071
O O4 0.000000 0.595892 0.473679
O O5 0.500000 0.837425 0.155834
O O6 0.221989 0.756648 0.135894
O O7 0.220156 0.876051 0.227079
O O8 0.247974 0.884531 0.671734
O O9 0.278815 0.855131 0.528126
O O10 0.000000 0.813706 0.603695
O O11 0.287711 0.145371 0.811810
O O12 0.000000 0.082945 0.766584
O O13 0.272489 0.000000 0.766039
O O14 0.813087 0.715790 0.826627
O O15 0.719849 0.595280 0.885652
O O16 0.000000 0.596904 0.806664
O O17 0.500000 0.248585 0.856016
O O18 0.500000 0.576779 0.993853
O O19 0.783331 0.500000 0.992323
#
# Coordination Sequence:
#
# PCOD9374649 Si02
#       8
#     8   8   8   8   8   8   2   8
#     4  10  24  44  65  93 131 171 218 271 328 390
#     4   9  18  38  63  88 120 162 210 266 322 377
#     4   9  16  34  62  89 119 161 207 251 310 375
#     4  10  20  33  57  90 124 159 203 255 302 374
#     4  11  22  39  65  92 122 162 212 264 317 382
#     4  11  23  39  61  89 124 166 204 259 323 381
#     4  12  26  44  68  98 124 176 218 276 324 398
#     4  10  21  38  61  91 126 164 207 256 315 383
#
# _framework density 23.790181
#
# number of rings (size 3 to 8) (size 9 to 14) (size 15 to 20)
#    0.000    1.931    1.379    2.276    2.897    4.414 
#    3.724    0.690    0.000    1.655    0.000    0.000 
#    0.000    0.000    0.000    0.000    0.000    0.000 
#
# Total GULP energy -161813.729386 kJ/mol
# GULP energy per Si atom -5579.783772 kJ/mol
# Density = 2.373603 g / cm^3
# Si number density = 23.790181 Si / 1000 Ang^3
#
#
#
# Elastic Constant Matrix: (Units=GPa)
#
#
# Indices 1 2 3 4 5 6 
#
# 1 63.8006 8.6575 4.9466 0.0000 0.0000 0.0000
# 2 8.6575 52.9564 -13.7561 0.0000 0.0000 0.0000
# 3 4.9466 -13.7561 102.5391 0.0000 0.0000 0.0000
# 4 0.0000 0.0000 0.0000 -6.8504 0.0000 0.0000
# 5 0.0000 0.0000 0.0000 0.0000 15.3745 0.0000
# 6 0.0000 0.0000 0.0000 0.0000 0.0000 37.3468
#
#
#
# Elastic Compliance Matrix: (Units=1/GPa)
#
#
# Indices 1 2 3 4 5 6 
#
# 1 0.016165 -0.002948 -0.001175 0.000000 0.000000 0.000000
# 2 -0.002948 0.020103 0.002839 0.000000 0.000000 0.000000
# 3 -0.001175 0.002839 0.010190 0.000000 0.000000 0.000000
# 4 0.000000 0.000000 0.000000 -0.145977 0.000000 0.000000
# 5 0.000000 0.000000 0.000000 0.000000 0.065043 0.000000
# 6 0.000000 0.000000 0.000000 0.000000 0.000000 0.026776
#
#
# Mechanical properties :
#
#
# Convention : Reuss Voigt Hill
#
# Bulk Modulus (GPa) = 22.78451 24.33245 23.55848
# Shear Modulus (GPa) = 526.40902 23.80405 275.10654
#
# Velocity S-wave (km/s) = 14.89134 3.16663 10.76521
# Velocity P-wave (km/s) = 17.47190 4.86006 12.82356
#
# Compressibility (1/GPa) = 0.04388947
#
# Stress axis : x y z
#
# Youngs Moduli (GPa) = 61.86209 49.74400 98.13582
#
# Poissons Ratio (x) = 0.14665 0.11534
# Poissons Ratio (y) = 0.18237 -0.27862
# Poissons Ratio (z) = 0.07271 -0.14123
#
# Static dielectric constant tensor:
#      x y z
#    x 1.899520 0.000000 0.000000 
#    y 0.000000 1.892590 0.000000 
#    z 0.000000 0.000000 1.947140 
# 
# From -- ./inp_files/20560.got.cif
#   From: 2010.05.17/outbox.cif.g08.bks.cpg/sg44_11_cif.got.tgz:20560.got - 2010.06.03 19:37:08.
