data_PCOD9374048
_publ_section_title
;
Structure prediction by ZEFSAII (Michael W. Deem and Ramdas Pophale) SiO2 
 PCOD9374048
Probable space group: I M M 2
;
_chemical_formula_sum "Si O2"
_cell_formula_units_Z 64
_cell_length_a 7.664119
_cell_length_b 33.227578
_cell_length_c 10.574336
_cell_angle_alpha 90.000000
_cell_angle_beta 90.000000
_cell_angle_gamma 90.000000
_cell_volume 2692.861589
_symmetry_space_group_name_H-M "I M M 2"
_symmetry_group_IT_number 44
_symmetry_cell_setting 'orthorhombic'
loop_
_space_group_symop_operation_xyz
x,y,z
-x,-y,z
-x,y,z
x,-y,z
1/2+x,1/2+y,1/2+z
1/2-x,1/2-y,1/2+z
1/2-x,1/2+y,1/2+z
1/2+x,1/2-y,1/2+z
loop_
_atom_site_type_symbol
_atom_site_label
_atom_site_fract_x
_atom_site_fract_y
_atom_site_fract_z
Si Si1 0.709923 0.285546 0.456530
Si Si2 0.296367 0.354228 0.092752
Si Si3 0.299656 0.369250 0.816768
Si Si4 0.701076 0.543403 0.457344
Si Si5 0.788378 0.544002 0.895751
Si Si6 0.799851 0.561782 0.181564
Si Si7 0.784866 0.130447 0.038175
Si Si8 0.206432 0.732657 0.186580
O O1 0.500000 0.286817 0.459759
O O2 0.769213 0.332088 0.451110
O O3 0.760410 0.260040 0.333924
O O4 0.773087 0.264848 0.585441
O O5 0.500000 0.365841 0.084052
O O6 0.209562 0.389834 0.171703
O O7 0.283007 0.310823 0.153258
O O8 0.221895 0.354215 0.949364
O O9 0.500000 0.355081 0.815103
O O10 0.291433 0.417815 0.826236
O O11 0.226764 0.358657 0.680385
O O12 0.500000 0.542889 0.500143
O O13 0.780408 0.500000 0.493451
O O14 0.703067 0.546705 0.304961
O O15 0.778961 0.585801 0.503654
O O16 0.739550 0.500000 0.846544
O O17 0.000000 0.547781 0.891190
O O18 0.737340 0.547147 0.043985
O O19 0.000000 0.548982 0.194733
O O20 0.000000 0.128880 0.035280
O O21 0.000000 0.729904 0.168713
#
# Coordination Sequence:
#
# PCOD9374048 Si02
#       8
#     8   8   8   8   8   8   8   8
#     4  10  23  42  65  91 124 166 206 252 310 367
#     4  10  20  35  59  86 118 154 193 242 305 366
#     4   9  19  34  56  82 105 145 195 240 289 351
#     4  10  20  33  53  81 111 148 196 247 300 361
#     4   9  18  32  49  73 109 148 183 231 297 355
#     4  10  19  33  54  79 110 147 192 243 298 360
#     4   9  19  38  59  79 111 152 196 243 298 355
#     4  11  24  40  63  95 126 159 205 255 304 365
#
# _framework density 23.766539000000002
#
# number of rings (size 3 to 8) (size 9 to 14) (size 15 to 20)
#    0.000    2.250    0.000    2.250    1.750    4.500 
#    0.000    2.500    0.000    0.000    0.000    0.000 
#    0.000    0.000    0.000    0.000    0.000    0.000 
#
# Total GULP energy -178802.512530 kJ/mol
# GULP energy per Si atom -5587.578517 kJ/mol
# Density = 2.371245 g / cm^3
# Si number density = 23.766539 Si / 1000 Ang^3
#
#
#
# Elastic Constant Matrix: (Units=GPa)
#
#
# Indices 1 2 3 4 5 6 
#
# 1 50.2468 3.2393 -2.2035 0.0000 0.0000 0.0000
# 2 3.2393 106.5101 34.9733 0.0000 0.0000 0.0001
# 3 -2.2035 34.9733 99.7194 -0.0001 0.0000 0.0001
# 4 0.0000 0.0000 -0.0001 7.2915 0.0000 0.0000
# 5 0.0000 0.0000 0.0000 0.0000 8.2099 0.0000
# 6 0.0000 0.0001 0.0001 0.0000 0.0000 13.1114
#
#
#
# Elastic Compliance Matrix: (Units=1/GPa)
#
#
# Indices 1 2 3 4 5 6 
#
# 1 0.019989 -0.000851 0.000740 0.000000 0.000000 0.000000
# 2 -0.000851 0.010647 -0.003753 0.000000 0.000000 0.000000
# 3 0.000740 -0.003753 0.011361 0.000000 0.000000 0.000000
# 4 0.000000 0.000000 0.000000 0.137146 -0.000001 0.000000
# 5 0.000000 0.000000 0.000000 -0.000001 0.121804 0.000000
# 6 0.000000 0.000000 0.000000 0.000000 0.000000 0.076269
#
#
# Mechanical properties :
#
#
# Convention : Reuss Voigt Hill
#
# Bulk Modulus (GPa) = 29.18059 36.49939 32.83999
# Shear Modulus (GPa) = 12.61459 20.42038 16.51748
#
# Velocity S-wave (km/s) = 2.30635 2.93440 2.63912
# Velocity P-wave (km/s) = 4.40420 5.18380 4.80982
#
# Compressibility (1/GPa) = 0.03426935
#
# Stress axis : x y z
#
# Youngs Moduli (GPa) = 50.02727 93.92368 88.02283
#
# Poissons Ratio (x) = 0.07993 -0.06515
# Poissons Ratio (y) = 0.04257 0.33034
# Poissons Ratio (z) = -0.03703 0.35248
#
# Static dielectric constant tensor:
#      x y z
#    x 1.900610 0.000000 0.000000 
#    y 0.000000 1.898210 0.000000 
#    z 0.000000 0.000000 1.912390 
# 
# From -- ./inp_files/11575.got.cif
#   From: 2010.05.17/outbox.cif.g08.bks.cpg/sg44_6_cif.got.tgz:11575.got - 2010.06.03 19:37:08.
