data_PCOD9374701
_publ_section_title
;
Structure prediction by ZEFSAII (Michael W. Deem and Ramdas Pophale) SiO2 
 PCOD9374701
Probable space group: I M M 2
;
_chemical_formula_sum "Si O2"
_cell_formula_units_Z 48
_cell_length_a 7.502291
_cell_length_b 8.272789
_cell_length_c 34.613857
_cell_angle_alpha 90.000000
_cell_angle_beta 90.000000
_cell_angle_gamma 90.000000
_cell_volume 2148.304551
_symmetry_space_group_name_H-M "I M M 2"
_symmetry_group_IT_number 44
_symmetry_cell_setting 'orthorhombic'
loop_
_space_group_symop_operation_xyz
x,y,z
-x,-y,z
-x,y,z
x,-y,z
1/2+x,1/2+y,1/2+z
1/2-x,1/2-y,1/2+z
1/2-x,1/2+y,1/2+z
1/2+x,1/2-y,1/2+z
loop_
_atom_site_type_symbol
_atom_site_label
_atom_site_fract_x
_atom_site_fract_y
_atom_site_fract_z
Si Si1 0.715439 0.000000 0.221310
Si Si2 0.789919 0.313448 0.512310
Si Si3 0.282771 0.817442 0.345446
Si Si4 0.782343 0.177346 0.765599
Si Si5 0.793599 0.676274 0.092649
Si Si6 0.211003 0.000000 0.130963
Si Si7 0.714527 0.314503 0.427042
O O1 0.777467 0.165519 0.241801
O O2 0.500000 0.000000 0.224273
O O3 0.766267 0.000000 0.176655
O O4 0.721060 0.500000 0.513418
O O5 0.709704 0.210867 0.546871
O O6 0.761787 0.247284 0.469114
O O7 0.000000 0.319521 0.519315
O O8 0.500000 0.813148 0.346343
O O9 0.228848 0.702965 0.310312
O O10 0.220916 0.771433 0.388266
O O11 0.230359 0.000000 0.335895
O O12 0.000000 0.178666 0.764613
O O13 0.724762 0.000000 0.751688
O O14 0.713347 0.500000 0.100817
O O15 0.713243 0.834937 0.112793
O O16 0.000000 0.668848 0.105064
O O17 0.000000 0.000000 0.121178
O O18 0.500000 0.316086 0.425253
O O19 0.778234 0.500000 0.426297
#
# Coordination Sequence:
#
# PCOD9374701 Si02
#       7
#     4   8   8   8   8   4   8
#     4  10  20  34  54  82 110 138 176 220 266 324
#     4  10  20  34  53  77 109 147 182 221 274 328
#     4   9  15  25  43  69 101 135 176 224 268 310
#     4   9  16  28  48  75 108 141 173 217 270 315
#     4  10  21  38  61  84 105 138 183 225 269 323
#     4  10  22  40  60  82 112 142 172 222 276 324
#     4   9  17  28  45  71 102 138 181 227 270 314
#
# _framework density 22.343201000000001
#
# number of rings (size 3 to 8) (size 9 to 14) (size 15 to 20)
#    0.000    2.500    1.667    1.000    0.000    5.000 
#    0.000    1.667    0.000    1.000    0.000    0.000 
#    0.000    0.000    0.000    0.000    0.000    0.000 
#
# Total GULP energy -133995.097195 kJ/mol
# GULP energy per Si atom -5583.129050 kJ/mol
# Density = 2.229235 g / cm^3
# Si number density = 22.343201 Si / 1000 Ang^3
#
#
#
# Elastic Constant Matrix: (Units=GPa)
#
#
# Indices 1 2 3 4 5 6 
#
# 1 61.1536 7.4483 -9.3473 0.0000 0.0000 0.0000
# 2 7.4483 184.6587 81.2818 0.0000 0.0000 0.0000
# 3 -9.3473 81.2818 124.4768 0.0000 0.0000 0.0000
# 4 0.0000 0.0000 0.0000 20.8460 0.0000 0.0000
# 5 0.0000 0.0000 0.0000 0.0000 7.0317 0.0000
# 6 0.0000 0.0000 0.0000 0.0000 0.0000 -9.3052
#
#
#
# Elastic Compliance Matrix: (Units=1/GPa)
#
#
# Indices 1 2 3 4 5 6 
#
# 1 0.016933 -0.001744 0.002410 0.000000 0.000000 0.000000
# 2 -0.001744 0.007779 -0.005211 0.000000 0.000000 0.000000
# 3 0.002410 -0.005211 0.011617 0.000000 0.000000 0.000000
# 4 0.000000 0.000000 0.000000 0.047971 0.000000 0.000000
# 5 0.000000 0.000000 0.000000 0.000000 0.142214 0.000000
# 6 0.000000 0.000000 0.000000 0.000000 0.000000 -0.107467
#
#
# Mechanical properties :
#
#
# Convention : Reuss Voigt Hill
#
# Bulk Modulus (GPa) = 36.70958 58.78387 47.74672
# Shear Modulus (GPa) = 36.43866 23.10823 29.77345
#
# Velocity S-wave (km/s) = 4.04277 3.21945 3.65437
# Velocity P-wave (km/s) = 6.18527 6.33928 6.26275
#
# Compressibility (1/GPa) = 0.02724084
#
# Stress axis : x y z
#
# Youngs Moduli (GPa) = 59.05590 128.54456 86.07909
#
# Poissons Ratio (x) = 0.22418 -0.20748
# Poissons Ratio (y) = 0.10299 0.44854
# Poissons Ratio (z) = -0.14235 0.66982
#
# Static dielectric constant tensor:
#      x y z
#    x 1.857250 0.000000 0.000000 
#    y 0.000000 1.836300 0.000000 
#    z 0.000000 0.000000 1.783340 
# 
# From -- ./inp_files/26905.got.cif
#   From: 2010.05.17/outbox.cif.g08.bks.cpg/sg44_14_cif.got.tgz:26905.got - 2010.06.03 19:37:08.
