data_PCOD9374885
_publ_section_title
;
Structure prediction by ZEFSAII (Michael W. Deem and Ramdas Pophale) SiO2 
 PCOD9374885
Probable space group: I M M 2
;
_chemical_formula_sum "Si O2"
_cell_formula_units_Z 56
_cell_length_a 20.713211
_cell_length_b 22.454896
_cell_length_c 5.560048
_cell_angle_alpha 90.000000
_cell_angle_beta 90.000000
_cell_angle_gamma 90.000000
_cell_volume 2586.050599
_symmetry_space_group_name_H-M "I M M 2"
_symmetry_group_IT_number 44
_symmetry_cell_setting 'orthorhombic'
loop_
_space_group_symop_operation_xyz
x,y,z
-x,-y,z
-x,y,z
x,-y,z
1/2+x,1/2+y,1/2+z
1/2-x,1/2-y,1/2+z
1/2-x,1/2+y,1/2+z
1/2+x,1/2-y,1/2+z
loop_
_atom_site_type_symbol
_atom_site_label
_atom_site_fract_x
_atom_site_fract_y
_atom_site_fract_z
Si Si1 0.077833 0.862907 0.628500
Si Si2 0.070407 0.564759 0.494777
Si Si3 0.303809 0.066304 0.326454
Si Si4 0.921349 0.069174 0.132088
Si Si5 0.137517 0.344252 0.189090
Si Si6 0.147958 0.757719 0.864165
Si Si7 0.256276 0.824127 0.082120
O O1 0.097673 0.894815 0.377097
O O2 0.109789 0.797668 0.672940
O O3 0.000000 0.856405 0.623786
O O4 0.094169 0.901601 0.870183
O O5 0.073542 0.500000 0.364814
O O6 0.129171 0.564598 0.678736
O O7 0.000000 0.567996 0.611475
O O8 0.081766 0.621819 0.330755
O O9 0.323551 0.102794 0.559199
O O10 0.280449 0.000000 0.369933
O O11 0.257209 0.108291 0.173873
O O12 0.000000 0.068642 0.139605
O O13 0.899627 0.000000 0.142655
O O14 0.110878 0.292758 0.014961
O O15 0.192980 0.319024 0.362755
O O16 0.184558 0.803879 0.034031
O O17 0.208199 0.718767 0.769269
#
# Coordination Sequence:
#
# PCOD9374885 Si02
#       7
#     8   8   8   8   8   8   8
#     4  10  22  37  61  93 124 160 198 255 314 358
#     4   9  18  33  55  85 119 153 193 240 294 356
#     4   9  19  36  57  83 114 149 193 246 297 348
#     4   9  18  37  62  87 119 160 202 241 301 379
#     4  10  20  35  57  81 110 153 200 239 290 352
#     4  11  22  37  61  83 116 154 204 247 294 366
#     4  10  21  38  59  83 106 154 201 239 296 358
#
# _framework density 21.654644000000001
#
# number of rings (size 3 to 8) (size 9 to 14) (size 15 to 20)
#    0.000    2.286    1.429    0.857    2.000    3.429 
#    0.000    8.571    0.000    0.000    0.000    0.000 
#    0.000    0.000    0.000    0.000    0.000    0.000 
#
# Total GULP energy -156071.582907 kJ/mol
# GULP energy per Si atom -5573.985104 kJ/mol
# Density = 2.160536 g / cm^3
# Si number density = 21.654644 Si / 1000 Ang^3
#
#
#
# Elastic Constant Matrix: (Units=GPa)
#
#
# Indices 1 2 3 4 5 6 
#
# 1 27.3256 22.7784 4.5236 0.0000 0.0000 0.0000
# 2 22.7784 112.8397 19.8712 0.0000 0.0000 0.0000
# 3 4.5236 19.8712 60.4410 0.0000 0.0000 0.0000
# 4 0.0000 0.0000 0.0000 25.8458 0.0000 0.0000
# 5 0.0000 0.0000 0.0000 0.0000 11.3112 0.0000
# 6 0.0000 0.0000 0.0000 0.0000 0.0000 16.2038
#
#
#
# Elastic Compliance Matrix: (Units=1/GPa)
#
#
# Indices 1 2 3 4 5 6 
#
# 1 0.044009 -0.008814 -0.000396 0.000000 0.000000 0.000000
# 2 -0.008814 0.011172 -0.003013 0.000000 0.000000 0.000000
# 3 -0.000396 -0.003013 0.017565 0.000000 0.000000 0.000000
# 4 0.000000 0.000000 0.000000 0.038691 0.000000 0.000000
# 5 0.000000 0.000000 0.000000 0.000000 0.088408 0.000000
# 6 0.000000 0.000000 0.000000 0.000000 0.000000 0.061714
#
#
# Mechanical properties :
#
#
# Convention : Reuss Voigt Hill
#
# Bulk Modulus (GPa) = 20.70421 32.77251 26.73836
# Shear Modulus (GPa) = 16.55051 20.90103 18.72577
#
# Velocity S-wave (km/s) = 2.76759 3.11014 2.94385
# Velocity P-wave (km/s) = 4.44911 5.29757 4.89177
#
# Compressibility (1/GPa) = 0.04829936
#
# Stress axis : x y z
#
# Youngs Moduli (GPa) = 22.72279 89.50909 56.93012
#
# Poissons Ratio (x) = 0.78894 0.02254
# Poissons Ratio (y) = 0.20028 0.17155
# Poissons Ratio (z) = 0.00900 0.26972
#
# Static dielectric constant tensor:
#      x y z
#    x 1.763190 0.000000 0.000000 
#    y 0.000000 1.836620 0.000000 
#    z 0.000000 0.000000 1.854060 
# 
# From -- ./inp_files/2445.got.cif
#   From: 2010.05.17/outbox.cif.g08.bks.cpg/sg44_2_cif.got.tgz:2445.got - 2010.06.03 19:37:08.
