data_PCOD9374420
_publ_section_title
;
Structure prediction by ZEFSAII (Michael W. Deem and Ramdas Pophale) SiO2 
 PCOD9374420
Probable space group: I M M 2
;
_chemical_formula_sum "Si O2"
_cell_formula_units_Z 48
_cell_length_a 9.094215
_cell_length_b 33.294936
_cell_length_c 7.346302
_cell_angle_alpha 90.000000
_cell_angle_beta 90.000000
_cell_angle_gamma 90.000000
_cell_volume 2224.396380
_symmetry_space_group_name_H-M "I M M 2"
_symmetry_group_IT_number 44
_symmetry_cell_setting 'orthorhombic'
loop_
_space_group_symop_operation_xyz
x,y,z
-x,-y,z
-x,y,z
x,-y,z
1/2+x,1/2+y,1/2+z
1/2-x,1/2-y,1/2+z
1/2-x,1/2+y,1/2+z
1/2+x,1/2-y,1/2+z
loop_
_atom_site_type_symbol
_atom_site_label
_atom_site_fract_x
_atom_site_fract_y
_atom_site_fract_z
Si Si1 0.173640 0.456724 0.458650
Si Si2 0.164742 0.790504 0.485471
Si Si3 0.335264 0.709306 0.421406
Si Si4 0.828268 0.544615 0.015803
Si Si5 0.676990 0.870173 0.925956
Si Si6 0.676188 0.623468 0.027607
O O1 0.237543 0.500000 0.518125
O O2 0.182475 0.456651 0.237103
O O3 0.228407 0.412463 0.515287
O O4 0.000000 0.457511 0.504618
O O5 0.269049 0.753220 0.450621
O O6 0.157684 0.794861 0.703509
O O7 0.209463 0.835119 0.421522
O O8 0.000000 0.781006 0.419719
O O9 0.500000 0.706411 0.494086
O O10 0.239426 0.672220 0.494679
O O11 0.786899 0.500000 0.951268
O O12 0.731472 0.581466 0.947098
O O13 0.000000 0.551410 0.972378
O O14 0.500000 0.869375 0.926471
O O15 0.736495 0.873323 0.718651
O O16 0.500000 0.622619 0.057778
#
# Coordination Sequence:
#
# PCOD9374420 Si02
#       6
#     8   8   8   8   8   8
#     4   7  10  17  30  49  72 100 135 168 198 241
#     4   9  19  33  46  64  90 117 148 185 223 266
#     4  10  20  32  47  67  89 115 150 188 222 263
#     4   8  13  21  33  50  74 106 142 174 208 257
#     4   9  15  24  39  56  79 112 142 173 216 259
#     4   9  16  25  37  56  82 109 141 180 217 259
#
# _framework density 21.578887999999999
#
# number of rings (size 3 to 8) (size 9 to 14) (size 15 to 20)
#    0.000    3.333    0.000    4.500    0.000    4.333 
#    0.000    0.000    0.000    1.500    0.000    0.000 
#    0.000    1.333    0.000   12.000    0.000   20.000 
#
# Total GULP energy -133667.224487 kJ/mol
# GULP energy per Si atom -5569.467687 kJ/mol
# Density = 2.152977 g / cm^3
# Si number density = 21.578888 Si / 1000 Ang^3
#
#
#
# Elastic Constant Matrix: (Units=GPa)
#
#
# Indices 1 2 3 4 5 6 
#
# 1 84.5819 99.2129 6.0281 0.0002 0.0004 0.0005
# 2 99.2129 253.1066 -4.5529 0.0010 -0.0003 -0.0001
# 3 6.0281 -4.5529 61.8966 0.0007 0.0016 -0.0002
# 4 0.0002 0.0010 0.0007 0.2710 0.0002 -0.0001
# 5 0.0004 -0.0003 0.0016 0.0002 -6.0806 0.0000
# 6 0.0005 -0.0001 -0.0002 -0.0001 0.0000 42.4032
#
#
#
# Elastic Compliance Matrix: (Units=1/GPa)
#
#
# Indices 1 2 3 4 5 6 
#
# 1 0.022369 -0.008819 -0.002827 0.000023 0.000001 0.000000
# 2 -0.008819 0.007433 0.001406 -0.000025 -0.000001 0.000000
# 3 -0.002827 0.001406 0.016535 -0.000044 0.000004 0.000000
# 4 0.000023 -0.000025 -0.000044 3.689892 0.000122 0.000005
# 5 0.000001 -0.000001 0.000004 0.000122 -0.164458 0.000000
# 6 0.000000 0.000000 0.000000 0.000005 0.000000 0.023583
#
#
# Mechanical properties :
#
#
# Convention : Reuss Voigt Hill
#
# Bulk Modulus (GPa) = 38.67649 66.77349 52.72499
# Shear Modulus (GPa) = 1.37952 27.24518 14.31235
#
# Velocity S-wave (km/s) = 0.80042 3.55714 2.57817
# Velocity P-wave (km/s) = 4.33779 6.91969 5.77488
#
# Compressibility (1/GPa) = 0.02585550
#
# Stress axis : x y z
#
# Youngs Moduli (GPa) = 44.70488 134.53368 60.47879
#
# Poissons Ratio (x) = 1.18646 0.17099
# Poissons Ratio (y) = 0.39425 -0.08501
# Poissons Ratio (z) = 0.12639 -0.18911
#
# Static dielectric constant tensor:
#      x y z
#    x 1.730940 0.000000 0.000000 
#    y 0.000000 1.885250 0.000000 
#    z 0.000000 0.000000 1.927130 
# 
# From -- ./inp_files/11335.got.cif
#   From: 2010.05.17/outbox.cif.g08.bks.cpg/sg44_6_cif.got.tgz:11335.got - 2010.06.03 19:37:08.
