data_PCOD9374024
_publ_section_title
;
Structure prediction by ZEFSAII (Michael W. Deem and Ramdas Pophale) SiO2 
 PCOD9374024
Probable space group: I M M 2
;
_chemical_formula_sum "Si O2"
_cell_formula_units_Z 56
_cell_length_a 19.240419
_cell_length_b 9.055297
_cell_length_c 17.412666
_cell_angle_alpha 90.000000
_cell_angle_beta 90.000000
_cell_angle_gamma 90.000000
_cell_volume 3033.768895
_symmetry_space_group_name_H-M "I M M 2"
_symmetry_group_IT_number 44
_symmetry_cell_setting 'orthorhombic'
loop_
_space_group_symop_operation_xyz
x,y,z
-x,-y,z
-x,y,z
x,-y,z
1/2+x,1/2+y,1/2+z
1/2-x,1/2-y,1/2+z
1/2-x,1/2+y,1/2+z
1/2+x,1/2-y,1/2+z
loop_
_atom_site_type_symbol
_atom_site_label
_atom_site_fract_x
_atom_site_fract_y
_atom_site_fract_z
Si Si1 0.149058 0.167474 0.459810
Si Si2 0.789924 0.667009 0.056301
Si Si3 0.311321 0.171990 0.806010
Si Si4 0.712295 0.176083 0.194187
Si Si5 0.922950 0.829522 0.028164
Si Si6 0.419812 0.678096 0.117097
Si Si7 0.921054 0.164505 0.213284
O O1 0.223973 0.162031 0.500739
O O2 0.159456 0.269137 0.386595
O O3 0.097549 0.217250 0.528115
O O4 0.129439 0.000000 0.436647
O O5 0.803054 0.500000 0.084699
O O6 0.765024 0.770390 0.126507
O O7 0.856708 0.729292 0.011786
O O8 0.244687 0.259458 0.772594
O O9 0.373042 0.210118 0.746971
O O10 0.295575 0.000000 0.809084
O O11 0.637705 0.244064 0.170341
O O12 0.709223 0.000000 0.196100
O O13 0.924444 0.828906 0.121249
O O14 0.000000 0.781589 0.001799
O O15 0.912540 0.000000 0.004160
O O16 0.500000 0.712323 0.135222
O O17 0.409838 0.500000 0.122491
O O18 0.000000 0.176086 0.242032
O O19 0.893685 0.000000 0.233767
#
# Coordination Sequence:
#
# PCOD9374024 Si02
#       7
#     8   8   8   8   8   8   8
#     4   9  20  36  53  76 108 144 178 214 269 331
#     4  10  19  33  53  77 102 132 175 222 263 311
#     4  12  23  34  51  78 109 142 184 228 270 316
#     4  11  21  34  55  79 107 143 181 224 272 322
#     4   9  17  29  48  74 102 134 168 202 248 305
#     4   9  19  38  62  86 112 143 182 228 277 331
#     4   9  18  32  49  71 102 139 172 203 248 306
#
# _framework density 18.458888999999999
#
# number of rings (size 3 to 8) (size 9 to 14) (size 15 to 20)
#    0.000    2.143    1.429    4.714    0.000    4.286 
#    0.000    2.857    0.000    0.857    0.000    4.000 
#    0.000    0.000    0.000    0.000    0.000    0.000 
#
# Total GULP energy -156120.178858 kJ/mol
# GULP energy per Si atom -5575.720673 kJ/mol
# Density = 1.841688 g / cm^3
# Si number density = 18.458889 Si / 1000 Ang^3
#
#
#
# Elastic Constant Matrix: (Units=GPa)
#
#
# Indices 1 2 3 4 5 6 
#
# 1 100.9030 28.1576 -6.3241 0.0000 0.0000 0.0000
# 2 28.1576 88.1044 11.0424 0.0000 0.0000 0.0000
# 3 -6.3241 11.0424 18.0940 0.0000 0.0000 0.0000
# 4 0.0000 0.0000 0.0000 19.6392 0.0000 0.0000
# 5 0.0000 0.0000 0.0000 0.0000 9.9311 0.0000
# 6 0.0000 0.0000 0.0000 0.0000 0.0000 29.2681
#
#
#
# Elastic Compliance Matrix: (Units=1/GPa)
#
#
# Indices 1 2 3 4 5 6 
#
# 1 0.011615 -0.004571 0.006849 0.000000 0.000000 0.000000
# 2 -0.004571 0.014089 -0.010196 0.000000 0.000000 0.000000
# 3 0.006849 -0.010196 0.063883 0.000000 0.000000 0.000000
# 4 0.000000 0.000000 0.000000 0.050919 0.000000 0.000000
# 5 0.000000 0.000000 0.000000 0.000000 0.100693 0.000000
# 6 0.000000 0.000000 0.000000 0.000000 0.000000 0.034167
#
#
# Mechanical properties :
#
#
# Convention : Reuss Voigt Hill
#
# Bulk Modulus (GPa) = 13.55884 30.31703 21.93793
# Shear Modulus (GPa) = 15.83361 23.38272 19.60816
#
# Velocity S-wave (km/s) = 2.93196 3.56300 3.26277
# Velocity P-wave (km/s) = 4.33857 5.77809 5.10928
#
# Compressibility (1/GPa) = 0.07375264
#
# Stress axis : x y z
#
# Youngs Moduli (GPa) = 86.09406 70.97876 15.65364
#
# Poissons Ratio (x) = 0.32441 -0.10721
# Poissons Ratio (y) = 0.39350 0.15960
# Poissons Ratio (z) = -0.58966 0.72367
#
# Static dielectric constant tensor:
#      x y z
#    x 1.662440 0.000000 0.000000 
#    y 0.000000 1.644360 0.000000 
#    z 0.000000 0.000000 1.647810 
# 
# From -- ./inp_files/20695.got.cif
#   From: 2010.05.17/outbox.cif.g08.bks.cpg/sg44_11_cif.got.tgz:20695.got - 2010.06.03 19:37:08.
