data_PCOD9374041
_publ_section_title
;
Structure prediction by ZEFSAII (Michael W. Deem and Ramdas Pophale) SiO2 
 PCOD9374041
Probable space group: I M M 2
;
_chemical_formula_sum "Si O2"
_cell_formula_units_Z 56
_cell_length_a 17.262646
_cell_length_b 12.658337
_cell_length_c 14.810713
_cell_angle_alpha 90.000000
_cell_angle_beta 90.000000
_cell_angle_gamma 90.000000
_cell_volume 3236.383547
_symmetry_space_group_name_H-M "I M M 2"
_symmetry_group_IT_number 44
_symmetry_cell_setting 'orthorhombic'
loop_
_space_group_symop_operation_xyz
x,y,z
-x,-y,z
-x,y,z
x,-y,z
1/2+x,1/2+y,1/2+z
1/2-x,1/2-y,1/2+z
1/2-x,1/2+y,1/2+z
1/2+x,1/2-y,1/2+z
loop_
_atom_site_type_symbol
_atom_site_label
_atom_site_fract_x
_atom_site_fract_y
_atom_site_fract_z
Si Si1 0.092612 0.713053 0.879510
Si Si2 0.164955 0.375944 0.696100
Si Si3 0.091324 0.881366 0.379510
Si Si4 0.320999 0.254999 0.027902
Si Si5 0.228351 0.125196 0.879510
Si Si6 0.179002 0.245001 0.231117
Si Si7 0.664955 0.875944 0.562920
O O1 0.121118 0.652192 0.789169
O O2 0.143735 0.820347 0.879510
O O3 0.000000 0.726520 0.879510
O O4 0.121119 0.652192 0.969850
O O5 0.158167 0.500000 0.677992
O O6 0.139538 0.303115 0.612108
O O7 0.254796 0.339764 0.704535
O O8 0.119741 0.816919 0.465714
O O9 0.119742 0.816919 0.293306
O O10 0.000000 0.888450 0.379509
O O11 0.125110 0.000000 0.379510
O O12 0.254796 0.339764 0.054485
O O13 0.275068 0.169619 0.966286
O O14 0.275067 0.169619 0.792732
O O15 0.224374 0.000000 0.879510
O O16 0.139539 0.303115 0.146911
O O17 0.658167 0.000000 0.581028
#
# Coordination Sequence:
#
# PCOD9374041 Si02
#       7
#     8   8   8   8   8   8   8
#     4  10  22  35  48  74 107 139 177 212 247 303
#     4  10  19  33  54  75 100 137 175 216 258 294
#     4  10  20  35  55  78 107 138 164 202 258 313
#     4   9  19  33  53  80 103 126 172 219 252 304
#     4   9  17  33  56  76  98 130 165 212 266 307
#     4   9  19  33  53  80 103 126 172 219 252 304
#     4  10  19  33  54  75 100 137 175 216 258 294
#
# _framework density 17.303265
#
# number of rings (size 3 to 8) (size 9 to 14) (size 15 to 20)
#    0.000    2.429    0.000    3.000    0.000    2.571 
#    0.000    1.429    0.000   14.571    0.000    0.000 
#    0.000    0.000    0.000    0.000    0.000    0.000 
#
# Total GULP energy -156093.785484 kJ/mol
# GULP energy per Si atom -5574.778053 kJ/mol
# Density = 1.726388 g / cm^3
# Si number density = 17.303265 Si / 1000 Ang^3
#
#
#
# Elastic Constant Matrix: (Units=GPa)
#
#
# Indices 1 2 3 4 5 6 
#
# 1 63.3167 47.8674 36.9800 0.0000 0.0000 0.0000
# 2 47.8674 143.4440 63.6332 0.0000 0.0000 0.0000
# 3 36.9800 63.6332 139.6764 0.0000 0.0000 0.0000
# 4 0.0000 0.0000 0.0000 12.9621 0.0000 0.0000
# 5 0.0000 0.0000 0.0000 0.0000 -11.4702 0.0000
# 6 0.0000 0.0000 0.0000 0.0000 0.0000 13.1116
#
#
#
# Elastic Compliance Matrix: (Units=1/GPa)
#
#
# Indices 1 2 3 4 5 6 
#
# 1 0.022164 -0.006007 -0.003131 0.000000 0.000000 0.000000
# 2 -0.006007 0.010365 -0.003132 0.000000 0.000000 0.000000
# 3 -0.003131 -0.003132 0.009415 0.000000 0.000000 0.000000
# 4 0.000000 0.000000 0.000000 0.077148 0.000000 0.000000
# 5 0.000000 0.000000 0.000000 0.000000 -0.087182 0.000000
# 6 0.000000 0.000000 0.000000 0.000000 0.000000 0.076268
#
#
# Mechanical properties :
#
#
# Convention : Reuss Voigt Hill
#
# Bulk Modulus (GPa) = 57.45806 71.48871 64.47338
# Shear Modulus (GPa) = 36.09596 16.11779 26.10688
#
# Velocity S-wave (km/s) = 4.57232 3.05534 3.88852
# Velocity P-wave (km/s) = 7.82006 7.33837 7.58304
#
# Compressibility (1/GPa) = 0.01740400
#
# Stress axis : x y z
#
# Youngs Moduli (GPa) = 45.11880 96.47693 106.21142
#
# Poissons Ratio (x) = 0.57953 0.33258
# Poissons Ratio (y) = 0.27103 0.33263
# Poissons Ratio (z) = 0.14128 0.30214
#
# Static dielectric constant tensor:
#      x y z
#    x 1.557810 0.000000 0.000000 
#    y 0.000000 1.561730 0.000000 
#    z 0.000000 0.000000 1.631160 
# 
# From -- ./inp_files/17765.got.cif
#   From: 2010.05.17/outbox.cif.g08.bks.cpg/sg44_9_cif.got.tgz:17765.got - 2010.06.03 19:37:08.
