data_PCOD9374726
_publ_section_title
;
Structure prediction by ZEFSAII (Michael W. Deem and Ramdas Pophale) SiO2 
 PCOD9374726
Probable space group: I M M 2
;
_chemical_formula_sum "Si O2"
_cell_formula_units_Z 48
_cell_length_a 16.917518
_cell_length_b 8.710761
_cell_length_c 18.903476
_cell_angle_alpha 90.000000
_cell_angle_beta 90.000000
_cell_angle_gamma 90.000000
_cell_volume 2785.700457
_symmetry_space_group_name_H-M "I M M 2"
_symmetry_group_IT_number 44
_symmetry_cell_setting 'orthorhombic'
loop_
_space_group_symop_operation_xyz
x,y,z
-x,-y,z
-x,y,z
x,-y,z
1/2+x,1/2+y,1/2+z
1/2-x,1/2-y,1/2+z
1/2-x,1/2+y,1/2+z
1/2+x,1/2-y,1/2+z
loop_
_atom_site_type_symbol
_atom_site_label
_atom_site_fract_x
_atom_site_fract_y
_atom_site_fract_z
Si Si1 0.236452 0.816473 0.299040
Si Si2 0.500000 0.684329 0.416004
Si Si3 0.591018 0.814745 0.881826
Si Si4 0.332628 0.183875 0.440068
Si Si5 0.838425 0.815710 0.676708
Si Si6 0.313516 0.816087 0.021829
Si Si7 0.500000 0.313562 0.252102
O O1 0.151617 0.756338 0.325441
O O2 0.297789 0.773851 0.362326
O O3 0.268198 0.744548 0.226754
O O4 0.234943 0.000000 0.293462
O O5 0.500000 0.500000 0.418680
O O6 0.580273 0.749043 0.448815
O O7 0.500000 0.735162 0.333603
O O8 0.500000 0.767322 0.873173
O O9 0.594947 0.000000 0.876384
O O10 0.624197 0.772970 0.959860
O O11 0.270616 0.253187 0.495248
O O12 0.333460 0.000000 0.445104
O O13 0.833605 0.753150 0.597571
O O14 0.920716 0.763271 0.712539
O O15 0.836856 0.000000 0.675870
O O16 0.311523 0.000000 0.026096
O O17 0.500000 0.500000 0.252063
#
# Coordination Sequence:
#
# PCOD9374726 Si02
#       7
#     8   4   8   8   8   8   4
#     4  10  20  34  54  80 108 141 182 225 269 318
#     4  11  19  33  57  83 111 142 181 226 269 319
#     4   9  19  36  57  80 107 141 181 222 268 321
#     4  10  20  35  54  80 110 144 184 225 269 321
#     4  11  21  36  55  79 112 148 181 219 268 325
#     4  10  21  36  55  80 111 146 181 221 270 324
#     4   9  20  33  51  81 113 144 177 214 267 323
#
# _framework density 17.230853
#
# number of rings (size 3 to 8) (size 9 to 14) (size 15 to 20)
#    0.000    2.000    1.667    2.250    1.167    2.333 
#    0.000    1.250    1.833    0.000    0.000    0.000 
#    0.000    0.000    0.000    0.000    0.000    0.000 
#
# Total GULP energy -133988.675810 kJ/mol
# GULP energy per Si atom -5582.861492 kJ/mol
# Density = 1.719164 g / cm^3
# Si number density = 17.230853 Si / 1000 Ang^3
#
#
#
# Elastic Constant Matrix: (Units=GPa)
#
#
# Indices 1 2 3 4 5 6 
#
# 1 145.4231 32.9595 39.5513 0.0000 0.0000 0.0000
# 2 32.9595 42.7301 19.9761 0.0000 0.0000 0.0000
# 3 39.5513 19.9761 74.4157 0.0000 0.0000 0.0000
# 4 0.0000 0.0000 0.0000 29.5075 0.0000 0.0000
# 5 0.0000 0.0000 0.0000 0.0000 17.9854 0.0000
# 6 0.0000 0.0000 0.0000 0.0000 0.0000 23.8106
#
#
#
# Elastic Compliance Matrix: (Units=1/GPa)
#
#
# Indices 1 2 3 4 5 6 
#
# 1 0.009005 -0.005384 -0.003341 0.000000 0.000000 0.000000
# 2 -0.005384 0.029980 -0.005186 0.000000 0.000000 0.000000
# 3 -0.003341 -0.005186 0.016606 0.000000 0.000000 0.000000
# 4 0.000000 0.000000 0.000000 0.033890 0.000000 0.000000
# 5 0.000000 0.000000 0.000000 0.000000 0.055601 0.000000
# 6 0.000000 0.000000 0.000000 0.000000 0.000000 0.041998
#
#
# Mechanical properties :
#
#
# Convention : Reuss Voigt Hill
#
# Bulk Modulus (GPa) = 36.01168 49.72696 42.86932
# Shear Modulus (GPa) = 22.30553 25.59949 23.95251
#
# Velocity S-wave (km/s) = 3.60183 3.85863 3.73244
# Velocity P-wave (km/s) = 6.18405 6.98383 6.59608
#
# Compressibility (1/GPa) = 0.02776877
#
# Stress axis : x y z
#
# Youngs Moduli (GPa) = 111.04326 33.35506 60.21962
#
# Poissons Ratio (x) = 0.17960 0.20119
# Poissons Ratio (y) = 0.59791 0.31231
# Poissons Ratio (z) = 0.37099 0.17298
#
# Static dielectric constant tensor:
#      x y z
#    x 1.573220 0.000000 0.000000 
#    y 0.000000 1.571740 0.000000 
#    z 0.000000 0.000000 1.559840 
# 
# From -- ./inp_files/20328.got.cif
#   From: 2010.05.17/outbox.cif.g08.bks.cpg/sg44_11_cif.got.tgz:20328.got - 2010.06.03 19:37:08.
