data_PCOD9374085
_publ_section_title
;
Structure prediction by ZEFSAII (Michael W. Deem and Ramdas Pophale) SiO2 
 PCOD9374085
Probable space group: I M M 2
;
_chemical_formula_sum "Si O2"
_cell_formula_units_Z 58
_cell_length_a 18.403229
_cell_length_b 7.416919
_cell_length_c 17.965062
_cell_angle_alpha 90.000000
_cell_angle_beta 90.000000
_cell_angle_gamma 90.000000
_cell_volume 2452.145788
_symmetry_space_group_name_H-M "I M M 2"
_symmetry_group_IT_number 44
_symmetry_cell_setting 'orthorhombic'
loop_
_space_group_symop_operation_xyz
x,y,z
-x,-y,z
-x,y,z
x,-y,z
1/2+x,1/2+y,1/2+z
1/2-x,1/2-y,1/2+z
1/2-x,1/2+y,1/2+z
1/2+x,1/2-y,1/2+z
loop_
_atom_site_type_symbol
_atom_site_label
_atom_site_fract_x
_atom_site_fract_y
_atom_site_fract_z
Si Si1 0.627488 0.797034 0.659640
Si Si2 0.000000 0.500000 0.527878
Si Si3 0.579947 0.289366 0.495915
Si Si4 0.362459 0.200358 0.976087
Si Si5 0.789351 0.721819 0.616646
Si Si6 0.918897 0.286265 0.722330
Si Si7 0.325469 0.715638 0.363523
Si Si8 0.163968 0.279782 0.316776
O O1 0.594759 0.718080 0.584119
O O2 0.713966 0.794240 0.645699
O O3 0.624369 0.712702 0.742121
O O4 0.598552 0.000000 0.662974
O O5 0.936031 0.654400 0.519792
O O6 0.500000 0.210479 0.480196
O O7 0.576290 0.500000 0.476429
O O8 0.645204 0.218022 0.443730
O O9 0.374839 0.273201 0.894006
O O10 0.329644 0.000000 0.960502
O O11 0.307294 0.285846 0.033418
O O12 0.785674 0.500000 0.617244
O O13 0.855634 0.781806 0.668665
O O14 0.924000 0.500000 0.706062
O O15 0.888860 0.260943 0.805123
O O16 0.000000 0.212755 0.712512
O O17 0.317347 0.500000 0.366038
O O18 0.247741 0.780468 0.330949
O O19 0.163309 0.500000 0.307692
#
# Coordination Sequence:
#
# PCOD9374085 Si02
#       8
#     8   2   8   8   8   8   8   8
#     4  11  22  36  55  83 116 146 183 231 281 335
#     4   8  16  28  52  84 106 128 180 240 278 316
#     4  10  22  40  61  84 110 147 194 237 282 338
#     4   8  16  29  50  77 104 134 175 227 273 318
#     4  10  19  33  56  79 112 147 184 220 275 331
#     4  10  21  32  49  81 118 148 179 228 285 338
#     4  10  19  36  60  78 106 144 190 233 274 332
#     4   9  17  32  50  77 109 138 178 228 275 322
#
# _framework density 23.652754999999999
#
# number of rings (size 3 to 8) (size 9 to 14) (size 15 to 20)
#    0.414    1.931    1.379    1.655    0.966    3.862 
#    1.241    0.000    0.000    0.828    0.000    0.000 
#    0.000    0.000    0.000    0.000    0.000    0.000 
#
# Total GULP energy -161452.701991 kJ/mol
# GULP energy per Si atom -5567.334551 kJ/mol
# Density = 2.359892 g / cm^3
# Si number density = 23.652755 Si / 1000 Ang^3
#
#
#
# Elastic Constant Matrix: (Units=GPa)
#
#
# Indices 1 2 3 4 5 6 
#
# 1 49.9486 -3.4895 -19.0634 0.0000 0.0000 0.0000
# 2 -3.4895 74.6240 -8.6217 0.0000 0.0000 0.0000
# 3 -19.0634 -8.6217 111.7987 0.0000 0.0000 0.0000
# 4 0.0000 0.0000 0.0000 17.9396 0.0000 0.0000
# 5 0.0000 0.0000 0.0000 0.0000 -312.0948 0.0000
# 6 0.0000 0.0000 0.0000 0.0000 0.0000 9.2474
#
#
#
# Elastic Compliance Matrix: (Units=1/GPa)
#
#
# Indices 1 2 3 4 5 6 
#
# 1 0.021568 0.001446 0.003789 0.000000 0.000000 0.000000
# 2 0.001446 0.013618 0.001297 0.000000 0.000000 0.000000
# 3 0.003789 0.001297 0.009691 0.000000 0.000000 0.000000
# 4 0.000000 0.000000 0.000000 0.055743 0.000000 0.000000
# 5 0.000000 0.000000 0.000000 0.000000 -0.003204 0.000000
# 6 0.000000 0.000000 0.000000 0.000000 0.000000 0.108139
#
#
# Mechanical properties :
#
#
# Convention : Reuss Voigt Hill
#
# Bulk Modulus (GPa) = 17.25887 19.33577 18.29732
# Shear Modulus (GPa) = 23.60687 -39.14516 -7.76914
#
# Velocity S-wave (km/s) = 3.16264 -4.07257 -1.81433
# Velocity P-wave (km/s) = 4.54411 3.73120 1.83400
#
# Compressibility (1/GPa) = 0.05794122
#
# Stress axis : x y z
#
# Youngs Moduli (GPa) = 46.36539 73.43239 103.19097
#
# Poissons Ratio (x) = -0.10621 -0.39101
# Poissons Ratio (y) = -0.06706 -0.13382
# Poissons Ratio (z) = -0.17569 -0.09523
#
# Static dielectric constant tensor:
#      x y z
#    x 2.147240 0.000000 0.000000 
#    y 0.000000 1.918880 0.000000 
#    z 0.000000 0.000000 1.966800 
# 
# From -- ./inp_files/22122.got.cif
#   From: 2010.05.17/outbox.cif.g08.bks.cpg/sg44_12_cif.got.tgz:22122.got - 2010.06.03 19:37:08.
