data_PCOD9374764
_publ_section_title
;
Structure prediction by ZEFSAII (Michael W. Deem and Ramdas Pophale) SiO2 
 PCOD9374764
Probable space group: I M M 2
;
_chemical_formula_sum "Si O2"
_cell_formula_units_Z 56
_cell_length_a 8.564553
_cell_length_b 21.862125
_cell_length_c 14.187012
_cell_angle_alpha 90.000000
_cell_angle_beta 90.000000
_cell_angle_gamma 90.000000
_cell_volume 2656.366597
_symmetry_space_group_name_H-M "I M M 2"
_symmetry_group_IT_number 44
_symmetry_cell_setting 'orthorhombic'
loop_
_space_group_symop_operation_xyz
x,y,z
-x,-y,z
-x,y,z
x,-y,z
1/2+x,1/2+y,1/2+z
1/2-x,1/2-y,1/2+z
1/2-x,1/2+y,1/2+z
1/2+x,1/2-y,1/2+z
loop_
_atom_site_type_symbol
_atom_site_label
_atom_site_fract_x
_atom_site_fract_y
_atom_site_fract_z
Si Si1 0.318792 0.500000 0.100490
Si Si2 0.680648 0.500000 0.874006
Si Si3 0.822358 0.429294 0.390994
Si Si4 0.320832 0.115023 0.269559
Si Si5 0.189535 0.860374 0.615059
Si Si6 0.821677 0.929424 0.090281
Si Si7 0.182295 0.710949 0.934249
Si Si8 0.681499 0.683803 0.310205
O O1 0.500000 0.500000 0.132595
O O2 0.253446 0.568321 0.124921
O O3 0.316417 0.500000 0.986614
O O4 0.500000 0.500000 0.843387
O O5 0.765091 0.558918 0.833388
O O6 0.798979 0.500000 0.365946
O O7 0.792497 0.423139 0.502451
O O8 0.700674 0.386001 0.340744
O O9 0.000000 0.411870 0.367400
O O10 0.500000 0.106042 0.240881
O O11 0.218500 0.114835 0.175805
O O12 0.309371 0.172667 0.337273
O O13 0.237445 0.827194 0.517781
O O14 0.243975 0.818306 0.703218
O O15 0.000000 0.863384 0.616865
O O16 0.000000 0.921165 0.058287
O O17 0.806849 0.000000 0.125043
O O18 0.249039 0.775653 0.896333
O O19 0.000000 0.717589 0.962107
O O20 0.500000 0.701746 0.304286
#
# Coordination Sequence:
#
# PCOD9374764 Si02
#       8
#     4   4   8   8   8   8   8   8
#     4   9  18  33  57  90 121 150 201 265 312 364
#     4  11  19  31  53  82 117 150 201 259 308 372
#     4  10  22  40  61  87 119 152 195 249 307 368
#     4  11  21  33  53  82 122 163 201 251 312 361
#     4  10  21  39  64  92 121 160 208 258 310 366
#     4  10  20  34  55  84 118 155 198 243 291 352
#     4  10  23  41  58  86 125 161 202 252 303 366
#     4  10  23  42  64  88 119 158 204 250 302 369
#
# _framework density 21.081429
#
# number of rings (size 3 to 8) (size 9 to 14) (size 15 to 20)
#    0.000    1.857    2.143    1.500    1.000    4.286 
#    0.000    1.786    0.000    0.000    0.000    0.000 
#    0.000    0.000    0.000    0.000    0.000    0.000 
#
# Total GULP energy -156152.256943 kJ/mol
# GULP energy per Si atom -5576.866319 kJ/mol
# Density = 2.103345 g / cm^3
# Si number density = 21.081429 Si / 1000 Ang^3
#
#
#
# Elastic Constant Matrix: (Units=GPa)
#
#
# Indices 1 2 3 4 5 6 
#
# 1 19.2751 13.0698 -1.5441 0.0000 0.0000 0.0000
# 2 13.0698 67.8068 28.0709 0.0000 0.0000 0.0000
# 3 -1.5441 28.0709 63.2231 0.0000 0.0000 0.0000
# 4 0.0000 0.0000 0.0000 19.3342 0.0000 0.0000
# 5 0.0000 0.0000 0.0000 0.0000 24.0896 0.0000
# 6 0.0000 0.0000 0.0000 0.0000 0.0000 19.0192
#
#
#
# Elastic Compliance Matrix: (Units=1/GPa)
#
#
# Indices 1 2 3 4 5 6 
#
# 1 0.063217 -0.015712 0.008520 0.000000 0.000000 0.000000
# 2 -0.015712 0.021974 -0.010140 0.000000 0.000000 0.000000
# 3 0.008520 -0.010140 0.020527 0.000000 0.000000 0.000000
# 4 0.000000 0.000000 0.000000 0.051722 0.000000 0.000000
# 5 0.000000 0.000000 0.000000 0.000000 0.041512 0.000000
# 6 0.000000 0.000000 0.000000 0.000000 0.000000 0.052579
#
#
# Mechanical properties :
#
#
# Convention : Reuss Voigt Hill
#
# Bulk Modulus (GPa) = 14.07383 25.49980 19.78682
# Shear Modulus (GPa) = 16.13526 19.86915 18.00221
#
# Velocity S-wave (km/s) = 2.76955 3.07334 2.92539
# Velocity P-wave (km/s) = 4.11310 4.97152 4.56254
#
# Compressibility (1/GPa) = 0.07105386
#
# Stress axis : x y z
#
# Youngs Moduli (GPa) = 15.81850 45.50778 48.71549
#
# Poissons Ratio (x) = 0.71504 -0.41507
# Poissons Ratio (y) = 0.24855 0.49399
# Poissons Ratio (z) = -0.13478 0.46146
#
# Static dielectric constant tensor:
#      x y z
#    x 1.740590 0.000000 0.000000 
#    y 0.000000 1.814320 0.000000 
#    z 0.000000 0.000000 1.771930 
# 
# From -- ./inp_files/16537.got.cif
#   From: 2010.05.17/outbox.cif.g08.bks.cpg/sg44_9_cif.got.tgz:16537.got - 2010.06.03 19:37:08.
