data_PCOD9374150
_publ_section_title
;
Structure prediction by ZEFSAII (Michael W. Deem and Ramdas Pophale) SiO2 
 PCOD9374150
Probable space group: I M M 2
;
_chemical_formula_sum "Si O2"
_cell_formula_units_Z 64
_cell_length_a 8.247682
_cell_length_b 29.431189
_cell_length_c 12.845843
_cell_angle_alpha 90.000000
_cell_angle_beta 90.000000
_cell_angle_gamma 90.000000
_cell_volume 3118.188211
_symmetry_space_group_name_H-M "I M M 2"
_symmetry_group_IT_number 44
_symmetry_cell_setting 'orthorhombic'
loop_
_space_group_symop_operation_xyz
x,y,z
-x,-y,z
-x,y,z
x,-y,z
1/2+x,1/2+y,1/2+z
1/2-x,1/2-y,1/2+z
1/2-x,1/2+y,1/2+z
1/2+x,1/2-y,1/2+z
loop_
_atom_site_type_symbol
_atom_site_label
_atom_site_fract_x
_atom_site_fract_y
_atom_site_fract_z
Si Si1 0.694788 0.051454 0.563650
Si Si2 0.190882 0.305794 0.328280
Si Si3 0.811402 0.333928 0.556611
Si Si4 0.310926 0.619000 0.884796
Si Si5 0.310646 0.950600 0.224511
Si Si6 0.815536 0.069694 0.006271
Si Si7 0.197703 0.792852 0.272233
Si Si8 0.696584 0.091834 0.784575
O O1 0.500000 0.049027 0.567781
O O2 0.735931 0.088795 0.476523
O O3 0.750330 0.068579 0.677512
O O4 0.754755 0.000000 0.541503
O O5 0.199669 0.303766 0.453360
O O6 0.259212 0.258447 0.287447
O O7 0.254124 0.355309 0.292407
O O8 0.000000 0.306520 0.299749
O O9 0.700497 0.376976 0.532475
O O10 0.757474 0.310045 0.660962
O O11 0.000000 0.349290 0.565003
O O12 0.500000 0.623078 0.907977
O O13 0.285534 0.589541 0.779704
O O14 0.247904 0.669610 0.857858
O O15 0.500000 0.944287 0.248696
O O16 0.286044 0.951011 0.100720
O O17 0.259279 0.000000 0.265861
O O18 0.000000 0.054391 0.013788
O O19 0.752756 0.065698 0.888556
O O20 0.000000 0.792807 0.274495
O O21 0.500000 0.092565 0.787508
#
# Coordination Sequence:
#
# PCOD9374150 Si02
#       8
#     8   8   8   8   8   8   8   8
#     4  10  22  40  61  84 114 155 201 248 297 351
#     4   8  17  34  55  80 111 149 191 238 294 349
#     4  10  19  34  56  79 109 150 192 236 285 348
#     4  11  23  37  56  83 116 153 193 241 297 351
#     4  11  23  38  58  83 112 147 188 234 284 345
#     4  11  21  35  57  85 115 147 183 233 294 351
#     4  10  20  35  55  81 114 151 191 242 300 352
#     4   9  19  38  61  83 113 155 199 243 292 350
#
# _framework density 20.524740000000001
#
# number of rings (size 3 to 8) (size 9 to 14) (size 15 to 20)
#    0.000    2.000    1.250    3.375    0.000    5.250 
#    0.000    4.375    0.000    0.000    0.000    0.000 
#    0.000    0.000    0.000    0.000    0.000    0.000 
#
# Total GULP energy -178532.498666 kJ/mol
# GULP energy per Si atom -5579.140583 kJ/mol
# Density = 2.047802 g / cm^3
# Si number density = 20.524740 Si / 1000 Ang^3
#
#
#
# Elastic Constant Matrix: (Units=GPa)
#
#
# Indices 1 2 3 4 5 6 
#
# 1 22.8819 8.3693 3.5545 0.0000 0.0000 0.0000
# 2 8.3693 65.9328 16.7253 0.0000 -0.0001 0.0000
# 3 3.5545 16.7253 89.4513 -0.0002 -0.0001 0.0000
# 4 0.0000 0.0000 -0.0002 11.6616 0.0000 0.0000
# 5 0.0000 -0.0001 -0.0001 0.0000 17.8234 0.0000
# 6 0.0000 0.0000 0.0000 0.0000 0.0000 13.1253
#
#
#
# Elastic Compliance Matrix: (Units=1/GPa)
#
#
# Indices 1 2 3 4 5 6 
#
# 1 0.045881 -0.005628 -0.000771 0.000000 0.000000 0.000000
# 2 -0.005628 0.016613 -0.002883 0.000000 0.000000 0.000000
# 3 -0.000771 -0.002883 0.011749 0.000000 0.000000 0.000000
# 4 0.000000 0.000000 0.000000 0.085752 0.000000 0.000000
# 5 0.000000 0.000000 0.000000 0.000000 0.056106 0.000000
# 6 0.000000 0.000000 0.000000 0.000000 0.000000 0.076189
#
#
# Mechanical properties :
#
#
# Convention : Reuss Voigt Hill
#
# Bulk Modulus (GPa) = 17.96006 26.17379 22.06692
# Shear Modulus (GPa) = 15.17856 18.49652 16.83754
#
# Velocity S-wave (km/s) = 2.72237 3.00523 2.86729
# Velocity P-wave (km/s) = 4.31870 4.98215 4.66224
#
# Compressibility (1/GPa) = 0.05567910
#
# Stress axis : x y z
#
# Youngs Moduli (GPa) = 21.79546 60.19513 85.11467
#
# Poissons Ratio (x) = 0.33881 0.06560
# Poissons Ratio (y) = 0.12268 0.24534
# Poissons Ratio (z) = 0.01680 0.17351
#
# Static dielectric constant tensor:
#      x y z
#    x 1.722600 0.000000 0.000000 
#    y 0.000000 1.772540 0.000000 
#    z 0.000000 0.000000 1.720140 
# 
# From -- ./inp_files/11550.got.cif
#   From: 2010.05.17/outbox.cif.g08.bks.cpg/sg44_6_cif.got.tgz:11550.got - 2010.06.03 19:37:08.
