data_PCOD9374824
_publ_section_title
;
Structure prediction by ZEFSAII (Michael W. Deem and Ramdas Pophale) SiO2 
 PCOD9374824
Probable space group: I M M 2
;
_chemical_formula_sum "Si O2"
_cell_formula_units_Z 64
_cell_length_a 20.450748
_cell_length_b 8.527423
_cell_length_c 20.830746
_cell_angle_alpha 90.000000
_cell_angle_beta 90.000000
_cell_angle_gamma 90.000000
_cell_volume 3632.719182
_symmetry_space_group_name_H-M "I M M 2"
_symmetry_group_IT_number 44
_symmetry_cell_setting 'orthorhombic'
loop_
_space_group_symop_operation_xyz
x,y,z
-x,-y,z
-x,y,z
x,-y,z
1/2+x,1/2+y,1/2+z
1/2-x,1/2-y,1/2+z
1/2-x,1/2+y,1/2+z
1/2+x,1/2-y,1/2+z
loop_
_atom_site_type_symbol
_atom_site_label
_atom_site_fract_x
_atom_site_fract_y
_atom_site_fract_z
Si Si1 0.175581 0.309301 0.723890
Si Si2 0.175434 0.686353 0.368388
Si Si3 0.575506 0.687842 0.973814
Si Si4 0.424583 0.810262 0.115063
Si Si5 0.825168 0.812382 0.226902
Si Si6 0.321186 0.810065 0.369728
Si Si7 0.425378 0.808781 0.474829
Si Si8 0.924410 0.310788 0.121345
O O1 0.173782 0.500000 0.722859
O O2 0.124440 0.254566 0.670577
O O3 0.250615 0.262150 0.710767
O O4 0.160247 0.261271 0.797095
O O5 0.177321 0.500000 0.369533
O O6 0.123680 0.746960 0.420113
O O7 0.157991 0.743381 0.296642
O O8 0.247935 0.751892 0.382723
O O9 0.500000 0.737350 0.962276
O O10 0.577815 0.500000 0.972989
O O11 0.593739 0.747253 0.044884
O O12 0.500000 0.764140 0.127942
O O13 0.422443 0.000000 0.113145
O O14 0.875269 0.759452 0.172699
O O15 0.825236 0.000000 0.232324
O O16 0.373083 0.755100 0.422541
O O17 0.320002 0.000000 0.370669
O O18 0.500000 0.759831 0.460587
O O19 0.409220 0.762221 0.547946
O O20 0.425248 0.000000 0.473941
O O21 0.920538 0.500000 0.124010
O O22 0.000000 0.267227 0.134393
#
# Coordination Sequence:
#
# PCOD9374824 Si02
#       8
#     8   8   8   8   8   8   8   8
#     4   8  16  30  48  73 103 132 164 206 249 288
#     4  11  22  36  54  75 101 132 167 207 254 306
#     4  10  21  37  55  75 100 130 166 208 253 302
#     4   9  17  31  51  75 104 136 169 205 246 293
#     4  10  20  35  53  73 100 132 168 209 251 297
#     4   9  17  32  53  77 106 137 172 212 251 293
#     4   8  15  29  51  78 106 137 173 211 249 293
#     4   9  18  33  51  73 102 133 167 207 249 296
#
# _framework density 17.617657000000001
#
# number of rings (size 3 to 8) (size 9 to 14) (size 15 to 20)
#    0.000    2.750    0.000    3.375    0.000    3.000 
#    0.000    8.750    0.000    1.125    0.000    0.000 
#    0.000    0.000    0.000    0.000    0.000    0.000 
#
# Total GULP energy -178451.689769 kJ/mol
# GULP energy per Si atom -5576.615305 kJ/mol
# Density = 1.757756 g / cm^3
# Si number density = 17.617657 Si / 1000 Ang^3
#
#
#
# Elastic Constant Matrix: (Units=GPa)
#
#
# Indices 1 2 3 4 5 6 
#
# 1 126.9343 28.9541 137.7411 0.0000 0.0000 0.0000
# 2 28.9541 26.4141 34.3052 0.0000 0.0000 0.0000
# 3 137.7411 34.3052 177.6850 0.0000 0.0000 0.0000
# 4 0.0000 0.0000 0.0000 21.0264 0.0000 0.0000
# 5 0.0000 0.0000 0.0000 0.0000 44.4533 0.0000
# 6 0.0000 0.0000 0.0000 0.0000 0.0000 19.4444
#
#
#
# Elastic Compliance Matrix: (Units=1/GPa)
#
#
# Indices 1 2 3 4 5 6 
#
# 1 0.050312 -0.006001 -0.037843 0.000000 0.000000 0.000000
# 2 -0.006001 0.051244 -0.005241 0.000000 0.000000 0.000000
# 3 -0.037843 -0.005241 0.035976 0.000000 0.000000 0.000000
# 4 0.000000 0.000000 0.000000 0.047559 0.000000 0.000000
# 5 0.000000 0.000000 0.000000 0.000000 0.022496 0.000000
# 6 0.000000 0.000000 0.000000 0.000000 0.000000 0.051429
#
#
# Mechanical properties :
#
#
# Convention : Reuss Voigt Hill
#
# Bulk Modulus (GPa) = 25.40630 81.44824 53.42727
# Shear Modulus (GPa) = 13.50230 25.65369 19.57799
#
# Velocity S-wave (km/s) = 2.77141 3.82007 3.33719
# Velocity P-wave (km/s) = 4.96922 8.11102 6.72614
#
# Compressibility (1/GPa) = 0.03936031
#
# Stress axis : x y z
#
# Youngs Moduli (GPa) = 19.87594 19.51443 27.79643
#
# Poissons Ratio (x) = 0.11711 1.05191
# Poissons Ratio (y) = 0.11928 0.14569
# Poissons Ratio (z) = 0.75217 0.10228
#
# Static dielectric constant tensor:
#      x y z
#    x 1.587470 0.000000 0.000000 
#    y 0.000000 1.602780 0.000000 
#    z 0.000000 0.000000 1.580570 
# 
# From -- ./inp_files/23260.got.cif
#   From: 2010.05.17/outbox.cif.g08.bks.cpg/sg44_12_cif.got.tgz:23260.got - 2010.06.03 19:37:08.
