data_PCOD9374255
_publ_section_title
;
Structure prediction by ZEFSAII (Michael W. Deem and Ramdas Pophale) SiO2 
 PCOD9374255
Probable space group: I M M 2
;
_chemical_formula_sum "Si O2"
_cell_formula_units_Z 48
_cell_length_a 18.668309
_cell_length_b 8.902205
_cell_length_c 15.418361
_cell_angle_alpha 90.000000
_cell_angle_beta 90.000000
_cell_angle_gamma 90.000000
_cell_volume 2562.363750
_symmetry_space_group_name_H-M "I M M 2"
_symmetry_group_IT_number 44
_symmetry_cell_setting 'orthorhombic'
loop_
_space_group_symop_operation_xyz
x,y,z
-x,-y,z
-x,y,z
x,-y,z
1/2+x,1/2+y,1/2+z
1/2-x,1/2-y,1/2+z
1/2-x,1/2+y,1/2+z
1/2+x,1/2-y,1/2+z
loop_
_atom_site_type_symbol
_atom_site_label
_atom_site_fract_x
_atom_site_fract_y
_atom_site_fract_z
Si Si1 0.772886 0.818883 0.464770
Si Si2 0.000000 0.822206 0.076827
Si Si3 0.394821 0.824763 0.706290
Si Si4 0.921745 0.318704 0.402334
Si Si5 0.500000 0.318595 0.377698
Si Si6 0.230740 0.176716 0.666351
Si Si7 0.349088 0.180224 0.323745
O O1 0.850606 0.754969 0.439983
O O2 0.762323 0.776895 0.565708
O O3 0.709420 0.770843 0.398073
O O4 0.774454 0.000000 0.459982
O O5 0.931751 0.764458 0.129630
O O6 0.000000 0.769326 0.978384
O O7 0.000000 0.000000 0.075956
O O8 0.421934 0.778770 0.800527
O O9 0.309978 0.809550 0.705284
O O10 0.412407 0.000000 0.693668
O O11 0.915427 0.500000 0.408312
O O12 0.000000 0.275790 0.439601
O O13 0.500000 0.500000 0.372033
O O14 0.426434 0.254423 0.338623
O O15 0.179866 0.270224 0.729485
O O16 0.209925 0.000000 0.668443
O O17 0.354958 0.000000 0.328776
#
# Coordination Sequence:
#
# PCOD9374255 Si02
#       7
#     8   4   8   8   4   8   8
#     4  10  22  39  61  90 121 156 199 246 301 360
#     4  11  23  35  55  90 123 152 195 251 304 356
#     4  10  19  35  59  84 117 157 194 238 299 364
#     4  10  20  36  58  85 116 155 198 240 291 353
#     4  11  25  43  61  86 121 162 203 245 302 364
#     4  10  21  39  62  87 117 159 203 243 299 365
#     4  11  23  41  65  92 122 157 202 256 302 351
#
# _framework density 18.732703999999998
#
# number of rings (size 3 to 8) (size 9 to 14) (size 15 to 20)
#    0.000    1.667    2.500    2.000    0.000    5.667 
#    1.500    0.000    0.000    0.000    0.000    0.000 
#    0.000    0.000    0.000    0.000    0.000    0.000 
#
# Total GULP energy -133936.101636 kJ/mol
# GULP energy per Si atom -5580.670901 kJ/mol
# Density = 1.869007 g / cm^3
# Si number density = 18.732704 Si / 1000 Ang^3
#
#
#
# Elastic Constant Matrix: (Units=GPa)
#
#
# Indices 1 2 3 4 5 6 
#
# 1 136.5129 33.7876 43.9410 0.0000 0.0000 0.0000
# 2 33.7876 27.1845 24.6502 0.0000 0.0000 0.0000
# 3 43.9410 24.6502 74.5745 0.0000 0.0000 0.0000
# 4 0.0000 0.0000 0.0000 27.7616 0.0000 0.0000
# 5 0.0000 0.0000 0.0000 0.0000 -7.4912 0.0000
# 6 0.0000 0.0000 0.0000 0.0000 0.0000 36.4325
#
#
#
# Elastic Compliance Matrix: (Units=1/GPa)
#
#
# Indices 1 2 3 4 5 6 
#
# 1 0.010973 -0.011104 -0.002795 0.000000 0.000000 0.000000
# 2 -0.011104 0.063767 -0.014535 0.000000 0.000000 0.000000
# 3 -0.002795 -0.014535 0.019861 0.000000 0.000000 0.000000
# 4 0.000000 0.000000 0.000000 0.036021 0.000000 0.000000
# 5 0.000000 0.000000 0.000000 0.000000 -0.133490 0.000000
# 6 0.000000 0.000000 0.000000 0.000000 0.000000 0.027448
#
#
# Mechanical properties :
#
#
# Convention : Reuss Voigt Hill
#
# Bulk Modulus (GPa) = 26.50250 49.22551 37.86400
# Shear Modulus (GPa) = 53.17665 20.40013 36.78839
#
# Velocity S-wave (km/s) = 5.33373 3.30360 4.43635
# Velocity P-wave (km/s) = 7.21873 6.39426 6.81897
#
# Compressibility (1/GPa) = 0.03773229
#
# Stress axis : x y z
#
# Youngs Moduli (GPa) = 91.12951 15.68214 50.34993
#
# Poissons Ratio (x) = 0.17413 0.14075
# Poissons Ratio (y) = 1.01190 0.73184
# Poissons Ratio (z) = 0.25474 0.22794
#
# Static dielectric constant tensor:
#      x y z
#    x 1.656770 0.000000 0.000000 
#    y 0.000000 1.639140 0.000000 
#    z 0.000000 0.000000 1.653450 
# 
# From -- ./inp_files/16150.got.cif
#   From: 2010.05.17/outbox.cif.g08.bks.cpg/sg44_9_cif.got.tgz:16150.got - 2010.06.03 19:37:08.
