data_PCOD9374040
_publ_section_title
;
Structure prediction by ZEFSAII (Michael W. Deem and Ramdas Pophale) SiO2 
 PCOD9374040
Probable space group: I M M 2
;
_chemical_formula_sum "Si O2"
_cell_formula_units_Z 58
_cell_length_a 7.578591
_cell_length_b 22.460611
_cell_length_c 14.542998
_cell_angle_alpha 90.000000
_cell_angle_beta 90.000000
_cell_angle_gamma 90.000000
_cell_volume 2475.505984
_symmetry_space_group_name_H-M "I M M 2"
_symmetry_group_IT_number 44
_symmetry_cell_setting 'orthorhombic'
loop_
_space_group_symop_operation_xyz
x,y,z
-x,-y,z
-x,y,z
x,-y,z
1/2+x,1/2+y,1/2+z
1/2-x,1/2-y,1/2+z
1/2-x,1/2+y,1/2+z
1/2+x,1/2-y,1/2+z
loop_
_atom_site_type_symbol
_atom_site_label
_atom_site_fract_x
_atom_site_fract_y
_atom_site_fract_z
Si Si1 0.800233 0.350706 0.198880
Si Si2 0.709503 0.323570 0.898364
Si Si3 0.283850 0.932340 0.859279
Si Si4 0.285672 0.110900 0.061145
Si Si5 0.297109 0.408960 0.760661
Si Si6 0.000000 0.500000 0.815609
Si Si7 0.709974 0.245613 0.059611
Si Si8 0.211723 0.066986 0.534677
O O1 0.719474 0.380318 0.290369
O O2 0.731852 0.293671 0.141772
O O3 0.793305 0.405399 0.126521
O O4 0.000000 0.334412 0.222397
O O5 0.500000 0.312385 0.896559
O O6 0.754368 0.341689 0.794400
O O7 0.785130 0.272808 0.964030
O O8 0.743379 0.383603 0.957311
O O9 0.500000 0.931750 0.854722
O O10 0.228824 0.000000 0.834720
O O11 0.234124 0.917167 0.963944
O O12 0.500000 0.108242 0.065502
O O13 0.216147 0.080164 0.152550
O O14 0.222872 0.179096 0.070765
O O15 0.500000 0.419764 0.790258
O O16 0.154109 0.449812 0.806625
O O17 0.500000 0.239396 0.048904
O O18 0.000000 0.065009 0.547296
O O19 0.275228 0.000000 0.514530
#
# Coordination Sequence:
#
# PCOD9374040 Si02
#       8
#     8   8   8   8   8   2   8   8
#     4  10  19  33  53  84 115 153 200 249 301 365
#     4   8  17  35  56  82 116 160 206 249 307 376
#     4   9  19  34  57  84 119 157 197 246 309 373
#     4  10  21  39  63  89 117 162 213 261 320 377
#     4  11  24  42  66  93 128 167 214 261 314 377
#     4  12  26  44  64  94 132 170 210 260 318 386
#     4   9  19  38  61  84 121 164 203 253 316 373
#     4   9  17  31  52  76 111 155 195 238 303 370
#
# _framework density 23.429555000000001
#
# number of rings (size 3 to 8) (size 9 to 14) (size 15 to 20)
#    0.000    2.483    0.690    1.862    1.931    2.483 
#    4.966    4.138    0.000    1.655    0.000    0.000 
#    0.000    0.000    0.000    0.000    0.000    0.000 
#
# Total GULP energy -161510.474964 kJ/mol
# GULP energy per Si atom -5569.326723 kJ/mol
# Density = 2.337623 g / cm^3
# Si number density = 23.429555 Si / 1000 Ang^3
#
#
#
# Elastic Constant Matrix: (Units=GPa)
#
#
# Indices 1 2 3 4 5 6 
#
# 1 70.4307 10.9732 11.2467 0.0000 0.0000 0.0000
# 2 10.9732 57.8326 -15.2487 0.0000 0.0000 0.0000
# 3 11.2467 -15.2487 84.3654 0.0001 0.0001 0.0000
# 4 0.0000 0.0000 0.0001 8.5087 0.0000 0.0000
# 5 0.0000 0.0000 0.0001 0.0000 20.2598 0.0000
# 6 0.0000 0.0000 0.0000 0.0000 0.0000 14.6041
#
#
#
# Elastic Compliance Matrix: (Units=1/GPa)
#
#
# Indices 1 2 3 4 5 6 
#
# 1 0.015184 -0.003586 -0.002672 0.000000 0.000000 0.000000
# 2 -0.003586 0.019003 0.003913 0.000000 0.000000 0.000000
# 3 -0.002672 0.003913 0.012917 0.000000 0.000000 0.000000
# 4 0.000000 0.000000 0.000000 0.117527 0.000000 0.000000
# 5 0.000000 0.000000 0.000000 0.000000 0.049359 0.000000
# 6 0.000000 0.000000 0.000000 0.000000 0.000000 0.068474
#
#
# Mechanical properties :
#
#
# Convention : Reuss Voigt Hill
#
# Bulk Modulus (GPa) = 23.57733 25.17456 24.37594
# Shear Modulus (GPa) = 16.59523 22.38502 19.49013
#
# Velocity S-wave (km/s) = 2.66428 3.09434 2.88733
# Velocity P-wave (km/s) = 4.42148 4.85125 4.64134
#
# Compressibility (1/GPa) = 0.04241363
#
# Stress axis : x y z
#
# Youngs Moduli (GPa) = 65.86011 52.62256 77.41953
#
# Poissons Ratio (x) = 0.18868 0.20688
# Poissons Ratio (y) = 0.23614 -0.30292
# Poissons Ratio (z) = 0.17599 -0.20590
#
# Static dielectric constant tensor:
#      x y z
#    x 1.862990 0.000000 0.000000 
#    y 0.000000 1.785190 0.000000 
#    z 0.000000 0.000000 1.920970 
# 
# From -- ./inp_files/16713.got.cif
#   From: 2010.05.17/outbox.cif.g08.bks.cpg/sg44_9_cif.got.tgz:16713.got - 2010.06.03 19:37:08.
