data_PCOD9374780
_publ_section_title
;
Structure prediction by ZEFSAII (Michael W. Deem and Ramdas Pophale) SiO2 
 PCOD9374780
Probable space group: I M M 2
;
_chemical_formula_sum "Si O2"
_cell_formula_units_Z 58
_cell_length_a 26.006376
_cell_length_b 8.876866
_cell_length_c 13.901524
_cell_angle_alpha 90.000000
_cell_angle_beta 90.000000
_cell_angle_gamma 90.000000
_cell_volume 3209.237920
_symmetry_space_group_name_H-M "I M M 2"
_symmetry_group_IT_number 44
_symmetry_cell_setting 'orthorhombic'
loop_
_space_group_symop_operation_xyz
x,y,z
-x,-y,z
-x,y,z
x,-y,z
1/2+x,1/2+y,1/2+z
1/2-x,1/2-y,1/2+z
1/2-x,1/2+y,1/2+z
1/2+x,1/2-y,1/2+z
loop_
_atom_site_type_symbol
_atom_site_label
_atom_site_fract_x
_atom_site_fract_y
_atom_site_fract_z
Si Si1 0.293001 0.819187 0.459210
Si Si2 0.899504 0.166628 0.491054
Si Si3 0.395284 0.319549 0.377097
Si Si4 0.840140 0.319172 0.163008
Si Si5 0.442112 0.319094 0.584722
Si Si6 0.439118 0.179332 0.182633
Si Si7 0.810105 0.319718 0.375128
Si Si8 0.000000 0.000000 0.432374
O O1 0.338971 0.747670 0.396720
O O2 0.306432 0.777066 0.569730
O O3 0.238882 0.755646 0.424839
O O4 0.294299 0.000000 0.451380
O O5 0.911132 0.241994 0.593348
O O6 0.861643 0.266747 0.428517
O O7 0.953986 0.129000 0.440530
O O8 0.875354 0.000000 0.506222
O O9 0.392907 0.500000 0.367286
O O10 0.428504 0.285077 0.473181
O O11 0.419714 0.247164 0.282879
O O12 0.844755 0.500000 0.163343
O O13 0.896841 0.251318 0.147784
O O14 0.815256 0.272426 0.263527
O O15 0.500000 0.268269 0.607707
O O16 0.440406 0.500000 0.595608
O O17 0.500000 0.209626 0.173441
O O18 0.431007 0.000000 0.180878
O O19 0.805081 0.500000 0.379363
#
# Coordination Sequence:
#
# PCOD9374780 Si02
#       8
#     8   8   8   8   8   8   8   2
#     4  10  21  40  61  83 112 150 193 243 287 336
#     4  10  20  39  59  82 112 151 188 234 283 339
#     4  10  20  34  56  82 116 154 194 238 292 347
#     4   9  21  40  59  80 112 147 186 231 285 339
#     4   9  18  34  54  82 113 149 191 236 280 332
#     4  11  21  34  54  84 118 155 195 240 288 344
#     4  11  23  40  61  87 115 149 190 234 287 349
#     4   8  20  40  62  80 116 150 194 232 290 336
#
# _framework density 18.072828000000001
#
# number of rings (size 3 to 8) (size 9 to 14) (size 15 to 20)
#    0.414    1.655    0.690    2.483    0.000    4.966 
#    1.241    4.138    0.000    0.000    0.000    0.000 
#    0.000    0.000    0.000    0.000    0.000    0.000 
#
# Total GULP energy -161553.582315 kJ/mol
# GULP energy per Si atom -5570.813183 kJ/mol
# Density = 1.803169 g / cm^3
# Si number density = 18.072828 Si / 1000 Ang^3
#
#
#
# Elastic Constant Matrix: (Units=GPa)
#
#
# Indices 1 2 3 4 5 6 
#
# 1 106.6676 23.9315 43.4149 0.0000 0.0000 0.0000
# 2 23.9315 39.3396 30.0834 0.0000 0.0000 0.0000
# 3 43.4149 30.0834 76.7790 0.0000 0.0000 0.0000
# 4 0.0000 0.0000 0.0000 27.5283 0.0000 0.0000
# 5 0.0000 0.0000 0.0000 0.0000 14.2384 0.0000
# 6 0.0000 0.0000 0.0000 0.0000 0.0000 37.1992
#
#
#
# Elastic Compliance Matrix: (Units=1/GPa)
#
#
# Indices 1 2 3 4 5 6 
#
# 1 0.012441 -0.003125 -0.005810 0.000000 0.000000 0.000000
# 2 -0.003125 0.037079 -0.012761 0.000000 0.000000 0.000000
# 3 -0.005810 -0.012761 0.021310 0.000000 0.000000 0.000000
# 4 0.000000 0.000000 0.000000 0.036326 0.000000 0.000000
# 5 0.000000 0.000000 0.000000 0.000000 0.070233 0.000000
# 6 0.000000 0.000000 0.000000 0.000000 0.000000 0.026882
#
#
# Mechanical properties :
#
#
# Convention : Reuss Voigt Hill
#
# Bulk Modulus (GPa) = 36.44712 46.40507 41.42609
# Shear Modulus (GPa) = 19.46962 24.15028 21.80995
#
# Velocity S-wave (km/s) = 3.28577 3.65948 3.47764
# Velocity P-wave (km/s) = 5.88265 6.60213 6.25275
#
# Compressibility (1/GPa) = 0.02743701
#
# Stress axis : x y z
#
# Youngs Moduli (GPa) = 80.38014 26.96916 46.92633
#
# Poissons Ratio (x) = 0.08428 0.27266
# Poissons Ratio (y) = 0.25118 0.59884
# Poissons Ratio (z) = 0.46703 0.34416
#
# Static dielectric constant tensor:
#      x y z
#    x 1.593120 0.000000 0.000000 
#    y 0.000000 1.608870 0.000000 
#    z 0.000000 0.000000 1.610380 
# 
# From -- ./inp_files/14876.got.cif
#   From: 2010.05.17/outbox.cif.g08.bks.cpg/sg44_8_cif.got.tgz:14876.got - 2010.06.03 19:37:08.
