data_PCOD9374065
_publ_section_title
;
Structure prediction by ZEFSAII (Michael W. Deem and Ramdas Pophale) SiO2 
 PCOD9374065
Probable space group: I M M 2
;
_chemical_formula_sum "Si O2"
_cell_formula_units_Z 64
_cell_length_a 9.111860
_cell_length_b 33.415170
_cell_length_c 11.847699
_cell_angle_alpha 90.000000
_cell_angle_beta 90.000000
_cell_angle_gamma 90.000000
_cell_volume 3607.320463
_symmetry_space_group_name_H-M "I M M 2"
_symmetry_group_IT_number 44
_symmetry_cell_setting 'orthorhombic'
loop_
_space_group_symop_operation_xyz
x,y,z
-x,-y,z
-x,y,z
x,-y,z
1/2+x,1/2+y,1/2+z
1/2-x,1/2-y,1/2+z
1/2-x,1/2+y,1/2+z
1/2+x,1/2-y,1/2+z
loop_
_atom_site_type_symbol
_atom_site_label
_atom_site_fract_x
_atom_site_fract_y
_atom_site_fract_z
Si Si1 0.822032 0.547232 0.034650
Si Si2 0.333071 0.828877 0.234065
Si Si3 0.823322 0.848467 0.901010
Si Si4 0.172353 0.898114 0.115285
Si Si5 0.323839 0.378342 0.148012
Si Si6 0.167487 0.547769 0.780391
Si Si7 0.672687 0.225693 0.022254
Si Si8 0.828197 0.689463 0.997645
O O1 0.786854 0.500000 0.053218
O O2 0.746892 0.578663 0.118201
O O3 0.000000 0.550581 0.039714
O O4 0.776313 0.558838 0.905887
O O5 0.500000 0.843879 0.213704
O O6 0.216897 0.861959 0.198071
O O7 0.313763 0.792016 0.148774
O O8 0.319700 0.818232 0.363922
O O9 0.791153 0.863344 0.775200
O O10 0.000000 0.842425 0.910781
O O11 0.779424 0.882542 0.992187
O O12 0.743690 0.807627 0.939411
O O13 0.247580 0.935688 0.173390
O O14 0.000000 0.904316 0.111473
O O15 0.500000 0.380350 0.135513
O O16 0.255513 0.345413 0.064203
O O17 0.166673 0.500000 0.779238
O O18 0.000000 0.562176 0.774178
O O19 0.500000 0.230402 0.996660
O O20 0.755147 0.267621 0.018025
O O21 0.000000 0.689536 0.030012
#
# Coordination Sequence:
#
# PCOD9374065 Si02
#       8
#     8   8   8   8   8   8   8   8
#     4   9  19  37  59  83 114 149 184 227 283 340
#     4   9  20  37  54  73 103 139 171 211 268 324
#     4   9  21  40  56  74 109 151 184 224 280 331
#     4  10  19  33  55  79 103 135 177 222 266 316
#     4  11  23  38  57  82 112 148 191 235 277 330
#     4   9  18  33  54  80 111 144 174 214 273 333
#     4  10  21  37  57  81 105 138 184 228 271 326
#     4  11  23  37  55  80 111 145 178 222 280 332
#
# _framework density 17.741700999999999
#
# number of rings (size 3 to 8) (size 9 to 14) (size 15 to 20)
#    0.000    2.250    0.000    3.000    1.750    7.000 
#    0.000    1.875    0.000    3.750    0.000    0.000 
#    0.000    0.000    0.000    0.000    0.000    0.000 
#
# Total GULP energy -178503.831862 kJ/mol
# GULP energy per Si atom -5578.244746 kJ/mol
# Density = 1.770132 g / cm^3
# Si number density = 17.741701 Si / 1000 Ang^3
#
#
#
# Elastic Constant Matrix: (Units=GPa)
#
#
# Indices 1 2 3 4 5 6 
#
# 1 56.6034 40.3256 49.8951 0.0000 0.0000 0.0000
# 2 40.3256 90.9092 63.6526 0.0000 0.0000 0.0000
# 3 49.8951 63.6526 97.0976 0.0002 0.0000 -0.0001
# 4 0.0000 0.0000 0.0002 7.8878 0.0000 0.0000
# 5 0.0000 0.0000 0.0000 0.0000 24.4384 0.0000
# 6 0.0000 0.0000 -0.0001 0.0000 0.0000 35.7904
#
#
#
# Elastic Compliance Matrix: (Units=1/GPa)
#
#
# Indices 1 2 3 4 5 6 
#
# 1 0.033575 -0.005200 -0.013844 0.000000 0.000000 0.000000
# 2 -0.005200 0.021138 -0.011185 0.000000 0.000000 0.000000
# 3 -0.013844 -0.011185 0.024745 -0.000001 0.000000 0.000000
# 4 0.000000 0.000000 -0.000001 0.126777 0.000000 0.000000
# 5 0.000000 0.000000 0.000000 0.000000 0.040919 0.000000
# 6 0.000000 0.000000 0.000000 0.000000 0.000000 0.027940
#
#
# Mechanical properties :
#
#
# Convention : Reuss Voigt Hill
#
# Bulk Modulus (GPa) = 52.63149 61.37298 57.00223
# Shear Modulus (GPa) = 14.62473 19.67245 17.14859
#
# Velocity S-wave (km/s) = 2.87420 3.33352 3.11234
# Velocity P-wave (km/s) = 6.38314 7.03449 6.71672
#
# Compressibility (1/GPa) = 0.01900003
#
# Stress axis : x y z
#
# Youngs Moduli (GPa) = 29.78449 47.30794 40.41155
#
# Poissons Ratio (x) = 0.24599 0.55946
# Poissons Ratio (y) = 0.15487 0.45201
# Poissons Ratio (z) = 0.41234 0.52915
#
# Static dielectric constant tensor:
#      x y z
#    x 1.638090 0.000000 0.000000 
#    y 0.000000 1.600760 0.000000 
#    z 0.000000 0.000000 1.601520 
# 
# From -- ./inp_files/11514.got.cif
#   From: 2010.05.17/outbox.cif.g08.bks.cpg/sg44_6_cif.got.tgz:11514.got - 2010.06.03 19:37:08.
