data_PCOD9374585
_publ_section_title
;
Structure prediction by ZEFSAII (Michael W. Deem and Ramdas Pophale) SiO2 
 PCOD9374585
Probable space group: I M M 2
;
_chemical_formula_sum "Si O2"
_cell_formula_units_Z 48
_cell_length_a 14.185852
_cell_length_b 7.780164
_cell_length_c 19.296278
_cell_angle_alpha 90.000000
_cell_angle_beta 90.000000
_cell_angle_gamma 90.000000
_cell_volume 2129.696532
_symmetry_space_group_name_H-M "I M M 2"
_symmetry_group_IT_number 44
_symmetry_cell_setting 'orthorhombic'
loop_
_space_group_symop_operation_xyz
x,y,z
-x,-y,z
-x,y,z
x,-y,z
1/2+x,1/2+y,1/2+z
1/2-x,1/2-y,1/2+z
1/2-x,1/2+y,1/2+z
1/2+x,1/2-y,1/2+z
loop_
_atom_site_type_symbol
_atom_site_label
_atom_site_fract_x
_atom_site_fract_y
_atom_site_fract_z
Si Si1 0.257118 0.701155 0.981380
Si Si2 0.108753 0.210205 0.368708
Si Si3 0.396253 0.799349 0.582913
Si Si4 0.312494 0.699875 0.721431
Si Si5 0.897873 0.304709 0.862897
Si Si6 0.604076 0.693765 0.211778
O O1 0.277384 0.500000 0.998577
O O2 0.348943 0.773000 0.942281
O O3 0.182449 0.711486 0.918434
O O4 0.195710 0.777079 0.044228
O O5 0.167481 0.262908 0.299951
O O6 0.000000 0.257618 0.359870
O O7 0.114850 0.000000 0.371171
O O8 0.500000 0.724556 0.568071
O O9 0.376207 0.790993 0.664429
O O10 0.399486 0.000000 0.561179
O O11 0.338292 0.500000 0.720734
O O12 0.203616 0.717638 0.697931
O O13 0.891382 0.500000 0.834657
O O14 0.895302 0.188993 0.795597
O O15 0.000000 0.285568 0.897282
O O16 0.500000 0.766268 0.192528
O O17 0.608880 0.500000 0.183904
#
# Coordination Sequence:
#
# PCOD9374585 Si02
#       6
#     8   8   8   8   8   8
#     4   9  16  30  51  77 107 143 186 231 278 327
#     4   9  17  30  52  82 109 137 183 237 279 320
#     4  10  21  36  55  81 114 151 188 231 286 342
#     4  11  21  36  57  81 112 150 190 233 281 336
#     4   9  15  26  48  76 104 136 177 223 270 321
#     4  10  20  33  51  79 112 142 177 226 283 336
#
# _framework density 22.538421
#
# number of rings (size 3 to 8) (size 9 to 14) (size 15 to 20)
#    0.000    2.333    1.667    2.000    0.000    4.000 
#    0.000    1.667    0.000    5.000    0.000    0.000 
#    0.000    0.000    0.000    0.000    0.000    0.000 
#
# Total GULP energy -133715.909776 kJ/mol
# GULP energy per Si atom -5571.496241 kJ/mol
# Density = 2.248712 g / cm^3
# Si number density = 22.538421 Si / 1000 Ang^3
#
#
#
# Elastic Constant Matrix: (Units=GPa)
#
#
# Indices 1 2 3 4 5 6 
#
# 1 126.2056 4.4994 33.7587 0.0000 0.0000 0.0000
# 2 4.4994 27.6267 2.4218 0.0000 0.0000 0.0000
# 3 33.7587 2.4218 79.7050 0.0000 0.0000 0.0000
# 4 0.0000 0.0000 0.0000 13.0218 0.0000 0.0000
# 5 0.0000 0.0000 0.0000 0.0000 20.1948 0.0000
# 6 0.0000 0.0000 0.0000 0.0000 0.0000 7.9902
#
#
#
# Elastic Compliance Matrix: (Units=1/GPa)
#
#
# Indices 1 2 3 4 5 6 
#
# 1 0.008971 -0.001131 -0.003765 0.000000 0.000000 0.000000
# 2 -0.001131 0.036436 -0.000628 0.000000 0.000000 0.000000
# 3 -0.003765 -0.000628 0.014160 0.000000 0.000000 0.000000
# 4 0.000000 0.000000 0.000000 0.076794 0.000000 0.000000
# 5 0.000000 0.000000 0.000000 0.000000 0.049518 0.000000
# 6 0.000000 0.000000 0.000000 0.000000 0.000000 0.125154
#
#
# Mechanical properties :
#
#
# Convention : Reuss Voigt Hill
#
# Bulk Modulus (GPa) = 20.61067 34.98857 27.79962
# Shear Modulus (GPa) = 14.78176 21.09853 17.94014
#
# Velocity S-wave (km/s) = 2.56373 3.06292 2.82437
# Velocity P-wave (km/s) = 4.23416 5.29776 4.79554
#
# Compressibility (1/GPa) = 0.04851856
#
# Stress axis : x y z
#
# Youngs Moduli (GPa) = 111.46934 27.44534 70.62091
#
# Poissons Ratio (x) = 0.03104 0.26591
# Poissons Ratio (y) = 0.12607 0.04435
# Poissons Ratio (z) = 0.41971 0.01724
#
# Static dielectric constant tensor:
#      x y z
#    x 1.902270 0.000000 0.000000 
#    y 0.000000 1.833170 0.000000 
#    z 0.000000 0.000000 1.823270 
# 
# From -- ./inp_files/20313.got.cif
#   From: 2010.05.17/outbox.cif.g08.bks.cpg/sg44_11_cif.got.tgz:20313.got - 2010.06.03 19:37:08.
