data_PCOD9374974
_publ_section_title
;
Structure prediction by ZEFSAII (Michael W. Deem and Ramdas Pophale) SiO2 
 PCOD9374974
Probable space group: I M M 2
;
_chemical_formula_sum "Si O2"
_cell_formula_units_Z 64
_cell_length_a 8.865970
_cell_length_b 32.473265
_cell_length_c 11.927659
_cell_angle_alpha 90.000000
_cell_angle_beta 90.000000
_cell_angle_gamma 90.000000
_cell_volume 3434.056440
_symmetry_space_group_name_H-M "I M M 2"
_symmetry_group_IT_number 44
_symmetry_cell_setting 'orthorhombic'
loop_
_space_group_symop_operation_xyz
x,y,z
-x,-y,z
-x,y,z
x,-y,z
1/2+x,1/2+y,1/2+z
1/2-x,1/2-y,1/2+z
1/2-x,1/2+y,1/2+z
1/2+x,1/2-y,1/2+z
loop_
_atom_site_type_symbol
_atom_site_label
_atom_site_fract_x
_atom_site_fract_y
_atom_site_fract_z
Si Si1 0.328064 0.315756 0.766630
Si Si2 0.820321 0.684972 0.004166
Si Si3 0.675479 0.549245 0.833088
Si Si4 0.178622 0.644791 0.426361
Si Si5 0.179927 0.451512 0.069822
Si Si6 0.320528 0.228208 0.065931
Si Si7 0.172319 0.100222 0.124848
Si Si8 0.320255 0.624218 0.188492
O O1 0.500000 0.301227 0.785806
O O2 0.247077 0.325106 0.882673
O O3 0.235233 0.284152 0.689998
O O4 0.334251 0.357354 0.694561
O O5 0.000000 0.681306 0.004918
O O6 0.768665 0.731605 0.028522
O O7 0.749989 0.655197 0.097294
O O8 0.500000 0.562736 0.846074
O O9 0.677867 0.500000 0.826374
O O10 0.731918 0.567795 0.715973
O O11 0.766258 0.560935 0.944509
O O12 0.210374 0.689272 0.483928
O O13 0.230194 0.610349 0.516110
O O14 0.265624 0.638113 0.310957
O O15 0.000000 0.642406 0.406823
O O16 0.218410 0.500000 0.085202
O O17 0.259735 0.421173 0.156778
O O18 0.000000 0.447254 0.077952
O O19 0.500000 0.235610 0.065397
O O20 0.000000 0.089011 0.092833
O O21 0.500000 0.625127 0.181450
#
# Coordination Sequence:
#
# PCOD9374974 Si02
#       8
#     8   8   8   8   8   8   8   8
#     4  10  20  36  57  82 112 146 189 236 287 342
#     4  12  25  39  59  86 118 152 193 244 296 352
#     4   9  17  31  55  87 121 155 192 237 290 348
#     4  10  22  40  61  83 113 153 198 246 298 354
#     4  10  21  38  61  90 124 158 196 246 304 360
#     4  10  22  40  60  83 113 151 195 243 299 355
#     4   9  18  34  56  81 111 149 190 234 284 341
#     4  12  25  41  62  87 118 157 204 250 298 360
#
# _framework density 18.636852000000001
#
# number of rings (size 3 to 8) (size 9 to 14) (size 15 to 20)
#    0.000    1.750    0.000    4.500    1.750    4.250 
#    0.000    0.625    0.000    2.250    0.000    0.000 
#    0.000    0.000    0.000    0.000    0.000    0.000 
#
# Total GULP energy -178756.455461 kJ/mol
# GULP energy per Si atom -5586.139233 kJ/mol
# Density = 1.859443 g / cm^3
# Si number density = 18.636852 Si / 1000 Ang^3
#
#
#
# Elastic Constant Matrix: (Units=GPa)
#
#
# Indices 1 2 3 4 5 6 
#
# 1 122.1391 41.4723 71.3338 -0.0002 0.0000 0.0001
# 2 41.4723 42.5671 32.9774 -0.0011 -0.0001 0.0000
# 3 71.3338 32.9774 126.0753 -0.0025 -0.0002 0.0000
# 4 -0.0002 -0.0011 -0.0025 9.3801 -0.0002 -0.0001
# 5 0.0000 -0.0001 -0.0002 -0.0002 34.6337 -0.0002
# 6 0.0001 0.0000 0.0000 -0.0001 -0.0002 26.1512
#
#
#
# Elastic Compliance Matrix: (Units=1/GPa)
#
#
# Indices 1 2 3 4 5 6 
#
# 1 0.015050 -0.010116 -0.005869 -0.000002 0.000000 0.000000
# 2 -0.010116 0.036262 -0.003761 0.000003 0.000000 0.000000
# 3 -0.005869 -0.003761 0.012237 0.000003 0.000000 0.000000
# 4 -0.000002 0.000003 0.000003 0.106609 0.000001 0.000000
# 5 0.000000 0.000000 0.000000 0.000001 0.028874 0.000000
# 6 0.000000 0.000000 0.000000 0.000000 0.000000 0.038239
#
#
# Mechanical properties :
#
#
# Convention : Reuss Voigt Hill
#
# Bulk Modulus (GPa) = 41.57086 64.70538 53.13812
# Shear Modulus (GPa) = 17.55726 23.69954 20.62840
#
# Velocity S-wave (km/s) = 3.07265 3.56989 3.33056
# Velocity P-wave (km/s) = 5.91121 7.19629 6.58517
#
# Compressibility (1/GPa) = 0.02405531
#
# Stress axis : x y z
#
# Youngs Moduli (GPa) = 66.44410 27.57694 81.72225
#
# Poissons Ratio (x) = 0.27897 0.47966
# Poissons Ratio (y) = 0.67215 0.30739
# Poissons Ratio (z) = 0.38999 0.10373
#
# Static dielectric constant tensor:
#      x y z
#    x 1.635650 0.000000 0.000000 
#    y 0.000000 1.653100 0.000000 
#    z 0.000000 0.000000 1.625780 
# 
# From -- ./inp_files/11571.got.cif
#   From: 2010.05.17/outbox.cif.g08.bks.cpg/sg44_6_cif.got.tgz:11571.got - 2010.06.03 19:37:08.
