data_PCOD9374101
_publ_section_title
;
Structure prediction by ZEFSAII (Michael W. Deem and Ramdas Pophale) SiO2 
 PCOD9374101
Probable space group: I M M 2
;
_chemical_formula_sum "Si O2"
_cell_formula_units_Z 48
_cell_length_a 17.222716
_cell_length_b 14.476301
_cell_length_c 9.813623
_cell_angle_alpha 90.000000
_cell_angle_beta 90.000000
_cell_angle_gamma 90.000000
_cell_volume 2446.744467
_symmetry_space_group_name_H-M "I M M 2"
_symmetry_group_IT_number 44
_symmetry_cell_setting 'orthorhombic'
loop_
_space_group_symop_operation_xyz
x,y,z
-x,-y,z
-x,y,z
x,-y,z
1/2+x,1/2+y,1/2+z
1/2-x,1/2-y,1/2+z
1/2-x,1/2+y,1/2+z
1/2+x,1/2-y,1/2+z
loop_
_atom_site_type_symbol
_atom_site_label
_atom_site_fract_x
_atom_site_fract_y
_atom_site_fract_z
Si Si1 0.817629 0.896921 0.301340
Si Si2 0.151669 0.396494 0.659991
Si Si3 0.085389 0.102234 0.034253
Si Si4 0.687943 0.202782 0.879367
Si Si5 0.134804 0.264378 0.869704
Si Si6 0.593832 0.111319 0.629043
O O1 0.726958 0.901071 0.259908
O O2 0.837425 0.810375 0.396177
O O3 0.840955 0.000000 0.346320
O O4 0.857051 0.875077 0.156287
O O5 0.119185 0.500000 0.649690
O O6 0.176803 0.358026 0.513877
O O7 0.103777 0.318580 0.738485
O O8 0.087005 0.176683 0.917671
O O9 0.000000 0.100385 0.096529
O O10 0.105021 0.000000 0.983324
O O11 0.779338 0.219029 0.848501
O O12 0.639626 0.154528 0.758106
O O13 0.127846 0.336371 0.996392
O O14 0.500000 0.127755 0.637462
O O15 0.605274 0.000000 0.621645
#
# Coordination Sequence:
#
# PCOD9374101 Si02
#       6
#     8   8   8   8   8   8
#     4   9  18  33  53  81 116 151 193 244 300 358
#     4  10  20  34  54  81 119 157 193 244 303 361
#     4  10  19  33  57  85 112 148 194 245 302 359
#     4  11  20  36  59  90 118 158 209 258 307 361
#     4  11  20  37  58  88 120 162 207 254 307 366
#     4  11  24  41  63  91 126 167 212 260 310 373
#
# _framework density 19.617903999999999
#
# number of rings (size 3 to 8) (size 9 to 14) (size 15 to 20)
#    0.000    1.667    3.333    2.500    0.000    1.333 
#    0.000    2.500    0.000    4.000    0.000    2.333 
#    0.000    0.000    0.000    0.000    0.000    0.000 
#
# Total GULP energy -133661.996551 kJ/mol
# GULP energy per Si atom -5569.249856 kJ/mol
# Density = 1.957325 g / cm^3
# Si number density = 19.617904 Si / 1000 Ang^3
#
#
#
# Elastic Constant Matrix: (Units=GPa)
#
#
# Indices 1 2 3 4 5 6 
#
# 1 70.8722 13.3159 14.7329 0.0000 0.0000 0.0000
# 2 13.3159 115.2433 22.2581 0.0000 0.0000 0.0000
# 3 14.7329 22.2581 54.6830 0.0000 0.0000 0.0000
# 4 0.0000 0.0000 0.0000 26.1464 0.0000 0.0000
# 5 0.0000 0.0000 0.0000 0.0000 -17.8422 0.0000
# 6 0.0000 0.0000 0.0000 0.0000 0.0000 98.6258
#
#
#
# Elastic Compliance Matrix: (Units=1/GPa)
#
#
# Indices 1 2 3 4 5 6 
#
# 1 0.015061 -0.001038 -0.003635 0.000000 0.000000 0.000000
# 2 -0.001038 0.009489 -0.003583 0.000000 0.000000 0.000000
# 3 -0.003635 -0.003583 0.020725 0.000000 0.000000 0.000000
# 4 0.000000 0.000000 0.000000 0.038246 0.000000 0.000000
# 5 0.000000 0.000000 0.000000 0.000000 -0.056047 0.000000
# 6 0.000000 0.000000 0.000000 0.000000 0.000000 0.010139
#
#
# Mechanical properties :
#
#
# Convention : Reuss Voigt Hill
#
# Bulk Modulus (GPa) = 34.76722 37.93470 36.35096
# Shear Modulus (GPa) = 78.47698 34.08545 56.28121
#
# Velocity S-wave (km/s) = 6.33163 4.17281 5.36199
# Velocity P-wave (km/s) = 8.43880 6.52650 7.54350
#
# Compressibility (1/GPa) = 0.02876273
#
# Stress axis : x y z
#
# Youngs Moduli (GPa) = 66.39836 105.38274 48.25106
#
# Poissons Ratio (x) = 0.10940 0.17540
# Poissons Ratio (y) = 0.06893 0.17287
# Poissons Ratio (z) = 0.24137 0.37756
#
# Static dielectric constant tensor:
#      x y z
#    x 1.730570 0.000000 0.000000 
#    y 0.000000 1.774490 0.000000 
#    z 0.000000 0.000000 1.663970 
# 
# From -- ./inp_files/7127.got.cif
#   From: 2010.05.17/outbox.cif.g08.bks.cpg/sg44_4_cif.got.tgz:7127.got - 2010.06.03 19:37:08.
