data_PCOD9374918
_publ_section_title
;
Structure prediction by ZEFSAII (Michael W. Deem and Ramdas Pophale) SiO2 
 PCOD9374918
Probable space group: I M M 2
;
_chemical_formula_sum "Si O2"
_cell_formula_units_Z 64
_cell_length_a 32.177954
_cell_length_b 14.090376
_cell_length_c 7.474459
_cell_angle_alpha 90.000000
_cell_angle_beta 90.000000
_cell_angle_gamma 90.000000
_cell_volume 3388.915755
_symmetry_space_group_name_H-M "I M M 2"
_symmetry_group_IT_number 44
_symmetry_cell_setting 'orthorhombic'
loop_
_space_group_symop_operation_xyz
x,y,z
-x,-y,z
-x,y,z
x,-y,z
1/2+x,1/2+y,1/2+z
1/2-x,1/2-y,1/2+z
1/2-x,1/2+y,1/2+z
1/2+x,1/2-y,1/2+z
loop_
_atom_site_type_symbol
_atom_site_label
_atom_site_fract_x
_atom_site_fract_y
_atom_site_fract_z
Si Si1 0.790946 0.210837 0.994570
Si Si2 0.752753 0.386382 0.827621
Si Si3 0.549218 0.223748 0.937789
Si Si4 0.103976 0.891946 0.523009
Si Si5 0.950230 0.231380 0.029842
Si Si6 0.625012 0.608172 0.600206
Si Si7 0.050461 0.603895 0.752183
Si Si8 0.191035 0.111143 0.646307
O O1 0.785140 0.321676 0.942001
O O2 0.784184 0.160008 0.804075
O O3 0.759519 0.165406 0.141205
O O4 0.837060 0.178254 0.054571
O O5 0.761954 0.500000 0.807008
O O6 0.712198 0.378143 0.954047
O O7 0.500000 0.225579 0.952628
O O8 0.558409 0.226158 0.727967
O O9 0.566869 0.318399 0.028729
O O10 0.564382 0.135031 0.053989
O O11 0.118034 0.893580 0.314445
O O12 0.143432 0.855961 0.634656
O O13 0.093564 0.000000 0.573080
O O14 0.918450 0.143792 0.015416
O O15 0.000000 0.208761 0.018308
O O16 0.939365 0.312153 0.887753
O O17 0.635205 0.500000 0.545308
O O18 0.066264 0.500000 0.801979
O O19 0.000000 0.599194 0.753247
O O20 0.189825 0.000000 0.682856
#
# Coordination Sequence:
#
# PCOD9374918 Si02
#       8
#     8   8   8   8   8   8   8   8
#     4  12  22  39  62  88 118 155 194 245 297 350
#     4  11  23  40  61  89 118 150 197 242 294 357
#     4   9  18  32  51  78 112 148 187 233 284 337
#     4   9  18  33  54  82 116 149 187 233 277 340
#     4   9  19  35  54  82 118 155 192 236 287 337
#     4  10  20  35  59  88 118 155 196 237 285 348
#     4   9  18  33  52  73  99 138 192 246 289 334
#     4  10  20  35  58  85 112 148 193 236 284 347
#
# _framework density 18.885095
#
# number of rings (size 3 to 8) (size 9 to 14) (size 15 to 20)
#    0.000    2.125    2.500    1.125    1.750    1.000 
#    0.000    5.625    0.000    3.000    0.000    0.000 
#    0.000    0.000    0.000    0.000    0.000    0.000 
#
# Total GULP energy -178251.391483 kJ/mol
# GULP energy per Si atom -5570.355984 kJ/mol
# Density = 1.884211 g / cm^3
# Si number density = 18.885095 Si / 1000 Ang^3
#
#
#
# Elastic Constant Matrix: (Units=GPa)
#
#
# Indices 1 2 3 4 5 6 
#
# 1 16.1815 11.0973 10.6313 0.0000 0.0000 0.0000
# 2 11.0973 70.2478 39.0192 0.0000 0.0000 0.0000
# 3 10.6313 39.0192 75.4481 0.0000 0.0000 0.0000
# 4 0.0000 0.0000 0.0000 25.1117 0.0000 0.0000
# 5 0.0000 0.0000 0.0000 0.0000 24.2442 0.0000
# 6 0.0000 0.0000 0.0000 0.0000 0.0000 23.2758
#
#
#
# Elastic Compliance Matrix: (Units=1/GPa)
#
#
# Indices 1 2 3 4 5 6 
#
# 1 0.071137 -0.007955 -0.005910 0.000000 0.000000 0.000000
# 2 -0.007955 0.020862 -0.009668 0.000000 0.000000 0.000000
# 3 -0.005910 -0.009668 0.019087 0.000000 0.000000 0.000000
# 4 0.000000 0.000000 0.000000 0.039822 0.000000 0.000000
# 5 0.000000 0.000000 0.000000 0.000000 0.041247 0.000000
# 6 0.000000 0.000000 0.000000 0.000000 0.000000 0.042963
#
#
# Mechanical properties :
#
#
# Convention : Reuss Voigt Hill
#
# Bulk Modulus (GPa) = 15.62011 31.48589 23.55300
# Shear Modulus (GPa) = 16.47311 21.26832 18.87071
#
# Velocity S-wave (km/s) = 2.95664 3.35953 3.16450
# Velocity P-wave (km/s) = 4.46595 5.63534 5.08438
#
# Compressibility (1/GPa) = 0.06402005
#
# Stress axis : x y z
#
# Youngs Moduli (GPa) = 14.05735 47.93334 52.39176
#
# Poissons Ratio (x) = 0.38132 0.30961
# Poissons Ratio (y) = 0.11183 0.50654
# Poissons Ratio (z) = 0.08307 0.46343
#
# Static dielectric constant tensor:
#      x y z
#    x 1.661590 0.000000 0.000000 
#    y 0.000000 1.662200 0.000000 
#    z 0.000000 0.000000 1.723480 
# 
# From -- ./inp_files/10107.got.cif
#   From: 2010.05.17/outbox.cif.g08.bks.cpg/sg44_6_cif.got.tgz:10107.got - 2010.06.03 19:37:08.
