data_PCOD9374519
_publ_section_title
;
Structure prediction by ZEFSAII (Michael W. Deem and Ramdas Pophale) SiO2 
 PCOD9374519
Probable space group: I M M 2
;
_chemical_formula_sum "Si O2"
_cell_formula_units_Z 64
_cell_length_a 7.569072
_cell_length_b 9.580904
_cell_length_c 42.950655
_cell_angle_alpha 90.000000
_cell_angle_beta 90.000000
_cell_angle_gamma 90.000000
_cell_volume 3114.719317
_symmetry_space_group_name_H-M "I M M 2"
_symmetry_group_IT_number 44
_symmetry_cell_setting 'orthorhombic'
loop_
_space_group_symop_operation_xyz
x,y,z
-x,-y,z
-x,y,z
x,-y,z
1/2+x,1/2+y,1/2+z
1/2-x,1/2-y,1/2+z
1/2-x,1/2+y,1/2+z
1/2+x,1/2-y,1/2+z
loop_
_atom_site_type_symbol
_atom_site_label
_atom_site_fract_x
_atom_site_fract_y
_atom_site_fract_z
Si Si1 0.203967 0.330096 0.807250
Si Si2 0.711721 0.159374 0.562116
Si Si3 0.211891 0.841185 0.492009
Si Si4 0.788984 0.658159 0.179320
Si Si5 0.216614 0.160561 0.120636
Si Si6 0.213116 0.340651 0.874797
Si Si7 0.286802 0.159619 0.239495
Si Si8 0.711480 0.842813 0.934919
O O1 0.202075 0.500000 0.807445
O O2 0.281080 0.290895 0.840860
O O3 0.281221 0.292646 0.773569
O O4 0.000000 0.281605 0.807136
O O5 0.500000 0.152425 0.565154
O O6 0.750753 0.207921 0.527071
O O7 0.775131 0.261027 0.589258
O O8 0.779593 0.000000 0.565453
O O9 0.280833 0.742884 0.464648
O O10 0.000000 0.847965 0.488840
O O11 0.280435 0.000000 0.489069
O O12 0.718974 0.500000 0.179317
O O13 0.723139 0.751452 0.150582
O O14 0.757368 0.737878 0.211577
O O15 0.000000 0.648835 0.175249
O O16 0.000000 0.159596 0.120761
O O17 0.273515 0.000000 0.121986
O O18 0.274743 0.500000 0.880535
O O19 0.256662 0.241763 0.903328
O O20 0.000000 0.346638 0.872265
O O21 0.500000 0.153518 0.241879
O O22 0.225893 0.000000 0.233352
O O23 0.500000 0.851660 0.938693
O O24 0.781597 0.000000 0.933352
#
# Coordination Sequence:
#
# PCOD9374519 Si02
#       8
#     8   8   8   8   8   8   8   8
#     4   7  12  26  48  72  96 122 154 195 242 289
#     4   9  17  30  49  72  95 118 149 192 239 286
#     4   9  18  33  51  69  92 125 161 194 233 283
#     4  10  20  33  49  70  98 132 167 201 239 284
#     4   9  17  30  49  71  94 123 159 197 238 283
#     4   9  17  31  53  77  97 121 159 204 245 287
#     4   9  17  31  52  75  98 125 159 200 245 291
#     4  10  21  35  49  68  98 134 166 197 239 288
#
# _framework density 20.547598000000001
#
# number of rings (size 3 to 8) (size 9 to 14) (size 15 to 20)
#    0.000    3.000    0.000    2.625    0.000    4.500 
#    0.000    3.125    0.000    8.250    0.000    0.000 
#    0.000    0.000    0.000    0.000    0.000    0.000 
#
# Total GULP energy -178476.366737 kJ/mol
# GULP energy per Si atom -5577.386461 kJ/mol
# Density = 2.050083 g / cm^3
# Si number density = 20.547598 Si / 1000 Ang^3
#
#
#
# Elastic Constant Matrix: (Units=GPa)
#
#
# Indices 1 2 3 4 5 6 
#
# 1 46.9611 6.2628 0.6688 0.0000 0.0000 0.0000
# 2 6.2628 142.3361 136.1845 0.0000 0.0000 0.0000
# 3 0.6688 136.1845 241.0426 0.0000 0.0000 0.0000
# 4 0.0000 0.0000 0.0000 27.0533 0.0000 0.0000
# 5 0.0000 0.0000 0.0000 0.0000 17.1838 0.0000
# 6 0.0000 0.0000 0.0000 0.0000 0.0000 8.9746
#
#
#
# Elastic Compliance Matrix: (Units=1/GPa)
#
#
# Indices 1 2 3 4 5 6 
#
# 1 0.021538 -0.001938 0.001035 0.000000 0.000000 0.000000
# 2 -0.001938 0.015466 -0.008733 0.000000 0.000000 0.000000
# 3 0.001035 -0.008733 0.009080 0.000000 0.000000 0.000000
# 4 0.000000 0.000000 0.000000 0.036964 0.000000 0.000000
# 5 0.000000 0.000000 0.000000 0.000000 0.058194 0.000000
# 6 0.000000 0.000000 0.000000 0.000000 0.000000 0.111425
#
#
# Mechanical properties :
#
#
# Convention : Reuss Voigt Hill
#
# Bulk Modulus (GPa) = 37.29608 79.61907 58.45757
# Shear Modulus (GPa) = 17.80143 29.79060 23.79601
#
# Velocity S-wave (km/s) = 2.94658 3.81180 3.40677
# Velocity P-wave (km/s) = 5.45590 7.62927 6.63222
#
# Compressibility (1/GPa) = 0.02681247
#
# Stress axis : x y z
#
# Youngs Moduli (GPa) = 46.42963 64.65692 110.13682
#
# Poissons Ratio (x) = 0.12532 -0.11403
# Poissons Ratio (y) = 0.08999 0.96180
# Poissons Ratio (z) = -0.04807 0.56463
#
# Static dielectric constant tensor:
#      x y z
#    x 1.798590 0.000000 0.000000 
#    y 0.000000 1.707560 0.000000 
#    z 0.000000 0.000000 1.732800 
# 
# From -- ./inp_files/27451.got.cif
#   From: 2010.05.17/outbox.cif.g08.bks.cpg/sg44_14_cif.got.tgz:27451.got - 2010.06.03 19:37:08.
