data_PCOD9374334
_publ_section_title
;
Structure prediction by ZEFSAII (Michael W. Deem and Ramdas Pophale) SiO2 
 PCOD9374334
Probable space group: I M M 2
;
_chemical_formula_sum "Si O2"
_cell_formula_units_Z 64
_cell_length_a 16.106900
_cell_length_b 19.528656
_cell_length_c 10.644109
_cell_angle_alpha 90.000000
_cell_angle_beta 90.000000
_cell_angle_gamma 90.000000
_cell_volume 3348.063073
_symmetry_space_group_name_H-M "I M M 2"
_symmetry_group_IT_number 44
_symmetry_cell_setting 'orthorhombic'
loop_
_space_group_symop_operation_xyz
x,y,z
-x,-y,z
-x,y,z
x,-y,z
1/2+x,1/2+y,1/2+z
1/2-x,1/2-y,1/2+z
1/2-x,1/2+y,1/2+z
1/2+x,1/2-y,1/2+z
loop_
_atom_site_type_symbol
_atom_site_label
_atom_site_fract_x
_atom_site_fract_y
_atom_site_fract_z
Si Si1 0.770958 0.078906 0.586590
Si Si2 0.400539 0.320701 0.228430
Si Si3 0.815748 0.691947 0.608679
Si Si4 0.135643 0.772159 0.008423
Si Si5 0.091788 0.633430 0.113307
Si Si6 0.406142 0.212819 0.875650
Si Si7 0.591534 0.649877 0.750162
Si Si8 0.252376 0.577856 0.790805
O O1 0.837837 0.125314 0.661020
O O2 0.674345 0.088528 0.624233
O O3 0.763893 0.094074 0.437738
O O4 0.795709 0.000000 0.601853
O O5 0.500000 0.335484 0.218726
O O6 0.377125 0.249010 0.162617
O O7 0.375075 0.308015 0.374218
O O8 0.728689 0.726071 0.565908
O O9 0.854589 0.670573 0.476092
O O10 0.799330 0.632771 0.709974
O O11 0.105317 0.693623 0.009968
O O12 0.087240 0.814688 0.114300
O O13 0.090615 0.674207 0.244295
O O14 0.000000 0.601707 0.094443
O O15 0.500000 0.221267 0.921382
O O16 0.374630 0.289488 0.842308
O O17 0.500000 0.630739 0.793554
O O18 0.654210 0.587759 0.740607
O O19 0.222212 0.500000 0.777730
#
# Coordination Sequence:
#
# PCOD9374334 Si02
#       8
#     8   8   8   8   8   8   8   8
#     4  11  24  42  60  84 124 163 205 259 318 380
#     4  12  24  38  62  94 123 159 208 256 312 376
#     4  11  21  34  61  85 121 155 201 254 299 366
#     4  10  20  34  57  90 125 154 197 253 310 359
#     4  10  19  36  62  88 119 157 204 255 307 365
#     4   9  18  33  56  88 116 146 194 254 306 353
#     4   9  18  34  57  84 115 152 197 249 301 360
#     4  10  23  39  56  82 117 160 203 250 312 375
#
# _framework density 19.11553
#
# number of rings (size 3 to 8) (size 9 to 14) (size 15 to 20)
#    0.000    1.750    1.250    4.500    3.500    2.250 
#    0.000    7.500    0.000    6.750    0.000    0.000 
#    0.000    0.000    0.000    0.000    0.000    0.000 
#
# Total GULP energy -178283.131782 kJ/mol
# GULP energy per Si atom -5571.347868 kJ/mol
# Density = 1.907202 g / cm^3
# Si number density = 19.115530 Si / 1000 Ang^3
#
#
#
# Elastic Constant Matrix: (Units=GPa)
#
#
# Indices 1 2 3 4 5 6 
#
# 1 92.8212 28.4532 36.3293 0.0000 0.0000 0.0000
# 2 28.4532 62.6733 44.8978 0.0000 0.0000 0.0000
# 3 36.3293 44.8978 101.7991 0.0000 0.0000 0.0000
# 4 0.0000 0.0000 0.0000 20.9828 0.0000 0.0000
# 5 0.0000 0.0000 0.0000 0.0000 25.7920 0.0000
# 6 0.0000 0.0000 0.0000 0.0000 0.0000 5.9380
#
#
#
# Elastic Compliance Matrix: (Units=1/GPa)
#
#
# Indices 1 2 3 4 5 6 
#
# 1 0.013114 -0.003802 -0.003003 0.000000 0.000000 0.000000
# 2 -0.003802 0.024428 -0.009417 0.000000 0.000000 0.000000
# 3 -0.003003 -0.009417 0.015048 0.000000 0.000000 0.000000
# 4 0.000000 0.000000 0.000000 0.047658 0.000000 0.000000
# 5 0.000000 0.000000 0.000000 0.000000 0.038772 0.000000
# 6 0.000000 0.000000 0.000000 0.000000 0.000000 0.168407
#
#
# Mechanical properties :
#
#
# Convention : Reuss Voigt Hill
#
# Bulk Modulus (GPa) = 49.63803 52.96159 51.29981
# Shear Modulus (GPa) = 14.42635 20.38342 17.40489
#
# Velocity S-wave (km/s) = 2.75015 3.26901 3.02074
# Velocity P-wave (km/s) = 6.00901 6.48188 6.24992
#
# Compressibility (1/GPa) = 0.02014585
#
# Stress axis : x y z
#
# Youngs Moduli (GPa) = 76.25206 40.93648 66.45292
#
# Poissons Ratio (x) = 0.15566 0.19957
# Poissons Ratio (y) = 0.28995 0.62578
# Poissons Ratio (z) = 0.22899 0.38549
#
# Static dielectric constant tensor:
#      x y z
#    x 1.764280 0.000000 0.000000 
#    y 0.000000 1.660270 0.000000 
#    z 0.000000 0.000000 1.702140 
# 
# From -- ./inp_files/13456.got.cif
#   From: 2010.05.17/outbox.cif.g08.bks.cpg/sg44_7_cif.got.tgz:13456.got - 2010.06.03 19:37:08.
