data_PCOD9374993
_publ_section_title
;
Structure prediction by ZEFSAII (Michael W. Deem and Ramdas Pophale) SiO2 
 PCOD9374993
Probable space group: I M M 2
;
_chemical_formula_sum "Si O2"
_cell_formula_units_Z 48
_cell_length_a 8.730635
_cell_length_b 31.452510
_cell_length_c 9.332308
_cell_angle_alpha 90.000000
_cell_angle_beta 90.000000
_cell_angle_gamma 90.000000
_cell_volume 2562.655366
_symmetry_space_group_name_H-M "I M M 2"
_symmetry_group_IT_number 44
_symmetry_cell_setting 'orthorhombic'
loop_
_space_group_symop_operation_xyz
x,y,z
-x,-y,z
-x,y,z
x,-y,z
1/2+x,1/2+y,1/2+z
1/2-x,1/2-y,1/2+z
1/2-x,1/2+y,1/2+z
1/2+x,1/2-y,1/2+z
loop_
_atom_site_type_symbol
_atom_site_label
_atom_site_fract_x
_atom_site_fract_y
_atom_site_fract_z
Si Si1 0.186401 0.952086 0.686230
Si Si2 0.684088 0.549298 0.518255
Si Si3 0.315253 0.287254 0.181093
Si Si4 0.314824 0.628507 0.002660
Si Si5 0.683634 0.293308 0.513851
Si Si6 0.181807 0.627464 0.685460
O O1 0.237301 0.914774 0.581210
O O2 0.000000 0.952357 0.683520
O O3 0.237031 0.000000 0.648183
O O4 0.228302 0.943380 0.851772
O O5 0.500000 0.554983 0.528525
O O6 0.717456 0.500000 0.552071
O O7 0.765065 0.582531 0.620645
O O8 0.500000 0.282690 0.175502
O O9 0.269707 0.289405 0.347538
O O10 0.240695 0.247474 0.101493
O O11 0.274808 0.330851 0.099791
O O12 0.500000 0.627178 0.991448
O O13 0.246005 0.632523 0.845449
O O14 0.500000 0.295645 0.518935
O O15 0.750794 0.335451 0.585730
O O16 0.000000 0.630486 0.687373
#
# Coordination Sequence:
#
# PCOD9374993 Si02
#       6
#     8   8   8   8   8   8
#     4   8  15  31  58  88 112 139 183 234 277 325
#     4   9  18  36  62  87 111 144 188 234 281 335
#     4  10  22  39  60  87 115 144 184 234 283 332
#     4  10  20  36  58  83 114 150 188 230 278 332
#     4  11  23  40  62  85 112 146 186 230 278 336
#     4  12  25  38  54  81 118 153 189 232 277 329
#
# _framework density 18.730573
#
# number of rings (size 3 to 8) (size 9 to 14) (size 15 to 20)
#    0.000    2.000    0.000    5.000    0.000    8.333 
#    0.000    4.167    0.000    1.000    0.000    0.000 
#    0.000    0.000    0.000    0.000    0.000    0.000 
#
# Total GULP energy -134088.939765 kJ/mol
# GULP energy per Si atom -5587.039157 kJ/mol
# Density = 1.868794 g / cm^3
# Si number density = 18.730573 Si / 1000 Ang^3
#
#
#
# Elastic Constant Matrix: (Units=GPa)
#
#
# Indices 1 2 3 4 5 6 
#
# 1 33.9729 51.2514 54.7765 0.0000 0.0000 0.0000
# 2 51.2514 130.6047 106.7735 -0.0001 0.0000 0.0000
# 3 54.7765 106.7735 180.4320 -0.0003 0.0002 0.0000
# 4 0.0000 -0.0001 -0.0003 40.6761 0.0000 0.0000
# 5 0.0000 0.0000 0.0002 0.0000 17.9764 -0.0001
# 6 0.0000 0.0000 0.0000 0.0000 -0.0001 26.9715
#
#
#
# Elastic Compliance Matrix: (Units=1/GPa)
#
#
# Indices 1 2 3 4 5 6 
#
# 1 0.082776 -0.023127 -0.011444 0.000000 0.000000 0.000000
# 2 -0.023127 0.021294 -0.005580 0.000000 0.000000 0.000000
# 3 -0.011444 -0.005580 0.012318 0.000000 0.000000 0.000000
# 4 0.000000 0.000000 0.000000 0.024584 0.000000 0.000000
# 5 0.000000 0.000000 0.000000 0.000000 0.055629 0.000000
# 6 0.000000 0.000000 0.000000 0.000000 0.000000 0.037076
#
#
# Mechanical properties :
#
#
# Convention : Reuss Voigt Hill
#
# Bulk Modulus (GPa) = 27.71097 85.62359 56.66728
# Shear Modulus (GPa) = 15.33706 25.93868 20.63787
#
# Velocity S-wave (km/s) = 2.86462 3.72537 3.32298
# Velocity P-wave (km/s) = 5.07622 8.01979 6.71137
#
# Compressibility (1/GPa) = 0.03608679
#
# Stress axis : x y z
#
# Youngs Moduli (GPa) = 12.08082 46.96174 81.17874
#
# Poissons Ratio (x) = 1.08608 0.92899
# Poissons Ratio (y) = 0.27939 0.45298
# Poissons Ratio (z) = 0.13825 0.26205
#
# Static dielectric constant tensor:
#      x y z
#    x 1.633080 0.000000 0.000000 
#    y 0.000000 1.630000 0.000000 
#    z 0.000000 0.000000 1.620300 
# 
# From -- ./inp_files/4917.got.cif
#   From: 2010.05.17/outbox.cif.g08.bks.cpg/sg44_3_cif.got.tgz:4917.got - 2010.06.03 19:37:08.
