data_PCOD9374823
_publ_section_title
;
Structure prediction by ZEFSAII (Michael W. Deem and Ramdas Pophale) SiO2 
 PCOD9374823
Probable space group: I M M 2
;
_chemical_formula_sum "Si O2"
_cell_formula_units_Z 56
_cell_length_a 22.720921
_cell_length_b 7.619511
_cell_length_c 15.166845
_cell_angle_alpha 90.000000
_cell_angle_beta 90.000000
_cell_angle_gamma 90.000000
_cell_volume 2625.719204
_symmetry_space_group_name_H-M "I M M 2"
_symmetry_group_IT_number 44
_symmetry_cell_setting 'orthorhombic'
loop_
_space_group_symop_operation_xyz
x,y,z
-x,-y,z
-x,y,z
x,-y,z
1/2+x,1/2+y,1/2+z
1/2-x,1/2-y,1/2+z
1/2-x,1/2+y,1/2+z
1/2+x,1/2-y,1/2+z
loop_
_atom_site_type_symbol
_atom_site_label
_atom_site_fract_x
_atom_site_fract_y
_atom_site_fract_z
Si Si1 0.280401 0.288178 0.047290
Si Si2 0.000000 0.715332 0.351434
Si Si3 0.221068 0.291290 0.349394
Si Si4 0.385971 0.289893 0.167131
Si Si5 0.000000 0.707683 0.552053
Si Si6 0.388245 0.215074 0.737173
Si Si7 0.145854 0.709521 0.050503
Si Si8 0.644673 0.288742 0.354606
O O1 0.278438 0.500000 0.053406
O O2 0.326871 0.222919 0.119062
O O3 0.213360 0.222488 0.056465
O O4 0.300921 0.240712 0.948809
O O5 0.942259 0.771531 0.297790
O O6 0.000000 0.500000 0.352544
O O7 0.000000 0.779062 0.452311
O O8 0.225456 0.500000 0.334933
O O9 0.173496 0.225541 0.279873
O O10 0.287755 0.221978 0.345286
O O11 0.379741 0.500000 0.171773
O O12 0.442262 0.255435 0.107290
O O13 0.389807 0.226375 0.268056
O O14 0.000000 0.500000 0.542980
O O15 0.390198 0.271887 0.635320
O O16 0.388677 0.000000 0.739201
O O17 0.149694 0.500000 0.058708
O O18 0.122819 0.743997 0.952300
O O19 0.646556 0.500000 0.352863
#
# Coordination Sequence:
#
# PCOD9374823 Si02
#       8
#     8   4   8   8   4   8   8   8
#     4   9  17  29  47  73 101 128 162 203 246 293
#     4   9  18  31  48  73 100 124 155 197 240 285
#     4   9  16  28  48  73 100 131 165 201 244 292
#     4  10  20  35  53  71  97 135 171 202 246 304
#     4  11  23  37  54  77 100 122 159 209 252 293
#     4   9  16  28  47  69  96 130 163 194 235 287
#     4   9  17  30  49  73 100 129 163 205 247 286
#     4   9  18  32  50  72  98 129 165 202 242 293
#
# _framework density 21.327489
#
# number of rings (size 3 to 8) (size 9 to 14) (size 15 to 20)
#    0.000    2.714    0.000    1.929    0.000    5.714 
#    0.000    1.429    0.000    9.429    0.000    0.000 
#    0.000    0.000    0.000    0.000    0.000    0.000 
#
# Total GULP energy -156243.744009 kJ/mol
# GULP energy per Si atom -5580.133715 kJ/mol
# Density = 2.127895 g / cm^3
# Si number density = 21.327489 Si / 1000 Ang^3
#
#
#
# Elastic Constant Matrix: (Units=GPa)
#
#
# Indices 1 2 3 4 5 6 
#
# 1 48.9863 0.6642 73.6422 0.0000 0.0000 0.0000
# 2 0.6642 37.0763 -0.5715 0.0000 0.0000 0.0000
# 3 73.6422 -0.5715 225.1731 0.0000 0.0000 0.0000
# 4 0.0000 0.0000 0.0000 19.9997 0.0000 0.0000
# 5 0.0000 0.0000 0.0000 0.0000 33.9998 0.0000
# 6 0.0000 0.0000 0.0000 0.0000 0.0000 9.1561
#
#
#
# Elastic Compliance Matrix: (Units=1/GPa)
#
#
# Indices 1 2 3 4 5 6 
#
# 1 0.040189 -0.000923 -0.013146 0.000000 0.000000 0.000000
# 2 -0.000923 0.026994 0.000370 0.000000 0.000000 0.000000
# 3 -0.013146 0.000370 0.008741 0.000000 0.000000 0.000000
# 4 0.000000 0.000000 0.000000 0.050001 0.000000 0.000000
# 5 0.000000 0.000000 0.000000 0.000000 0.029412 0.000000
# 6 0.000000 0.000000 0.000000 0.000000 0.000000 0.109217
#
#
# Mechanical properties :
#
#
# Convention : Reuss Voigt Hill
#
# Bulk Modulus (GPa) = 20.60699 50.96729 35.78714
# Shear Modulus (GPa) = 16.22708 28.46450 22.34579
#
# Velocity S-wave (km/s) = 2.76135 3.65723 3.24040
# Velocity P-wave (km/s) = 4.45532 6.46399 5.55126
#
# Compressibility (1/GPa) = 0.04852723
#
# Stress axis : x y z
#
# Youngs Moduli (GPa) = 24.88232 37.04576 114.39875
#
# Poissons Ratio (x) = 0.03418 1.50390
# Poissons Ratio (y) = 0.02296 -0.04236
# Poissons Ratio (z) = 0.32711 -0.01372
#
# Static dielectric constant tensor:
#      x y z
#    x 1.732430 0.000000 0.000000 
#    y 0.000000 1.823330 0.000000 
#    z 0.000000 0.000000 1.790530 
# 
# From -- ./inp_files/19221.got.cif
#   From: 2010.05.17/outbox.cif.g08.bks.cpg/sg44_10_cif.got.tgz:19221.got - 2010.06.03 19:37:08.
