data_PCOD9374191
_publ_section_title
;
Structure prediction by ZEFSAII (Michael W. Deem and Ramdas Pophale) SiO2 
 PCOD9374191
Probable space group: I M M 2
;
_chemical_formula_sum "Si O2"
_cell_formula_units_Z 48
_cell_length_a 18.971368
_cell_length_b 7.978088
_cell_length_c 15.703054
_cell_angle_alpha 90.000000
_cell_angle_beta 90.000000
_cell_angle_gamma 90.000000
_cell_volume 2376.739560
_symmetry_space_group_name_H-M "I M M 2"
_symmetry_group_IT_number 44
_symmetry_cell_setting 'orthorhombic'
loop_
_space_group_symop_operation_xyz
x,y,z
-x,-y,z
-x,y,z
x,-y,z
1/2+x,1/2+y,1/2+z
1/2-x,1/2-y,1/2+z
1/2-x,1/2+y,1/2+z
1/2+x,1/2-y,1/2+z
loop_
_atom_site_type_symbol
_atom_site_label
_atom_site_fract_x
_atom_site_fract_y
_atom_site_fract_z
Si Si1 0.153989 0.300835 0.567770
Si Si2 0.235108 0.705059 0.729682
Si Si3 0.500000 0.705404 0.814598
Si Si4 0.610655 0.296478 0.678057
Si Si5 0.000000 0.199714 0.506115
Si Si6 0.423351 0.703217 0.489465
Si Si7 0.730572 0.198316 0.424215
O O1 0.155753 0.500000 0.572920
O O2 0.177455 0.235611 0.661248
O O3 0.074235 0.249391 0.547353
O O4 0.211319 0.257406 0.493599
O O5 0.231326 0.500000 0.733675
O O6 0.308913 0.752235 0.686804
O O7 0.236555 0.765691 0.827241
O O8 0.500000 0.500000 0.817219
O O9 0.432984 0.759397 0.759668
O O10 0.500000 0.768606 0.909832
O O11 0.607613 0.500000 0.678013
O O12 0.579173 0.243326 0.588348
O O13 0.000000 0.000000 0.501663
O O14 0.500000 0.755809 0.453175
O O15 0.421235 0.500000 0.486346
O O16 0.350127 0.765801 0.450788
O O17 0.741492 0.000000 0.419823
#
# Coordination Sequence:
#
# PCOD9374191 Si02
#       7
#     8   8   4   8   4   8   8
#     4  11  22  41  65  86 116 159 204 244 290 357
#     4   9  19  35  58  83 110 154 203 237 281 356
#     4   9  16  27  53  86 113 144 186 233 281 345
#     4   9  14  27  53  82 107 140 189 232 270 336
#     4  11  23  39  59  88 123 154 194 249 303 345
#     4  10  19  34  58  85 115 151 192 235 286 349
#     4  11  22  38  61  89 118 151 196 248 299 348
#
# _framework density 20.195733000000001
#
# number of rings (size 3 to 8) (size 9 to 14) (size 15 to 20)
#    0.000    2.000    2.500    2.250    0.000    3.000 
#    1.500    3.333    0.000    1.000    0.000    0.000 
#    0.000    0.000    0.000    0.000    0.000    0.000 
#
# Total GULP energy -133823.005893 kJ/mol
# GULP energy per Si atom -5575.958579 kJ/mol
# Density = 2.014977 g / cm^3
# Si number density = 20.195733 Si / 1000 Ang^3
#
#
#
# Elastic Constant Matrix: (Units=GPa)
#
#
# Indices 1 2 3 4 5 6 
#
# 1 138.1241 3.9265 49.5965 0.0000 0.0000 0.0000
# 2 3.9265 25.7770 8.9584 0.0000 0.0000 0.0000
# 3 49.5965 8.9584 95.8322 0.0000 0.0000 0.0000
# 4 0.0000 0.0000 0.0000 19.6529 0.0000 0.0000
# 5 0.0000 0.0000 0.0000 0.0000 94.1094 0.0000
# 6 0.0000 0.0000 0.0000 0.0000 0.0000 8.9740
#
#
#
# Elastic Compliance Matrix: (Units=1/GPa)
#
#
# Indices 1 2 3 4 5 6 
#
# 1 0.008894 0.000253 -0.004627 0.000000 0.000000 0.000000
# 2 0.000253 0.040104 -0.003880 0.000000 0.000000 0.000000
# 3 -0.004627 -0.003880 0.013192 0.000000 0.000000 0.000000
# 4 0.000000 0.000000 0.000000 0.050883 0.000000 0.000000
# 5 0.000000 0.000000 0.000000 0.000000 0.010626 0.000000
# 6 0.000000 0.000000 0.000000 0.000000 0.000000 0.111433
#
#
# Mechanical properties :
#
#
# Convention : Reuss Voigt Hill
#
# Bulk Modulus (GPa) = 21.88985 42.74402 32.31693
# Shear Modulus (GPa) = 18.73593 37.69738 28.21666
#
# Velocity S-wave (km/s) = 3.04915 4.32511 3.74191
# Velocity P-wave (km/s) = 4.82274 6.79359 5.89117
#
# Compressibility (1/GPa) = 0.04568327
#
# Stress axis : x y z
#
# Youngs Moduli (GPa) = 112.43599 24.93508 75.80337
#
# Poissons Ratio (x) = -0.00631 0.35071
# Poissons Ratio (y) = -0.02846 0.29411
# Poissons Ratio (z) = 0.52019 0.09675
#
# Static dielectric constant tensor:
#      x y z
#    x -1.298970 0.000000 0.000000 
#    y 0.000000 1.739510 0.000000 
#    z 0.000000 0.000000 1.734130 
# 
# From -- ./inp_files/16162.got.cif
#   From: 2010.05.17/outbox.cif.g08.bks.cpg/sg44_9_cif.got.tgz:16162.got - 2010.06.03 19:37:08.
