data_PCOD9374031
_publ_section_title
;
Structure prediction by ZEFSAII (Michael W. Deem and Ramdas Pophale) SiO2 
 PCOD9374031
Probable space group: I M M 2
;
_chemical_formula_sum "Si O2"
_cell_formula_units_Z 64
_cell_length_a 21.435383
_cell_length_b 8.634937
_cell_length_c 17.321292
_cell_angle_alpha 90.000000
_cell_angle_beta 90.000000
_cell_angle_gamma 90.000000
_cell_volume 3206.053049
_symmetry_space_group_name_H-M "I M M 2"
_symmetry_group_IT_number 44
_symmetry_cell_setting 'orthorhombic'
loop_
_space_group_symop_operation_xyz
x,y,z
-x,-y,z
-x,y,z
x,-y,z
1/2+x,1/2+y,1/2+z
1/2-x,1/2-y,1/2+z
1/2-x,1/2+y,1/2+z
1/2+x,1/2-y,1/2+z
loop_
_atom_site_type_symbol
_atom_site_label
_atom_site_fract_x
_atom_site_fract_y
_atom_site_fract_z
Si Si1 0.367582 0.321680 0.660600
Si Si2 0.238148 0.314739 0.271931
Si Si3 0.835396 0.323366 0.414811
Si Si4 0.574155 0.327637 0.354609
Si Si5 0.573021 0.817431 0.513100
Si Si6 0.073042 0.689192 0.549634
Si Si7 0.929576 0.827099 0.313579
Si Si8 0.132409 0.680851 0.713398
O O1 0.356354 0.500000 0.638869
O O2 0.310678 0.259015 0.711765
O O3 0.385481 0.224895 0.586312
O O4 0.424300 0.316474 0.721741
O O5 0.231098 0.500000 0.272705
O O6 0.221487 0.260277 0.360595
O O7 0.305033 0.268348 0.238911
O O8 0.819318 0.500000 0.434942
O O9 0.872971 0.255885 0.489036
O O10 0.890451 0.308235 0.351755
O O11 0.500000 0.336490 0.362088
O O12 0.598475 0.500000 0.336383
O O13 0.597280 0.270313 0.437392
O O14 0.588386 0.210405 0.286300
O O15 0.500000 0.773667 0.527411
O O16 0.574206 0.000000 0.498284
O O17 0.071855 0.500000 0.544284
O O18 0.097698 0.732262 0.634987
O O19 0.000000 0.738691 0.537203
O O20 0.000000 0.819432 0.339886
O O21 0.904026 0.000000 0.333938
O O22 0.147131 0.500000 0.703808
#
# Coordination Sequence:
#
# PCOD9374031 Si02
#       8
#     8   8   8   8   8   8   8   8
#     4  10  19  33  53  77 109 151 194 236 284 340
#     4  10  21  38  57  79 114 154 197 243 287 343
#     4   9  18  34  56  80 107 144 187 235 285 340
#     4  10  21  38  60  85 113 146 186 234 290 349
#     4  10  20  34  54  83 117 149 187 236 288 343
#     4   9  18  34  59  90 117 142 183 241 300 355
#     4   9  17  28  45  73 109 146 182 223 276 338
#     4  11  22  38  60  84 113 151 194 239 294 354
#
# _framework density 19.962240999999999
#
# number of rings (size 3 to 8) (size 9 to 14) (size 15 to 20)
#    0.000    2.250    0.000    3.000    0.000    4.250 
#    2.250    1.250    0.000    3.000    0.000    0.000 
#    0.000    0.000    0.000    0.000    0.000    0.000 
#
# Total GULP energy -178179.138921 kJ/mol
# GULP energy per Si atom -5568.098091 kJ/mol
# Density = 1.991681 g / cm^3
# Si number density = 19.962241 Si / 1000 Ang^3
#
#
#
# Elastic Constant Matrix: (Units=GPa)
#
#
# Indices 1 2 3 4 5 6 
#
# 1 54.9284 9.0273 24.7787 0.0000 0.0000 0.0000
# 2 9.0273 27.1857 -2.2414 0.0000 0.0000 0.0000
# 3 24.7787 -2.2414 107.4581 0.0000 0.0000 0.0000
# 4 0.0000 0.0000 0.0000 22.8179 0.0000 0.0000
# 5 0.0000 0.0000 0.0000 0.0000 35.3147 0.0000
# 6 0.0000 0.0000 0.0000 0.0000 0.0000 23.9879
#
#
#
# Elastic Compliance Matrix: (Units=1/GPa)
#
#
# Indices 1 2 3 4 5 6 
#
# 1 0.021806 -0.007669 -0.005188 0.000000 0.000000 0.000000
# 2 -0.007669 0.039544 0.002593 0.000000 0.000000 0.000000
# 3 -0.005188 0.002593 0.010556 0.000000 0.000000 0.000000
# 4 0.000000 0.000000 0.000000 0.043825 0.000000 0.000000
# 5 0.000000 0.000000 0.000000 0.000000 0.028317 0.000000
# 6 0.000000 0.000000 0.000000 0.000000 0.000000 0.041688
#
#
# Mechanical properties :
#
#
# Convention : Reuss Voigt Hill
#
# Bulk Modulus (GPa) = 19.46310 28.07795 23.77052
# Shear Modulus (GPa) = 22.38227 26.95795 24.67011
#
# Velocity S-wave (km/s) = 3.35211 3.67883 3.51926
# Velocity P-wave (km/s) = 4.97527 5.66931 5.33359
#
# Compressibility (1/GPa) = 0.05137929
#
# Stress axis : x y z
#
# Youngs Moduli (GPa) = 45.85819 25.28805 94.72924
#
# Poissons Ratio (x) = 0.19393 0.49148
# Poissons Ratio (y) = 0.35168 -0.24565
# Poissons Ratio (z) = 0.23793 -0.06558
#
# Static dielectric constant tensor:
#      x y z
#    x 1.724440 0.000000 0.000000 
#    y 0.000000 1.724160 0.000000 
#    z 0.000000 0.000000 1.701610 
# 
# From -- ./inp_files/19479.got.cif
#   From: 2010.05.17/outbox.cif.g08.bks.cpg/sg44_10_cif.got.tgz:19479.got - 2010.06.03 19:37:08.
