data_PCOD9374412
_publ_section_title
;
Structure prediction by ZEFSAII (Michael W. Deem and Ramdas Pophale) SiO2 
 PCOD9374412
Probable space group: I M M 2
;
_chemical_formula_sum "Si O2"
_cell_formula_units_Z 48
_cell_length_a 9.412362
_cell_length_b 7.358492
_cell_length_c 33.031205
_cell_angle_alpha 90.000000
_cell_angle_beta 90.000000
_cell_angle_gamma 90.000000
_cell_volume 2287.767369
_symmetry_space_group_name_H-M "I M M 2"
_symmetry_group_IT_number 44
_symmetry_cell_setting 'orthorhombic'
loop_
_space_group_symop_operation_xyz
x,y,z
-x,-y,z
-x,y,z
x,-y,z
1/2+x,1/2+y,1/2+z
1/2-x,1/2-y,1/2+z
1/2-x,1/2+y,1/2+z
1/2+x,1/2-y,1/2+z
loop_
_atom_site_type_symbol
_atom_site_label
_atom_site_fract_x
_atom_site_fract_y
_atom_site_fract_z
Si Si1 0.340085 0.284314 0.423670
Si Si2 0.827986 0.216146 0.591955
Si Si3 0.337399 0.281557 0.004035
Si Si4 0.163200 0.277723 0.346374
Si Si5 0.830495 0.780582 0.679035
Si Si6 0.165398 0.221688 0.767326
O O1 0.500000 0.210768 0.424508
O O2 0.350811 0.500000 0.417181
O O3 0.260388 0.259845 0.466075
O O4 0.247567 0.214833 0.386098
O O5 0.782300 0.285926 0.547898
O O6 0.775629 0.287801 0.635490
O O7 0.000000 0.236458 0.591818
O O8 0.798801 0.000000 0.592430
O O9 0.500000 0.217283 0.997549
O O10 0.344606 0.500000 0.007153
O O11 0.163564 0.500000 0.346443
O O12 0.242394 0.219981 0.305442
O O13 0.000000 0.220273 0.347443
O O14 0.778526 0.718615 0.723060
O O15 0.000000 0.744459 0.679582
O O16 0.814925 0.000000 0.678336
O O17 0.000000 0.275358 0.771851
O O18 0.165934 0.000000 0.766966
#
# Coordination Sequence:
#
# PCOD9374412 Si02
#       6
#     8   8   8   8   8   8
#     4  10  20  32  45  61  83 113 148 183 217 254
#     4   7  10  18  33  54  79 105 133 164 198 239
#     4   9  17  29  46  67  89 113 142 177 216 256
#     4   9  16  25  37  53  75 104 136 171 212 254
#     4   7   9  14  27  48  73 101 131 160 191 233
#     4   8  12  18  30  49  73 101 132 163 196 240
#
# _framework density 20.981155000000001
#
# number of rings (size 3 to 8) (size 9 to 14) (size 15 to 20)
#    0.000    3.667    0.000    4.000    0.000    3.333 
#    0.000    0.000    0.000    1.000    0.000    4.667 
#    0.000    1.333    0.000   12.333    0.000   14.167 
#
# Total GULP energy -133699.968699 kJ/mol
# GULP energy per Si atom -5570.832029 kJ/mol
# Density = 2.093340 g / cm^3
# Si number density = 20.981155 Si / 1000 Ang^3
#
#
#
# Elastic Constant Matrix: (Units=GPa)
#
#
# Indices 1 2 3 4 5 6 
#
# 1 103.2678 5.0023 111.5335 0.0000 0.0000 0.0000
# 2 5.0023 73.8703 6.1563 0.0000 0.0000 0.0000
# 3 111.5335 6.1563 285.2826 0.0000 0.0000 0.0000
# 4 0.0000 0.0000 0.0000 5.6746 0.0000 0.0000
# 5 0.0000 0.0000 0.0000 0.0000 24.5483 0.0000
# 6 0.0000 0.0000 0.0000 0.0000 0.0000 50.5179
#
#
#
# Elastic Compliance Matrix: (Units=1/GPa)
#
#
# Indices 1 2 3 4 5 6 
#
# 1 0.016787 -0.000591 -0.006550 0.000000 0.000000 0.000000
# 2 -0.000591 0.013582 -0.000062 0.000000 0.000000 0.000000
# 3 -0.006550 -0.000062 0.006067 0.000000 0.000000 0.000000
# 4 0.000000 0.000000 0.000000 0.176225 0.000000 0.000000
# 5 0.000000 0.000000 0.000000 0.000000 0.040736 0.000000
# 6 0.000000 0.000000 0.000000 0.000000 0.000000 0.019795
#
#
# Mechanical properties :
#
#
# Convention : Reuss Voigt Hill
#
# Bulk Modulus (GPa) = 45.39202 78.64500 62.01851
# Shear Modulus (GPa) = 16.95251 38.79674 27.87462
#
# Velocity S-wave (km/s) = 2.84560 4.30481 3.64889
# Velocity P-wave (km/s) = 5.69896 7.89136 6.88301
#
# Compressibility (1/GPa) = 0.02203030
#
# Stress axis : x y z
#
# Youngs Moduli (GPa) = 59.57153 73.62458 164.81404
#
# Poissons Ratio (x) = 0.04350 1.07955
# Poissons Ratio (y) = 0.03520 0.01023
# Poissons Ratio (z) = 0.39020 0.00457
#
# Static dielectric constant tensor:
#      x y z
#    x 1.702870 0.000000 0.000000 
#    y 0.000000 1.936460 0.000000 
#    z 0.000000 0.000000 1.796380 
# 
# From -- ./inp_files/27088.got.cif
#   From: 2010.05.17/outbox.cif.g08.bks.cpg/sg44_14_cif.got.tgz:27088.got - 2010.06.03 19:37:08.
