data_PCOD9374452
_publ_section_title
;
Structure prediction by ZEFSAII (Michael W. Deem and Ramdas Pophale) SiO2 
 PCOD9374452
Probable space group: I M M 2
;
_chemical_formula_sum "Si O2"
_cell_formula_units_Z 64
_cell_length_a 8.745518
_cell_length_b 30.901390
_cell_length_c 14.663906
_cell_angle_alpha 90.000000
_cell_angle_beta 90.000000
_cell_angle_gamma 90.000000
_cell_volume 3962.900983
_symmetry_space_group_name_H-M "I M M 2"
_symmetry_group_IT_number 44
_symmetry_cell_setting 'orthorhombic'
loop_
_space_group_symop_operation_xyz
x,y,z
-x,-y,z
-x,y,z
x,-y,z
1/2+x,1/2+y,1/2+z
1/2-x,1/2-y,1/2+z
1/2-x,1/2+y,1/2+z
1/2+x,1/2-y,1/2+z
loop_
_atom_site_type_symbol
_atom_site_label
_atom_site_fract_x
_atom_site_fract_y
_atom_site_fract_z
Si Si1 0.317175 0.548549 0.177960
Si Si2 0.182590 0.863070 0.586400
Si Si3 0.817481 0.549477 0.380735
Si Si4 0.181792 0.799909 0.427599
Si Si5 0.320374 0.224473 0.243115
Si Si6 0.318266 0.280918 0.542043
Si Si7 0.821646 0.684294 0.255769
Si Si8 0.181227 0.135367 0.920846
O O1 0.500000 0.550483 0.194853
O O2 0.280262 0.500000 0.145161
O O3 0.280944 0.586960 0.107675
O O4 0.235504 0.554816 0.275255
O O5 0.212583 0.842582 0.487988
O O6 0.278094 0.835279 0.658533
O O7 0.000000 0.856921 0.604488
O O8 0.777725 0.500000 0.406547
O O9 0.735756 0.586634 0.439427
O O10 0.000000 0.554385 0.385771
O O11 0.256397 0.802409 0.328197
O O12 0.242000 0.758115 0.484473
O O13 0.000000 0.794773 0.417527
O O14 0.500000 0.218406 0.233046
O O15 0.240909 0.218085 0.145531
O O16 0.281390 0.273711 0.270850
O O17 0.500000 0.273388 0.541241
O O18 0.288382 0.327453 0.495288
O O19 0.775583 0.650167 0.332379
O O20 0.000000 0.695518 0.260855
O O21 0.000000 0.135520 0.901111
#
# Coordination Sequence:
#
# PCOD9374452 Si02
#       8
#     8   8   8   8   8   8   8   8
#     4   9  17  30  49  72 101 136 170 207 254 306
#     4  10  20  33  50  74 104 137 175 212 253 305
#     4  10  20  32  48  74 106 137 171 211 255 306
#     4  11  22  35  53  75 103 138 175 216 260 307
#     4  12  24  38  53  72 103 138 177 221 259 307
#     4  11  23  37  54  76 103 135 175 218 261 311
#     4  12  22  31  50  74 103 139 175 214 257 304
#     4  11  22  35  52  74 103 138 176 214 258 311
#
# _framework density 16.149785000000001
#
# number of rings (size 3 to 8) (size 9 to 14) (size 15 to 20)
#    0.000    1.250    3.750    3.750    0.000    2.750 
#    0.000    0.000    0.000    0.000    0.000    0.875 
#    0.000    5.000    0.000    0.000    0.000    0.000 
#
# Total GULP energy -178633.161740 kJ/mol
# GULP energy per Si atom -5582.286304 kJ/mol
# Density = 1.611303 g / cm^3
# Si number density = 16.149785 Si / 1000 Ang^3
#
#
#
# Elastic Constant Matrix: (Units=GPa)
#
#
# Indices 1 2 3 4 5 6 
#
# 1 41.8658 14.8258 10.6527 0.0000 0.0000 0.0000
# 2 14.8258 73.6778 3.2726 0.0000 0.0000 0.0000
# 3 10.6527 3.2726 44.7575 0.0000 0.0000 0.0000
# 4 0.0000 0.0000 0.0000 21.0928 0.0000 0.0000
# 5 0.0000 0.0000 0.0000 0.0000 19.8161 0.0000
# 6 0.0000 0.0000 0.0000 0.0000 0.0000 20.6466
#
#
#
# Elastic Compliance Matrix: (Units=1/GPa)
#
#
# Indices 1 2 3 4 5 6 
#
# 1 0.027290 -0.005220 -0.006114 0.000000 0.000000 0.000000
# 2 -0.005220 0.014615 0.000174 0.000000 0.000000 0.000000
# 3 -0.006114 0.000174 0.023785 0.000000 0.000000 0.000000
# 4 0.000000 0.000000 0.000000 0.047410 0.000000 0.000000
# 5 0.000000 0.000000 0.000000 0.000000 0.050464 0.000000
# 6 0.000000 0.000000 0.000000 0.000000 0.000000 0.048434
#
#
# Mechanical properties :
#
#
# Convention : Reuss Voigt Hill
#
# Bulk Modulus (GPa) = 23.05702 24.20038 23.62870
# Shear Modulus (GPa) = 20.09855 21.08110 20.58982
#
# Velocity S-wave (km/s) = 3.53159 3.61688 3.57449
# Velocity P-wave (km/s) = 5.56214 5.69736 5.63016
#
# Compressibility (1/GPa) = 0.04337075
#
# Stress axis : x y z
#
# Youngs Moduli (GPa) = 36.64355 68.42162 42.04327
#
# Poissons Ratio (x) = 0.35715 0.25704
# Poissons Ratio (y) = 0.19127 -0.00730
# Poissons Ratio (z) = 0.22402 -0.01189
#
# Static dielectric constant tensor:
#      x y z
#    x 1.541330 0.000000 0.000000 
#    y 0.000000 1.573810 0.000000 
#    z 0.000000 0.000000 1.525540 
# 
# From -- ./inp_files/17121.got.cif
#   From: 2010.05.17/outbox.cif.g08.bks.cpg/sg44_9_cif.got.tgz:17121.got - 2010.06.03 19:37:08.
