data_PCOD9374131
_publ_section_title
;
Structure prediction by ZEFSAII (Michael W. Deem and Ramdas Pophale) SiO2 
 PCOD9374131
Probable space group: I M M 2
;
_chemical_formula_sum "Si O2"
_cell_formula_units_Z 64
_cell_length_a 9.308209
_cell_length_b 19.910329
_cell_length_c 20.994927
_cell_angle_alpha 90.000000
_cell_angle_beta 90.000000
_cell_angle_gamma 90.000000
_cell_volume 3890.979399
_symmetry_space_group_name_H-M "I M M 2"
_symmetry_group_IT_number 44
_symmetry_cell_setting 'orthorhombic'
loop_
_space_group_symop_operation_xyz
x,y,z
-x,-y,z
-x,y,z
x,-y,z
1/2+x,1/2+y,1/2+z
1/2-x,1/2-y,1/2+z
1/2-x,1/2+y,1/2+z
1/2+x,1/2-y,1/2+z
loop_
_atom_site_type_symbol
_atom_site_label
_atom_site_fract_x
_atom_site_fract_y
_atom_site_fract_z
Si Si1 0.329871 0.075883 0.381470
Si Si2 0.171274 0.206905 0.187856
Si Si3 0.170793 0.922925 0.516407
Si Si4 0.670686 0.075687 0.987584
Si Si5 0.328022 0.202345 0.564972
Si Si6 0.329838 0.923293 0.140296
Si Si7 0.828506 0.286939 0.815014
Si Si8 0.327922 0.706077 0.443154
O O1 0.500000 0.082554 0.397237
O O2 0.240283 0.084198 0.446156
O O3 0.295651 0.135538 0.333171
O O4 0.306723 0.000000 0.356977
O O5 0.204998 0.254917 0.127928
O O6 0.238304 0.133961 0.173515
O O7 0.241927 0.232967 0.252664
O O8 0.000000 0.202402 0.193425
O O9 0.245139 0.867633 0.560384
O O10 0.000000 0.912525 0.513073
O O11 0.197549 0.000000 0.536746
O O12 0.500000 0.081336 0.976558
O O13 0.753100 0.134723 0.952355
O O14 0.716012 0.000000 0.969631
O O15 0.692123 0.082301 0.063930
O O16 0.500000 0.191017 0.562369
O O17 0.287756 0.246295 0.502748
O O18 0.500000 0.913219 0.152860
O O19 0.294020 0.000000 0.158783
O O20 0.792362 0.242796 0.877073
O O21 0.000000 0.281965 0.804020
O O22 0.500000 0.697855 0.445709
#
# Coordination Sequence:
#
# PCOD9374131 Si02
#       8
#     8   8   8   8   8   8   8   8
#     4   9  17  32  53  74 102 143 181 210 248 303
#     4  11  23  36  52  77 108 139 175 221 266 308
#     4  10  20  32  51  82 111 133 167 218 267 307
#     4   9  18  32  52  80 109 136 171 216 264 311
#     4  10  20  36  55  77 105 138 176 215 259 314
#     4   9  18  33  52  75 106 144 181 211 249 309
#     4  10  21  36  52  74 106 142 180 216 255 312
#     4  10  19  34  55  79 105 136 177 220 259 306
#
# _framework density 16.448301000000001
#
# number of rings (size 3 to 8) (size 9 to 14) (size 15 to 20)
#    0.000    2.250    2.500    1.500    0.000    4.250 
#    0.000    2.500    0.000    0.750    0.000    0.000 
#    0.000    0.000    0.000    0.000    0.000    0.000 
#
# Total GULP energy -178538.280723 kJ/mol
# GULP energy per Si atom -5579.321273 kJ/mol
# Density = 1.641086 g / cm^3
# Si number density = 16.448301 Si / 1000 Ang^3
#
#
#
# Elastic Constant Matrix: (Units=GPa)
#
#
# Indices 1 2 3 4 5 6 
#
# 1 40.6814 54.0121 51.6381 0.0000 0.0000 0.0000
# 2 54.0121 111.6384 62.4817 0.0000 0.0000 0.0000
# 3 51.6381 62.4817 105.8897 0.0000 0.0000 0.0000
# 4 0.0000 0.0000 0.0000 15.1466 0.0000 0.0000
# 5 0.0000 0.0000 0.0000 0.0000 27.0397 0.0000
# 6 0.0000 0.0000 0.0000 0.0000 0.0000 31.9623
#
#
#
# Elastic Compliance Matrix: (Units=1/GPa)
#
#
# Indices 1 2 3 4 5 6 
#
# 1 0.123655 -0.038934 -0.037328 0.000000 0.000000 0.000000
# 2 -0.038934 0.025633 0.003861 0.000000 0.000000 0.000000
# 3 -0.037328 0.003861 0.025369 0.000000 0.000000 0.000000
# 4 0.000000 0.000000 0.000000 0.066022 0.000000 0.000000
# 5 0.000000 0.000000 0.000000 0.000000 0.036983 0.000000
# 6 0.000000 0.000000 0.000000 0.000000 0.000000 0.031287
#
#
# Mechanical properties :
#
#
# Convention : Reuss Voigt Hill
#
# Bulk Modulus (GPa) = 33.49474 66.05260 49.77367
# Shear Modulus (GPa) = 10.78281 20.83488 15.80885
#
# Velocity S-wave (km/s) = 2.56316 3.56292 3.10356
# Velocity P-wave (km/s) = 5.40070 7.56113 6.57032
#
# Compressibility (1/GPa) = 0.02985544
#
# Stress axis : x y z
#
# Youngs Moduli (GPa) = 8.08702 39.01191 39.41886
#
# Poissons Ratio (x) = 1.51890 1.47142
# Poissons Ratio (y) = 0.31486 -0.15221
# Poissons Ratio (z) = 0.30187 -0.15064
#
# Static dielectric constant tensor:
#      x y z
#    x 1.542740 0.000000 0.000000 
#    y 0.000000 1.553720 0.000000 
#    z 0.000000 0.000000 1.541920 
# 
# From -- ./inp_files/20756.got.cif
#   From: 2010.05.17/outbox.cif.g08.bks.cpg/sg44_11_cif.got.tgz:20756.got - 2010.06.03 19:37:08.
