data_PCOD9374004
_publ_section_title
;
Structure prediction by ZEFSAII (Michael W. Deem and Ramdas Pophale) SiO2 
 PCOD9374004
Probable space group: I M M 2
;
_chemical_formula_sum "Si O2"
_cell_formula_units_Z 56
_cell_length_a 8.746060
_cell_length_b 16.820616
_cell_length_c 23.620208
_cell_angle_alpha 90.000000
_cell_angle_beta 90.000000
_cell_angle_gamma 90.000000
_cell_volume 3474.866038
_symmetry_space_group_name_H-M "I M M 2"
_symmetry_group_IT_number 44
_symmetry_cell_setting 'orthorhombic'
loop_
_space_group_symop_operation_xyz
x,y,z
-x,-y,z
-x,y,z
x,-y,z
1/2+x,1/2+y,1/2+z
1/2-x,1/2-y,1/2+z
1/2-x,1/2+y,1/2+z
1/2+x,1/2-y,1/2+z
loop_
_atom_site_type_symbol
_atom_site_label
_atom_site_fract_x
_atom_site_fract_y
_atom_site_fract_z
Si Si1 0.180061 0.000000 0.867620
Si Si2 0.816415 0.329147 0.379411
Si Si3 0.816584 0.351095 0.166291
Si Si4 0.316219 0.739168 0.764096
Si Si5 0.818935 0.000000 0.732137
Si Si6 0.183420 0.093489 0.548782
Si Si7 0.683511 0.822442 0.438043
Si Si8 0.183921 0.589953 0.821627
O O1 0.254507 0.082144 0.888563
O O2 0.199159 0.000000 0.799478
O O3 0.000000 0.000000 0.880294
O O4 0.768843 0.296876 0.316576
O O5 0.750898 0.264208 0.423132
O O6 0.000000 0.329265 0.381562
O O7 0.770122 0.274739 0.203599
O O8 0.761237 0.424408 0.204517
O O9 0.742480 0.363241 0.105257
O O10 0.000000 0.352122 0.160856
O O11 0.500000 0.736367 0.765630
O O12 0.250388 0.653103 0.777820
O O13 0.000000 0.000000 0.718544
O O14 0.250479 0.137593 0.494151
O O15 0.000000 0.095625 0.547202
O O16 0.230475 0.000000 0.550247
O O17 0.500000 0.817637 0.441510
O O18 0.724694 0.877918 0.384178
O O19 0.237750 0.500000 0.813565
O O20 0.000000 0.590998 0.818033
#
# Coordination Sequence:
#
# PCOD9374004 Si02
#       8
#     4   8   8   8   4   8   8   8
#     4  11  21  31  49  77 107 139 173 208 253 306
#     4  10  19  33  51  74 104 136 171 212 257 304
#     4  11  21  34  51  73 103 138 174 208 249 302
#     4   9  19  32  48  73 102 133 168 206 252 302
#     4  11  21  31  47  73 107 139 171 208 247 296
#     4  11  23  36  51  75 104 136 174 212 253 302
#     4  10  20  35  53  74 102 136 173 212 255 304
#     4   9  18  32  51  75 101 131 168 207 250 300
#
# _framework density 16.115729999999999
#
# number of rings (size 3 to 8) (size 9 to 14) (size 15 to 20)
#    0.000    1.857    2.143    2.571    0.000    4.571 
#    0.000    0.000    0.000    0.000    1.857    0.000 
#    0.000    0.000    0.000    0.000    0.000    0.000 
#
# Total GULP energy -156261.971540 kJ/mol
# GULP energy per Si atom -5580.784698 kJ/mol
# Density = 1.607905 g / cm^3
# Si number density = 16.115730 Si / 1000 Ang^3
#
#
#
# Elastic Constant Matrix: (Units=GPa)
#
#
# Indices 1 2 3 4 5 6 
#
# 1 46.9924 45.0229 42.2545 0.0000 0.0000 0.0000
# 2 45.0229 160.1870 75.3799 0.0000 0.0000 0.0000
# 3 42.2545 75.3799 109.1871 0.0000 0.0000 0.0000
# 4 0.0000 0.0000 0.0000 28.0935 0.0000 0.0000
# 5 0.0000 0.0000 0.0000 0.0000 26.2468 0.0000
# 6 0.0000 0.0000 0.0000 0.0000 0.0000 29.7286
#
#
#
# Elastic Compliance Matrix: (Units=1/GPa)
#
#
# Indices 1 2 3 4 5 6 
#
# 1 0.035315 -0.005176 -0.010093 0.000000 0.000000 0.000000
# 2 -0.005176 0.010005 -0.004904 0.000000 0.000000 0.000000
# 3 -0.010093 -0.004904 0.016450 0.000000 0.000000 0.000000
# 4 0.000000 0.000000 0.000000 0.035595 0.000000 0.000000
# 5 0.000000 0.000000 0.000000 0.000000 0.038100 0.000000
# 6 0.000000 0.000000 0.000000 0.000000 0.000000 0.033638
#
#
# Mechanical properties :
#
#
# Convention : Reuss Voigt Hill
#
# Bulk Modulus (GPa) = 46.67799 71.29790 58.98794
# Shear Modulus (GPa) = 23.08493 27.06105 25.07299
#
# Velocity S-wave (km/s) = 3.78887 4.10221 3.94865
# Velocity P-wave (km/s) = 6.94031 8.17158 7.58098
#
# Compressibility (1/GPa) = 0.02142338
#
# Stress axis : x y z
#
# Youngs Moduli (GPa) = 28.31684 99.94614 60.78920
#
# Poissons Ratio (x) = 0.51734 0.61354
# Poissons Ratio (y) = 0.14657 0.29813
# Poissons Ratio (z) = 0.28580 0.49017
#
# Static dielectric constant tensor:
#      x y z
#    x 1.541240 0.000000 0.000000 
#    y 0.000000 1.534550 0.000000 
#    z 0.000000 0.000000 1.523800 
# 
# From -- ./inp_files/23116.got.cif
#   From: 2010.05.17/outbox.cif.g08.bks.cpg/sg44_12_cif.got.tgz:23116.got - 2010.06.03 19:37:08.
