data_PCOD9374000
_publ_section_title
;
Structure prediction by ZEFSAII (Michael W. Deem and Ramdas Pophale) SiO2 
 PCOD9374000
Probable space group: I M M 2
;
_chemical_formula_sum "Si O2"
_cell_formula_units_Z 64
_cell_length_a 19.284784
_cell_length_b 21.761023
_cell_length_c 9.367325
_cell_angle_alpha 90.000000
_cell_angle_beta 90.000000
_cell_angle_gamma 90.000000
_cell_volume 3931.060025
_symmetry_space_group_name_H-M "I M M 2"
_symmetry_group_IT_number 44
_symmetry_cell_setting 'orthorhombic'
loop_
_space_group_symop_operation_xyz
x,y,z
-x,-y,z
-x,y,z
x,-y,z
1/2+x,1/2+y,1/2+z
1/2-x,1/2-y,1/2+z
1/2-x,1/2+y,1/2+z
1/2+x,1/2-y,1/2+z
loop_
_atom_site_type_symbol
_atom_site_label
_atom_site_fract_x
_atom_site_fract_y
_atom_site_fract_z
Si Si1 0.077662 0.883640 0.185590
Si Si2 0.834750 0.867449 0.640511
Si Si3 0.704994 0.815036 0.274129
Si Si4 0.290038 0.217827 0.604373
Si Si5 0.078062 0.071344 0.876137
Si Si6 0.420998 0.241257 0.773010
Si Si7 0.293236 0.570033 0.845926
Si Si8 0.417801 0.758427 0.106676
O O1 0.084097 0.814903 0.247762
O O2 0.140863 0.923346 0.242433
O O3 0.000000 0.906472 0.223557
O O4 0.081939 0.885428 0.014438
O O5 0.761284 0.834254 0.665308
O O6 0.864030 0.910154 0.763840
O O7 0.823127 0.904834 0.495704
O O8 0.888922 0.810946 0.625449
O O9 0.710479 0.785367 0.432795
O O10 0.757991 0.780573 0.167247
O O11 0.732341 0.884186 0.294692
O O12 0.629620 0.801633 0.206789
O O13 0.366121 0.210942 0.668087
O O14 0.000000 0.078134 0.814332
O O15 0.084877 0.000000 0.920366
O O16 0.500000 0.223535 0.742145
O O17 0.405953 0.227431 0.938862
O O18 0.270339 0.500000 0.856997
O O19 0.500000 0.761674 0.135684
#
# Coordination Sequence:
#
# PCOD9374000 Si02
#       8
#     8   8   8   8   8   8   8   8
#     4  10  20  33  48  69 102 136 172 213 252 305
#     4  10  20  33  51  73 104 136 174 215 259 310
#     4  10  21  34  52  76 105 134 175 219 267 320
#     4  10  19  33  50  75 101 135 168 215 270 313
#     4  10  21  34  46  69 105 143 181 214 248 297
#     4  10  19  33  52  75 103 131 164 207 264 323
#     4  11  21  35  53  73 103 143 184 216 251 312
#     4  10  20  34  53  77 105 132 167 220 275 324
#
# _framework density 16.280595000000002
#
# number of rings (size 3 to 8) (size 9 to 14) (size 15 to 20)
#    0.000    1.875    2.500    2.625    3.500    2.750 
#    0.000    0.000    0.000    0.375    0.000    0.000 
#    0.000    6.500    0.000    0.000    0.000    0.000 
#
# Total GULP energy -178426.439168 kJ/mol
# GULP energy per Si atom -5575.826224 kJ/mol
# Density = 1.624354 g / cm^3
# Si number density = 16.280595 Si / 1000 Ang^3
#
#
#
# Elastic Constant Matrix: (Units=GPa)
#
#
# Indices 1 2 3 4 5 6 
#
# 1 98.5857 44.8671 51.5302 0.0000 0.0000 0.0000
# 2 44.8671 71.9630 44.7998 0.0000 0.0000 0.0000
# 3 51.5302 44.7998 68.9968 0.0000 0.0000 0.0000
# 4 0.0000 0.0000 0.0000 11.5847 0.0000 0.0000
# 5 0.0000 0.0000 0.0000 0.0000 31.1407 0.0000
# 6 0.0000 0.0000 0.0000 0.0000 0.0000 15.6110
#
#
#
# Elastic Compliance Matrix: (Units=1/GPa)
#
#
# Indices 1 2 3 4 5 6 
#
# 1 0.017524 -0.004663 -0.010060 0.000000 0.000000 0.000000
# 2 -0.004663 0.024565 -0.012467 0.000000 0.000000 0.000000
# 3 -0.010060 -0.012467 0.030102 0.000000 0.000000 0.000000
# 4 0.000000 0.000000 0.000000 0.086320 0.000000 0.000000
# 5 0.000000 0.000000 0.000000 0.000000 0.032112 0.000000
# 6 0.000000 0.000000 0.000000 0.000000 0.000000 0.064058
#
#
# Mechanical properties :
#
#
# Convention : Reuss Voigt Hill
#
# Bulk Modulus (GPa) = 56.14923 57.99333 57.07128
# Shear Modulus (GPa) = 15.87309 18.22383 17.04846
#
# Velocity S-wave (km/s) = 3.12584 3.34931 3.23950
# Velocity P-wave (km/s) = 6.89863 7.11728 7.00881
#
# Compressibility (1/GPa) = 0.01780968
#
# Stress axis : x y z
#
# Youngs Moduli (GPa) = 57.06475 40.70880 33.22043
#
# Poissons Ratio (x) = 0.18982 0.33420
# Poissons Ratio (y) = 0.26609 0.41417
# Poissons Ratio (z) = 0.57408 0.50753
#
# Static dielectric constant tensor:
#      x y z
#    x 1.560390 0.000000 0.000000 
#    y 0.000000 1.538770 0.000000 
#    z 0.000000 0.000000 1.557650 
# 
# From -- ./inp_files/8472.got.cif
#   From: 2010.05.17/outbox.cif.g08.bks.cpg/sg44_5_cif.got.tgz:8472.got - 2010.06.03 19:37:08.
