data_PCOD9374033
_publ_section_title
;
Structure prediction by ZEFSAII (Michael W. Deem and Ramdas Pophale) SiO2 
 PCOD9374033
Probable space group: I M M 2
;
_chemical_formula_sum "Si O2"
_cell_formula_units_Z 56
_cell_length_a 7.426267
_cell_length_b 19.371267
_cell_length_c 17.549409
_cell_angle_alpha 90.000000
_cell_angle_beta 90.000000
_cell_angle_gamma 90.000000
_cell_volume 2524.591306
_symmetry_space_group_name_H-M "I M M 2"
_symmetry_group_IT_number 44
_symmetry_cell_setting 'orthorhombic'
loop_
_space_group_symop_operation_xyz
x,y,z
-x,-y,z
-x,y,z
x,-y,z
1/2+x,1/2+y,1/2+z
1/2-x,1/2-y,1/2+z
1/2-x,1/2+y,1/2+z
1/2+x,1/2-y,1/2+z
loop_
_atom_site_type_symbol
_atom_site_label
_atom_site_fract_x
_atom_site_fract_y
_atom_site_fract_z
Si Si1 0.282902 0.162383 0.961880
Si Si2 0.784528 0.195106 0.525300
Si Si3 0.219522 0.579135 0.611564
Si Si4 0.280385 0.839081 0.262973
Si Si5 0.279346 0.693879 0.199735
Si Si6 0.287557 0.577583 0.309314
Si Si7 0.285360 0.921759 0.410389
O O1 0.500000 0.163278 0.962034
O O2 0.230241 0.122243 0.886058
O O3 0.218464 0.241070 0.973241
O O4 0.223101 0.120092 0.036491
O O5 0.719922 0.200780 0.612245
O O6 0.745080 0.122410 0.486224
O O7 0.000000 0.202055 0.529007
O O8 0.278311 0.500000 0.610103
O O9 0.274178 0.617502 0.688607
O O10 0.000000 0.579362 0.611246
O O11 0.500000 0.838696 0.264853
O O12 0.223691 0.760323 0.249262
O O13 0.215789 0.876702 0.339185
O O14 0.500000 0.693952 0.199102
O O15 0.215916 0.624125 0.240259
O O16 0.500000 0.570767 0.295437
O O17 0.213182 0.500000 0.316984
O O18 0.500000 0.926759 0.399761
O O19 0.214924 0.000000 0.412506
#
# Coordination Sequence:
#
# PCOD9374033 Si02
#       7
#     8   8   8   8   8   8   8
#     4  10  19  33  53  79 108 135 170 216 265 315
#     4  10  20  35  56  80 105 136 176 217 260 313
#     4   9  15  24  44  74 104 132 163 205 255 304
#     4   9  15  28  50  75 102 132 169 212 257 305
#     4   9  17  32  53  75 101 135 177 220 257 303
#     4  10  21  35  52  76 106 141 179 217 259 308
#     4  10  21  35  53  80 110 138 172 215 262 311
#
# _framework density 22.181809000000001
#
# number of rings (size 3 to 8) (size 9 to 14) (size 15 to 20)
#    0.000    2.429    1.429    1.714    0.000    5.143 
#    0.000    2.143    0.000    1.714    0.000    0.000 
#    0.000    0.000    0.000    0.000    0.000    0.000 
#
# Total GULP energy -156461.526601 kJ/mol
# GULP energy per Si atom -5587.911664 kJ/mol
# Density = 2.213132 g / cm^3
# Si number density = 22.181809 Si / 1000 Ang^3
#
#
#
# Elastic Constant Matrix: (Units=GPa)
#
#
# Indices 1 2 3 4 5 6 
#
# 1 70.8175 7.1499 -2.9425 0.0000 0.0000 0.0000
# 2 7.1499 203.8683 90.1679 0.0000 0.0000 0.0000
# 3 -2.9425 90.1679 73.5826 0.0000 0.0000 0.0000
# 4 0.0000 0.0000 0.0000 -52.5286 0.0000 0.0000
# 5 0.0000 0.0000 0.0000 0.0000 8.5389 0.0000
# 6 0.0000 0.0000 0.0000 0.0000 0.0000 7.1684
#
#
#
# Elastic Compliance Matrix: (Units=1/GPa)
#
#
# Indices 1 2 3 4 5 6 
#
# 1 0.014397 -0.001658 0.002608 0.000000 0.000000 0.000000
# 2 -0.001658 0.010900 -0.013424 0.000000 0.000000 0.000000
# 3 0.002608 -0.013424 0.030144 0.000000 0.000000 0.000000
# 4 0.000000 0.000000 0.000000 -0.019037 0.000000 0.000000
# 5 0.000000 0.000000 0.000000 0.000000 0.117111 0.000000
# 6 0.000000 0.000000 0.000000 0.000000 0.000000 0.139501
#
#
# Mechanical properties :
#
#
# Convention : Reuss Voigt Hill
#
# Bulk Modulus (GPa) = 32.79503 59.66876 46.23190
# Shear Modulus (GPa) = 15.23797 9.56194 12.39995
#
# Velocity S-wave (km/s) = 2.62383 2.07848 2.36691
# Velocity P-wave (km/s) = 4.89858 5.72000 5.32515
#
# Compressibility (1/GPa) = 0.03049242
#
# Stress axis : x y z
#
# Youngs Moduli (GPa) = 69.46091 91.74038 33.17447
#
# Poissons Ratio (x) = 0.15213 -0.08651
# Poissons Ratio (y) = 0.11519 0.44532
# Poissons Ratio (z) = -0.18114 1.23148
#
# Static dielectric constant tensor:
#      x y z
#    x 1.884690 0.000000 0.000000 
#    y 0.000000 1.821470 0.000000 
#    z 0.000000 0.000000 1.761580 
# 
# From -- ./inp_files/16505.got.cif
#   From: 2010.05.17/outbox.cif.g08.bks.cpg/sg44_9_cif.got.tgz:16505.got - 2010.06.03 19:37:08.
