data_PCOD9374588
_publ_section_title
;
Structure prediction by ZEFSAII (Michael W. Deem and Ramdas Pophale) SiO2 
 PCOD9374588
Probable space group: I M M 2
;
_chemical_formula_sum "Si O2"
_cell_formula_units_Z 64
_cell_length_a 9.218686
_cell_length_b 24.757967
_cell_length_c 13.854813
_cell_angle_alpha 90.000000
_cell_angle_beta 90.000000
_cell_angle_gamma 90.000000
_cell_volume 3162.166044
_symmetry_space_group_name_H-M "I M M 2"
_symmetry_group_IT_number 44
_symmetry_cell_setting 'orthorhombic'
loop_
_space_group_symop_operation_xyz
x,y,z
-x,-y,z
-x,y,z
x,-y,z
1/2+x,1/2+y,1/2+z
1/2-x,1/2-y,1/2+z
1/2-x,1/2+y,1/2+z
1/2+x,1/2-y,1/2+z
loop_
_atom_site_type_symbol
_atom_site_label
_atom_site_fract_x
_atom_site_fract_y
_atom_site_fract_z
Si Si1 0.161863 0.282365 0.001530
Si Si2 0.676460 0.937445 0.938396
Si Si3 0.162502 0.082502 0.347088
Si Si4 0.663913 0.935367 0.149511
Si Si5 0.169852 0.765630 0.682872
Si Si6 0.337063 0.087866 0.532992
Si Si7 0.338142 0.709881 0.826801
Si Si8 0.176298 0.377175 0.240223
O O1 0.292969 0.266618 0.070612
O O2 0.000000 0.262095 0.025015
O O3 0.153181 0.347485 0.011938
O O4 0.216407 0.265587 0.896734
O O5 0.500000 0.937491 0.942687
O O6 0.714985 0.903930 0.842609
O O7 0.723084 0.000000 0.926373
O O8 0.723505 0.916142 0.044774
O O9 0.247472 0.072327 0.247692
O O10 0.241028 0.064879 0.446003
O O11 0.151719 0.147409 0.352915
O O12 0.000000 0.060960 0.341189
O O13 0.500000 0.913703 0.163528
O O14 0.653589 0.000000 0.136216
O O15 0.267043 0.717259 0.723465
O O16 0.241147 0.820572 0.725454
O O17 0.000000 0.761649 0.701645
O O18 0.500000 0.065882 0.526929
O O19 0.287677 0.086334 0.645059
O O20 0.500000 0.733576 0.832873
O O21 0.000000 0.369128 0.236352
#
# Coordination Sequence:
#
# PCOD9374588 Si02
#       8
#     8   8   8   8   8   8   8   8
#     4   9  17  32  52  72  96 129 169 213 259 311
#     4   8  15  31  56  82 105 134 174 218 265 316
#     4  10  20  33  52  76 102 135 173 217 264 311
#     4   9  18  34  56  79 104 137 176 217 261 315
#     4  11  21  33  50  74 103 140 179 215 259 313
#     4   8  15  28  49  74 100 132 165 202 252 309
#     4  10  20  35  52  73 102 137 175 217 265 317
#     4   9  17  32  54  78 105 136 172 218 268 316
#
# _framework density 20.239291999999999
#
# number of rings (size 3 to 8) (size 9 to 14) (size 15 to 20)
#    0.000    2.750    0.000    3.750    0.000    4.750 
#    2.250    1.250    0.000    3.375    0.000    0.000 
#    0.000    0.000    0.000    0.000    0.000    0.000 
#
# Total GULP energy -178158.763445 kJ/mol
# GULP energy per Si atom -5567.461358 kJ/mol
# Density = 2.019323 g / cm^3
# Si number density = 20.239292 Si / 1000 Ang^3
#
#
#
# Elastic Constant Matrix: (Units=GPa)
#
#
# Indices 1 2 3 4 5 6 
#
# 1 95.1876 12.7717 45.7321 0.0000 0.0000 0.0000
# 2 12.7717 13.1770 2.6703 0.0000 0.0000 0.0000
# 3 45.7321 2.6703 129.2586 0.0000 0.0000 0.0001
# 4 0.0000 0.0000 0.0000 -0.6961 0.0000 0.0001
# 5 0.0000 0.0000 0.0000 0.0000 19.2043 0.0000
# 6 0.0000 0.0000 0.0001 0.0001 0.0000 -62.9944
#
#
#
# Elastic Compliance Matrix: (Units=1/GPa)
#
#
# Indices 1 2 3 4 5 6 
#
# 1 0.014631 -0.013187 -0.004904 0.000000 0.000000 0.000000
# 2 -0.013187 0.088095 0.002846 0.000001 0.000000 0.000000
# 3 -0.004904 0.002846 0.009413 0.000000 0.000000 0.000000
# 4 0.000000 0.000001 0.000000 -1.436608 -0.000001 -0.000001
# 5 0.000000 0.000000 0.000000 -0.000001 0.052072 0.000000
# 6 0.000000 0.000000 0.000000 -0.000001 0.000000 -0.015874
#
#
# Mechanical properties :
#
#
# Convention : Reuss Voigt Hill
#
# Bulk Modulus (GPa) = 12.24780 39.99682 26.12231
# Shear Modulus (GPa) = -4.06317 2.86601 -0.59858
#
# Velocity S-wave (km/s) = -1.41842 1.19128 -0.54442
# Velocity P-wave (km/s) = 1.83904 4.65801 3.54112
#
# Compressibility (1/GPa) = 0.08164735
#
# Stress axis : x y z
#
# Youngs Moduli (GPa) = 68.34761 11.35143 106.23913
#
# Poissons Ratio (x) = 0.14969 0.52101
# Poissons Ratio (y) = 0.90131 -0.30233
# Poissons Ratio (z) = 0.33518 -0.03230
#
# Static dielectric constant tensor:
#      x y z
#    x 1.698220 0.000000 0.000000 
#    y 0.000000 1.761330 0.000000 
#    z 0.000000 0.000000 1.738260 
# 
# From -- ./inp_files/11417.got.cif
#   From: 2010.05.17/outbox.cif.g08.bks.cpg/sg44_6_cif.got.tgz:11417.got - 2010.06.03 19:37:08.
