data_PCOD9374061
_publ_section_title
;
Structure prediction by ZEFSAII (Michael W. Deem and Ramdas Pophale) SiO2 
 PCOD9374061
Probable space group: I M M 2
;
_chemical_formula_sum "Si O2"
_cell_formula_units_Z 56
_cell_length_a 18.082473
_cell_length_b 19.492995
_cell_length_c 7.181668
_cell_angle_alpha 90.000000
_cell_angle_beta 90.000000
_cell_angle_gamma 90.000000
_cell_volume 2531.405510
_symmetry_space_group_name_H-M "I M M 2"
_symmetry_group_IT_number 44
_symmetry_cell_setting 'orthorhombic'
loop_
_space_group_symop_operation_xyz
x,y,z
-x,-y,z
-x,y,z
x,-y,z
1/2+x,1/2+y,1/2+z
1/2-x,1/2-y,1/2+z
1/2-x,1/2+y,1/2+z
1/2+x,1/2-y,1/2+z
loop_
_atom_site_type_symbol
_atom_site_label
_atom_site_fract_x
_atom_site_fract_y
_atom_site_fract_z
Si Si1 0.085448 0.421539 0.916200
Si Si2 0.148026 0.924865 0.747090
Si Si3 0.582568 0.315668 0.529637
Si Si4 0.719838 0.843893 0.306548
Si Si5 0.135596 0.078132 0.306388
Si Si6 0.697843 0.789360 0.694096
Si Si7 0.675775 0.925363 0.806667
O O1 0.088259 0.500000 0.847655
O O2 0.137855 0.373713 0.790635
O O3 0.000000 0.400145 0.926159
O O4 0.123302 0.424039 0.121787
O O5 0.130184 0.917071 0.528857
O O6 0.236108 0.931141 0.775564
O O7 0.116479 0.000000 0.805189
O O8 0.119134 0.860506 0.865039
O O9 0.500000 0.295597 0.478523
O O10 0.584169 0.368312 0.702786
O O11 0.629384 0.250889 0.600926
O O12 0.781109 0.899084 0.245405
O O13 0.731363 0.833483 0.527173
O O14 0.742747 0.769221 0.236728
O O15 0.122193 0.000000 0.252860
O O16 0.673826 0.842950 0.856373
O O17 0.656031 0.000000 0.899052
#
# Coordination Sequence:
#
# PCOD9374061 Si02
#       7
#     8   8   8   8   8   8   8
#     4   9  16  28  52  85 115 144 186 241 291 341
#     4  10  19  36  62  86 115 157 201 243 289 342
#     4  11  25  39  54  87 127 157 196 242 291 352
#     4  10  19  33  54  81 117 148 192 238 287 352
#     4  10  20  37  62  86 115 157 201 244 290 340
#     4  10  20  33  56  79 111 155 188 239 294 342
#     4   9  17  33  56  82 112 144 192 246 284 348
#
# _framework density 22.122097
#
# number of rings (size 3 to 8) (size 9 to 14) (size 15 to 20)
#    0.000    2.143    2.857    1.714    0.000    4.000 
#    0.000    1.429    0.000    1.714    0.000    8.000 
#    0.000   41.143    0.000    0.000    0.000    0.000 
#
# Total GULP energy -155908.764035 kJ/mol
# GULP energy per Si atom -5568.170144 kJ/mol
# Density = 2.207175 g / cm^3
# Si number density = 22.122097 Si / 1000 Ang^3
#
#
#
# Elastic Constant Matrix: (Units=GPa)
#
#
# Indices 1 2 3 4 5 6 
#
# 1 115.1948 29.3283 5.9473 0.0000 0.0000 0.0000
# 2 29.3283 143.5519 7.6540 0.0000 0.0000 0.0000
# 3 5.9473 7.6540 46.4743 0.0000 0.0000 0.0000
# 4 0.0000 0.0000 0.0000 25.0062 0.0000 0.0000
# 5 0.0000 0.0000 0.0000 0.0000 18.6083 0.0000
# 6 0.0000 0.0000 0.0000 0.0000 0.0000 13.9172
#
#
#
# Elastic Compliance Matrix: (Units=1/GPa)
#
#
# Indices 1 2 3 4 5 6 
#
# 1 0.009192 -0.001831 -0.000875 0.000000 0.000000 0.000000
# 2 -0.001831 0.007393 -0.000983 0.000000 0.000000 0.000000
# 3 -0.000875 -0.000983 0.021791 0.000000 0.000000 0.000000
# 4 0.000000 0.000000 0.000000 0.039990 0.000000 0.000000
# 5 0.000000 0.000000 0.000000 0.000000 0.053739 0.000000
# 6 0.000000 0.000000 0.000000 0.000000 0.000000 0.071853
#
#
# Mechanical properties :
#
#
# Convention : Reuss Voigt Hill
#
# Bulk Modulus (GPa) = 32.26054 43.45337 37.85695
# Shear Modulus (GPa) = 22.55601 28.99243 25.77422
#
# Velocity S-wave (km/s) = 3.19660 3.62410 3.41704
# Velocity P-wave (km/s) = 5.31404 6.09896 5.71998
#
# Compressibility (1/GPa) = 0.03099762
#
# Stress axis : x y z
#
# Youngs Moduli (GPa) = 108.78573 135.26847 45.89021
#
# Poissons Ratio (x) = 0.24773 0.04014
# Poissons Ratio (y) = 0.19923 0.04512
# Poissons Ratio (z) = 0.09516 0.13299
#
# Static dielectric constant tensor:
#      x y z
#    x 1.817340 0.000000 0.000000 
#    y 0.000000 1.837560 0.000000 
#    z 0.000000 0.000000 1.876740 
# 
# From -- ./inp_files/8384.got.cif
#   From: 2010.05.17/outbox.cif.g08.bks.cpg/sg44_5_cif.got.tgz:8384.got - 2010.06.03 19:37:08.
