data_PCOD9374314
_publ_section_title
;
Structure prediction by ZEFSAII (Michael W. Deem and Ramdas Pophale) SiO2 
 PCOD9374314
Probable space group: I M M 2
;
_chemical_formula_sum "Si O2"
_cell_formula_units_Z 48
_cell_length_a 7.969220
_cell_length_b 10.282811
_cell_length_c 28.688182
_cell_angle_alpha 90.000000
_cell_angle_beta 90.000000
_cell_angle_gamma 90.000000
_cell_volume 2350.881277
_symmetry_space_group_name_H-M "I M M 2"
_symmetry_group_IT_number 44
_symmetry_cell_setting 'orthorhombic'
loop_
_space_group_symop_operation_xyz
x,y,z
-x,-y,z
-x,y,z
x,-y,z
1/2+x,1/2+y,1/2+z
1/2-x,1/2-y,1/2+z
1/2-x,1/2+y,1/2+z
1/2+x,1/2-y,1/2+z
loop_
_atom_site_type_symbol
_atom_site_label
_atom_site_fract_x
_atom_site_fract_y
_atom_site_fract_z
Si Si1 0.805725 0.243880 0.439640
Si Si2 0.795207 0.849755 0.620035
Si Si3 0.794177 0.652032 0.538666
Si Si4 0.804181 0.500000 0.878786
Si Si5 0.796360 0.233326 0.723798
Si Si6 0.191600 0.000000 0.890650
Si Si7 0.808156 0.500000 0.289668
Si Si8 0.205591 0.500000 0.772465
O O1 0.735326 0.281060 0.490519
O O2 0.783033 0.373188 0.409488
O O3 0.000000 0.213006 0.446945
O O4 0.734938 0.125542 0.409870
O O5 0.742354 0.745337 0.581139
O O6 0.743414 0.800222 0.671190
O O7 0.000000 0.851568 0.619322
O O8 0.741184 0.000000 0.612295
O O9 0.741855 0.500000 0.541843
O O10 0.000000 0.649331 0.537898
O O11 0.730126 0.500000 0.826133
O O12 0.000000 0.500000 0.870367
O O13 0.728601 0.124232 0.758207
O O14 0.743310 0.372197 0.744022
O O15 0.000000 0.228077 0.724468
O O16 0.194847 0.000000 0.835175
O O17 0.000000 0.000000 0.907590
O O18 0.000000 0.500000 0.305611
O O19 0.000000 0.500000 0.773027
#
# Coordination Sequence:
#
# PCOD9374314 Si02
#       8
#     8   8   8   4   8   4   4   4
#     4  11  22  39  61  88 120 157 203 254 305 361
#     4   9  17  29  52  86 118 150 192 239 292 354
#     4   9  18  32  53  85 121 152 190 245 300 352
#     4  11  23  39  56  83 120 163 207 247 302 364
#     4  10  19  36  59  87 119 152 193 245 298 349
#     4  12  24  40  63  88 118 155 195 252 313 371
#     4  12  24  38  59  86 115 155 202 244 295 364
#     4   9  20  35  56  83 113 147 188 235 288 347
#
# _framework density 20.417874000000001
#
# number of rings (size 3 to 8) (size 9 to 14) (size 15 to 20)
#    0.000    1.833    1.667    3.250    2.333    1.333 
#    0.000    1.250    0.000    3.000    0.000    0.000 
#    0.000    0.000    0.000    0.000    0.000    0.000 
#
# Total GULP energy -134025.702305 kJ/mol
# GULP energy per Si atom -5584.404263 kJ/mol
# Density = 2.037140 g / cm^3
# Si number density = 20.417874 Si / 1000 Ang^3
#
#
#
# Elastic Constant Matrix: (Units=GPa)
#
#
# Indices 1 2 3 4 5 6 
#
# 1 18.5958 -3.2404 -1.4649 0.0000 0.0000 0.0000
# 2 -3.2404 177.0920 75.9158 0.0000 0.0000 0.0000
# 3 -1.4649 75.9158 153.4411 0.0000 0.0000 0.0000
# 4 0.0000 0.0000 0.0000 12.0652 0.0000 0.0000
# 5 0.0000 0.0000 0.0000 0.0000 17.7925 0.0000
# 6 0.0000 0.0000 0.0000 0.0000 0.0000 -21.4732
#
#
#
# Elastic Compliance Matrix: (Units=1/GPa)
#
#
# Indices 1 2 3 4 5 6 
#
# 1 0.053948 0.000973 0.000034 0.000000 0.000000 0.000000
# 2 0.000973 0.007184 -0.003545 0.000000 0.000000 0.000000
# 3 0.000034 -0.003545 0.008271 0.000000 0.000000 0.000000
# 4 0.000000 0.000000 0.000000 0.082883 0.000000 0.000000
# 5 0.000000 0.000000 0.000000 0.000000 0.056203 0.000000
# 6 0.000000 0.000000 0.000000 0.000000 0.000000 -0.046570
#
#
# Mechanical properties :
#
#
# Convention : Reuss Voigt Hill
#
# Bulk Modulus (GPa) = 15.54578 54.61667 35.08123
# Shear Modulus (GPa) = 26.53365 20.20480 23.36922
#
# Velocity S-wave (km/s) = 3.60881 3.14915 3.38679
# Velocity P-wave (km/s) = 4.99950 6.32695 5.70199
#
# Compressibility (1/GPa) = 0.06432613
#
# Stress axis : x y z
#
# Youngs Moduli (GPa) = 18.53643 139.19168 120.89721
#
# Poissons Ratio (x) = -0.13538 -0.00409
# Poissons Ratio (y) = -0.01803 0.42861
# Poissons Ratio (z) = -0.00063 0.49346
#
# Static dielectric constant tensor:
#      x y z
#    x 1.735570 0.000000 0.000000 
#    y 0.000000 1.710880 0.000000 
#    z 0.000000 0.000000 1.716140 
# 
# From -- ./inp_files/27016.got.cif
#   From: 2010.05.17/outbox.cif.g08.bks.cpg/sg44_14_cif.got.tgz:27016.got - 2010.06.03 19:37:08.
