data_PCOD9374707
_publ_section_title
;
Structure prediction by ZEFSAII (Michael W. Deem and Ramdas Pophale) SiO2 
 PCOD9374707
Probable space group: I M M 2
;
_chemical_formula_sum "Si O2"
_cell_formula_units_Z 64
_cell_length_a 8.747335
_cell_length_b 19.909079
_cell_length_c 21.127322
_cell_angle_alpha 90.000000
_cell_angle_beta 90.000000
_cell_angle_gamma 90.000000
_cell_volume 3679.352357
_symmetry_space_group_name_H-M "I M M 2"
_symmetry_group_IT_number 44
_symmetry_cell_setting 'orthorhombic'
loop_
_space_group_symop_operation_xyz
x,y,z
-x,-y,z
-x,y,z
x,-y,z
1/2+x,1/2+y,1/2+z
1/2-x,1/2-y,1/2+z
1/2-x,1/2+y,1/2+z
1/2+x,1/2-y,1/2+z
loop_
_atom_site_type_symbol
_atom_site_label
_atom_site_fract_x
_atom_site_fract_y
_atom_site_fract_z
Si Si1 0.682034 0.076218 0.382830
Si Si2 0.683662 0.284398 0.689100
Si Si3 0.682062 0.706706 0.309816
Si Si4 0.818818 0.212576 0.427839
Si Si5 0.182800 0.709687 0.060394
Si Si6 0.317035 0.576694 0.114870
Si Si7 0.817874 0.924941 0.243163
Si Si8 0.318397 0.922772 0.755807
O O1 0.500000 0.084518 0.389810
O O2 0.767885 0.135169 0.418903
O O3 0.727769 0.082928 0.308916
O O4 0.723423 0.000000 0.402208
O O5 0.500000 0.275522 0.695542
O O6 0.762057 0.246035 0.747148
O O7 0.728414 0.252884 0.622050
O O8 0.718136 0.363305 0.697209
O O9 0.500000 0.705006 0.311352
O O10 0.744686 0.745285 0.370971
O O11 0.749665 0.632038 0.302709
O O12 0.758692 0.235029 0.496121
O O13 0.000000 0.217576 0.423701
O O14 0.236895 0.633687 0.073864
O O15 0.000000 0.711481 0.054367
O O16 0.500000 0.584591 0.112248
O O17 0.278579 0.500000 0.096122
O O18 0.260461 0.585582 0.187218
O O19 0.000000 0.920969 0.257729
O O20 0.787273 0.000000 0.218202
O O21 0.500000 0.911778 0.748205
O O22 0.293902 0.000000 0.775728
#
# Coordination Sequence:
#
# PCOD9374707 Si02
#       8
#     8   8   8   8   8   8   8   8
#     4  10  20  34  53  80 113 147 185 228 277 334
#     4  10  20  35  57  84 113 147 186 230 280 338
#     4  12  23  36  59  86 114 147 188 236 286 336
#     4  12  25  40  57  78 111 151 195 238 286 341
#     4  11  23  38  56  79 112 150 191 236 286 339
#     4  10  20  34  53  80 114 151 191 231 274 330
#     4   9  17  31  54  83 113 145 181 223 273 330
#     4  10  20  35  57  85 116 149 186 231 282 333
#
# _framework density 17.394366000000002
#
# number of rings (size 3 to 8) (size 9 to 14) (size 15 to 20)
#    0.000    1.500    2.500    3.750    0.000    3.250 
#    0.000    0.000    0.000    0.750    0.000    1.750 
#    0.000    0.000    0.000    0.000    0.000    0.000 
#
# Total GULP energy -178773.981317 kJ/mol
# GULP energy per Si atom -5586.686916 kJ/mol
# Density = 1.735478 g / cm^3
# Si number density = 17.394366 Si / 1000 Ang^3
#
#
#
# Elastic Constant Matrix: (Units=GPa)
#
#
# Indices 1 2 3 4 5 6 
#
# 1 62.3155 35.6998 32.6415 0.0000 0.0000 0.0000
# 2 35.6998 92.1316 48.4348 0.0000 0.0000 0.0000
# 3 32.6415 48.4348 95.8525 0.0000 0.0000 0.0000
# 4 0.0000 0.0000 0.0000 21.1805 0.0000 0.0000
# 5 0.0000 0.0000 0.0000 0.0000 27.5076 0.0000
# 6 0.0000 0.0000 0.0000 0.0000 0.0000 24.5810
#
#
#
# Elastic Compliance Matrix: (Units=1/GPa)
#
#
# Indices 1 2 3 4 5 6 
#
# 1 0.021859 -0.006205 -0.004308 0.000000 0.000000 0.000000
# 2 -0.006205 0.016542 -0.006246 0.000000 0.000000 0.000000
# 3 -0.004308 -0.006246 0.015056 0.000000 0.000000 0.000000
# 4 0.000000 0.000000 0.000000 0.047213 0.000000 0.000000
# 5 0.000000 0.000000 0.000000 0.000000 0.036354 0.000000
# 6 0.000000 0.000000 0.000000 0.000000 0.000000 0.040682
#
#
# Mechanical properties :
#
#
# Convention : Reuss Voigt Hill
#
# Bulk Modulus (GPa) = 50.15428 53.76130 51.95779
# Shear Modulus (GPa) = 22.94952 23.55539 23.25245
#
# Velocity S-wave (km/s) = 3.63625 3.68393 3.66017
# Velocity P-wave (km/s) = 6.82099 7.00497 6.91359
#
# Compressibility (1/GPa) = 0.01993848
#
# Stress axis : x y z
#
# Youngs Moduli (GPa) = 45.74779 60.45285 66.41963
#
# Poissons Ratio (x) = 0.37512 0.28616
# Poissons Ratio (y) = 0.28387 0.41483
# Poissons Ratio (z) = 0.19710 0.37756
#
# Static dielectric constant tensor:
#      x y z
#    x 1.579950 0.000000 0.000000 
#    y 0.000000 1.611300 0.000000 
#    z 0.000000 0.000000 1.568860 
# 
# From -- ./inp_files/20795.got.cif
#   From: 2010.05.17/outbox.cif.g08.bks.cpg/sg44_11_cif.got.tgz:20795.got - 2010.06.03 19:37:08.
