data_PCOD9374971
_publ_section_title
;
Structure prediction by ZEFSAII (Michael W. Deem and Ramdas Pophale) SiO2 
 PCOD9374971
Probable space group: I M M 2
;
_chemical_formula_sum "Si O2"
_cell_formula_units_Z 48
_cell_length_a 17.386871
_cell_length_b 7.725181
_cell_length_c 17.444753
_cell_angle_alpha 90.000000
_cell_angle_beta 90.000000
_cell_angle_gamma 90.000000
_cell_volume 2343.122100
_symmetry_space_group_name_H-M "I M M 2"
_symmetry_group_IT_number 44
_symmetry_cell_setting 'orthorhombic'
loop_
_space_group_symop_operation_xyz
x,y,z
-x,-y,z
-x,y,z
x,-y,z
1/2+x,1/2+y,1/2+z
1/2-x,1/2-y,1/2+z
1/2-x,1/2+y,1/2+z
1/2+x,1/2-y,1/2+z
loop_
_atom_site_type_symbol
_atom_site_label
_atom_site_fract_x
_atom_site_fract_y
_atom_site_fract_z
Si Si1 0.147978 0.288103 0.336130
Si Si2 0.000000 0.288322 0.241086
Si Si3 0.820238 0.794649 0.811087
Si Si4 0.153635 0.298933 0.981386
Si Si5 0.826940 0.702587 0.506504
Si Si6 0.411759 0.209355 0.157703
Si Si7 0.000000 0.712446 0.064154
O O1 0.146570 0.500000 0.336934
O O2 0.231378 0.236093 0.303609
O O3 0.145041 0.226380 0.424406
O O4 0.076336 0.230746 0.285660
O O5 0.000000 0.235651 0.152725
O O6 0.000000 0.500000 0.241784
O O7 0.853054 0.715739 0.889499
O O8 0.868814 0.757581 0.735811
O O9 0.818650 0.000000 0.824073
O O10 0.160450 0.500000 0.002364
O O11 0.234532 0.216307 0.005969
O O12 0.077567 0.228243 0.021983
O O13 0.847155 0.500000 0.505090
O O14 0.865961 0.775337 0.582847
O O15 0.500000 0.269462 0.157315
O O16 0.412593 0.000000 0.155013
O O17 0.000000 0.500000 0.060658
#
# Coordination Sequence:
#
# PCOD9374971 Si02
#       7
#     8   4   8   8   8   8   4
#     4   8  16  30  52  78 106 136 173 219 270 322
#     4   9  16  28  50  80 107 134 172 223 267 311
#     4  10  21  37  56  82 110 141 185 234 283 333
#     4  10  20  36  57  80 109 148 186 225 275 332
#     4   9  19  36  55  82 112 143 181 226 276 330
#     4  10  22  37  56  81 112 148 188 231 278 334
#     4   9  20  32  49  80 111 138 180 225 265 319
#
# _framework density 20.485486999999999
#
# number of rings (size 3 to 8) (size 9 to 14) (size 15 to 20)
#    0.000    2.667    0.000    2.000    4.667    1.000 
#    0.000    1.250    0.000    0.000    0.000    1.750 
#    0.000    0.000    0.000    0.000    0.000    0.000 
#
# Total GULP energy -133959.362708 kJ/mol
# GULP energy per Si atom -5581.640113 kJ/mol
# Density = 2.043886 g / cm^3
# Si number density = 20.485487 Si / 1000 Ang^3
#
#
#
# Elastic Constant Matrix: (Units=GPa)
#
#
# Indices 1 2 3 4 5 6 
#
# 1 154.7334 -7.9771 130.6499 0.0000 0.0000 0.0000
# 2 -7.9771 29.9918 -9.8314 0.0000 0.0000 0.0000
# 3 130.6499 -9.8314 165.4987 0.0000 0.0000 0.0000
# 4 0.0000 0.0000 0.0000 12.2353 0.0000 0.0000
# 5 0.0000 0.0000 0.0000 0.0000 33.8457 0.0000
# 6 0.0000 0.0000 0.0000 0.0000 0.0000 18.3739
#
#
#
# Elastic Compliance Matrix: (Units=1/GPa)
#
#
# Indices 1 2 3 4 5 6 
#
# 1 0.019383 0.000142 -0.015293 0.000000 0.000000 0.000000
# 2 0.000142 0.034006 0.001908 0.000000 0.000000 0.000000
# 3 -0.015293 0.001908 0.018228 0.000000 0.000000 0.000000
# 4 0.000000 0.000000 0.000000 0.081731 0.000000 0.000000
# 5 0.000000 0.000000 0.000000 0.000000 0.029546 0.000000
# 6 0.000000 0.000000 0.000000 0.000000 0.000000 0.054425
#
#
# Mechanical properties :
#
#
# Convention : Reuss Voigt Hill
#
# Bulk Modulus (GPa) = 22.15765 63.98963 43.07364
# Shear Modulus (GPa) = 17.93094 28.71646 23.32370
#
# Velocity S-wave (km/s) = 2.96176 3.74812 3.37790
# Velocity P-wave (km/s) = 4.74718 7.07358 6.02376
#
# Compressibility (1/GPa) = 0.04513114
#
# Stress axis : x y z
#
# Youngs Moduli (GPa) = 51.59265 29.40683 54.85982
#
# Poissons Ratio (x) = -0.00418 0.83896
# Poissons Ratio (y) = -0.00734 -0.10466
# Poissons Ratio (z) = 0.78900 -0.05610
#
# Static dielectric constant tensor:
#      x y z
#    x 1.703460 0.000000 0.000000 
#    y 0.000000 1.774840 0.000000 
#    z 0.000000 0.000000 1.699860 
# 
# From -- ./inp_files/16180.got.cif
#   From: 2010.05.17/outbox.cif.g08.bks.cpg/sg44_9_cif.got.tgz:16180.got - 2010.06.03 19:37:08.
