data_PCOD9374724
_publ_section_title
;
Structure prediction by ZEFSAII (Michael W. Deem and Ramdas Pophale) SiO2 
 PCOD9374724
Probable space group: I M M 2
;
_chemical_formula_sum "Si O2"
_cell_formula_units_Z 48
_cell_length_a 9.426938
_cell_length_b 7.842785
_cell_length_c 31.705085
_cell_angle_alpha 90.000000
_cell_angle_beta 90.000000
_cell_angle_gamma 90.000000
_cell_volume 2344.066251
_symmetry_space_group_name_H-M "I M M 2"
_symmetry_group_IT_number 44
_symmetry_cell_setting 'orthorhombic'
loop_
_space_group_symop_operation_xyz
x,y,z
-x,-y,z
-x,y,z
x,-y,z
1/2+x,1/2+y,1/2+z
1/2-x,1/2-y,1/2+z
1/2-x,1/2+y,1/2+z
1/2+x,1/2-y,1/2+z
loop_
_atom_site_type_symbol
_atom_site_label
_atom_site_fract_x
_atom_site_fract_y
_atom_site_fract_z
Si Si1 0.163305 0.791033 0.980520
Si Si2 0.839709 0.700734 0.819484
Si Si3 0.337371 0.705771 0.644281
Si Si4 0.162326 0.297255 0.238947
Si Si5 0.340005 0.797440 0.900048
Si Si6 0.337103 0.208650 0.063234
O O1 0.247186 0.730828 0.939089
O O2 0.000000 0.735585 0.980411
O O3 0.161908 0.000000 0.980165
O O4 0.245802 0.738673 0.022724
O O5 0.847941 0.500000 0.827332
O O6 0.766099 0.727396 0.774409
O O7 0.741447 0.774035 0.856248
O O8 0.000000 0.771607 0.820417
O O9 0.500000 0.765569 0.638263
O O10 0.339422 0.500000 0.642872
O O11 0.291776 0.757311 0.691213
O O12 0.237376 0.765408 0.606502
O O13 0.157719 0.500000 0.244153
O O14 0.000000 0.231171 0.243994
O O15 0.500000 0.726937 0.898644
O O16 0.351954 0.000000 0.907051
O O17 0.500000 0.263898 0.060242
O O18 0.337296 0.000000 0.063447
#
# Coordination Sequence:
#
# PCOD9374724 Si02
#       6
#     8   8   8   8   8   8
#     4   9  16  27  46  73 105 139 173 211 257 307
#     4  11  24  39  55  77 105 137 174 215 260 312
#     4   9  17  30  49  73 102 136 172 211 258 310
#     4  10  21  37  57  80 105 135 173 216 263 315
#     4  10  20  34  54  80 108 138 174 216 262 311
#     4   9  16  26  43  70 103 136 172 215 258 301
#
# _framework density 20.477236999999999
#
# number of rings (size 3 to 8) (size 9 to 14) (size 15 to 20)
#    0.000    2.333    0.000    3.000    0.000   10.000 
#    0.000    1.667    0.000    1.000    0.000    2.333 
#    0.000    0.000    0.000    0.000    0.000    0.000 
#
# Total GULP energy -134043.514049 kJ/mol
# GULP energy per Si atom -5585.146419 kJ/mol
# Density = 2.043063 g / cm^3
# Si number density = 20.477237 Si / 1000 Ang^3
#
#
#
# Elastic Constant Matrix: (Units=GPa)
#
#
# Indices 1 2 3 4 5 6 
#
# 1 192.4519 4.1010 121.9663 0.0000 0.0000 0.0000
# 2 4.1010 21.8532 -7.2335 0.0000 0.0000 0.0000
# 3 121.9663 -7.2335 157.9461 0.0000 0.0000 0.0000
# 4 0.0000 0.0000 0.0000 18.2012 0.0000 0.0000
# 5 0.0000 0.0000 0.0000 0.0000 41.9598 0.0000
# 6 0.0000 0.0000 0.0000 0.0000 0.0000 -36.4554
#
#
#
# Elastic Compliance Matrix: (Units=1/GPa)
#
#
# Indices 1 2 3 4 5 6 
#
# 1 0.010649 -0.004793 -0.008442 0.000000 0.000000 0.000000
# 2 -0.004793 0.048621 0.005928 0.000000 0.000000 0.000000
# 3 -0.008442 0.005928 0.013122 0.000000 0.000000 0.000000
# 4 0.000000 0.000000 0.000000 0.054941 0.000000 0.000000
# 5 0.000000 0.000000 0.000000 0.000000 0.023832 0.000000
# 6 0.000000 0.000000 0.000000 0.000000 0.000000 -0.027431
#
#
# Mechanical properties :
#
#
# Convention : Reuss Voigt Hill
#
# Bulk Modulus (GPa) = 17.30789 67.76874 42.53831
# Shear Modulus (GPa) = 31.72414 21.63561 26.67988
#
# Velocity S-wave (km/s) = 3.94031 3.25402 3.61349
# Velocity P-wave (km/s) = 5.40111 6.87639 6.18291
#
# Compressibility (1/GPa) = 0.05777713
#
# Stress axis : x y z
#
# Youngs Moduli (GPa) = 93.90952 20.56707 76.20837
#
# Poissons Ratio (x) = 0.09857 0.64338
# Poissons Ratio (y) = 0.45008 -0.45174
# Poissons Ratio (z) = 0.79281 -0.12192
#
# Static dielectric constant tensor:
#      x y z
#    x 1.722100 0.000000 0.000000 
#    y 0.000000 1.757650 0.000000 
#    z 0.000000 0.000000 1.683100 
# 
# From -- ./inp_files/26854.got.cif
#   From: 2010.05.17/outbox.cif.g08.bks.cpg/sg44_14_cif.got.tgz:26854.got - 2010.06.03 19:37:08.
