data_PCOD9374278
_publ_section_title
;
Structure prediction by ZEFSAII (Michael W. Deem and Ramdas Pophale) SiO2 
 PCOD9374278
Probable space group: I M M 2
;
_chemical_formula_sum "Si O2"
_cell_formula_units_Z 44
_cell_length_a 29.416399
_cell_length_b 7.176542
_cell_length_c 7.832599
_cell_angle_alpha 90.000000
_cell_angle_beta 90.000000
_cell_angle_gamma 90.000000
_cell_volume 1653.524489
_symmetry_space_group_name_H-M "I M M 2"
_symmetry_group_IT_number 44
_symmetry_cell_setting 'orthorhombic'
loop_
_space_group_symop_operation_xyz
x,y,z
-x,-y,z
-x,y,z
x,-y,z
1/2+x,1/2+y,1/2+z
1/2-x,1/2-y,1/2+z
1/2-x,1/2+y,1/2+z
1/2+x,1/2-y,1/2+z
loop_
_atom_site_type_symbol
_atom_site_label
_atom_site_fract_x
_atom_site_fract_y
_atom_site_fract_z
Si Si1 0.820563 0.788040 0.643420
Si Si2 0.500000 0.273843 0.057435
Si Si3 0.823016 0.500000 0.020712
Si Si4 0.397806 0.724001 0.555800
Si Si5 0.766842 0.292945 0.309259
Si Si6 0.000000 0.775251 0.952041
Si Si7 0.902671 0.226447 0.441578
O O1 0.796390 0.801096 0.454621
O O2 0.781241 0.698922 0.761050
O O3 0.868598 0.706567 0.586910
O O4 0.827349 0.000000 0.703100
O O5 0.500000 0.500000 0.050177
O O6 0.500000 0.222630 0.254452
O O7 0.546116 0.212162 0.970691
O O8 0.859733 0.336924 0.955645
O O9 0.793633 0.338988 0.133945
O O10 0.394727 0.500000 0.533961
O O11 0.450591 0.779100 0.524443
O O12 0.387905 0.778193 0.752432
O O13 0.757353 0.500000 0.381059
O O14 0.000000 0.000000 0.967692
O O15 0.902163 0.000000 0.448613
#
# Coordination Sequence:
#
# PCOD9374278 Si02
#       7
#     8   4   4   8   8   4   8
#     4  10  19  36  56  79 111 152 193 243 298 344
#     4   9  17  31  51  82 116 142 182 244 286 344
#     4  10  20  37  58  86 120 149 194 246 286 344
#     4  10  19  35  61  86 111 154 197 239 284 347
#     4   9  20  36  53  80 115 145 196 245 286 351
#     4   9  19  34  53  84 119 147 194 239 289 350
#     4   9  16  30  54  78 106 145 187 229 288 336
#
# _framework density 26.609824
#
# number of rings (size 3 to 8) (size 9 to 14) (size 15 to 20)
#    0.545    2.000    1.818    0.545    0.000    3.273 
#    3.273    0.000    0.000    2.182    0.000    0.000 
#    0.000    0.000    0.000    0.000    0.000    0.000 
#
# Total GULP energy -122501.788648 kJ/mol
# GULP energy per Si atom -5568.263120 kJ/mol
# Density = 2.654926 g / cm^3
# Si number density = 26.609824 Si / 1000 Ang^3
#
#
#
# Elastic Constant Matrix: (Units=GPa)
#
#
# Indices 1 2 3 4 5 6 
#
# 1 177.8796 -0.2606 9.2303 0.0000 0.0000 0.0000
# 2 -0.2606 154.0585 -30.8853 0.0000 0.0000 0.0000
# 3 9.2303 -30.8853 74.4680 0.0000 0.0000 0.0000
# 4 0.0000 0.0000 0.0000 -18.9608 0.0000 0.0000
# 5 0.0000 0.0000 0.0000 0.0000 51.8606 0.0000
# 6 0.0000 0.0000 0.0000 0.0000 0.0000 -8.2472
#
#
#
# Elastic Compliance Matrix: (Units=1/GPa)
#
#
# Indices 1 2 3 4 5 6 
#
# 1 0.005661 -0.000143 -0.000761 0.000000 0.000000 0.000000
# 2 -0.000143 0.007083 0.002956 0.000000 0.000000 0.000000
# 3 -0.000761 0.002956 0.014749 0.000000 0.000000 0.000000
# 4 0.000000 0.000000 0.000000 -0.052740 0.000000 0.000000
# 5 0.000000 0.000000 0.000000 0.000000 0.019282 0.000000
# 6 0.000000 0.000000 0.000000 0.000000 0.000000 -0.121253
#
#
# Mechanical properties :
#
#
# Convention : Reuss Voigt Hill
#
# Bulk Modulus (GPa) = 31.64945 40.28609 35.96777
# Shear Modulus (GPa) = -41.39464 33.48528 -3.95468
#
# Velocity S-wave (km/s) = -3.94841 3.55121 -1.22041
# Velocity P-wave (km/s) = 2.97772 5.65573 3.40003
#
# Compressibility (1/GPa) = 0.03159612
#
# Stress axis : x y z
#
# Youngs Moduli (GPa) = 176.64539 141.17686 67.80258
#
# Poissons Ratio (x) = 0.02019 0.05160
# Poissons Ratio (y) = 0.02526 -0.20039
# Poissons Ratio (z) = 0.13443 -0.41725
#
# Static dielectric constant tensor:
#      x y z
#    x 2.113030 0.000000 0.000000 
#    y 0.000000 2.479430 0.000000 
#    z 0.000000 0.000000 2.225040 
# 
# From -- ./inp_files/9944.got.cif
#   From: 2010.05.17/outbox.cif.g08.bks.cpg/sg44_5_cif.got.tgz:9944.got - 2010.06.03 19:37:08.
