data_PCOD9374866
_publ_section_title
;
Structure prediction by ZEFSAII (Michael W. Deem and Ramdas Pophale) SiO2 
 PCOD9374866
Probable space group: I M M 2
;
_chemical_formula_sum "Si O2"
_cell_formula_units_Z 56
_cell_length_a 8.881441
_cell_length_b 18.009269
_cell_length_c 18.179890
_cell_angle_alpha 90.000000
_cell_angle_beta 90.000000
_cell_angle_gamma 90.000000
_cell_volume 2907.841774
_symmetry_space_group_name_H-M "I M M 2"
_symmetry_group_IT_number 44
_symmetry_cell_setting 'orthorhombic'
loop_
_space_group_symop_operation_xyz
x,y,z
-x,-y,z
-x,y,z
x,-y,z
1/2+x,1/2+y,1/2+z
1/2-x,1/2-y,1/2+z
1/2-x,1/2+y,1/2+z
1/2+x,1/2-y,1/2+z
loop_
_atom_site_type_symbol
_atom_site_label
_atom_site_fract_x
_atom_site_fract_y
_atom_site_fract_z
Si Si1 0.167600 0.411909 0.325550
Si Si2 0.319105 0.682147 0.770498
Si Si3 0.176141 0.169616 0.704990
Si Si4 0.818536 0.413977 0.899436
Si Si5 0.816844 0.084361 0.131214
Si Si6 0.325445 0.590882 0.471124
Si Si7 0.818752 0.413856 0.071219
O O1 0.157401 0.500000 0.334201
O O2 0.285439 0.395846 0.261881
O O3 0.226311 0.381962 0.403489
O O4 0.000000 0.384006 0.306760
O O5 0.500000 0.685215 0.774858
O O6 0.254001 0.761121 0.745921
O O7 0.255078 0.644858 0.844351
O O8 0.273263 0.629533 0.702318
O O9 0.245997 0.144124 0.627419
O O10 0.000000 0.182794 0.697322
O O11 0.774889 0.500000 0.881782
O O12 0.000000 0.409708 0.893266
O O13 0.780431 0.400720 0.985412
O O14 0.000000 0.082727 0.128492
O O15 0.763109 0.000000 0.137671
O O16 0.770854 0.115669 0.051627
O O17 0.500000 0.612360 0.460210
O O18 0.323336 0.500000 0.473203
O O19 0.776668 0.500000 0.088657
O O20 0.000000 0.409317 0.078146
#
# Coordination Sequence:
#
# PCOD9374866 Si02
#       7
#     8   8   8   8   8   8   8
#     4  10  20  35  56  81 109 142 182 230 284 339
#     4  11  22  37  57  83 117 155 195 238 290 346
#     4  12  25  39  55  80 115 153 194 238 292 350
#     4   9  19  38  64  92 121 154 194 242 296 353
#     4   8  15  30  54  82 109 141 183 227 271 324
#     4   8  14  28  51  78 106 136 175 218 260 315
#     4   9  19  39  66  91 116 150 193 242 297 355
#
# _framework density 19.258268999999999
#
# number of rings (size 3 to 8) (size 9 to 14) (size 15 to 20)
#    0.000    2.429    0.000    4.714    0.000    4.286 
#    2.571    2.857    0.000    3.429    0.000    0.000 
#    0.000    0.000    0.000    0.000    0.000    0.000 
#
# Total GULP energy -156138.326495 kJ/mol
# GULP energy per Si atom -5576.368803 kJ/mol
# Density = 1.921444 g / cm^3
# Si number density = 19.258269 Si / 1000 Ang^3
#
#
#
# Elastic Constant Matrix: (Units=GPa)
#
#
# Indices 1 2 3 4 5 6 
#
# 1 56.3888 37.9131 44.4142 0.0000 0.0000 0.0000
# 2 37.9131 62.2967 54.0332 0.0000 0.0000 0.0000
# 3 44.4142 54.0332 125.0490 0.0000 0.0000 0.0000
# 4 0.0000 0.0000 0.0000 47.1839 0.0000 0.0000
# 5 0.0000 0.0000 0.0000 0.0000 31.9780 0.0000
# 6 0.0000 0.0000 0.0000 0.0000 0.0000 20.7748
#
#
#
# Elastic Compliance Matrix: (Units=1/GPa)
#
#
# Indices 1 2 3 4 5 6 
#
# 1 0.031631 -0.015204 -0.004665 0.000000 0.000000 0.000000
# 2 -0.015204 0.032983 -0.008852 0.000000 0.000000 0.000000
# 3 -0.004665 -0.008852 0.013478 0.000000 0.000000 0.000000
# 4 0.000000 0.000000 0.000000 0.021194 0.000000 0.000000
# 5 0.000000 0.000000 0.000000 0.000000 0.031272 0.000000
# 6 0.000000 0.000000 0.000000 0.000000 0.000000 0.048135
#
#
# Mechanical properties :
#
#
# Convention : Reuss Voigt Hill
#
# Bulk Modulus (GPa) = 48.42405 57.38394 52.90399
# Shear Modulus (GPa) = 20.57470 27.14559 23.86014
#
# Velocity S-wave (km/s) = 3.27212 3.75848 3.52370
# Velocity P-wave (km/s) = 6.28290 6.97829 6.63971
#
# Compressibility (1/GPa) = 0.02065090
#
# Stress axis : x y z
#
# Youngs Moduli (GPa) = 31.61487 30.31889 74.19256
#
# Poissons Ratio (x) = 0.46097 0.34609
# Poissons Ratio (y) = 0.48067 0.65672
# Poissons Ratio (z) = 0.14748 0.26837
#
# Static dielectric constant tensor:
#      x y z
#    x 1.659900 0.000000 0.000000 
#    y 0.000000 1.604370 0.000000 
#    z 0.000000 0.000000 1.679370 
# 
# From -- ./inp_files/20649.got.cif
#   From: 2010.05.17/outbox.cif.g08.bks.cpg/sg44_11_cif.got.tgz:20649.got - 2010.06.03 19:37:08.
