data_PCOD9374669
_publ_section_title
;
Structure prediction by ZEFSAII (Michael W. Deem and Ramdas Pophale) SiO2 
 PCOD9374669
Probable space group: I M M 2
;
_chemical_formula_sum "Si O2"
_cell_formula_units_Z 56
_cell_length_a 14.776841
_cell_length_b 7.813976
_cell_length_c 23.651201
_cell_angle_alpha 90.000000
_cell_angle_beta 90.000000
_cell_angle_gamma 90.000000
_cell_volume 2730.906759
_symmetry_space_group_name_H-M "I M M 2"
_symmetry_group_IT_number 44
_symmetry_cell_setting 'orthorhombic'
loop_
_space_group_symop_operation_xyz
x,y,z
-x,-y,z
-x,y,z
x,-y,z
1/2+x,1/2+y,1/2+z
1/2-x,1/2-y,1/2+z
1/2-x,1/2+y,1/2+z
1/2+x,1/2-y,1/2+z
loop_
_atom_site_type_symbol
_atom_site_label
_atom_site_fract_x
_atom_site_fract_y
_atom_site_fract_z
Si Si1 0.603332 0.794069 0.197480
Si Si2 0.597244 0.790235 0.549638
Si Si3 0.799505 0.294561 0.810485
Si Si4 0.702126 0.295954 0.081744
Si Si5 0.596527 0.794933 0.842663
Si Si6 0.359871 0.193470 0.428176
Si Si7 0.333132 0.200581 0.961435
O O1 0.500000 0.730084 0.196324
O O2 0.657891 0.729901 0.252361
O O3 0.655741 0.753599 0.140004
O O4 0.599518 0.000000 0.202121
O O5 0.500000 0.741668 0.575822
O O6 0.692840 0.733967 0.576528
O O7 0.596624 0.728922 0.484223
O O8 0.599971 0.000000 0.548547
O O9 0.810407 0.500000 0.812580
O O10 0.692055 0.262830 0.816743
O O11 0.853013 0.225902 0.865997
O O12 0.704190 0.500000 0.078026
O O13 0.646489 0.230585 0.026995
O O14 0.500000 0.728505 0.820031
O O15 0.600429 0.757979 0.910112
O O16 0.595986 0.000000 0.836409
O O17 0.255354 0.189716 0.447645
O O18 0.395104 0.000000 0.422320
O O19 0.309893 0.000000 0.954985
#
# Coordination Sequence:
#
# PCOD9374669 Si02
#       7
#     8   8   8   8   8   8   8
#     4  10  22  39  56  73  96 130 171 213 258 307
#     4   8  14  26  47  75 103 129 158 195 243 299
#     4   9  18  33  52  75 102 130 165 210 255 298
#     4  10  20  34  52  75 103 134 172 217 257 296
#     4   9  18  32  51  77 107 138 170 202 244 302
#     4   8  14  26  46  72 100 128 160 201 247 294
#     4   9  16  28  48  72 101 136 169 203 246 294
#
# _framework density 20.506011000000001
#
# number of rings (size 3 to 8) (size 9 to 14) (size 15 to 20)
#    0.000    3.000    0.000    1.714    0.000    2.857 
#    0.000    5.000    0.000   13.286    0.000   12.000 
#    0.000    0.000    0.000    0.000    0.000    0.000 
#
# Total GULP energy -155871.416023 kJ/mol
# GULP energy per Si atom -5566.836287 kJ/mol
# Density = 2.045934 g / cm^3
# Si number density = 20.506011 Si / 1000 Ang^3
#
#
#
# Elastic Constant Matrix: (Units=GPa)
#
#
# Indices 1 2 3 4 5 6 
#
# 1 145.9483 11.4692 70.8556 0.0000 0.0000 0.0000
# 2 11.4692 34.6136 5.5481 0.0000 0.0000 0.0000
# 3 70.8556 5.5481 149.6561 0.0000 0.0000 0.0000
# 4 0.0000 0.0000 0.0000 17.7133 0.0000 0.0000
# 5 0.0000 0.0000 0.0000 0.0000 14.1549 0.0000
# 6 0.0000 0.0000 0.0000 0.0000 0.0000 2.2483
#
#
#
# Elastic Compliance Matrix: (Units=1/GPa)
#
#
# Indices 1 2 3 4 5 6 
#
# 1 0.009080 -0.002334 -0.004213 0.000000 0.000000 0.000000
# 2 -0.002334 0.029663 0.000005 0.000000 0.000000 0.000000
# 3 -0.004213 0.000005 0.008676 0.000000 0.000000 0.000000
# 4 0.000000 0.000000 0.000000 0.056455 0.000000 0.000000
# 5 0.000000 0.000000 0.000000 0.000000 0.070647 0.000000
# 6 0.000000 0.000000 0.000000 0.000000 0.000000 0.444789
#
#
# Mechanical properties :
#
#
# Convention : Reuss Voigt Hill
#
# Bulk Modulus (GPa) = 29.12280 56.21820 42.67050
# Shear Modulus (GPa) = 7.76594 22.97963 15.37278
#
# Velocity S-wave (km/s) = 1.94817 3.35121 2.74098
# Velocity P-wave (km/s) = 4.39243 6.51530 5.55619
#
# Compressibility (1/GPa) = 0.03433736
#
# Stress axis : x y z
#
# Youngs Moduli (GPa) = 110.12883 33.71234 115.25680
#
# Poissons Ratio (x) = 0.07867 0.48553
# Poissons Ratio (y) = 0.25699 -0.00059
# Poissons Ratio (z) = 0.46393 -0.00017
#
# Static dielectric constant tensor:
#      x y z
#    x 1.757150 0.000000 0.000000 
#    y 0.000000 1.768430 0.000000 
#    z 0.000000 0.000000 1.746410 
# 
# From -- ./inp_files/23095.got.cif
#   From: 2010.05.17/outbox.cif.g08.bks.cpg/sg44_12_cif.got.tgz:23095.got - 2010.06.03 19:37:08.
