data_PCOD9374926
_publ_section_title
;
Structure prediction by ZEFSAII (Michael W. Deem and Ramdas Pophale) SiO2 
 PCOD9374926
Probable space group: I M M 2
;
_chemical_formula_sum "Si O2"
_cell_formula_units_Z 64
_cell_length_a 16.162487
_cell_length_b 7.833655
_cell_length_c 24.243293
_cell_angle_alpha 90.000000
_cell_angle_beta 90.000000
_cell_angle_gamma 90.000000
_cell_volume 3069.475985
_symmetry_space_group_name_H-M "I M M 2"
_symmetry_group_IT_number 44
_symmetry_cell_setting 'orthorhombic'
loop_
_space_group_symop_operation_xyz
x,y,z
-x,-y,z
-x,y,z
x,-y,z
1/2+x,1/2+y,1/2+z
1/2-x,1/2-y,1/2+z
1/2-x,1/2+y,1/2+z
1/2+x,1/2-y,1/2+z
loop_
_atom_site_type_symbol
_atom_site_label
_atom_site_fract_x
_atom_site_fract_y
_atom_site_fract_z
Si Si1 0.252936 0.796961 0.384330
Si Si2 0.909412 0.203586 0.075589
Si Si3 0.655501 0.206593 0.694656
Si Si4 0.909579 0.297505 0.572993
Si Si5 0.347198 0.295581 0.192010
Si Si6 0.907728 0.706423 0.313882
Si Si7 0.091709 0.294841 0.812751
Si Si8 0.749073 0.297191 0.511109
O O1 0.167220 0.759434 0.353137
O O2 0.331357 0.729149 0.349123
O O3 0.252022 0.726444 0.445948
O O4 0.261710 0.000000 0.388139
O O5 0.889612 0.231884 0.139831
O O6 0.000000 0.274873 0.062040
O O7 0.912504 0.000000 0.066022
O O8 0.833251 0.274706 0.040044
O O9 0.751392 0.262468 0.693515
O O10 0.613432 0.263442 0.751546
O O11 0.654342 0.000000 0.694180
O O12 0.913117 0.500000 0.561406
O O13 0.890634 0.275490 0.637656
O O14 0.832388 0.224928 0.538776
O O15 0.000000 0.224329 0.559911
O O16 0.347728 0.500000 0.187929
O O17 0.390395 0.245162 0.248907
O O18 0.908543 0.500000 0.313560
O O19 0.000000 0.764735 0.329942
O O20 0.090821 0.500000 0.818347
O O21 0.000000 0.230781 0.828279
O O22 0.749360 0.500000 0.523012
#
# Coordination Sequence:
#
# PCOD9374926 Si02
#       8
#     8   8   8   8   8   8   8   8
#     4  11  24  40  60  85 114 148 194 246 290 332
#     4  10  21  37  59  87 116 149 190 234 281 335
#     4  10  20  35  58  87 119 152 186 227 282 343
#     4  10  21  38  60  84 112 151 192 227 276 342
#     4  11  21  34  58  90 120 148 184 233 286 335
#     4  10  21  39  62  86 116 155 193 229 280 347
#     4  10  22  40  60  83 115 155 193 230 281 347
#     4  10  22  40  59  80 112 151 194 238 282 335
#
# _framework density 20.850465
#
# number of rings (size 3 to 8) (size 9 to 14) (size 15 to 20)
#    0.000    1.750    2.500    1.500    0.000    6.500 
#    0.000    1.250    0.000    0.000    0.000    0.000 
#    0.000    0.000    0.000    0.000    0.000    0.000 
#
# Total GULP energy -178808.356022 kJ/mol
# GULP energy per Si atom -5587.761126 kJ/mol
# Density = 2.080301 g / cm^3
# Si number density = 20.850465 Si / 1000 Ang^3
#
#
#
# Elastic Constant Matrix: (Units=GPa)
#
#
# Indices 1 2 3 4 5 6 
#
# 1 218.9858 8.4428 77.2118 0.0000 0.0000 0.0000
# 2 8.4428 21.3503 -18.2453 0.0000 0.0000 0.0000
# 3 77.2118 -18.2453 115.7261 0.0000 0.0000 0.0000
# 4 0.0000 0.0000 0.0000 28.5678 0.0000 0.0000
# 5 0.0000 0.0000 0.0000 0.0000 -19.1106 0.0000
# 6 0.0000 0.0000 0.0000 0.0000 0.0000 8.5214
#
#
#
# Elastic Compliance Matrix: (Units=1/GPa)
#
#
# Indices 1 2 3 4 5 6 
#
# 1 0.006922 -0.007725 -0.005836 0.000000 0.000000 0.000000
# 2 -0.007725 0.062752 0.015047 0.000000 0.000000 0.000000
# 3 -0.005836 0.015047 0.014907 0.000000 0.000000 0.000000
# 4 0.000000 0.000000 0.000000 0.035004 0.000000 0.000000
# 5 0.000000 0.000000 0.000000 0.000000 -0.052327 0.000000
# 6 0.000000 0.000000 0.000000 0.000000 0.000000 0.117352
#
#
# Mechanical properties :
#
#
# Convention : Reuss Voigt Hill
#
# Bulk Modulus (GPa) = 11.42159 54.54230 32.98194
# Shear Modulus (GPa) = 23.71668 22.83926 23.27797
#
# Velocity S-wave (km/s) = 3.37629 3.31325 3.34492
# Velocity P-wave (km/s) = 4.54850 6.39159 5.54713
#
# Compressibility (1/GPa) = 0.08755348
#
# Stress axis : x y z
#
# Youngs Moduli (GPa) = 144.46392 15.93587 67.08075
#
# Poissons Ratio (x) = 0.12310 0.39150
# Poissons Ratio (y) = 1.11596 -1.00939
# Poissons Ratio (z) = 0.84314 -0.23979
#
# Static dielectric constant tensor:
#      x y z
#    x 1.782800 0.000000 0.000000 
#    y 0.000000 1.756910 0.000000 
#    z 0.000000 0.000000 1.683540 
# 
# From -- ./inp_files/24341.got.cif
#   From: 2010.05.17/outbox.cif.g08.bks.cpg/sg44_13_cif.got.tgz:24341.got - 2010.06.03 19:37:08.
