data_PCOD9374289
_publ_section_title
;
Structure prediction by ZEFSAII (Michael W. Deem and Ramdas Pophale) SiO2 
 PCOD9374289
Probable space group: I M M 2
;
_chemical_formula_sum "Si O2"
_cell_formula_units_Z 64
_cell_length_a 20.602322
_cell_length_b 17.098540
_cell_length_c 8.526942
_cell_angle_alpha 90.000000
_cell_angle_beta 90.000000
_cell_angle_gamma 90.000000
_cell_volume 3003.782676
_symmetry_space_group_name_H-M "I M M 2"
_symmetry_group_IT_number 44
_symmetry_cell_setting 'orthorhombic'
loop_
_space_group_symop_operation_xyz
x,y,z
-x,-y,z
-x,y,z
x,-y,z
1/2+x,1/2+y,1/2+z
1/2-x,1/2-y,1/2+z
1/2-x,1/2+y,1/2+z
1/2+x,1/2-y,1/2+z
loop_
_atom_site_type_symbol
_atom_site_label
_atom_site_fract_x
_atom_site_fract_y
_atom_site_fract_z
Si Si1 0.378384 0.412487 0.460890
Si Si2 0.575647 0.809883 0.775349
Si Si3 0.685917 0.912724 0.656224
Si Si4 0.875032 0.131204 0.289804
Si Si5 0.575628 0.651249 0.134328
Si Si6 0.236915 0.802622 0.884579
Si Si7 0.636669 0.182442 0.090651
Si Si8 0.223955 0.378117 0.814906
O O1 0.351364 0.500000 0.448222
O O2 0.409617 0.405311 0.635246
O O3 0.415970 0.395802 0.297443
O O4 0.323363 0.346246 0.459969
O O5 0.500000 0.803823 0.736965
O O6 0.617442 0.867914 0.668645
O O7 0.609206 0.724011 0.773015
O O8 0.586913 0.840221 0.953028
O O9 0.737315 0.857980 0.746187
O O10 0.708261 0.916218 0.478726
O O11 0.683138 0.000000 0.724358
O O12 0.895207 0.114928 0.471915
O O13 0.799159 0.106654 0.274400
O O14 0.500000 0.662143 0.101852
O O15 0.607528 0.737062 0.159655
O O16 0.220788 0.715633 0.836360
O O17 0.296656 0.795364 0.002256
O O18 0.663359 0.111788 0.197171
#
# Coordination Sequence:
#
# PCOD9374289 Si02
#       8
#     8   8   8   8   8   8   8   8
#     4  12  26  40  60  93 130 172 215 264 334 402
#     4  10  22  41  64  90 120 168 226 270 315 387
#     4  11  24  38  60  96 133 170 209 265 335 397
#     4  11  22  41  68  95 128 164 217 278 333 392
#     4  11  24  41  63  90 124 166 220 275 317 378
#     4  11  19  38  63  91 123 164 207 263 322 397
#     4  10  19  35  64  90 121 153 204 268 329 378
#     4  12  19  36  66  95 128 159 201 266 341 392
#
# _framework density 21.306469
#
# number of rings (size 3 to 8) (size 9 to 14) (size 15 to 20)
#    0.000    1.000    6.250    4.125    0.000    2.500 
#    0.000    1.250    0.000    0.000    0.000    0.000 
#    0.000    0.000    0.000    0.000    0.000    0.000 
#
# Total GULP energy -178428.708197 kJ/mol
# GULP energy per Si atom -5575.897131 kJ/mol
# Density = 2.125797 g / cm^3
# Si number density = 21.306469 Si / 1000 Ang^3
#
#
#
# Elastic Constant Matrix: (Units=GPa)
#
#
# Indices 1 2 3 4 5 6 
#
# 1 50.9416 2.9847 21.3340 0.0000 0.0000 0.0000
# 2 2.9847 69.4622 20.4369 0.0000 0.0000 0.0000
# 3 21.3340 20.4369 129.4459 0.0000 0.0000 0.0000
# 4 0.0000 0.0000 0.0000 9.1548 0.0000 0.0000
# 5 0.0000 0.0000 0.0000 0.0000 13.8184 0.0000
# 6 0.0000 0.0000 0.0000 0.0000 0.0000 -2.7368
#
#
#
# Elastic Compliance Matrix: (Units=1/GPa)
#
#
# Indices 1 2 3 4 5 6 
#
# 1 0.021087 0.000122 -0.003495 0.000000 0.000000 0.000000
# 2 0.000122 0.015098 -0.002404 0.000000 0.000000 0.000000
# 3 -0.003495 -0.002404 0.008681 0.000000 0.000000 0.000000
# 4 0.000000 0.000000 0.000000 0.109233 0.000000 0.000000
# 5 0.000000 0.000000 0.000000 0.000000 0.072367 0.000000
# 6 0.000000 0.000000 0.000000 0.000000 0.000000 -0.365385
#
#
# Mechanical properties :
#
#
# Convention : Reuss Voigt Hill
#
# Bulk Modulus (GPa) = 30.01828 37.70677 33.86252
# Shear Modulus (GPa) = -43.00640 17.72020 -12.64310
#
# Velocity S-wave (km/s) = -4.49761 2.88702 -2.43861
# Velocity P-wave (km/s) = 3.58496 5.37112 2.82816
#
# Compressibility (1/GPa) = 0.03331304
#
# Stress axis : x y z
#
# Youngs Moduli (GPa) = 47.42336 66.23252 115.19810
#
# Poissons Ratio (x) = -0.00809 0.40257
# Poissons Ratio (y) = -0.00579 0.27692
# Poissons Ratio (z) = 0.16572 0.15921
#
# Static dielectric constant tensor:
#      x y z
#    x 1.761900 0.000000 0.000000 
#    y 0.000000 1.755960 0.000000 
#    z 0.000000 0.000000 1.961760 
# 
# From -- ./inp_files/9037.got.cif
#   From: 2010.05.17/outbox.cif.g08.bks.cpg/sg44_5_cif.got.tgz:9037.got - 2010.06.03 19:37:08.
