data_PCOD9374025
_publ_section_title
;
Structure prediction by ZEFSAII (Michael W. Deem and Ramdas Pophale) SiO2 
 PCOD9374025
Probable space group: I M M 2
;
_chemical_formula_sum "Si O2"
_cell_formula_units_Z 64
_cell_length_a 7.878186
_cell_length_b 20.528187
_cell_length_c 21.070959
_cell_angle_alpha 90.000000
_cell_angle_beta 90.000000
_cell_angle_gamma 90.000000
_cell_volume 3407.698219
_symmetry_space_group_name_H-M "I M M 2"
_symmetry_group_IT_number 44
_symmetry_cell_setting 'orthorhombic'
loop_
_space_group_symop_operation_xyz
x,y,z
-x,-y,z
-x,y,z
x,-y,z
1/2+x,1/2+y,1/2+z
1/2-x,1/2-y,1/2+z
1/2-x,1/2+y,1/2+z
1/2+x,1/2-y,1/2+z
loop_
_atom_site_type_symbol
_atom_site_label
_atom_site_fract_x
_atom_site_fract_y
_atom_site_fract_z
Si Si1 0.801110 0.210642 0.568280
Si Si2 0.295179 0.572132 0.256721
Si Si3 0.793407 0.071533 0.525882
Si Si4 0.800848 0.209563 0.947809
Si Si5 0.206941 0.071866 0.376655
Si Si6 0.299198 0.292944 0.827186
Si Si7 0.700719 0.788692 0.707637
Si Si8 0.293408 0.428449 0.405474
O O1 0.732943 0.136605 0.560499
O O2 0.722201 0.257720 0.515933
O O3 0.777394 0.231483 0.640520
O O4 0.000000 0.208394 0.552939
O O5 0.500000 0.572780 0.253226
O O6 0.238493 0.500000 0.235283
O O7 0.231845 0.634807 0.219789
O O8 0.248092 0.579218 0.331088
O O9 0.750208 0.078483 0.451276
O O10 0.000000 0.070209 0.530551
O O11 0.733776 0.000000 0.547826
O O12 0.720377 0.253285 0.892539
O O13 0.734950 0.135457 0.942662
O O14 0.000000 0.207756 0.932781
O O15 0.271063 0.134486 0.338621
O O16 0.000000 0.072525 0.374366
O O17 0.262893 0.000000 0.355174
O O18 0.500000 0.300023 0.815774
O O19 0.229619 0.251599 0.768048
O O20 0.500000 0.778462 0.703718
O O21 0.500000 0.430034 0.408101
O O22 0.233422 0.500000 0.426754
#
# Coordination Sequence:
#
# PCOD9374025 Si02
#       8
#     8   8   8   8   8   8   8   8
#     4  11  22  36  53  72 103 142 180 214 257 315
#     4   9  17  32  53  75 102 140 182 213 249 313
#     4   8  14  26  47  73  96 124 167 210 241 285
#     4  11  20  32  55  81 105 132 170 218 263 306
#     4   8  13  25  49  77  99 122 161 209 250 294
#     4  10  19  33  53  77 104 134 168 211 260 310
#     4  11  23  35  49  74 109 140 174 221 268 307
#     4   8  15  29  51  78 104 131 168 213 256 305
#
# _framework density 18.781006000000001
#
# number of rings (size 3 to 8) (size 9 to 14) (size 15 to 20)
#    0.000    2.500    2.500    2.625    0.000    1.250 
#    0.000    1.250    0.000    4.500    0.000    3.500 
#    0.000    0.000    0.000    0.000    0.000    0.000 
#
# Total GULP energy -178451.006366 kJ/mol
# GULP energy per Si atom -5576.593949 kJ/mol
# Density = 1.873826 g / cm^3
# Si number density = 18.781006 Si / 1000 Ang^3
#
#
#
# Elastic Constant Matrix: (Units=GPa)
#
#
# Indices 1 2 3 4 5 6 
#
# 1 17.1860 -0.3129 -9.7256 0.0000 0.0000 0.0000
# 2 -0.3129 140.9693 57.0669 0.0000 0.0000 0.0000
# 3 -9.7256 57.0669 79.6729 0.0000 0.0000 0.0000
# 4 0.0000 0.0000 0.0000 17.4705 0.0000 0.0000
# 5 0.0000 0.0000 0.0000 0.0000 18.0374 0.0000
# 6 0.0000 0.0000 0.0000 0.0000 0.0000 9.6677
#
#
#
# Elastic Compliance Matrix: (Units=1/GPa)
#
#
# Indices 1 2 3 4 5 6 
#
# 1 0.064282 -0.004273 0.010907 0.000000 0.000000 0.000000
# 2 -0.004273 0.010275 -0.007881 0.000000 0.000000 0.000000
# 3 0.010907 -0.007881 0.019528 0.000000 0.000000 0.000000
# 4 0.000000 0.000000 0.000000 0.057239 0.000000 0.000000
# 5 0.000000 0.000000 0.000000 0.000000 0.055440 0.000000
# 6 0.000000 0.000000 0.000000 0.000000 0.000000 0.103438
#
#
# Mechanical properties :
#
#
# Convention : Reuss Voigt Hill
#
# Bulk Modulus (GPa) = 10.91812 36.87610 23.89711
# Shear Modulus (GPa) = 14.56774 21.75509 18.16142
#
# Velocity S-wave (km/s) = 2.78809 3.40716 3.11305
# Velocity P-wave (km/s) = 4.02376 5.92922 5.06687
#
# Compressibility (1/GPa) = 0.09159082
#
# Stress axis : x y z
#
# Youngs Moduli (GPa) = 15.55655 97.32756 51.20975
#
# Poissons Ratio (x) = 0.41585 -0.55855
# Poissons Ratio (y) = 0.06647 0.40358
# Poissons Ratio (z) = -0.16968 0.76703
#
# Static dielectric constant tensor:
#      x y z
#    x 1.695570 0.000000 0.000000 
#    y 0.000000 1.693760 0.000000 
#    z 0.000000 0.000000 1.624160 
# 
# From -- ./inp_files/23429.got.cif
#   From: 2010.05.17/outbox.cif.g08.bks.cpg/sg44_12_cif.got.tgz:23429.got - 2010.06.03 19:37:08.
