data_PCOD9374066
_publ_section_title
;
Structure prediction by ZEFSAII (Michael W. Deem and Ramdas Pophale) SiO2 
 PCOD9374066
Probable space group: I M M 2
;
_chemical_formula_sum "Si O2"
_cell_formula_units_Z 48
_cell_length_a 30.728930
_cell_length_b 8.777654
_cell_length_c 10.293780
_cell_angle_alpha 90.000000
_cell_angle_beta 90.000000
_cell_angle_gamma 90.000000
_cell_volume 2776.519820
_symmetry_space_group_name_H-M "I M M 2"
_symmetry_group_IT_number 44
_symmetry_cell_setting 'orthorhombic'
loop_
_space_group_symop_operation_xyz
x,y,z
-x,-y,z
-x,y,z
x,-y,z
1/2+x,1/2+y,1/2+z
1/2-x,1/2-y,1/2+z
1/2-x,1/2+y,1/2+z
1/2+x,1/2-y,1/2+z
loop_
_atom_site_type_symbol
_atom_site_label
_atom_site_fract_x
_atom_site_fract_y
_atom_site_fract_z
Si Si1 0.450531 0.314532 0.408630
Si Si2 0.282912 0.817352 0.899037
Si Si3 0.119863 0.183078 0.697106
Si Si4 0.785155 0.317948 0.698562
Si Si5 0.883484 0.317938 0.414187
Si Si6 0.550750 0.683361 0.706257
O O1 0.500000 0.265263 0.378310
O O2 0.450835 0.500000 0.407385
O O3 0.415121 0.264480 0.304082
O O4 0.440101 0.270143 0.556975
O O5 0.250962 0.736974 0.799091
O O6 0.333643 0.778039 0.876561
O O7 0.278221 0.000000 0.885851
O O8 0.273365 0.776613 0.049423
O O9 0.168062 0.243949 0.727914
O O10 0.107823 0.243638 0.554327
O O11 0.120541 0.000000 0.695416
O O12 0.789815 0.500000 0.702745
O O13 0.885410 0.500000 0.427590
O O14 0.917174 0.260621 0.307427
O O15 0.500000 0.718827 0.732825
O O16 0.555462 0.500000 0.714454
#
# Coordination Sequence:
#
# PCOD9374066 Si02
#       6
#     8   8   8   8   8   8
#     4   8  16  32  53  77 103 131 169 215 255 298
#     4   9  20  37  53  73 102 135 171 209 253 308
#     4  10  19  33  55  79 104 136 172 211 257 308
#     4  10  21  36  54  77 105 135 170 214 259 305
#     4  10  21  36  52  75 108 139 171 214 259 305
#     4   9  18  34  55  77 102 135 175 215 257 309
#
# _framework density 17.28783
#
# number of rings (size 3 to 8) (size 9 to 14) (size 15 to 20)
#    0.000    2.667    0.000    3.500    0.000    6.333 
#    0.000    8.333    0.000    3.500    0.000    0.000 
#    0.000    0.000    0.000    0.000    0.000    0.000 
#
# Total GULP energy -133868.550089 kJ/mol
# GULP energy per Si atom -5577.856254 kJ/mol
# Density = 1.724848 g / cm^3
# Si number density = 17.287830 Si / 1000 Ang^3
#
#
#
# Elastic Constant Matrix: (Units=GPa)
#
#
# Indices 1 2 3 4 5 6 
#
# 1 135.3153 54.0278 131.3971 0.0000 0.0000 0.0000
# 2 54.0278 42.0566 53.8920 0.0000 0.0000 0.0000
# 3 131.3971 53.8920 148.8682 0.0000 0.0000 0.0000
# 4 0.0000 0.0000 0.0000 21.4957 0.0000 0.0000
# 5 0.0000 0.0000 0.0000 0.0000 42.5461 0.0000
# 6 0.0000 0.0000 0.0000 0.0000 0.0000 26.9950
#
#
#
# Elastic Compliance Matrix: (Units=1/GPa)
#
#
# Indices 1 2 3 4 5 6 
#
# 1 0.057183 -0.016385 -0.044541 0.000000 0.000000 0.000000
# 2 -0.016385 0.049046 -0.003293 0.000000 0.000000 0.000000
# 3 -0.044541 -0.003293 0.047223 0.000000 0.000000 0.000000
# 4 0.000000 0.000000 0.000000 0.046521 0.000000 0.000000
# 5 0.000000 0.000000 0.000000 0.000000 0.023504 0.000000
# 6 0.000000 0.000000 0.000000 0.000000 0.000000 0.037044
#
#
# Mechanical properties :
#
#
# Convention : Reuss Voigt Hill
#
# Bulk Modulus (GPa) = 39.97654 89.43043 64.70348
# Shear Modulus (GPa) = 12.58505 24.00225 18.29365
#
# Velocity S-wave (km/s) = 2.70102 3.73015 3.25650
# Velocity P-wave (km/s) = 5.73600 8.39015 7.18666
#
# Compressibility (1/GPa) = 0.02501467
#
# Stress axis : x y z
#
# Youngs Moduli (GPa) = 17.48771 20.38886 21.17617
#
# Poissons Ratio (x) = 0.33407 0.94320
# Poissons Ratio (y) = 0.28653 0.06974
# Poissons Ratio (z) = 0.77891 0.06715
#
# Static dielectric constant tensor:
#      x y z
#    x 1.566830 0.000000 0.000000 
#    y 0.000000 1.580340 0.000000 
#    z 0.000000 0.000000 1.568380 
# 
# From -- ./inp_files/4875.got.cif
#   From: 2010.05.17/outbox.cif.g08.bks.cpg/sg44_3_cif.got.tgz:4875.got - 2010.06.03 19:37:08.
