data_PCOD9374203
_publ_section_title
;
Structure prediction by ZEFSAII (Michael W. Deem and Ramdas Pophale) SiO2 
 PCOD9374203
Probable space group: I M M 2
;
_chemical_formula_sum "Si O2"
_cell_formula_units_Z 64
_cell_length_a 22.761294
_cell_length_b 15.829369
_cell_length_c 9.116186
_cell_angle_alpha 90.000000
_cell_angle_beta 90.000000
_cell_angle_gamma 90.000000
_cell_volume 3284.533753
_symmetry_space_group_name_H-M "I M M 2"
_symmetry_group_IT_number 44
_symmetry_cell_setting 'orthorhombic'
loop_
_space_group_symop_operation_xyz
x,y,z
-x,-y,z
-x,y,z
x,-y,z
1/2+x,1/2+y,1/2+z
1/2-x,1/2-y,1/2+z
1/2-x,1/2+y,1/2+z
1/2+x,1/2-y,1/2+z
loop_
_atom_site_type_symbol
_atom_site_label
_atom_site_fract_x
_atom_site_fract_y
_atom_site_fract_z
Si Si1 0.431963 0.734184 0.583950
Si Si2 0.237104 0.697456 0.811144
Si Si3 0.264224 0.858521 0.645222
Si Si4 0.633547 0.407383 0.090707
Si Si5 0.848267 0.902216 0.241753
Si Si6 0.065919 0.594165 0.541091
Si Si7 0.389799 0.093142 0.728698
Si Si8 0.895861 0.261851 0.748441
O O1 0.500000 0.710157 0.605609
O O2 0.388339 0.663678 0.652282
O O3 0.420195 0.825461 0.657639
O O4 0.417868 0.746063 0.412367
O O5 0.265079 0.786840 0.769051
O O6 0.280115 0.627645 0.740854
O O7 0.171178 0.703910 0.752186
O O8 0.233935 0.684014 0.984751
O O9 0.201439 0.904296 0.645851
O O10 0.323613 0.908933 0.668005
O O11 0.608853 0.500000 0.126807
O O12 0.602949 0.327010 0.162981
O O13 0.634480 0.397716 0.914398
O O14 0.854283 0.000000 0.194403
O O15 0.075573 0.500000 0.603462
O O16 0.108959 0.606511 0.404085
O O17 0.070291 0.666151 0.661206
O O18 0.000000 0.596179 0.477463
O O19 0.416750 0.000000 0.701165
#
# Coordination Sequence:
#
# PCOD9374203 Si02
#       8
#     8   8   8   8   8   8   8   8
#     4  12  25  42  62  90 127 167 211 261 313 367
#     4  10  19  35  60  90 126 156 198 250 312 371
#     4  10  19  34  59  91 125 158 194 243 306 378
#     4   9  20  37  61  90 123 160 198 248 308 370
#     4  10  21  40  64  91 123 164 211 260 311 370
#     4  10  23  42  61  85 119 161 210 257 304 370
#     4  11  22  39  63  88 119 157 204 253 303 367
#     4  11  22  38  64  90 124 163 203 257 317 377
#
# _framework density 19.485261999999999
#
# number of rings (size 3 to 8) (size 9 to 14) (size 15 to 20)
#    0.000    1.625    2.500    1.875    3.500    3.000 
#    0.000    0.625    0.000    2.625    0.000    0.000 
#    0.000    0.000    0.000    0.000    0.000    0.000 
#
# Total GULP energy -178566.806235 kJ/mol
# GULP energy per Si atom -5580.212695 kJ/mol
# Density = 1.944091 g / cm^3
# Si number density = 19.485262 Si / 1000 Ang^3
#
#
#
# Elastic Constant Matrix: (Units=GPa)
#
#
# Indices 1 2 3 4 5 6 
#
# 1 68.3474 31.5844 24.5447 0.0000 0.0000 0.0000
# 2 31.5844 152.5689 72.9376 0.0000 0.0000 0.0000
# 3 24.5447 72.9376 78.4858 0.0000 0.0000 0.0000
# 4 0.0000 0.0000 0.0000 15.8225 0.0000 0.0000
# 5 0.0000 0.0000 0.0000 0.0000 16.8833 0.0000
# 6 0.0000 0.0000 0.0000 0.0000 0.0000 19.7944
#
#
#
# Elastic Compliance Matrix: (Units=1/GPa)
#
#
# Indices 1 2 3 4 5 6 
#
# 1 0.016733 -0.001732 -0.003623 0.000000 0.000000 0.000000
# 2 -0.001732 0.011973 -0.010585 0.000000 0.000000 0.000000
# 3 -0.003623 -0.010585 0.023711 0.000000 0.000000 0.000000
# 4 0.000000 0.000000 0.000000 0.063201 0.000000 0.000000
# 5 0.000000 0.000000 0.000000 0.000000 0.059230 0.000000
# 6 0.000000 0.000000 0.000000 0.000000 0.000000 0.050519
#
#
# Mechanical properties :
#
#
# Convention : Reuss Voigt Hill
#
# Bulk Modulus (GPa) = 48.69433 61.94838 55.32135
# Shear Modulus (GPa) = 18.93259 21.85573 20.39416
#
# Velocity S-wave (km/s) = 3.12049 3.35274 3.23870
# Velocity P-wave (km/s) = 6.16667 6.84466 6.51449
#
# Compressibility (1/GPa) = 0.02053627
#
# Stress axis : x y z
#
# Youngs Moduli (GPa) = 59.76344 83.51827 42.17363
#
# Poissons Ratio (x) = 0.14463 0.15282
# Poissons Ratio (y) = 0.10349 0.44643
# Poissons Ratio (z) = 0.21655 0.88408
#
# Static dielectric constant tensor:
#      x y z
#    x 1.698810 0.000000 0.000000 
#    y 0.000000 1.688250 0.000000 
#    z 0.000000 0.000000 1.652810 
# 
# From -- ./inp_files/9450.got.cif
#   From: 2010.05.17/outbox.cif.g08.bks.cpg/sg44_5_cif.got.tgz:9450.got - 2010.06.03 19:37:08.
