data_PCOD9374021
_publ_section_title
;
Structure prediction by ZEFSAII (Michael W. Deem and Ramdas Pophale) SiO2 
 PCOD9374021
Probable space group: I M M 2
;
_chemical_formula_sum "Si O2"
_cell_formula_units_Z 40
_cell_length_a 26.411051
_cell_length_b 8.656166
_cell_length_c 9.946852
_cell_angle_alpha 90.000000
_cell_angle_beta 90.000000
_cell_angle_gamma 90.000000
_cell_volume 2274.033804
_symmetry_space_group_name_H-M "I M M 2"
_symmetry_group_IT_number 44
_symmetry_cell_setting 'orthorhombic'
loop_
_space_group_symop_operation_xyz
x,y,z
-x,-y,z
-x,y,z
x,-y,z
1/2+x,1/2+y,1/2+z
1/2-x,1/2-y,1/2+z
1/2-x,1/2+y,1/2+z
1/2+x,1/2-y,1/2+z
loop_
_atom_site_type_symbol
_atom_site_label
_atom_site_fract_x
_atom_site_fract_y
_atom_site_fract_z
Si Si1 0.057732 0.313818 0.646980
Si Si2 0.358350 0.185229 0.361646
Si Si3 0.864818 0.185945 0.439004
Si Si4 0.666664 0.685193 0.643935
Si Si5 0.220365 0.185215 0.654111
O O1 0.057264 0.500000 0.643475
O O2 0.092486 0.268295 0.774355
O O3 0.087021 0.254164 0.515755
O O4 0.000000 0.258751 0.655547
O O5 0.359543 0.242899 0.513566
O O6 0.310132 0.258001 0.285103
O O7 0.353623 0.000000 0.358101
O O8 0.857859 0.235262 0.285414
O O9 0.815299 0.228764 0.527364
O O10 0.868135 0.000000 0.442465
O O11 0.664571 0.500000 0.636300
O O12 0.725023 0.738323 0.644701
O O13 0.225552 0.000000 0.656414
#
# Coordination Sequence:
#
# PCOD9374021 Si02
#       5
#     8   8   8   8   8
#     4   9  19  37  59  78  96 125 169 217 261 308
#     4  10  20  34  52  76 106 138 173 211 254 304
#     4   9  20  35  51  75 105 135 169 210 253 302
#     4  11  21  33  50  76 110 141 172 210 252 301
#     4  10  19  33  53  76 104 140 178 211 252 302
#
# _framework density 17.589887000000001
#
# number of rings (size 3 to 8) (size 9 to 14) (size 15 to 20)
#    0.000    2.200    0.000    3.000    0.000    5.200 
#    0.000    1.000    0.000    3.600    0.000    0.000 
#    0.000    0.000    0.000    0.000    0.000    0.000 
#
# Total GULP energy -111661.141087 kJ/mol
# GULP energy per Si atom -5583.057054 kJ/mol
# Density = 1.754985 g / cm^3
# Si number density = 17.589887 Si / 1000 Ang^3
#
#
#
# Elastic Constant Matrix: (Units=GPa)
#
#
# Indices 1 2 3 4 5 6 
#
# 1 119.0822 11.8471 60.0619 0.0000 0.0000 0.0000
# 2 11.8471 16.6839 19.3619 0.0000 0.0000 0.0000
# 3 60.0619 19.3619 159.0861 0.0000 0.0000 0.0000
# 4 0.0000 0.0000 0.0000 29.5707 0.0000 0.0000
# 5 0.0000 0.0000 0.0000 0.0000 3.3970 0.0000
# 6 0.0000 0.0000 0.0000 0.0000 0.0000 24.0511
#
#
#
# Elastic Compliance Matrix: (Units=1/GPa)
#
#
# Indices 1 2 3 4 5 6 
#
# 1 0.010530 -0.003334 -0.003570 0.000000 0.000000 0.000000
# 2 -0.003334 0.070852 -0.007364 0.000000 0.000000 0.000000
# 3 -0.003570 -0.007364 0.008530 0.000000 0.000000 0.000000
# 4 0.000000 0.000000 0.000000 0.033817 0.000000 0.000000
# 5 0.000000 0.000000 0.000000 0.000000 0.294375 0.000000
# 6 0.000000 0.000000 0.000000 0.000000 0.000000 0.041578
#
#
# Mechanical properties :
#
#
# Convention : Reuss Voigt Hill
#
# Bulk Modulus (GPa) = 16.29326 53.04377 34.66851
# Shear Modulus (GPa) = 9.82942 24.97586 17.40264
#
# Velocity S-wave (km/s) = 2.36648 3.77224 3.14881
# Velocity P-wave (km/s) = 4.09267 7.01387 5.74214
#
# Compressibility (1/GPa) = 0.06137509
#
# Stress axis : x y z
#
# Youngs Moduli (GPa) = 94.96949 14.11387 117.23521
#
# Poissons Ratio (x) = 0.04706 0.41848
# Poissons Ratio (y) = 0.31668 0.86335
# Poissons Ratio (z) = 0.33900 0.10394
#
# Static dielectric constant tensor:
#      x y z
#    x 1.574880 0.000000 0.000000 
#    y 0.000000 1.592070 0.000000 
#    z 0.000000 0.000000 1.599880 
# 
# From -- ./inp_files/4422.got.cif
#   From: 2010.05.17/outbox.cif.g08.bks.cpg/sg44_3_cif.got.tgz:4422.got - 2010.06.03 19:37:08.
