data_PCOD9374561
_publ_section_title
;
Structure prediction by ZEFSAII (Michael W. Deem and Ramdas Pophale) SiO2 
 PCOD9374561
Probable space group: I M M 2
;
_chemical_formula_sum "Si O2"
_cell_formula_units_Z 56
_cell_length_a 20.060666
_cell_length_b 8.911930
_cell_length_c 15.863404
_cell_angle_alpha 90.000000
_cell_angle_beta 90.000000
_cell_angle_gamma 90.000000
_cell_volume 2836.047488
_symmetry_space_group_name_H-M "I M M 2"
_symmetry_group_IT_number 44
_symmetry_cell_setting 'orthorhombic'
loop_
_space_group_symop_operation_xyz
x,y,z
-x,-y,z
-x,y,z
x,-y,z
1/2+x,1/2+y,1/2+z
1/2-x,1/2-y,1/2+z
1/2-x,1/2+y,1/2+z
1/2+x,1/2-y,1/2+z
loop_
_atom_site_type_symbol
_atom_site_label
_atom_site_fract_x
_atom_site_fract_y
_atom_site_fract_z
Si Si1 0.253066 0.673656 0.242210
Si Si2 0.422299 0.319577 0.483458
Si Si3 0.420192 0.832508 0.986121
Si Si4 0.790306 0.680940 0.916258
Si Si5 0.923746 0.837371 0.328350
Si Si6 0.895060 0.672633 0.164758
Si Si7 0.806341 0.822017 0.571006
O O1 0.270705 0.500000 0.261770
O O2 0.257655 0.765580 0.328453
O O3 0.181189 0.671808 0.196579
O O4 0.297024 0.738594 0.165492
O O5 0.500000 0.288691 0.460061
O O6 0.415240 0.500000 0.490243
O O7 0.363979 0.253300 0.424408
O O8 0.407657 0.240432 0.573284
O O9 0.500000 0.827913 0.995934
O O10 0.380349 0.714377 0.040848
O O11 0.397650 0.000000 0.006642
O O12 0.399077 0.791915 0.890290
O O13 0.794919 0.500000 0.918543
O O14 0.745520 0.729637 0.997865
O O15 0.926165 0.781717 0.233706
O O16 0.000000 0.855340 0.355731
O O17 0.889824 0.000000 0.337704
O O18 0.918667 0.500000 0.168201
O O19 0.795722 0.000000 0.577226
#
# Coordination Sequence:
#
# PCOD9374561 Si02
#       7
#     8   8   8   8   8   8   8
#     4  10  22  40  60  87 121 157 200 251 307 373
#     4  11  24  41  62  89 124 168 214 260 316 381
#     4  10  21  36  55  83 117 153 197 248 303 361
#     4  11  23  41  64  93 124 161 209 261 313 371
#     4  10  20  33  50  77 114 154 194 234 287 358
#     4  11  21  36  58  87 120 155 199 252 309 366
#     4  10  21  40  62  86 120 157 199 248 304 371
#
# _framework density 19.745791000000001
#
# number of rings (size 3 to 8) (size 9 to 14) (size 15 to 20)
#    0.000    1.571    1.429    3.429    0.000    9.714 
#    0.000    0.714    0.000    0.857    0.000    0.000 
#    0.000    0.000    0.000    0.000    0.000    0.000 
#
# Total GULP energy -156129.228760 kJ/mol
# GULP energy per Si atom -5576.043884 kJ/mol
# Density = 1.970085 g / cm^3
# Si number density = 19.745791 Si / 1000 Ang^3
#
#
#
# Elastic Constant Matrix: (Units=GPa)
#
#
# Indices 1 2 3 4 5 6 
#
# 1 71.9713 20.1930 15.1224 0.0000 0.0000 0.0000
# 2 20.1930 63.1214 18.2116 0.0000 0.0000 0.0000
# 3 15.1224 18.2116 70.0792 0.0000 0.0000 0.0000
# 4 0.0000 0.0000 0.0000 31.0104 0.0000 0.0000
# 5 0.0000 0.0000 0.0000 0.0000 30.7813 0.0000
# 6 0.0000 0.0000 0.0000 0.0000 0.0000 24.8990
#
#
#
# Elastic Compliance Matrix: (Units=1/GPa)
#
#
# Indices 1 2 3 4 5 6 
#
# 1 0.015582 -0.004340 -0.002235 0.000000 0.000000 0.000000
# 2 -0.004340 0.018335 -0.003828 0.000000 0.000000 0.000000
# 3 -0.002235 -0.003828 0.015747 0.000000 0.000000 0.000000
# 4 0.000000 0.000000 0.000000 0.032247 0.000000 0.000000
# 5 0.000000 0.000000 0.000000 0.000000 0.032487 0.000000
# 6 0.000000 0.000000 0.000000 0.000000 0.000000 0.040162
#
#
# Mechanical properties :
#
#
# Convention : Reuss Voigt Hill
#
# Bulk Modulus (GPa) = 34.65243 34.69177 34.67210
# Shear Modulus (GPa) = 27.02917 27.44781 27.23849
#
# Velocity S-wave (km/s) = 3.70382 3.73239 3.71814
# Velocity P-wave (km/s) = 5.98986 6.01512 6.00250
#
# Compressibility (1/GPa) = 0.02885800
#
# Stress axis : x y z
#
# Youngs Moduli (GPa) = 64.17828 54.53923 63.50568
#
# Poissons Ratio (x) = 0.23670 0.14190
# Poissons Ratio (y) = 0.27853 0.24312
# Poissons Ratio (z) = 0.14341 0.20879
#
# Static dielectric constant tensor:
#      x y z
#    x 1.669680 0.000000 0.000000 
#    y 0.000000 1.696800 0.000000 
#    z 0.000000 0.000000 1.690770 
# 
# From -- ./inp_files/16452.got.cif
#   From: 2010.05.17/outbox.cif.g08.bks.cpg/sg44_9_cif.got.tgz:16452.got - 2010.06.03 19:37:08.
