data_PCOD9374438
_publ_section_title
;
Structure prediction by ZEFSAII (Michael W. Deem and Ramdas Pophale) SiO2 
 PCOD9374438
Probable space group: I M M 2
;
_chemical_formula_sum "Si O2"
_cell_formula_units_Z 40
_cell_length_a 7.935394
_cell_length_b 7.288888
_cell_length_c 30.755465
_cell_angle_alpha 90.000000
_cell_angle_beta 90.000000
_cell_angle_gamma 90.000000
_cell_volume 1778.902188
_symmetry_space_group_name_H-M "I M M 2"
_symmetry_group_IT_number 44
_symmetry_cell_setting 'orthorhombic'
loop_
_space_group_symop_operation_xyz
x,y,z
-x,-y,z
-x,y,z
x,-y,z
1/2+x,1/2+y,1/2+z
1/2-x,1/2-y,1/2+z
1/2-x,1/2+y,1/2+z
1/2+x,1/2-y,1/2+z
loop_
_atom_site_type_symbol
_atom_site_label
_atom_site_fract_x
_atom_site_fract_y
_atom_site_fract_z
Si Si1 0.816438 0.723778 0.206320
Si Si2 0.294509 0.287303 0.018675
Si Si3 0.305691 0.275412 0.922805
Si Si4 0.000000 0.781316 0.761379
Si Si5 0.802894 0.223572 0.612528
Si Si6 0.500000 0.781849 0.363784
O O1 0.812549 0.500000 0.205996
O O2 0.665989 0.787868 0.236912
O O3 0.788882 0.780968 0.156334
O O4 0.000000 0.780448 0.221921
O O5 0.500000 0.283681 0.020003
O O6 0.241098 0.500000 0.018181
O O7 0.250731 0.212868 0.971257
O O8 0.238975 0.211227 0.065372
O O9 0.500000 0.219830 0.914808
O O10 0.308152 0.500000 0.923814
O O11 0.169725 0.214718 0.887454
O O12 0.000000 0.749607 0.812551
O O13 0.000000 0.000000 0.755045
O O14 0.000000 0.272915 0.616960
O O15 0.796837 0.000000 0.611104
O O16 0.500000 0.000000 0.370484
#
# Coordination Sequence:
#
# PCOD9374438 Si02
#       6
#     8   8   8   4   8   4
#     4   9  16  26  40  59  84 116 148 177 216 264
#     4   7  10  17  32  53  80 116 144 162 202 262
#     4   8  14  26  41  59  87 118 143 175 219 261
#     4  10  20  34  48  62  88 120 148 184 227 262
#     4   8  11  18  33  53  81 116 144 167 205 259
#     4  10  20  32  48  68  86 112 154 190 219 258
#
# _framework density 22.485780999999999
#
# number of rings (size 3 to 8) (size 9 to 14) (size 15 to 20)
#    0.000    3.600    1.000    2.400    0.000    0.800 
#    1.800    0.000    0.000    0.000    0.000    0.000 
#    0.000    1.600    0.000    0.000    0.000    0.000 
#
# Total GULP energy -111562.628312 kJ/mol
# GULP energy per Si atom -5578.131416 kJ/mol
# Density = 2.243460 g / cm^3
# Si number density = 22.485781 Si / 1000 Ang^3
#
#
#
# Elastic Constant Matrix: (Units=GPa)
#
#
# Indices 1 2 3 4 5 6 
#
# 1 151.9138 6.3771 120.2926 0.0000 0.0000 0.0000
# 2 6.3771 93.3420 2.9801 0.0000 0.0000 0.0000
# 3 120.2926 2.9801 215.6455 0.0000 0.0000 0.0000
# 4 0.0000 0.0000 0.0000 -3.5471 0.0000 0.0000
# 5 0.0000 0.0000 0.0000 0.0000 -9.0590 0.0000
# 6 0.0000 0.0000 0.0000 0.0000 0.0000 -23.8055
#
#
#
# Elastic Compliance Matrix: (Units=1/GPa)
#
#
# Indices 1 2 3 4 5 6 
#
# 1 0.011824 -0.000598 -0.006588 0.000000 0.000000 0.000000
# 2 -0.000598 0.010748 0.000185 0.000000 0.000000 0.000000
# 3 -0.006588 0.000185 0.008309 0.000000 0.000000 0.000000
# 4 0.000000 0.000000 0.000000 -0.281918 0.000000 0.000000
# 5 0.000000 0.000000 0.000000 0.000000 -0.110387 0.000000
# 6 0.000000 0.000000 0.000000 0.000000 0.000000 -0.042007
#
#
# Mechanical properties :
#
#
# Convention : Reuss Voigt Hill
#
# Bulk Modulus (GPa) = 59.23765 80.02234 69.62999
# Shear Modulus (GPa) = -13.02751 14.80110 0.88680
#
# Velocity S-wave (km/s) = -2.40961 2.56841 0.62868
# Velocity P-wave (km/s) = 4.31973 6.66790 5.61787
#
# Compressibility (1/GPa) = 0.01688116
#
# Stress axis : x y z
#
# Youngs Moduli (GPa) = 84.57317 93.03875 120.34596
#
# Poissons Ratio (x) = 0.05559 0.79278
# Poissons Ratio (y) = 0.05053 -0.02224
# Poissons Ratio (z) = 0.55713 -0.01719
#
# Static dielectric constant tensor:
#      x y z
#    x 1.805920 0.000000 0.000000 
#    y 0.000000 1.975280 0.000000 
#    z 0.000000 0.000000 1.810560 
# 
# From -- ./inp_files/22873.got.cif
#   From: 2010.05.17/outbox.cif.g08.bks.cpg/sg44_12_cif.got.tgz:22873.got - 2010.06.03 19:37:08.
