data_PCOD9374336
_publ_section_title
;
Structure prediction by ZEFSAII (Michael W. Deem and Ramdas Pophale) SiO2 
 PCOD9374336
Probable space group: I M M 2
;
_chemical_formula_sum "Si O2"
_cell_formula_units_Z 64
_cell_length_a 31.719298
_cell_length_b 8.603076
_cell_length_c 12.253320
_cell_angle_alpha 90.000000
_cell_angle_beta 90.000000
_cell_angle_gamma 90.000000
_cell_volume 3343.729232
_symmetry_space_group_name_H-M "I M M 2"
_symmetry_group_IT_number 44
_symmetry_cell_setting 'orthorhombic'
loop_
_space_group_symop_operation_xyz
x,y,z
-x,-y,z
-x,y,z
x,-y,z
1/2+x,1/2+y,1/2+z
1/2-x,1/2-y,1/2+z
1/2-x,1/2+y,1/2+z
1/2+x,1/2-y,1/2+z
loop_
_atom_site_type_symbol
_atom_site_label
_atom_site_fract_x
_atom_site_fract_y
_atom_site_fract_z
Si Si1 0.952970 0.187769 0.825980
Si Si2 0.201577 0.686433 0.817642
Si Si3 0.067897 0.183939 0.580054
Si Si4 0.625197 0.686208 0.711528
Si Si5 0.624578 0.813534 0.467107
Si Si6 0.668461 0.315933 0.092378
Si Si7 0.953243 0.684963 0.347644
Si Si8 0.296426 0.310064 0.859271
O O1 0.948384 0.234236 0.698780
O O2 0.915729 0.257801 0.897869
O O3 0.000000 0.229818 0.864501
O O4 0.949068 0.000000 0.828702
O O5 0.202953 0.500000 0.827169
O O6 0.167100 0.742747 0.905564
O O7 0.185374 0.730616 0.698346
O O8 0.249192 0.744393 0.834524
O O9 0.118337 0.202784 0.581797
O O10 0.050606 0.272281 0.475286
O O11 0.058308 0.000000 0.567222
O O12 0.626149 0.500000 0.706619
O O13 0.622861 0.752378 0.590009
O O14 0.584678 0.736196 0.782063
O O15 0.667812 0.740022 0.773474
O O16 0.624914 0.000000 0.468401
O O17 0.676768 0.500000 0.105371
O O18 0.689797 0.262008 0.980444
O O19 0.949713 0.500000 0.334649
O O20 0.000000 0.734119 0.309468
O O21 0.296675 0.500000 0.857842
#
# Coordination Sequence:
#
# PCOD9374336 Si02
#       8
#     8   8   8   8   8   8   8   8
#     4  10  21  38  61  88 117 154 201 246 288 344
#     4  10  22  39  59  86 122 158 193 236 292 352
#     4  10  19  36  62  90 120 154 194 240 289 344
#     4  11  23  42  65  85 113 156 202 246 290 342
#     4  11  24  40  59  86 121 157 193 242 299 352
#     4  10  19  36  63  89 117 152 193 242 292 340
#     4  11  24  40  60  89 123 155 190 238 296 355
#     4   9  20  39  60  86 119 154 193 242 291 341
#
# _framework density 19.140305000000001
#
# number of rings (size 3 to 8) (size 9 to 14) (size 15 to 20)
#    0.000    1.750    2.500    1.500    1.750    3.750 
#    0.000    1.250    0.000    0.000    0.000    0.000 
#    0.000    0.000    0.000    0.000    0.000    0.000 
#
# Total GULP energy -178761.603203 kJ/mol
# GULP energy per Si atom -5586.300100 kJ/mol
# Density = 1.909674 g / cm^3
# Si number density = 19.140305 Si / 1000 Ang^3
#
#
#
# Elastic Constant Matrix: (Units=GPa)
#
#
# Indices 1 2 3 4 5 6 
#
# 1 157.4310 37.5243 79.0430 0.0000 0.0000 0.0000
# 2 37.5243 21.1264 23.6191 0.0000 0.0000 0.0000
# 3 79.0430 23.6191 140.3164 0.0000 0.0000 0.0000
# 4 0.0000 0.0000 0.0000 30.3312 0.0000 0.0000
# 5 0.0000 0.0000 0.0000 0.0000 58.9012 0.0000
# 6 0.0000 0.0000 0.0000 0.0000 0.0000 16.7865
#
#
#
# Elastic Compliance Matrix: (Units=1/GPa)
#
#
# Indices 1 2 3 4 5 6 
#
# 1 0.012706 -0.017943 -0.004137 0.000000 0.000000 0.000000
# 2 -0.017943 0.083644 -0.003972 0.000000 0.000000 0.000000
# 3 -0.004137 -0.003972 0.010126 0.000000 0.000000 0.000000
# 4 0.000000 0.000000 0.000000 0.032969 0.000000 0.000000
# 5 0.000000 0.000000 0.000000 0.000000 0.016978 0.000000
# 6 0.000000 0.000000 0.000000 0.000000 0.000000 0.059572
#
#
# Mechanical properties :
#
#
# Convention : Reuss Voigt Hill
#
# Bulk Modulus (GPa) = 18.39185 66.58297 42.48741
# Shear Modulus (GPa) = 17.46893 33.11628 25.29261
#
# Velocity S-wave (km/s) = 3.02433 4.16406 3.63909
# Velocity P-wave (km/s) = 4.67175 7.61456 6.31691
#
# Compressibility (1/GPa) = 0.05437191
#
# Stress axis : x y z
#
# Youngs Moduli (GPa) = 78.70358 11.95542 98.75581
#
# Poissons Ratio (x) = 0.21451 0.40858
# Poissons Ratio (y) = 1.41214 0.39228
# Poissons Ratio (z) = 0.32562 0.04749
#
# Static dielectric constant tensor:
#      x y z
#    x 1.668670 0.000000 0.000000 
#    y 0.000000 1.657540 0.000000 
#    z 0.000000 0.000000 1.626940 
# 
# From -- ./inp_files/15086.got.cif
#   From: 2010.05.17/outbox.cif.g08.bks.cpg/sg44_8_cif.got.tgz:15086.got - 2010.06.03 19:37:08.
