data_PCOD9374579
_publ_section_title
;
Structure prediction by ZEFSAII (Michael W. Deem and Ramdas Pophale) SiO2 
 PCOD9374579
Probable space group: I M M 2
;
_chemical_formula_sum "Si O2"
_cell_formula_units_Z 48
_cell_length_a 19.323856
_cell_length_b 7.792684
_cell_length_c 15.823017
_cell_angle_alpha 90.000000
_cell_angle_beta 90.000000
_cell_angle_gamma 90.000000
_cell_volume 2382.704323
_symmetry_space_group_name_H-M "I M M 2"
_symmetry_group_IT_number 44
_symmetry_cell_setting 'orthorhombic'
loop_
_space_group_symop_operation_xyz
x,y,z
-x,-y,z
-x,y,z
x,-y,z
1/2+x,1/2+y,1/2+z
1/2-x,1/2-y,1/2+z
1/2-x,1/2+y,1/2+z
1/2+x,1/2-y,1/2+z
loop_
_atom_site_type_symbol
_atom_site_label
_atom_site_fract_x
_atom_site_fract_y
_atom_site_fract_z
Si Si1 0.664487 0.202207 0.539800
Si Si2 0.079893 0.709328 0.199117
Si Si3 0.677902 0.200271 0.037841
Si Si4 0.420646 0.790141 0.889579
Si Si5 0.421200 0.702713 0.187437
Si Si6 0.079738 0.292459 0.879597
O O1 0.628753 0.273564 0.624437
O O2 0.746551 0.219830 0.543211
O O3 0.630123 0.271167 0.453648
O O4 0.647653 0.000000 0.539386
O O5 0.082399 0.500000 0.200492
O O6 0.098188 0.764242 0.294360
O O7 0.000000 0.756241 0.182755
O O8 0.633205 0.218655 0.122844
O O9 0.689307 0.000000 0.021202
O O10 0.631698 0.271600 0.960924
O O11 0.500000 0.737701 0.906754
O O12 0.420489 0.000000 0.891288
O O13 0.500000 0.770131 0.175177
O O14 0.422361 0.500000 0.171314
O O15 0.402497 0.731229 0.285428
O O16 0.081726 0.500000 0.877040
O O17 0.000000 0.241714 0.897448
#
# Coordination Sequence:
#
# PCOD9374579 Si02
#       6
#     8   8   8   8   8   8
#     4  10  20  33  51  78 110 141 172 210 257 309
#     4   8  14  28  52  78 100 126 166 213 256 300
#     4  11  22  34  50  75 108 144 177 211 258 317
#     4   8  15  29  50  74  96 122 163 212 254 294
#     4  10  21  37  57  79 102 133 177 228 277 320
#     4   9  18  34  56  80 106 139 179 221 266 317
#
# _framework density 20.145178000000001
#
# number of rings (size 3 to 8) (size 9 to 14) (size 15 to 20)
#    0.000    2.667    0.000    3.000    0.000    5.667 
#    0.000    1.667    0.000    2.500    0.000    4.667 
#    0.000    0.000    0.000    0.000    0.000    0.000 
#
# Total GULP energy -133937.533231 kJ/mol
# GULP energy per Si atom -5580.730551 kJ/mol
# Density = 2.009933 g / cm^3
# Si number density = 20.145178 Si / 1000 Ang^3
#
#
#
# Elastic Constant Matrix: (Units=GPa)
#
#
# Indices 1 2 3 4 5 6 
#
# 1 100.0383 -11.9035 94.1318 0.0000 0.0000 0.0000
# 2 -11.9035 23.0325 -9.9264 0.0000 0.0000 0.0000
# 3 94.1318 -9.9264 136.6691 0.0000 0.0000 0.0000
# 4 0.0000 0.0000 0.0000 4.1492 0.0000 0.0000
# 5 0.0000 0.0000 0.0000 0.0000 -50.5712 0.0000
# 6 0.0000 0.0000 0.0000 0.0000 0.0000 12.7895
#
#
#
# Elastic Compliance Matrix: (Units=1/GPa)
#
#
# Indices 1 2 3 4 5 6 
#
# 1 0.029365 0.006668 -0.019741 0.000000 0.000000 0.000000
# 2 0.006668 0.046334 -0.001228 0.000000 0.000000 0.000000
# 3 -0.019741 -0.001228 0.020825 0.000000 0.000000 0.000000
# 4 0.000000 0.000000 0.000000 0.241013 0.000000 0.000000
# 5 0.000000 0.000000 0.000000 0.000000 -0.019774 0.000000
# 6 0.000000 0.000000 0.000000 0.000000 0.000000 0.078189
#
#
# Mechanical properties :
#
#
# Convention : Reuss Voigt Hill
#
# Bulk Modulus (GPa) = 14.72251 44.92710 29.82481
# Shear Modulus (GPa) = 11.18083 5.76936 8.47509
#
# Velocity S-wave (km/s) = 2.35843 1.69414 2.05332
# Velocity P-wave (km/s) = 3.83931 5.11634 4.52312
#
# Compressibility (1/GPa) = 0.06792320
#
# Stress axis : x y z
#
# Youngs Moduli (GPa) = 34.05374 21.58237 48.01987
#
# Poissons Ratio (x) = -0.14392 0.94797
# Poissons Ratio (y) = -0.22708 0.05895
# Poissons Ratio (z) = 0.67226 0.02650
#
# Static dielectric constant tensor:
#      x y z
#    x 1.717960 0.000000 0.000000 
#    y 0.000000 1.751020 0.000000 
#    z 0.000000 0.000000 1.709590 
# 
# From -- ./inp_files/16063.got.cif
#   From: 2010.05.17/outbox.cif.g08.bks.cpg/sg44_9_cif.got.tgz:16063.got - 2010.06.03 19:37:08.
