data_PCOD9374059
_publ_section_title
;
Structure prediction by ZEFSAII (Michael W. Deem and Ramdas Pophale) SiO2 
 PCOD9374059
Probable space group: I M M 2
;
_chemical_formula_sum "Si O2"
_cell_formula_units_Z 48
_cell_length_a 7.924583
_cell_length_b 8.938088
_cell_length_c 34.928629
_cell_angle_alpha 90.000000
_cell_angle_beta 90.000000
_cell_angle_gamma 90.000000
_cell_volume 2474.016455
_symmetry_space_group_name_H-M "I M M 2"
_symmetry_group_IT_number 44
_symmetry_cell_setting 'orthorhombic'
loop_
_space_group_symop_operation_xyz
x,y,z
-x,-y,z
-x,y,z
x,-y,z
1/2+x,1/2+y,1/2+z
1/2-x,1/2-y,1/2+z
1/2-x,1/2+y,1/2+z
1/2+x,1/2-y,1/2+z
loop_
_atom_site_type_symbol
_atom_site_label
_atom_site_fract_x
_atom_site_fract_y
_atom_site_fract_z
Si Si1 0.300301 0.672098 0.369850
Si Si2 0.000000 0.321177 0.650948
Si Si3 0.692408 0.821812 0.604388
Si Si4 0.000000 0.181924 0.734989
Si Si5 0.314101 0.182061 0.787393
Si Si6 0.796067 0.828804 0.448157
Si Si7 0.204650 0.326002 0.526531
O O1 0.500000 0.669672 0.362234
O O2 0.243800 0.500000 0.376109
O O3 0.214895 0.731781 0.331178
O O4 0.265050 0.763382 0.408034
O O5 0.834370 0.261253 0.628992
O O6 0.000000 0.255380 0.693588
O O7 0.000000 0.500000 0.650828
O O8 0.500000 0.787246 0.616307
O O9 0.717837 0.770537 0.560587
O O10 0.717633 0.000000 0.607469
O O11 0.835618 0.227520 0.759377
O O12 0.000000 0.000000 0.731324
O O13 0.500000 0.226725 0.774086
O O14 0.307470 0.000000 0.788881
O O15 0.741950 0.732417 0.484829
O O16 0.000000 0.825676 0.447478
O O17 0.741250 0.000000 0.452899
O O18 0.248194 0.500000 0.531372
O O19 0.000000 0.312924 0.528947
#
# Coordination Sequence:
#
# PCOD9374059 Si02
#       7
#     8   4   8   4   8   8   8
#     4  10  19  33  54  81 113 151 198 251 304 359
#     4  12  26  44  66  94 130 170 206 254 314 374
#     4  11  24  42  67  96 125 163 208 256 312 373
#     4  10  20  38  62  90 120 154 202 254 304 372
#     4   9  17  32  58  88 117 151 193 247 306 361
#     4  10  21  35  52  78 114 158 205 253 301 357
#     4  10  20  36  60  88 119 159 203 252 311 369
#
# _framework density 19.40165
#
# number of rings (size 3 to 8) (size 9 to 14) (size 15 to 20)
#    0.000    1.833    1.667    2.750    0.000    5.333 
#    0.000    2.500    0.000    1.000    0.000    0.000 
#    0.000    0.000    0.000    0.000    0.000    0.000 
#
# Total GULP energy -134097.440521 kJ/mol
# GULP energy per Si atom -5587.393355 kJ/mol
# Density = 1.935749 g / cm^3
# Si number density = 19.401650 Si / 1000 Ang^3
#
#
#
# Elastic Constant Matrix: (Units=GPa)
#
#
# Indices 1 2 3 4 5 6 
#
# 1 115.1572 45.3584 69.2083 0.0000 0.0000 0.0000
# 2 45.3584 70.7218 35.1631 0.0000 0.0000 0.0000
# 3 69.2083 35.1631 135.7656 0.0000 0.0000 0.0000
# 4 0.0000 0.0000 0.0000 30.9448 0.0000 0.0000
# 5 0.0000 0.0000 0.0000 0.0000 28.1716 0.0000
# 6 0.0000 0.0000 0.0000 0.0000 0.0000 13.5793
#
#
#
# Elastic Compliance Matrix: (Units=1/GPa)
#
#
# Indices 1 2 3 4 5 6 
#
# 1 0.014779 -0.006580 -0.005830 0.000000 0.000000 0.000000
# 2 -0.006580 0.019160 -0.001608 0.000000 0.000000 0.000000
# 3 -0.005830 -0.001608 0.010754 0.000000 0.000000 0.000000
# 4 0.000000 0.000000 0.000000 0.032316 0.000000 0.000000
# 5 0.000000 0.000000 0.000000 0.000000 0.035497 0.000000
# 6 0.000000 0.000000 0.000000 0.000000 0.000000 0.073642
#
#
# Mechanical properties :
#
#
# Convention : Reuss Voigt Hill
#
# Bulk Modulus (GPa) = 60.03472 69.01158 64.52315
# Shear Modulus (GPa) = 22.75469 26.00012 24.37740
#
# Velocity S-wave (km/s) = 3.42836 3.66471 3.54850
# Velocity P-wave (km/s) = 6.83241 7.31806 7.07940
#
# Compressibility (1/GPa) = 0.01665703
#
# Stress axis : x y z
#
# Youngs Moduli (GPa) = 67.66264 52.19264 92.99040
#
# Poissons Ratio (x) = 0.34345 0.54210
# Poissons Ratio (y) = 0.44524 0.14952
# Poissons Ratio (z) = 0.39445 0.08392
#
# Static dielectric constant tensor:
#      x y z
#    x 1.691200 0.000000 0.000000 
#    y 0.000000 1.656780 0.000000 
#    z 0.000000 0.000000 1.639570 
# 
# From -- ./inp_files/26964.got.cif
#   From: 2010.05.17/outbox.cif.g08.bks.cpg/sg44_14_cif.got.tgz:26964.got - 2010.06.03 19:37:08.
