data_PCOD9374741
_publ_section_title
;
Structure prediction by ZEFSAII (Michael W. Deem and Ramdas Pophale) SiO2 
 PCOD9374741
Probable space group: I M M 2
;
_chemical_formula_sum "Si O2"
_cell_formula_units_Z 64
_cell_length_a 8.901793
_cell_length_b 15.556133
_cell_length_c 23.398010
_cell_angle_alpha 90.000000
_cell_angle_beta 90.000000
_cell_angle_gamma 90.000000
_cell_volume 3240.097365
_symmetry_space_group_name_H-M "I M M 2"
_symmetry_group_IT_number 44
_symmetry_cell_setting 'orthorhombic'
loop_
_space_group_symop_operation_xyz
x,y,z
-x,-y,z
-x,y,z
x,-y,z
1/2+x,1/2+y,1/2+z
1/2-x,1/2-y,1/2+z
1/2-x,1/2+y,1/2+z
1/2+x,1/2-y,1/2+z
loop_
_atom_site_type_symbol
_atom_site_label
_atom_site_fract_x
_atom_site_fract_y
_atom_site_fract_z
Si Si1 0.334690 0.898996 0.329570
Si Si2 0.828350 0.363290 0.389163
Si Si3 0.680542 0.402534 0.268788
Si Si4 0.827498 0.830861 0.435677
Si Si5 0.180786 0.405359 0.516235
Si Si6 0.821050 0.727871 0.051279
Si Si7 0.180140 0.770518 0.669691
Si Si8 0.177565 0.101356 0.214402
O O1 0.500000 0.857538 0.322138
O O2 0.270820 0.885513 0.392322
O O3 0.219472 0.873682 0.279884
O O4 0.351352 0.000000 0.321236
O O5 0.735081 0.381827 0.332753
O O6 0.827421 0.262896 0.405640
O O7 0.778920 0.405896 0.448773
O O8 0.000000 0.390043 0.378131
O O9 0.500000 0.401549 0.268661
O O10 0.729678 0.500000 0.253845
O O11 0.728936 0.330562 0.222922
O O12 0.754148 0.820360 0.497634
O O13 0.000000 0.860048 0.439842
O O14 0.210002 0.500000 0.540699
O O15 0.269434 0.327348 0.544093
O O16 0.000000 0.388379 0.519281
O O17 0.755085 0.697028 0.111371
O O18 0.000000 0.721408 0.049196
O O19 0.232262 0.671949 0.678702
O O20 0.000000 0.773036 0.665153
O O21 0.000000 0.110441 0.204894
O O22 0.216128 0.000000 0.204699
#
# Coordination Sequence:
#
# PCOD9374741 Si02
#       8
#     8   8   8   8   8   8   8   8
#     4  10  20  34  54  83 116 145 178 224 277 333
#     4   9  18  32  53  82 112 141 174 214 262 319
#     4  10  22  38  56  81 111 143 182 228 277 328
#     4  10  20  36  57  80 109 145 184 224 272 332
#     4   9  18  34  55  80 112 147 180 215 261 324
#     4  11  23  38  56  78 106 140 183 233 281 332
#     4  11  23  40  60  79 107 149 193 237 283 334
#     4  10  21  37  58  86 119 152 187 229 279 338
#
# _framework density 19.752493000000001
#
# number of rings (size 3 to 8) (size 9 to 14) (size 15 to 20)
#    0.000    2.000    0.000    4.500    0.000    8.500 
#    0.000    0.625    0.000    2.250    0.000    0.000 
#    0.000    0.000    0.000    0.000    0.000    0.000 
#
# Total GULP energy -178604.745476 kJ/mol
# GULP energy per Si atom -5581.398296 kJ/mol
# Density = 1.970754 g / cm^3
# Si number density = 19.752493 Si / 1000 Ang^3
#
#
#
# Elastic Constant Matrix: (Units=GPa)
#
#
# Indices 1 2 3 4 5 6 
#
# 1 65.6412 13.0402 19.4172 0.0000 0.0000 0.0000
# 2 13.0402 27.0609 16.5915 0.0000 0.0000 0.0000
# 3 19.4172 16.5915 87.8533 0.0000 0.0000 0.0000
# 4 0.0000 0.0000 0.0000 9.9681 0.0000 0.0000
# 5 0.0000 0.0000 0.0000 0.0000 33.7130 0.0000
# 6 0.0000 0.0000 0.0000 0.0000 0.0000 20.4110
#
#
#
# Elastic Compliance Matrix: (Units=1/GPa)
#
#
# Indices 1 2 3 4 5 6 
#
# 1 0.017338 -0.006792 -0.002549 0.000000 0.000000 0.000000
# 2 -0.006792 0.044453 -0.006894 0.000000 0.000000 0.000000
# 3 -0.002549 -0.006894 0.013248 0.000000 0.000000 0.000000
# 4 0.000000 0.000000 0.000000 0.100320 0.000000 0.000000
# 5 0.000000 0.000000 0.000000 0.000000 0.029662 0.000000
# 6 0.000000 0.000000 0.000000 0.000000 0.000000 0.048993
#
#
# Mechanical properties :
#
#
# Convention : Reuss Voigt Hill
#
# Bulk Modulus (GPa) = 23.49134 30.96144 27.22639
# Shear Modulus (GPa) = 16.62926 21.58551 19.10739
#
# Velocity S-wave (km/s) = 2.90467 3.30934 3.11358
# Velocity P-wave (km/s) = 4.81333 5.50554 5.17103
#
# Compressibility (1/GPa) = 0.04256888
#
# Stress axis : x y z
#
# Youngs Moduli (GPa) = 57.67790 22.49544 75.48282
#
# Poissons Ratio (x) = 0.15278 0.19243
# Poissons Ratio (y) = 0.39173 0.52039
# Poissons Ratio (z) = 0.14704 0.15509
#
# Static dielectric constant tensor:
#      x y z
#    x 1.679390 0.000000 0.000000 
#    y 0.000000 1.752630 0.000000 
#    z 0.000000 0.000000 1.694440 
# 
# From -- ./inp_files/23303.got.cif
#   From: 2010.05.17/outbox.cif.g08.bks.cpg/sg44_12_cif.got.tgz:23303.got - 2010.06.03 19:37:08.
