data_PCOD9374651
_publ_section_title
;
Structure prediction by ZEFSAII (Michael W. Deem and Ramdas Pophale) SiO2 
 PCOD9374651
Probable space group: I M M 2
;
_chemical_formula_sum "Si O2"
_cell_formula_units_Z 56
_cell_length_a 7.577815
_cell_length_b 13.824289
_cell_length_c 33.974042
_cell_angle_alpha 90.000000
_cell_angle_beta 90.000000
_cell_angle_gamma 90.000000
_cell_volume 3559.049449
_symmetry_space_group_name_H-M "I M M 2"
_symmetry_group_IT_number 44
_symmetry_cell_setting 'orthorhombic'
loop_
_space_group_symop_operation_xyz
x,y,z
-x,-y,z
-x,y,z
x,-y,z
1/2+x,1/2+y,1/2+z
1/2-x,1/2-y,1/2+z
1/2-x,1/2+y,1/2+z
1/2+x,1/2-y,1/2+z
loop_
_atom_site_type_symbol
_atom_site_label
_atom_site_fract_x
_atom_site_fract_y
_atom_site_fract_z
Si Si1 0.297069 0.882075 0.746810
Si Si2 0.000000 0.117094 0.595345
Si Si3 0.795359 0.694103 0.038199
Si Si4 0.213046 0.391781 0.953737
Si Si5 0.293634 0.196018 0.914791
Si Si6 0.500000 0.617501 0.186645
Si Si7 0.785533 0.389974 0.497311
Si Si8 0.284581 0.887803 0.833560
O O1 0.500000 0.851748 0.741300
O O2 0.230247 0.852103 0.790256
O O3 0.170570 0.851078 0.711607
O O4 0.296809 0.000000 0.747872
O O5 0.830342 0.159893 0.572942
O O6 0.000000 0.145785 0.641184
O O7 0.000000 0.000000 0.592493
O O8 0.778016 0.807512 0.027238
O O9 0.000000 0.670818 0.045687
O O10 0.736590 0.639588 0.998018
O O11 0.274067 0.500000 0.945127
O O12 0.277370 0.308957 0.924517
O O13 0.000000 0.390265 0.952732
O O14 0.500000 0.169369 0.913392
O O15 0.220755 0.167772 0.872250
O O16 0.222062 0.140689 0.953407
O O17 0.500000 0.500000 0.186921
O O18 0.733279 0.500000 0.506061
O O19 0.000000 0.385606 0.497274
O O20 0.500000 0.884946 0.832267
O O21 0.233804 0.000000 0.837872
#
# Coordination Sequence:
#
# PCOD9374651 Si02
#       8
#     8   4   8   8   8   4   8   8
#     4   8  14  26  43  61  85 118 148 175 218 273
#     4  11  22  34  49  69  93 121 160 204 241 277
#     4  10  20  34  49  68  92 121 160 197 234 282
#     4   9  18  31  43  56  82 120 156 192 231 267
#     4   9  16  25  40  65  90 115 154 194 222 259
#     4   9  18  30  44  65  89 113 149 192 228 275
#     4   9  16  28  47  69  96 128 157 189 233 278
#     4   8  13  23  40  61  88 120 148 175 213 264
#
# _framework density 15.734539
#
# number of rings (size 3 to 8) (size 9 to 14) (size 15 to 20)
#    0.000    3.000    0.714    1.714    1.000    3.714 
#    1.286    1.429    0.000    0.857    0.000    0.000 
#    0.000    2.286    0.000    4.143    0.000    0.000 
#
# Total GULP energy -156011.013015 kJ/mol
# GULP energy per Si atom -5571.821893 kJ/mol
# Density = 1.569873 g / cm^3
# Si number density = 15.734539 Si / 1000 Ang^3
#
#
#
# Elastic Constant Matrix: (Units=GPa)
#
#
# Indices 1 2 3 4 5 6 
#
# 1 64.1748 11.9199 49.1585 0.0000 0.0000 0.0000
# 2 11.9199 64.7278 43.6439 0.0000 0.0000 0.0000
# 3 49.1585 43.6439 148.3580 0.0000 0.0000 0.0000
# 4 0.0000 0.0000 0.0000 19.3245 0.0000 0.0000
# 5 0.0000 0.0000 0.0000 0.0000 -0.7709 0.0000
# 6 0.0000 0.0000 0.0000 0.0000 0.0000 6.0672
#
#
#
# Elastic Compliance Matrix: (Units=1/GPa)
#
#
# Indices 1 2 3 4 5 6 
#
# 1 0.020937 0.001026 -0.007239 0.000000 0.000000 0.000000
# 2 0.001026 0.019322 -0.006024 0.000000 0.000000 0.000000
# 3 -0.007239 -0.006024 0.010911 0.000000 0.000000 0.000000
# 4 0.000000 0.000000 0.000000 0.051748 0.000000 0.000000
# 5 0.000000 0.000000 0.000000 0.000000 -1.297189 0.000000
# 6 0.000000 0.000000 0.000000 0.000000 0.000000 0.164820
#
#
# Mechanical properties :
#
#
# Convention : Reuss Voigt Hill
#
# Bulk Modulus (GPa) = 37.45968 54.07837 45.76902
# Shear Modulus (GPa) = -5.01970 16.42671 5.70351
#
# Velocity S-wave (km/s) = -1.78806 3.23459 1.90596
# Velocity P-wave (km/s) = 4.42675 6.95657 5.83052
#
# Compressibility (1/GPa) = 0.02669537
#
# Stress axis : x y z
#
# Youngs Moduli (GPa) = 47.76163 51.75373 91.64771
#
# Poissons Ratio (x) = -0.05308 0.66346
# Poissons Ratio (y) = -0.04898 0.55209
# Poissons Ratio (z) = 0.34576 0.31177
#
# Static dielectric constant tensor:
#      x y z
#    x 1.578320 0.000000 0.000000 
#    y 0.000000 1.507890 0.000000 
#    z 0.000000 0.000000 1.522150 
# 
# From -- ./inp_files/27255.got.cif
#   From: 2010.05.17/outbox.cif.g08.bks.cpg/sg44_14_cif.got.tgz:27255.got - 2010.06.03 19:37:08.
