data_PCOD9374141
_publ_section_title
;
Structure prediction by ZEFSAII (Michael W. Deem and Ramdas Pophale) SiO2 
 PCOD9374141
Probable space group: I M M 2
;
_chemical_formula_sum "Si O2"
_cell_formula_units_Z 56
_cell_length_a 22.670565
_cell_length_b 15.082349
_cell_length_c 9.045129
_cell_angle_alpha 90.000000
_cell_angle_beta 90.000000
_cell_angle_gamma 90.000000
_cell_volume 3092.759110
_symmetry_space_group_name_H-M "I M M 2"
_symmetry_group_IT_number 44
_symmetry_cell_setting 'orthorhombic'
loop_
_space_group_symop_operation_xyz
x,y,z
-x,-y,z
-x,y,z
x,-y,z
1/2+x,1/2+y,1/2+z
1/2-x,1/2-y,1/2+z
1/2-x,1/2+y,1/2+z
1/2+x,1/2-y,1/2+z
loop_
_atom_site_type_symbol
_atom_site_label
_atom_site_fract_x
_atom_site_fract_y
_atom_site_fract_z
Si Si1 0.138218 0.792659 0.783610
Si Si2 0.070832 0.500000 0.428921
Si Si3 0.928443 0.500000 0.074864
Si Si4 0.430267 0.811415 0.034515
Si Si5 0.865975 0.791025 0.284331
Si Si6 0.704287 0.601676 0.030556
Si Si7 0.432145 0.394397 0.529199
Si Si8 0.336247 0.153811 0.533525
O O1 0.099086 0.733461 0.674637
O O2 0.181289 0.848810 0.678233
O O3 0.166327 0.724824 0.900622
O O4 0.098010 0.857375 0.881563
O O5 0.079926 0.500000 0.252896
O O6 0.093607 0.589834 0.502498
O O7 0.000000 0.500000 0.448140
O O8 0.000000 0.500000 0.044420
O O9 0.892676 0.587592 0.020476
O O10 0.500000 0.815562 0.053244
O O11 0.413919 0.752234 0.893063
O O12 0.820434 0.842878 0.390179
O O13 0.896675 0.856796 0.168815
O O14 0.840566 0.711272 0.184190
O O15 0.682723 0.500000 0.025354
O O16 0.774910 0.602335 0.031811
O O17 0.500000 0.363959 0.536664
O O18 0.430812 0.500000 0.529633
#
# Coordination Sequence:
#
# PCOD9374141 Si02
#       8
#     8   4   4   8   8   8   8   8
#     4  10  23  37  57  85 115 153 198 241 301 358
#     4   9  18  33  55  83 117 151 189 236 283 354
#     4  11  22  37  63  95 121 155 196 242 299 366
#     4  10  19  34  55  82 116 151 189 236 294 354
#     4  10  21  35  59  85 113 154 203 241 289 355
#     4  11  22  40  61  82 115 156 204 252 297 343
#     4  10  20  36  57  84 118 150 189 243 301 350
#     4  11  22  40  60  85 120 154 196 248 302 356
#
# _framework density 18.106808000000001
#
# number of rings (size 3 to 8) (size 9 to 14) (size 15 to 20)
#    0.000    1.714    2.143    2.571    0.000    3.429 
#    0.000    0.714    0.000    6.857    0.000    0.000 
#    0.000    0.000    0.000    0.000    0.000    0.000 
#
# Total GULP energy -156218.606949 kJ/mol
# GULP energy per Si atom -5579.235962 kJ/mol
# Density = 1.806560 g / cm^3
# Si number density = 18.106808 Si / 1000 Ang^3
#
#
#
# Elastic Constant Matrix: (Units=GPa)
#
#
# Indices 1 2 3 4 5 6 
#
# 1 89.0916 33.9036 25.4379 0.0000 0.0000 0.0000
# 2 33.9036 101.2225 29.6142 0.0000 0.0000 0.0000
# 3 25.4379 29.6142 94.0439 0.0000 0.0000 0.0000
# 4 0.0000 0.0000 0.0000 21.1393 0.0000 0.0000
# 5 0.0000 0.0000 0.0000 0.0000 4.9691 0.0000
# 6 0.0000 0.0000 0.0000 0.0000 0.0000 29.6750
#
#
#
# Elastic Compliance Matrix: (Units=1/GPa)
#
#
# Indices 1 2 3 4 5 6 
#
# 1 0.013348 -0.003761 -0.002426 0.000000 0.000000 0.000000
# 2 -0.003761 0.011941 -0.002743 0.000000 0.000000 0.000000
# 3 -0.002426 -0.002743 0.012153 0.000000 0.000000 0.000000
# 4 0.000000 0.000000 0.000000 0.047305 0.000000 0.000000
# 5 0.000000 0.000000 0.000000 0.000000 0.201243 0.000000
# 6 0.000000 0.000000 0.000000 0.000000 0.000000 0.033698
#
#
# Mechanical properties :
#
#
# Convention : Reuss Voigt Hill
#
# Bulk Modulus (GPa) = 51.06581 51.36327 51.21454
# Shear Modulus (GPa) = 14.53159 24.18351 19.35755
#
# Velocity S-wave (km/s) = 2.83600 3.65856 3.27322
# Velocity P-wave (km/s) = 6.24401 6.80258 6.52927
#
# Compressibility (1/GPa) = 0.01958257
#
# Stress axis : x y z
#
# Youngs Moduli (GPa) = 74.91507 83.74167 82.28170
#
# Poissons Ratio (x) = 0.31496 0.19964
# Poissons Ratio (y) = 0.28176 0.22570
# Poissons Ratio (z) = 0.18176 0.22970
#
# Static dielectric constant tensor:
#      x y z
#    x 1.605700 0.000000 0.000000 
#    y 0.000000 1.632190 0.000000 
#    z 0.000000 0.000000 1.599670 
# 
# From -- ./inp_files/7418.got.cif
#   From: 2010.05.17/outbox.cif.g08.bks.cpg/sg44_4_cif.got.tgz:7418.got - 2010.06.03 19:37:08.
