data_PCOD9374082
_publ_section_title
;
Structure prediction by ZEFSAII (Michael W. Deem and Ramdas Pophale) SiO2 
 PCOD9374082
Probable space group: I M M 2
;
_chemical_formula_sum "Si O2"
_cell_formula_units_Z 64
_cell_length_a 25.302201
_cell_length_b 8.885027
_cell_length_c 15.401098
_cell_angle_alpha 90.000000
_cell_angle_beta 90.000000
_cell_angle_gamma 90.000000
_cell_volume 3462.332223
_symmetry_space_group_name_H-M "I M M 2"
_symmetry_group_IT_number 44
_symmetry_cell_setting 'orthorhombic'
loop_
_space_group_symop_operation_xyz
x,y,z
-x,-y,z
-x,y,z
x,-y,z
1/2+x,1/2+y,1/2+z
1/2-x,1/2-y,1/2+z
1/2-x,1/2+y,1/2+z
1/2+x,1/2-y,1/2+z
loop_
_atom_site_type_symbol
_atom_site_label
_atom_site_fract_x
_atom_site_fract_y
_atom_site_fract_z
Si Si1 0.389419 0.821131 0.581490
Si Si2 0.939613 0.179717 0.915603
Si Si3 0.338886 0.820901 0.088921
Si Si4 0.648135 0.319476 0.276458
Si Si5 0.638941 0.679894 0.913334
Si Si6 0.232056 0.319825 0.306689
Si Si7 0.282339 0.320073 0.617265
Si Si8 0.062069 0.180898 0.255705
O O1 0.426584 0.765146 0.504120
O O2 0.331436 0.749917 0.566774
O O3 0.411798 0.759818 0.672744
O O4 0.385899 0.000000 0.584112
O O5 0.898347 0.225125 0.841340
O O6 0.000000 0.205964 0.889065
O O7 0.932994 0.000000 0.930814
O O8 0.355066 0.758622 0.182955
O O9 0.275875 0.787395 0.080221
O O10 0.345113 0.000000 0.086353
O O11 0.369010 0.745164 0.009155
O O12 0.646003 0.500000 0.263570
O O13 0.705777 0.285571 0.317227
O O14 0.642192 0.500000 0.916920
O O15 0.693555 0.747305 0.876578
O O16 0.593836 0.720959 0.843228
O O17 0.225406 0.500000 0.306392
O O18 0.216537 0.251729 0.213256
O O19 0.288470 0.500000 0.623041
O O20 0.000000 0.217619 0.261679
O O21 0.066918 0.000000 0.243978
#
# Coordination Sequence:
#
# PCOD9374082 Si02
#       8
#     8   8   8   8   8   8   8   8
#     4  12  24  36  56  88 121 154 191 239 294 349
#     4  10  22  41  63  85 113 154 201 244 287 344
#     4  10  22  38  59  85 118 155 193 242 294 346
#     4   9  20  39  61  85 114 150 194 242 293 347
#     4  11  22  36  58  86 118 156 197 239 286 347
#     4  10  19  33  55  85 118 149 186 236 290 345
#     4  10  20  36  56  81 115 156 195 231 283 348
#     4  10  22  41  62  83 113 156 200 241 286 343
#
# _framework density 18.484650999999999
#
# number of rings (size 3 to 8) (size 9 to 14) (size 15 to 20)
#    0.000    1.750    1.250    3.000    1.750    5.000 
#    0.000    0.625    0.000    3.750    0.000    0.000 
#    0.000    0.000    0.000    0.000    0.000    0.000 
#
# Total GULP energy -178801.136210 kJ/mol
# GULP energy per Si atom -5587.535507 kJ/mol
# Density = 1.844258 g / cm^3
# Si number density = 18.484651 Si / 1000 Ang^3
#
#
#
# Elastic Constant Matrix: (Units=GPa)
#
#
# Indices 1 2 3 4 5 6 
#
# 1 102.4021 47.2684 57.2444 0.0000 0.0000 0.0000
# 2 47.2684 52.7924 43.0156 0.0000 0.0000 0.0000
# 3 57.2444 43.0156 94.4498 0.0000 0.0000 0.0000
# 4 0.0000 0.0000 0.0000 24.7861 0.0000 0.0000
# 5 0.0000 0.0000 0.0000 0.0000 29.2806 0.0000
# 6 0.0000 0.0000 0.0000 0.0000 0.0000 15.4191
#
#
#
# Elastic Compliance Matrix: (Units=1/GPa)
#
#
# Indices 1 2 3 4 5 6 
#
# 1 0.018459 -0.011785 -0.005820 0.000000 0.000000 0.000000
# 2 -0.011785 0.037643 -0.010001 0.000000 0.000000 0.000000
# 3 -0.005820 -0.010001 0.018670 0.000000 0.000000 0.000000
# 4 0.000000 0.000000 0.000000 0.040345 0.000000 0.000000
# 5 0.000000 0.000000 0.000000 0.000000 0.034152 0.000000
# 6 0.000000 0.000000 0.000000 0.000000 0.000000 0.064855
#
#
# Mechanical properties :
#
#
# Convention : Reuss Voigt Hill
#
# Bulk Modulus (GPa) = 51.12741 60.52234 55.82488
# Shear Modulus (GPa) = 18.12528 20.70487 19.41508
#
# Velocity S-wave (km/s) = 3.13478 3.35044 3.24440
# Velocity P-wave (km/s) = 6.38920 6.91233 6.65591
#
# Compressibility (1/GPa) = 0.01955898
#
# Stress axis : x y z
#
# Youngs Moduli (GPa) = 54.17386 26.56527 53.56132
#
# Poissons Ratio (x) = 0.31307 0.31175
# Poissons Ratio (y) = 0.63844 0.53568
# Poissons Ratio (z) = 0.31531 0.26568
#
# Static dielectric constant tensor:
#      x y z
#    x 1.637990 0.000000 0.000000 
#    y 0.000000 1.613490 0.000000 
#    z 0.000000 0.000000 1.627150 
# 
# From -- ./inp_files/16888.got.cif
#   From: 2010.05.17/outbox.cif.g08.bks.cpg/sg44_9_cif.got.tgz:16888.got - 2010.06.03 19:37:08.
