data_PCOD9374388
_publ_section_title
;
Structure prediction by ZEFSAII (Michael W. Deem and Ramdas Pophale) SiO2 
 PCOD9374388
Probable space group: I M M 2
;
_chemical_formula_sum "Si O2"
_cell_formula_units_Z 64
_cell_length_a 17.260478
_cell_length_b 7.310051
_cell_length_c 22.806453
_cell_angle_alpha 90.000000
_cell_angle_beta 90.000000
_cell_angle_gamma 90.000000
_cell_volume 2877.603625
_symmetry_space_group_name_H-M "I M M 2"
_symmetry_group_IT_number 44
_symmetry_cell_setting 'orthorhombic'
loop_
_space_group_symop_operation_xyz
x,y,z
-x,-y,z
-x,y,z
x,-y,z
1/2+x,1/2+y,1/2+z
1/2-x,1/2-y,1/2+z
1/2-x,1/2+y,1/2+z
1/2+x,1/2-y,1/2+z
loop_
_atom_site_type_symbol
_atom_site_label
_atom_site_fract_x
_atom_site_fract_y
_atom_site_fract_z
Si Si1 0.880879 0.280384 0.563120
Si Si2 0.581671 0.222235 0.932507
Si Si3 0.414480 0.711478 0.196600
Si Si4 0.086028 0.782386 0.114205
Si Si5 0.912398 0.293593 0.248899
Si Si6 0.763958 0.777251 0.767336
Si Si7 0.289484 0.277729 0.523603
Si Si8 0.749913 0.277764 0.395922
O O1 0.889135 0.500000 0.564886
O O2 0.916612 0.221507 0.500968
O O3 0.909518 0.214934 0.625811
O O4 0.791436 0.231499 0.554048
O O5 0.500000 0.280042 0.905883
O O6 0.660137 0.281589 0.901291
O O7 0.583763 0.000000 0.932605
O O8 0.500000 0.789561 0.212552
O O9 0.416084 0.500000 0.215481
O O10 0.333169 0.785406 0.223760
O O11 0.090169 0.698296 0.178296
O O12 0.144636 0.711599 0.066356
O O13 0.000000 0.758464 0.091073
O O14 0.099580 0.000000 0.123047
O O15 0.912521 0.500000 0.274383
O O16 0.826298 0.214070 0.261619
O O17 0.000000 0.217170 0.262169
O O18 0.786010 0.726970 0.833982
O O19 0.759370 0.000000 0.761197
O O20 0.293003 0.500000 0.521597
O O21 0.289735 0.216552 0.456243
O O22 0.750600 0.500000 0.396885
#
# Coordination Sequence:
#
# PCOD9374388 Si02
#       8
#     8   8   8   8   8   8   8   8
#     4   9  16  27  45  66  86 108 135 170 211 253
#     4   8  13  21  36  61  87 104 124 162 209 252
#     4  10  20  31  42  60  87 116 144 173 205 243
#     4   9  16  26  41  62  87 111 135 167 208 252
#     4   9  17  28  43  65  89 110 136 171 208 248
#     4   9  17  29  42  57  83 116 144 172 207 245
#     4   8  14  25  41  63  87 107 133 172 213 249
#     4   8  14  24  38  56  80 109 136 166 207 247
#
# _framework density 22.240729000000002
#
# number of rings (size 3 to 8) (size 9 to 14) (size 15 to 20)
#    0.000    3.250    0.000    2.625    0.000    1.250 
#    0.000    3.125    0.000    3.750    0.000    8.750 
#    0.000   10.000    0.000    0.000    0.000    0.000 
#
# Total GULP energy -178322.778787 kJ/mol
# GULP energy per Si atom -5572.586837 kJ/mol
# Density = 2.219011 g / cm^3
# Si number density = 22.240729 Si / 1000 Ang^3
#
#
#
# Elastic Constant Matrix: (Units=GPa)
#
#
# Indices 1 2 3 4 5 6 
#
# 1 92.7703 20.2040 63.4833 0.0000 0.0000 0.0000
# 2 20.2040 80.1445 -5.5606 0.0000 0.0000 0.0000
# 3 63.4833 -5.5606 108.7545 0.0000 0.0000 0.0000
# 4 0.0000 0.0000 0.0000 4.0133 0.0000 0.0000
# 5 0.0000 0.0000 0.0000 0.0000 -1.4049 0.0000
# 6 0.0000 0.0000 0.0000 0.0000 0.0000 -8.1277
#
#
#
# Elastic Compliance Matrix: (Units=1/GPa)
#
#
# Indices 1 2 3 4 5 6 
#
# 1 0.020480 -0.006014 -0.012262 0.000000 0.000000 0.000000
# 2 -0.006014 0.014288 0.004241 0.000000 0.000000 0.000000
# 3 -0.012262 0.004241 0.016570 0.000000 0.000000 0.000000
# 4 0.000000 0.000000 0.000000 0.249173 0.000000 0.000000
# 5 0.000000 0.000000 0.000000 0.000000 -0.711769 0.000000
# 6 0.000000 0.000000 0.000000 0.000000 0.000000 -0.123036
#
#
# Mechanical properties :
#
#
# Convention : Reuss Voigt Hill
#
# Bulk Modulus (GPa) = 42.97872 48.65807 45.81840
# Shear Modulus (GPa) = -10.03073 12.46564 1.21745
#
# Velocity S-wave (km/s) = -2.12600 2.37003 0.74067
# Velocity P-wave (km/s) = 3.65237 5.42354 4.62356
#
# Compressibility (1/GPa) = 0.02326733
#
# Stress axis : x y z
#
# Youngs Moduli (GPa) = 48.82736 69.99005 60.35061
#
# Poissons Ratio (x) = 0.42090 0.74005
# Poissons Ratio (y) = 0.29364 -0.25594
# Poissons Ratio (z) = 0.59874 -0.29683
#
# Static dielectric constant tensor:
#      x y z
#    x 1.840630 0.000000 0.000000 
#    y 0.000000 1.915430 0.000000 
#    z 0.000000 0.000000 1.778670 
# 
# From -- ./inp_files/24394.got.cif
#   From: 2010.05.17/outbox.cif.g08.bks.cpg/sg44_13_cif.got.tgz:24394.got - 2010.06.03 19:37:08.
