data_PCOD9374868
_publ_section_title
;
Structure prediction by ZEFSAII (Michael W. Deem and Ramdas Pophale) SiO2 
 PCOD9374868
Probable space group: I M M 2
;
_chemical_formula_sum "Si O2"
_cell_formula_units_Z 56
_cell_length_a 9.410489
_cell_length_b 13.580398
_cell_length_c 22.883611
_cell_angle_alpha 90.000000
_cell_angle_beta 90.000000
_cell_angle_gamma 90.000000
_cell_volume 2924.483975
_symmetry_space_group_name_H-M "I M M 2"
_symmetry_group_IT_number 44
_symmetry_cell_setting 'orthorhombic'
loop_
_space_group_symop_operation_xyz
x,y,z
-x,-y,z
-x,y,z
x,-y,z
1/2+x,1/2+y,1/2+z
1/2-x,1/2-y,1/2+z
1/2-x,1/2+y,1/2+z
1/2+x,1/2-y,1/2+z
loop_
_atom_site_type_symbol
_atom_site_label
_atom_site_fract_x
_atom_site_fract_y
_atom_site_fract_z
Si Si1 0.345617 0.887654 0.208510
Si Si2 0.756827 0.887943 0.079301
Si Si3 0.159128 0.673174 0.111584
Si Si4 0.172085 0.388899 0.987715
Si Si5 0.166911 0.305845 0.454955
Si Si6 0.829697 0.709830 0.238813
Si Si7 0.662836 0.616144 0.346048
O O1 0.500000 0.847059 0.226083
O O2 0.338673 0.889357 0.137753
O O3 0.218382 0.822936 0.232897
O O4 0.334643 0.000000 0.228157
O O5 0.847259 0.789317 0.093519
O O6 0.817868 0.000000 0.075242
O O7 0.685286 0.860362 0.017677
O O8 0.222379 0.665496 0.176220
O O9 0.000000 0.634580 0.117393
O O10 0.221588 0.619049 0.055637
O O11 0.195982 0.500000 0.966189
O O12 0.258358 0.301504 0.957490
O O13 0.000000 0.370299 0.985907
O O14 0.252657 0.363915 0.405673
O O15 0.000000 0.298249 0.441819
O O16 0.749480 0.664125 0.293199
O O17 0.000000 0.700299 0.243027
O O18 0.500000 0.653047 0.349969
O O19 0.657792 0.500000 0.335945
#
# Coordination Sequence:
#
# PCOD9374868 Si02
#       7
#     8   8   8   8   8   8   8
#     4   9  17  31  53  81 114 150 183 217 263 321
#     4   9  17  29  49  79 113 148 182 217 264 320
#     4   8  16  30  50  80 113 144 179 219 266 318
#     4   9  18  35  58  82 111 146 180 216 263 321
#     4  11  22  36  56  82 112 143 179 226 272 316
#     4  10  20  35  56  81 110 143 181 228 274 316
#     4  11  25  43  60  78 104 141 183 224 267 320
#
# _framework density 19.148676999999999
#
# number of rings (size 3 to 8) (size 9 to 14) (size 15 to 20)
#    0.000    2.429    0.000    2.143    0.000    4.571 
#    0.000    5.714    0.000    4.286    0.000    0.000 
#    0.000    0.000    0.000    0.000    0.000    0.000 
#
# Total GULP energy -155875.874960 kJ/mol
# GULP energy per Si atom -5566.995534 kJ/mol
# Density = 1.910509 g / cm^3
# Si number density = 19.148677 Si / 1000 Ang^3
#
#
#
# Elastic Constant Matrix: (Units=GPa)
#
#
# Indices 1 2 3 4 5 6 
#
# 1 103.2247 27.9510 41.7126 0.0000 0.0000 0.0000
# 2 27.9510 77.8259 22.4163 0.0000 0.0000 0.0000
# 3 41.7126 22.4163 74.6611 0.0000 0.0000 0.0000
# 4 0.0000 0.0000 0.0000 22.9398 0.0000 0.0000
# 5 0.0000 0.0000 0.0000 0.0000 17.8510 0.0000
# 6 0.0000 0.0000 0.0000 0.0000 0.0000 19.7218
#
#
#
# Elastic Compliance Matrix: (Units=1/GPa)
#
#
# Indices 1 2 3 4 5 6 
#
# 1 0.013060 -0.002834 -0.006445 0.000000 0.000000 0.000000
# 2 -0.002834 0.014680 -0.002824 0.000000 0.000000 0.000000
# 3 -0.006445 -0.002824 0.017843 0.000000 0.000000 0.000000
# 4 0.000000 0.000000 0.000000 0.043592 0.000000 0.000000
# 5 0.000000 0.000000 0.000000 0.000000 0.056019 0.000000
# 6 0.000000 0.000000 0.000000 0.000000 0.000000 0.050705
#
#
# Mechanical properties :
#
#
# Convention : Reuss Voigt Hill
#
# Bulk Modulus (GPa) = 46.78254 48.87462 47.82858
# Shear Modulus (GPa) = 22.00389 23.01128 22.50758
#
# Velocity S-wave (km/s) = 3.39353 3.47034 3.43215
# Velocity P-wave (km/s) = 6.31181 6.45266 6.38262
#
# Compressibility (1/GPa) = 0.02137550
#
# Stress axis : x y z
#
# Youngs Moduli (GPa) = 76.57260 68.11767 56.04475
#
# Poissons Ratio (x) = 0.19303 0.36123
# Poissons Ratio (y) = 0.21699 0.15830
# Poissons Ratio (z) = 0.49354 0.19240
#
# Static dielectric constant tensor:
#      x y z
#    x 1.662000 0.000000 0.000000 
#    y 0.000000 1.678430 0.000000 
#    z 0.000000 0.000000 1.675070 
# 
# From -- ./inp_files/23079.got.cif
#   From: 2010.05.17/outbox.cif.g08.bks.cpg/sg44_12_cif.got.tgz:23079.got - 2010.06.03 19:37:08.
