data_PCOD9374099
_publ_section_title
;
Structure prediction by ZEFSAII (Michael W. Deem and Ramdas Pophale) SiO2 
 PCOD9374099
Probable space group: I M M 2
;
_chemical_formula_sum "Si O2"
_cell_formula_units_Z 64
_cell_length_a 12.035581
_cell_length_b 15.761192
_cell_length_c 16.582196
_cell_angle_alpha 90.000000
_cell_angle_beta 90.000000
_cell_angle_gamma 90.000000
_cell_volume 3145.561378
_symmetry_space_group_name_H-M "I M M 2"
_symmetry_group_IT_number 44
_symmetry_cell_setting 'orthorhombic'
loop_
_space_group_symop_operation_xyz
x,y,z
-x,-y,z
-x,y,z
x,-y,z
1/2+x,1/2+y,1/2+z
1/2-x,1/2-y,1/2+z
1/2-x,1/2+y,1/2+z
1/2+x,1/2-y,1/2+z
loop_
_atom_site_type_symbol
_atom_site_label
_atom_site_fract_x
_atom_site_fract_y
_atom_site_fract_z
Si Si1 0.622600 0.241838 0.913170
Si Si2 0.371892 0.907426 0.471543
Si Si3 0.871818 0.904452 0.053374
Si Si4 0.128101 0.096430 0.298905
Si Si5 0.709435 0.406412 0.374212
Si Si6 0.377728 0.678094 0.223493
Si Si7 0.625892 0.869972 0.281069
Si Si8 0.242905 0.233542 0.569494
O O1 0.500000 0.211476 0.895061
O O2 0.637123 0.331338 0.867394
O O3 0.706640 0.171508 0.881690
O O4 0.640494 0.250431 0.008875
O O5 0.500000 0.909527 0.496336
O O6 0.371550 0.894266 0.375221
O O7 0.317878 0.829096 0.516656
O O8 0.321024 0.000000 0.489566
O O9 0.801766 0.824102 0.083136
O O10 0.000000 0.895484 0.076357
O O11 0.834523 0.000000 0.077608
O O12 0.863352 0.901503 0.955578
O O13 0.248476 0.102857 0.252110
O O14 0.000000 0.108304 0.263656
O O15 0.127166 0.000000 0.330126
O O16 0.761904 0.500000 0.374542
O O17 0.645804 0.391374 0.291134
O O18 0.500000 0.664978 0.188370
O O19 0.376791 0.769252 0.268162
O O20 0.290846 0.688172 0.151630
O O21 0.500000 0.899009 0.251192
#
# Coordination Sequence:
#
# PCOD9374099 Si02
#       8
#     8   8   8   8   8   8   8   8
#     4  10  20  36  57  83 115 154 198 244 291 346
#     4  10  20  35  58  87 116 148 194 248 297 349
#     4   9  18  36  63  88 108 140 194 253 297 335
#     4  10  19  33  56  87 119 150 191 245 299 352
#     4  10  20  37  62  88 112 147 197 250 296 345
#     4  11  23  38  56  84 121 156 190 236 299 366
#     4  10  19  36  60  84 114 155 200 247 295 348
#     4  11  21  35  56  83 118 158 189 232 289 363
#
# _framework density 20.346129999999999
#
# number of rings (size 3 to 8) (size 9 to 14) (size 15 to 20)
#    0.000    1.875    2.500    2.250    0.000    3.250 
#    0.000    3.750    0.000    6.375    0.000    0.000 
#    0.000    0.000    0.000    0.000    0.000    0.000 
#
# Total GULP energy -178244.494497 kJ/mol
# GULP energy per Si atom -5570.140453 kJ/mol
# Density = 2.029982 g / cm^3
# Si number density = 20.346130 Si / 1000 Ang^3
#
#
#
# Elastic Constant Matrix: (Units=GPa)
#
#
# Indices 1 2 3 4 5 6 
#
# 1 113.7325 18.2317 11.8068 0.0000 0.0000 0.0000
# 2 18.2317 90.0964 24.5703 0.0000 0.0000 0.0000
# 3 11.8068 24.5703 67.6235 0.0000 0.0000 0.0000
# 4 0.0000 0.0000 0.0000 16.5564 0.0000 0.0000
# 5 0.0000 0.0000 0.0000 0.0000 -0.3191 0.0000
# 6 0.0000 0.0000 0.0000 0.0000 0.0000 14.8995
#
#
#
# Elastic Compliance Matrix: (Units=1/GPa)
#
#
# Indices 1 2 3 4 5 6 
#
# 1 0.009151 -0.001572 -0.001027 0.000000 0.000000 0.000000
# 2 -0.001572 0.012590 -0.004300 0.000000 0.000000 0.000000
# 3 -0.001027 -0.004300 0.016529 0.000000 0.000000 0.000000
# 4 0.000000 0.000000 0.000000 0.060400 0.000000 0.000000
# 5 0.000000 0.000000 0.000000 0.000000 -3.134162 0.000000
# 6 0.000000 0.000000 0.000000 0.000000 0.000000 0.067116
#
#
# Mechanical properties :
#
#
# Convention : Reuss Voigt Hill
#
# Bulk Modulus (GPa) = 40.86052 42.29667 41.57859
# Shear Modulus (GPa) = -1.69697 20.68361 9.49332
#
# Velocity S-wave (km/s) = -0.91426 3.19185 2.16241
# Velocity P-wave (km/s) = 4.36025 5.86665 5.16863
#
# Compressibility (1/GPa) = 0.02447350
#
# Stress axis : x y z
#
# Youngs Moduli (GPa) = 109.27642 79.42838 60.49838
#
# Poissons Ratio (x) = 0.12485 0.06211
# Poissons Ratio (y) = 0.17176 0.26014
# Poissons Ratio (z) = 0.11219 0.34154
#
# Static dielectric constant tensor:
#      x y z
#    x 1.773750 0.000000 0.000000 
#    y 0.000000 1.710670 0.000000 
#    z 0.000000 0.000000 1.718820 
# 
# From -- ./inp_files/21436.got.cif
#   From: 2010.05.17/outbox.cif.g08.bks.cpg/sg44_11_cif.got.tgz:21436.got - 2010.06.03 19:37:08.
