data_PCOD9374925
_publ_section_title
;
Structure prediction by ZEFSAII (Michael W. Deem and Ramdas Pophale) SiO2 
 PCOD9374925
Probable space group: I M M 2
;
_chemical_formula_sum "Si O2"
_cell_formula_units_Z 64
_cell_length_a 25.414821
_cell_length_b 8.906506
_cell_length_c 14.912601
_cell_angle_alpha 90.000000
_cell_angle_beta 90.000000
_cell_angle_gamma 90.000000
_cell_volume 3375.575438
_symmetry_space_group_name_H-M "I M M 2"
_symmetry_group_IT_number 44
_symmetry_cell_setting 'orthorhombic'
loop_
_space_group_symop_operation_xyz
x,y,z
-x,-y,z
-x,y,z
x,-y,z
1/2+x,1/2+y,1/2+z
1/2-x,1/2-y,1/2+z
1/2-x,1/2+y,1/2+z
1/2+x,1/2-y,1/2+z
loop_
_atom_site_type_symbol
_atom_site_label
_atom_site_fract_x
_atom_site_fract_y
_atom_site_fract_z
Si Si1 0.169706 0.178448 0.947650
Si Si2 0.868511 0.678132 0.119824
Si Si3 0.440932 0.679842 0.119530
Si Si4 0.780792 0.175054 0.430454
Si Si5 0.891545 0.678569 0.448895
Si Si6 0.269455 0.325610 0.714546
Si Si7 0.340567 0.679477 0.238005
Si Si8 0.562903 0.324488 0.769697
O O1 0.229116 0.237525 0.961979
O O2 0.155927 0.212080 0.844194
O O3 0.167522 0.000000 0.960802
O O4 0.133022 0.260952 0.018815
O O5 0.873449 0.500000 0.122590
O O6 0.813263 0.729267 0.164336
O O7 0.913158 0.755739 0.179579
O O8 0.500000 0.712652 0.152195
O O9 0.437656 0.500000 0.103795
O O10 0.394259 0.720069 0.187748
O O11 0.429719 0.763831 0.026865
O O12 0.834381 0.248110 0.464524
O O13 0.780542 0.184071 0.321609
O O14 0.777723 0.000000 0.455846
O O15 0.887487 0.500000 0.448284
O O16 0.912780 0.737440 0.353912
O O17 0.273599 0.500000 0.687981
O O18 0.210638 0.264049 0.700608
O O19 0.332084 0.500000 0.228610
O O20 0.500000 0.313278 0.771430
O O21 0.577965 0.500000 0.776577
#
# Coordination Sequence:
#
# PCOD9374925 Si02
#       8
#     8   8   8   8   8   8   8   8
#     4  10  21  38  60  87 123 159 200 253 306 359
#     4  12  24  38  60  89 124 162 202 247 300 364
#     4  10  22  41  63  86 116 157 205 254 304 360
#     4  10  20  36  58  85 120 160 200 242 296 358
#     4  12  24  37  58  89 124 161 200 245 301 366
#     4  10  20  35  58  86 119 155 195 243 298 359
#     4   9  20  39  62  87 117 154 202 255 305 358
#     4  11  24  43  65  88 119 160 205 254 306 360
#
# _framework density 18.95973
#
# number of rings (size 3 to 8) (size 9 to 14) (size 15 to 20)
#    0.000    1.500    1.250    4.125    1.750    4.750 
#    0.000    0.625    0.000    2.250    0.000    0.000 
#    0.000    0.000    0.000    0.000    0.000    0.000 
#
# Total GULP energy -178966.875813 kJ/mol
# GULP energy per Si atom -5592.714869 kJ/mol
# Density = 1.891658 g / cm^3
# Si number density = 18.959730 Si / 1000 Ang^3
#
#
#
# Elastic Constant Matrix: (Units=GPa)
#
#
# Indices 1 2 3 4 5 6 
#
# 1 74.5212 25.1816 9.6015 0.0000 0.0000 0.0000
# 2 25.1816 68.5441 11.1920 0.0000 0.0000 0.0000
# 3 9.6015 11.1920 33.0068 0.0000 0.0000 0.0000
# 4 0.0000 0.0000 0.0000 25.0910 0.0000 0.0000
# 5 0.0000 0.0000 0.0000 0.0000 30.1523 0.0000
# 6 0.0000 0.0000 0.0000 0.0000 0.0000 26.0572
#
#
#
# Elastic Compliance Matrix: (Units=1/GPa)
#
#
# Indices 1 2 3 4 5 6 
#
# 1 0.015551 -0.005266 -0.002738 0.000000 0.000000 0.000000
# 2 -0.005266 0.017227 -0.004310 0.000000 0.000000 0.000000
# 3 -0.002738 -0.004310 0.032555 0.000000 0.000000 0.000000
# 4 0.000000 0.000000 0.000000 0.039855 0.000000 0.000000
# 5 0.000000 0.000000 0.000000 0.000000 0.033165 0.000000
# 6 0.000000 0.000000 0.000000 0.000000 0.000000 0.038377
#
#
# Mechanical properties :
#
#
# Convention : Reuss Voigt Hill
#
# Bulk Modulus (GPa) = 24.56663 29.78025 27.17344
# Shear Modulus (GPa) = 23.26374 24.93323 24.09848
#
# Velocity S-wave (km/s) = 3.50667 3.63031 3.56903
# Velocity P-wave (km/s) = 5.42043 5.77178 5.59886
#
# Compressibility (1/GPa) = 0.04070562
#
# Stress axis : x y z
#
# Youngs Moduli (GPa) = 64.30352 58.04678 30.71756
#
# Poissons Ratio (x) = 0.30568 0.08411
# Poissons Ratio (y) = 0.33863 0.13238
# Poissons Ratio (z) = 0.17607 0.25016
#
# Static dielectric constant tensor:
#      x y z
#    x 1.634050 0.000000 0.000000 
#    y 0.000000 1.628290 0.000000 
#    z 0.000000 0.000000 1.666320 
# 
# From -- ./inp_files/19475.got.cif
#   From: 2010.05.17/outbox.cif.g08.bks.cpg/sg44_10_cif.got.tgz:19475.got - 2010.06.03 19:37:08.
