data_PCOD9374367
_publ_section_title
;
Structure prediction by ZEFSAII (Michael W. Deem and Ramdas Pophale) SiO2 
 PCOD9374367
Probable space group: I M M 2
;
_chemical_formula_sum "Si O2"
_cell_formula_units_Z 34
_cell_length_a 21.905028
_cell_length_b 9.727626
_cell_length_c 7.960492
_cell_angle_alpha 90.000000
_cell_angle_beta 90.000000
_cell_angle_gamma 90.000000
_cell_volume 1696.252840
_symmetry_space_group_name_H-M "I M M 2"
_symmetry_group_IT_number 44
_symmetry_cell_setting 'orthorhombic'
loop_
_space_group_symop_operation_xyz
x,y,z
-x,-y,z
-x,y,z
x,-y,z
1/2+x,1/2+y,1/2+z
1/2-x,1/2-y,1/2+z
1/2-x,1/2+y,1/2+z
1/2+x,1/2-y,1/2+z
loop_
_atom_site_type_symbol
_atom_site_label
_atom_site_fract_x
_atom_site_fract_y
_atom_site_fract_z
Si Si1 0.500000 0.500000 0.282360
Si Si2 0.571198 0.344536 0.746248
Si Si3 0.212626 0.655746 0.763405
Si Si4 0.178251 0.344686 0.153245
Si Si5 0.889565 0.147160 0.632131
O O1 0.445332 0.617895 0.259694
O O2 0.500000 0.329483 0.706472
O O3 0.589167 0.500000 0.691973
O O4 0.613248 0.228865 0.668905
O O5 0.580594 0.339005 0.947941
O O6 0.222002 0.500000 0.701376
O O7 0.272862 0.746984 0.742827
O O8 0.156286 0.731716 0.673053
O O9 0.196783 0.650624 0.959210
O O10 0.177668 0.500000 0.220747
O O11 0.853927 0.000000 0.629495
#
# Coordination Sequence:
#
# PCOD9374367 Si02
#       5
#     2   8   8   8   8
#     4   8  16  36  62  90 120 152 188 230 280 344
#     4  10  19  38  62  89 118 154 192 236 284 341
#     4  11  24  41  59  86 116 151 194 244 290 341
#     4  11  25  41  58  84 118 152 193 243 293 341
#     4   9  17  36  63  87 117 149 192 229 283 336
#
# _framework density 20.044180999999998
#
# number of rings (size 3 to 8) (size 9 to 14) (size 15 to 20)
#    0.706    1.176    1.176    2.824    0.000   10.824 
#    2.118    0.588    0.000    0.000    0.000    0.000 
#    0.000    0.000    0.000    0.000    0.000    0.000 
#
# Total GULP energy -94640.138250 kJ/mol
# GULP energy per Si atom -5567.066956 kJ/mol
# Density = 1.999856 g / cm^3
# Si number density = 20.044181 Si / 1000 Ang^3
#
#
#
# Elastic Constant Matrix: (Units=GPa)
#
#
# Indices 1 2 3 4 5 6 
#
# 1 88.8341 88.8670 8.0126 0.0000 0.0000 0.0000
# 2 88.8670 190.8057 22.8119 0.0000 0.0000 0.0000
# 3 8.0126 22.8119 19.0093 0.0000 0.0000 0.0000
# 4 0.0000 0.0000 0.0000 16.9942 0.0000 0.0000
# 5 0.0000 0.0000 0.0000 0.0000 22.4622 0.0000
# 6 0.0000 0.0000 0.0000 0.0000 0.0000 41.0015
#
#
#
# Elastic Compliance Matrix: (Units=1/GPa)
#
#
# Indices 1 2 3 4 5 6 
#
# 1 0.021265 -0.010312 0.003411 0.000000 0.000000 0.000000
# 2 -0.010312 0.011119 -0.008997 0.000000 0.000000 0.000000
# 3 0.003411 -0.008997 0.061965 0.000000 0.000000 0.000000
# 4 0.000000 0.000000 0.000000 0.058843 0.000000 0.000000
# 5 0.000000 0.000000 0.000000 0.000000 0.044519 0.000000
# 6 0.000000 0.000000 0.000000 0.000000 0.000000 0.024389
#
#
# Mechanical properties :
#
#
# Convention : Reuss Voigt Hill
#
# Bulk Modulus (GPa) = 15.98629 59.78135 37.88382
# Shear Modulus (GPa) = 18.19853 28.02210 23.11032
#
# Velocity S-wave (km/s) = 3.01644 3.74306 3.39922
# Velocity P-wave (km/s) = 4.48606 6.96923 5.86067
#
# Compressibility (1/GPa) = 0.06255362
#
# Stress axis : x y z
#
# Youngs Moduli (GPa) = 47.02562 89.93353 16.13825
#
# Poissons Ratio (x) = 0.92739 -0.05505
# Poissons Ratio (y) = 0.48493 0.14520
# Poissons Ratio (z) = -0.16042 0.80913
#
# Static dielectric constant tensor:
#      x y z
#    x 1.678910 0.000000 0.000000 
#    y 0.000000 1.714020 0.000000 
#    z 0.000000 0.000000 1.768130 
# 
# From -- ./inp_files/8646.got.cif
#   From: 2010.05.17/outbox.cif.g08.bks.cpg/sg44_5_cif.got.tgz:8646.got - 2010.06.03 19:37:08.
