data_PCOD9374880
_publ_section_title
;
Structure prediction by ZEFSAII (Michael W. Deem and Ramdas Pophale) SiO2 
 PCOD9374880
Probable space group: I M M 2
;
_chemical_formula_sum "Si O2"
_cell_formula_units_Z 52
_cell_length_a 16.896610
_cell_length_b 25.374171
_cell_length_c 4.950206
_cell_angle_alpha 90.000000
_cell_angle_beta 90.000000
_cell_angle_gamma 90.000000
_cell_volume 2122.338804
_symmetry_space_group_name_H-M "I M M 2"
_symmetry_group_IT_number 44
_symmetry_cell_setting 'orthorhombic'
loop_
_space_group_symop_operation_xyz
x,y,z
-x,-y,z
-x,y,z
x,-y,z
1/2+x,1/2+y,1/2+z
1/2-x,1/2-y,1/2+z
1/2-x,1/2+y,1/2+z
1/2+x,1/2-y,1/2+z
loop_
_atom_site_type_symbol
_atom_site_label
_atom_site_fract_x
_atom_site_fract_y
_atom_site_fract_z
Si Si1 0.903738 0.500000 0.612870
Si Si2 0.250268 0.500000 0.224494
Si Si3 0.906692 0.664688 0.484951
Si Si4 0.588090 0.614729 0.620434
Si Si5 0.086320 0.000000 0.060979
Si Si6 0.777640 0.280045 0.222478
Si Si7 0.094343 0.397631 0.970696
Si Si8 0.190270 0.885810 0.596648
O O1 0.834142 0.500000 0.384609
O O2 0.889159 0.548831 0.813974
O O3 0.000000 0.500000 0.527571
O O4 0.328423 0.500000 0.417283
O O5 0.264524 0.557402 0.079461
O O6 0.864022 0.713835 0.351292
O O7 0.873357 0.648480 0.776452
O O8 0.000000 0.674030 0.498850
O O9 0.893293 0.614464 0.284428
O O10 0.500000 0.637514 0.635713
O O11 0.584272 0.553987 0.724309
O O12 0.619094 0.610462 0.314877
O O13 0.654933 0.636199 0.816800
O O14 0.000000 0.000000 0.907272
O O15 0.725599 0.248572 0.438535
O O16 0.745142 0.339432 0.205829
O O17 0.000000 0.393480 0.947999
#
# Coordination Sequence:
#
# PCOD9374880 Si02
#       8
#     4   4   8   8   4   8   8   8
#     4  10  20  35  56  93 136 174 214 262 320 386
#     4  10  21  37  64  97 131 174 214 268 328 380
#     4  10  21  41  65  88 116 162 216 263 311 375
#     4  10  20  38  63  93 130 171 211 264 322 382
#     4   8  17  32  54  86 127 172 216 254 314 392
#     4  12  26  45  67  92 127 169 210 262 323 379
#     4   9  19  35  59  89 125 164 208 260 313 371
#     4  11  23  41  64  97 132 168 215 264 318 387
#
# _framework density 24.501273000000001
#
# number of rings (size 3 to 8) (size 9 to 14) (size 15 to 20)
#    0.000    1.846    0.000    3.692    0.000    3.692 
#    0.000   13.846    0.000    0.000    0.000    0.000 
#    0.000    0.000    0.000    0.000    0.000    0.000 
#
# Total GULP energy -145168.537877 kJ/mol
# GULP energy per Si atom -5583.405303 kJ/mol
# Density = 2.444551 g / cm^3
# Si number density = 24.501273 Si / 1000 Ang^3
#
#
#
# Elastic Constant Matrix: (Units=GPa)
#
#
# Indices 1 2 3 4 5 6 
#
# 1 136.7606 29.4947 28.7602 0.0000 0.0000 0.0000
# 2 29.4947 77.6621 4.6549 0.0000 0.0000 0.0000
# 3 28.7602 4.6549 100.1535 0.0000 0.0000 0.0000
# 4 0.0000 0.0000 0.0000 7.2517 0.0000 0.0000
# 5 0.0000 0.0000 0.0000 0.0000 34.1033 0.0000
# 6 0.0000 0.0000 0.0000 0.0000 0.0000 22.3485
#
#
#
# Elastic Compliance Matrix: (Units=1/GPa)
#
#
# Indices 1 2 3 4 5 6 
#
# 1 0.008456 -0.003074 -0.002285 0.000000 0.000000 0.000000
# 2 -0.003074 0.014030 0.000231 0.000000 0.000000 0.000000
# 3 -0.002285 0.000231 0.010630 0.000000 0.000000 0.000000
# 4 0.000000 0.000000 0.000000 0.137899 0.000000 0.000000
# 5 0.000000 0.000000 0.000000 0.000000 0.029323 0.000000
# 6 0.000000 0.000000 0.000000 0.000000 0.000000 0.044746
#
#
# Mechanical properties :
#
#
# Convention : Reuss Voigt Hill
#
# Bulk Modulus (GPa) = 43.74797 48.93285 46.34041
# Shear Modulus (GPa) = 19.01425 29.51847 24.26636
#
# Velocity S-wave (km/s) = 2.78879 3.47475 3.15050
# Velocity P-wave (km/s) = 5.31639 6.00944 5.67351
#
# Compressibility (1/GPa) = 0.02285820
#
# Stress axis : x y z
#
# Youngs Moduli (GPa) = 118.26402 71.27568 94.07177
#
# Poissons Ratio (x) = 0.21913 0.21498
# Poissons Ratio (y) = 0.36358 -0.02171
# Poissons Ratio (z) = 0.27026 -0.01645
#
# Static dielectric constant tensor:
#      x y z
#    x 2.020850 0.000000 0.000000 
#    y 0.000000 2.011810 0.000000 
#    z 0.000000 0.000000 1.915270 
# 
# From -- ./inp_files/2096.got.cif
#   From: 2010.05.17/outbox.cif.g08.bks.cpg/sg44_2_cif.got.tgz:2096.got - 2010.06.03 19:37:08.
