data_PCOD9374536
_publ_section_title
;
Structure prediction by ZEFSAII (Michael W. Deem and Ramdas Pophale) SiO2 
 PCOD9374536
Probable space group: I M M 2
;
_chemical_formula_sum "Si O2"
_cell_formula_units_Z 64
_cell_length_a 14.617866
_cell_length_b 7.683811
_cell_length_c 29.298959
_cell_angle_alpha 90.000000
_cell_angle_beta 90.000000
_cell_angle_gamma 90.000000
_cell_volume 3290.886017
_symmetry_space_group_name_H-M "I M M 2"
_symmetry_group_IT_number 44
_symmetry_cell_setting 'orthorhombic'
loop_
_space_group_symop_operation_xyz
x,y,z
-x,-y,z
-x,y,z
x,-y,z
1/2+x,1/2+y,1/2+z
1/2-x,1/2-y,1/2+z
1/2-x,1/2+y,1/2+z
1/2+x,1/2-y,1/2+z
loop_
_atom_site_type_symbol
_atom_site_label
_atom_site_fract_x
_atom_site_fract_y
_atom_site_fract_z
Si Si1 0.397683 0.794417 0.708840
Si Si2 0.259087 0.286693 0.141502
Si Si3 0.237072 0.204926 0.288160
Si Si4 0.395062 0.786626 0.466621
Si Si5 0.896137 0.706869 0.459345
Si Si6 0.742518 0.290153 0.037583
Si Si7 0.759789 0.703919 0.889404
Si Si8 0.603820 0.289332 0.219130
O O1 0.500000 0.720569 0.709719
O O2 0.330391 0.725451 0.669361
O O3 0.343988 0.776695 0.756518
O O4 0.405273 0.000000 0.700018
O O5 0.257878 0.500000 0.141105
O O6 0.261380 0.226784 0.089429
O O7 0.345866 0.235015 0.172320
O O8 0.245662 0.279763 0.339104
O O9 0.330911 0.232639 0.260407
O O10 0.219100 0.000000 0.291703
O O11 0.500000 0.730667 0.468943
O O12 0.332187 0.731812 0.509375
O O13 0.341690 0.725690 0.421138
O O14 0.394490 0.000000 0.466285
O O15 0.898183 0.500000 0.452562
O O16 0.844987 0.742372 0.507051
O O17 0.831539 0.782289 0.419793
O O18 0.000000 0.773106 0.458743
O O19 0.746189 0.500000 0.039018
O O20 0.781041 0.500000 0.882939
O O21 0.500000 0.227037 0.222630
O O22 0.602872 0.500000 0.219480
#
# Coordination Sequence:
#
# PCOD9374536 Si02
#       8
#     8   8   8   8   8   8   8   8
#     4   9  18  33  52  73  99 131 165 201 243 294
#     4   8  15  29  49  73  98 125 162 203 238 279
#     4  10  20  33  50  73 100 128 162 206 251 295
#     4   8  14  26  45  69  94 117 146 189 237 281
#     4  10  21  35  50  70  97 128 161 199 243 289
#     4   9  17  30  50  74  98 126 160 198 241 286
#     4   9  19  34  51  71  94 125 163 200 240 286
#     4   9  18  33  51  71  98 132 169 206 243 288
#
# _framework density 19.447648999999998
#
# number of rings (size 3 to 8) (size 9 to 14) (size 15 to 20)
#    0.000    3.000    0.000    2.250    0.000    4.500 
#    0.000   10.000    0.000    6.000    0.000    0.000 
#    0.000    0.000    0.000    0.000    0.000    0.000 
#
# Total GULP energy -178416.327552 kJ/mol
# GULP energy per Si atom -5575.510236 kJ/mol
# Density = 1.940339 g / cm^3
# Si number density = 19.447649 Si / 1000 Ang^3
#
#
#
# Elastic Constant Matrix: (Units=GPa)
#
#
# Indices 1 2 3 4 5 6 
#
# 1 131.0752 -19.1541 40.8293 0.0000 0.0000 0.0000
# 2 -19.1541 27.4022 -15.9928 0.0000 0.0000 0.0000
# 3 40.8293 -15.9928 143.6042 0.0000 0.0000 0.0000
# 4 0.0000 0.0000 0.0000 15.7318 0.0000 0.0000
# 5 0.0000 0.0000 0.0000 0.0000 4.4709 0.0000
# 6 0.0000 0.0000 0.0000 0.0000 0.0000 5.5262
#
#
#
# Elastic Compliance Matrix: (Units=1/GPa)
#
#
# Indices 1 2 3 4 5 6 
#
# 1 0.008998 0.005130 -0.001987 0.000000 0.000000 0.000000
# 2 0.005130 0.041955 0.003214 0.000000 0.000000 0.000000
# 3 -0.001987 0.003214 0.007886 0.000000 0.000000 0.000000
# 4 0.000000 0.000000 0.000000 0.063566 0.000000 0.000000
# 5 0.000000 0.000000 0.000000 0.000000 0.223667 0.000000
# 6 0.000000 0.000000 0.000000 0.000000 0.000000 0.180956
#
#
# Mechanical properties :
#
#
# Convention : Reuss Voigt Hill
#
# Bulk Modulus (GPa) = 13.97571 34.82736 24.40153
# Shear Modulus (GPa) = 9.29084 24.90574 17.09829
#
# Velocity S-wave (km/s) = 2.18809 3.58251 2.96834
# Velocity P-wave (km/s) = 3.68586 5.92112 4.93179
#
# Compressibility (1/GPa) = 0.07155272
#
# Stress axis : x y z
#
# Youngs Moduli (GPa) = 111.13892 23.83508 126.80012
#
# Poissons Ratio (x) = -0.12227 0.25194
# Poissons Ratio (y) = -0.57012 -0.40753
# Poissons Ratio (z) = 0.22083 -0.07660
#
# Static dielectric constant tensor:
#      x y z
#    x 1.663460 0.000000 0.000000 
#    y 0.000000 1.737580 0.000000 
#    z 0.000000 0.000000 1.670560 
# 
# From -- ./inp_files/27356.got.cif
#   From: 2010.05.17/outbox.cif.g08.bks.cpg/sg44_14_cif.got.tgz:27356.got - 2010.06.03 19:37:08.
