data_PCOD9374186
_publ_section_title
;
Structure prediction by ZEFSAII (Michael W. Deem and Ramdas Pophale) SiO2 
 PCOD9374186
Probable space group: I M M 2
;
_chemical_formula_sum "Si O2"
_cell_formula_units_Z 56
_cell_length_a 20.904836
_cell_length_b 8.635017
_cell_length_c 15.696602
_cell_angle_alpha 90.000000
_cell_angle_beta 90.000000
_cell_angle_gamma 90.000000
_cell_volume 2833.450358
_symmetry_space_group_name_H-M "I M M 2"
_symmetry_group_IT_number 44
_symmetry_cell_setting 'orthorhombic'
loop_
_space_group_symop_operation_xyz
x,y,z
-x,-y,z
-x,y,z
x,-y,z
1/2+x,1/2+y,1/2+z
1/2-x,1/2-y,1/2+z
1/2-x,1/2+y,1/2+z
1/2+x,1/2-y,1/2+z
loop_
_atom_site_type_symbol
_atom_site_label
_atom_site_fract_x
_atom_site_fract_y
_atom_site_fract_z
Si Si1 0.790093 0.185295 0.306400
Si Si2 0.700514 0.686388 0.154566
Si Si3 0.124107 0.680433 0.072022
Si Si4 0.428103 0.318786 0.230840
Si Si5 0.073729 0.335809 0.893703
Si Si6 0.074021 0.312815 0.258692
Si Si7 0.752205 0.817558 0.986684
O O1 0.753945 0.249847 0.221349
O O2 0.864510 0.242102 0.307398
O O3 0.755560 0.245190 0.392732
O O4 0.788415 0.000000 0.303439
O O5 0.702660 0.500000 0.162152
O O6 0.630993 0.750269 0.180592
O O7 0.708383 0.734589 0.056725
O O8 0.146661 0.500000 0.081167
O O9 0.091211 0.724797 0.159970
O O10 0.076083 0.685763 0.993534
O O11 0.180060 0.784699 0.033022
O O12 0.500000 0.258480 0.213287
O O13 0.430838 0.500000 0.212785
O O14 0.406292 0.296760 0.329439
O O15 0.107603 0.500000 0.874203
O O16 0.000000 0.351025 0.872509
O O17 0.076046 0.500000 0.267558
O O18 0.000000 0.264980 0.277934
O O19 0.740463 0.000000 0.981044
#
# Coordination Sequence:
#
# PCOD9374186 Si02
#       7
#     8   8   8   8   8   8   8
#     4  12  25  42  64  92 127 169 216 267 319 381
#     4  11  22  40  64  90 122 159 202 257 318 382
#     4  10  19  34  57  86 121 157 199 250 310 376
#     4   9  19  35  55  81 114 153 194 241 302 365
#     4   9  17  29  48  78 114 151 189 228 279 349
#     4  10  21  39  64  92 127 171 215 264 326 392
#     4  12  25  40  61  89 121 160 209 263 319 381
#
# _framework density 19.76389
#
# number of rings (size 3 to 8) (size 9 to 14) (size 15 to 20)
#    0.000    1.571    1.429    4.286    0.000    6.000 
#    0.000    0.714    0.000    5.143    0.000    0.000 
#    0.000    0.000    0.000    0.000    0.000    0.000 
#
# Total GULP energy -155896.819563 kJ/mol
# GULP energy per Si atom -5567.743556 kJ/mol
# Density = 1.971891 g / cm^3
# Si number density = 19.763890 Si / 1000 Ang^3
#
#
#
# Elastic Constant Matrix: (Units=GPa)
#
#
# Indices 1 2 3 4 5 6 
#
# 1 96.0582 26.2817 10.2998 0.0000 0.0000 0.0000
# 2 26.2817 65.5483 19.9213 0.0000 0.0000 0.0000
# 3 10.2998 19.9213 68.2754 0.0000 0.0000 0.0000
# 4 0.0000 0.0000 0.0000 26.4076 0.0000 0.0000
# 5 0.0000 0.0000 0.0000 0.0000 37.5422 0.0000
# 6 0.0000 0.0000 0.0000 0.0000 0.0000 17.1222
#
#
#
# Elastic Compliance Matrix: (Units=1/GPa)
#
#
# Indices 1 2 3 4 5 6 
#
# 1 0.011705 -0.004561 -0.000435 0.000000 0.000000 0.000000
# 2 -0.004561 0.018518 -0.004715 0.000000 0.000000 0.000000
# 3 -0.000435 -0.004715 0.016088 0.000000 0.000000 0.000000
# 4 0.000000 0.000000 0.000000 0.037868 0.000000 0.000000
# 5 0.000000 0.000000 0.000000 0.000000 0.026637 0.000000
# 6 0.000000 0.000000 0.000000 0.000000 0.000000 0.058404
#
#
# Mechanical properties :
#
#
# Convention : Reuss Voigt Hill
#
# Bulk Modulus (GPa) = 37.19046 38.09863 37.64454
# Shear Modulus (GPa) = 25.30323 27.77301 26.53812
#
# Velocity S-wave (km/s) = 3.58198 3.75272 3.66834
# Velocity P-wave (km/s) = 5.99714 6.17219 6.08529
#
# Compressibility (1/GPa) = 0.02688862
#
# Stress axis : x y z
#
# Youngs Moduli (GPa) = 85.43459 54.00266 62.15845
#
# Poissons Ratio (x) = 0.24630 0.02704
# Poissons Ratio (y) = 0.38966 0.29308
# Poissons Ratio (z) = 0.03716 0.25462
#
# Static dielectric constant tensor:
#      x y z
#    x 1.664130 0.000000 0.000000 
#    y 0.000000 1.764790 0.000000 
#    z 0.000000 0.000000 1.693130 
# 
# From -- ./inp_files/16500.got.cif
#   From: 2010.05.17/outbox.cif.g08.bks.cpg/sg44_9_cif.got.tgz:16500.got - 2010.06.03 19:37:08.
