data_PCOD9374672
_publ_section_title
;
Structure prediction by ZEFSAII (Michael W. Deem and Ramdas Pophale) SiO2 
 PCOD9374672
Probable space group: I M M 2
;
_chemical_formula_sum "Si O2"
_cell_formula_units_Z 58
_cell_length_a 14.578510
_cell_length_b 7.423258
_cell_length_c 26.222434
_cell_angle_alpha 90.000000
_cell_angle_beta 90.000000
_cell_angle_gamma 90.000000
_cell_volume 2837.792882
_symmetry_space_group_name_H-M "I M M 2"
_symmetry_group_IT_number 44
_symmetry_cell_setting 'orthorhombic'
loop_
_space_group_symop_operation_xyz
x,y,z
-x,-y,z
-x,y,z
x,-y,z
1/2+x,1/2+y,1/2+z
1/2-x,1/2-y,1/2+z
1/2-x,1/2+y,1/2+z
1/2+x,1/2-y,1/2+z
loop_
_atom_site_type_symbol
_atom_site_label
_atom_site_fract_x
_atom_site_fract_y
_atom_site_fract_z
Si Si1 0.102616 0.210689 0.561360
Si Si2 0.393361 0.220118 0.270851
Si Si3 0.302409 0.792357 0.167037
Si Si4 0.785655 0.297358 0.866984
Si Si5 0.336155 0.721706 0.953036
Si Si6 0.399513 0.783367 0.689541
Si Si7 0.500000 0.000000 0.928832
Si Si8 0.602318 0.781426 0.808777
O O1 0.147502 0.226391 0.616546
O O2 0.162359 0.271085 0.513082
O O3 0.000000 0.292721 0.559595
O O4 0.091647 0.000000 0.552454
O O5 0.500000 0.265143 0.264995
O O6 0.336985 0.285828 0.221214
O O7 0.351950 0.287297 0.324527
O O8 0.385590 0.000000 0.272479
O O9 0.193042 0.775739 0.162444
O O10 0.327614 0.000000 0.169867
O O11 0.819919 0.500000 0.875508
O O12 0.755814 0.225682 0.922115
O O13 0.687008 0.299380 0.838438
O O14 0.347041 0.500000 0.947340
O O15 0.419589 0.840621 0.931148
O O16 0.500000 0.720387 0.671505
O O17 0.390409 0.732737 0.749137
O O18 0.400582 0.000000 0.687945
O O19 0.500000 0.728676 0.825517
O O20 0.606649 0.000000 0.812976
#
# Coordination Sequence:
#
# PCOD9374672 Si02
#       8
#     8   8   8   8   8   8   2   8
#     4  10  21  38  56  78 116 151 184 238 284 331
#     4   9  18  34  53  78 110 146 186 236 286 339
#     4  11  21  32  54  85 113 145 191 233 279 348
#     4  10  20  34  52  75 109 144 182 231 281 332
#     4  10  23  38  55  86 118 152 198 239 284 358
#     4   9  18  34  51  72 106 147 183 226 277 333
#     4  12  22  36  64  82 118 164 186 232 312 332
#     4   9  18  29  46  71 102 137 176 217 264 330
#
# _framework density 20.438420000000001
#
# number of rings (size 3 to 8) (size 9 to 14) (size 15 to 20)
#    0.000    2.207    2.069    1.862    2.897    1.379 
#    0.000    1.379    0.000    2.069    0.000    3.862 
#    0.000    0.000    0.000    0.000    0.000    0.138 
#
# Total GULP energy -161439.787793 kJ/mol
# GULP energy per Si atom -5566.889234 kJ/mol
# Density = 2.039190 g / cm^3
# Si number density = 20.438420 Si / 1000 Ang^3
#
#
#
# Elastic Constant Matrix: (Units=GPa)
#
#
# Indices 1 2 3 4 5 6 
#
# 1 88.0668 -6.9261 57.3672 0.0000 0.0000 0.0000
# 2 -6.9261 73.6170 2.5387 0.0000 0.0000 0.0000
# 3 57.3672 2.5387 130.5383 0.0000 0.0000 0.0000
# 4 0.0000 0.0000 0.0000 10.7627 0.0000 0.0000
# 5 0.0000 0.0000 0.0000 0.0000 4.2170 0.0000
# 6 0.0000 0.0000 0.0000 0.0000 0.0000 14.7289
#
#
#
# Elastic Compliance Matrix: (Units=1/GPa)
#
#
# Indices 1 2 3 4 5 6 
#
# 1 0.016135 0.001764 -0.007125 0.000000 0.000000 0.000000
# 2 0.001764 0.013786 -0.001043 0.000000 0.000000 0.000000
# 3 -0.007125 -0.001043 0.010812 0.000000 0.000000 0.000000
# 4 0.000000 0.000000 0.000000 0.092913 0.000000 0.000000
# 5 0.000000 0.000000 0.000000 0.000000 0.237133 0.000000
# 6 0.000000 0.000000 0.000000 0.000000 0.000000 0.067894
#
#
# Mechanical properties :
#
#
# Convention : Reuss Voigt Hill
#
# Bulk Modulus (GPa) = 35.81179 44.24240 40.02710
# Shear Modulus (GPa) = 10.85094 21.89122 16.37108
#
# Velocity S-wave (km/s) = 2.30665 3.27629 2.83326
# Velocity P-wave (km/s) = 4.96528 6.00048 5.50726
#
# Compressibility (1/GPa) = 0.02792376
#
# Stress axis : x y z
#
# Youngs Moduli (GPa) = 61.97678 72.53874 92.48876
#
# Poissons Ratio (x) = -0.12794 0.65899
# Poissons Ratio (y) = -0.10931 0.09649
# Poissons Ratio (z) = 0.44159 0.07567
#
# Static dielectric constant tensor:
#      x y z
#    x 1.710580 0.000000 0.000000 
#    y 0.000000 1.813220 0.000000 
#    z 0.000000 0.000000 1.787740 
# 
# From -- ./inp_files/25688.got.cif
#   From: 2010.05.17/outbox.cif.g08.bks.cpg/sg44_13_cif.got.tgz:25688.got - 2010.06.03 19:37:08.
