data_PCOD9374787
_publ_section_title
;
Structure prediction by ZEFSAII (Michael W. Deem and Ramdas Pophale) SiO2 
 PCOD9374787
Probable space group: I M M 2
;
_chemical_formula_sum "Si O2"
_cell_formula_units_Z 64
_cell_length_a 8.718386
_cell_length_b 19.945358
_cell_length_c 21.122660
_cell_angle_alpha 90.000000
_cell_angle_beta 90.000000
_cell_angle_gamma 90.000000
_cell_volume 3673.047440
_symmetry_space_group_name_H-M "I M M 2"
_symmetry_group_IT_number 44
_symmetry_cell_setting 'orthorhombic'
loop_
_space_group_symop_operation_xyz
x,y,z
-x,-y,z
-x,y,z
x,-y,z
1/2+x,1/2+y,1/2+z
1/2-x,1/2-y,1/2+z
1/2-x,1/2+y,1/2+z
1/2+x,1/2-y,1/2+z
loop_
_atom_site_type_symbol
_atom_site_label
_atom_site_fract_x
_atom_site_fract_y
_atom_site_fract_z
Si Si1 0.313835 0.573891 0.979640
Si Si2 0.682057 0.211497 0.295821
Si Si3 0.317660 0.076821 0.106817
Si Si4 0.184556 0.075983 0.628545
Si Si5 0.684340 0.715968 0.928687
Si Si6 0.683597 0.423958 0.748053
Si Si7 0.816023 0.793870 0.048414
Si Si8 0.683071 0.788501 0.675359
O O1 0.500000 0.572877 0.976394
O O2 0.260062 0.500000 0.958534
O O3 0.262393 0.639214 0.942050
O O4 0.274551 0.582300 0.053932
O O5 0.500000 0.213453 0.297639
O O6 0.751579 0.238243 0.361224
O O7 0.739527 0.135135 0.287069
O O8 0.741713 0.252784 0.235425
O O9 0.500000 0.087627 0.114230
O O10 0.238093 0.083940 0.175422
O O11 0.293353 0.000000 0.085889
O O12 0.247080 0.131819 0.060738
O O13 0.263847 0.135051 0.666868
O O14 0.000000 0.083020 0.632818
O O15 0.224411 0.000000 0.648176
O O16 0.500000 0.716848 0.927953
O O17 0.744582 0.760347 0.986545
O O18 0.500000 0.416772 0.751232
O O19 0.723254 0.500000 0.768077
O O20 0.000000 0.794242 0.043884
O O21 0.772435 0.750638 0.110820
O O22 0.500000 0.784317 0.681439
#
# Coordination Sequence:
#
# PCOD9374787 Si02
#       8
#     8   8   8   8   8   8   8   8
#     4   8  15  29  51  79 109 144 184 221 262 321
#     4  12  25  39  56  79 114 152 193 237 285 340
#     4  10  20  34  56  86 115 145 185 233 285 337
#     4   9  17  32  56  85 114 145 184 228 278 333
#     4  11  22  37  58  81 113 151 192 235 283 337
#     4  10  20  35  55  80 112 150 191 232 279 337
#     4  11  22  36  57  84 115 149 189 235 283 335
#     4  11  22  36  57  84 114 148 190 235 281 331
#
# _framework density 17.424223000000001
#
# number of rings (size 3 to 8) (size 9 to 14) (size 15 to 20)
#    0.000    1.750    2.500    3.750    0.000    3.250 
#    0.000    1.250    0.000    1.875    0.000    0.000 
#    0.000    0.000    0.000    0.000    0.000    0.000 
#
# Total GULP energy -178713.184956 kJ/mol
# GULP energy per Si atom -5584.787030 kJ/mol
# Density = 1.738456 g / cm^3
# Si number density = 17.424223 Si / 1000 Ang^3
#
#
#
# Elastic Constant Matrix: (Units=GPa)
#
#
# Indices 1 2 3 4 5 6 
#
# 1 67.8358 42.5660 47.9468 0.0000 0.0000 0.0000
# 2 42.5660 96.7974 57.4508 0.0000 0.0000 0.0000
# 3 47.9468 57.4508 114.1628 0.0000 0.0000 0.0000
# 4 0.0000 0.0000 0.0000 18.3899 0.0000 0.0000
# 5 0.0000 0.0000 0.0000 0.0000 24.3256 0.0000
# 6 0.0000 0.0000 0.0000 0.0000 0.0000 26.3227
#
#
#
# Elastic Compliance Matrix: (Units=1/GPa)
#
#
# Indices 1 2 3 4 5 6 
#
# 1 0.023424 -0.006362 -0.006636 0.000000 0.000000 0.000000
# 2 -0.006362 0.016458 -0.005611 0.000000 0.000000 0.000000
# 3 -0.006636 -0.005611 0.014370 0.000000 0.000000 0.000000
# 4 0.000000 0.000000 0.000000 0.054378 0.000000 0.000000
# 5 0.000000 0.000000 0.000000 0.000000 0.041109 0.000000
# 6 0.000000 0.000000 0.000000 0.000000 0.000000 0.037990
#
#
# Mechanical properties :
#
#
# Convention : Reuss Voigt Hill
#
# Bulk Modulus (GPa) = 58.70242 63.85814 61.28028
# Shear Modulus (GPa) = 21.68026 22.52980 22.10503
#
# Velocity S-wave (km/s) = 3.53123 3.59975 3.56566
# Velocity P-wave (km/s) = 7.09855 7.34890 7.22481
#
# Compressibility (1/GPa) = 0.01703507
#
# Stress axis : x y z
#
# Youngs Moduli (GPa) = 42.69137 60.75931 69.58940
#
# Poissons Ratio (x) = 0.38654 0.46181
# Poissons Ratio (y) = 0.27159 0.39044
# Poissons Ratio (z) = 0.28331 0.34090
#
# Static dielectric constant tensor:
#      x y z
#    x 1.579950 0.000000 0.000000 
#    y 0.000000 1.601640 0.000000 
#    z 0.000000 0.000000 1.575500 
# 
# From -- ./inp_files/20794.got.cif
#   From: 2010.05.17/outbox.cif.g08.bks.cpg/sg44_11_cif.got.tgz:20794.got - 2010.06.03 19:37:08.
