data_PCOD9374699
_publ_section_title
;
Structure prediction by ZEFSAII (Michael W. Deem and Ramdas Pophale) SiO2 
 PCOD9374699
Probable space group: I M M 2
;
_chemical_formula_sum "Si O2"
_cell_formula_units_Z 48
_cell_length_a 7.980131
_cell_length_b 9.174595
_cell_length_c 35.298598
_cell_angle_alpha 90.000000
_cell_angle_beta 90.000000
_cell_angle_gamma 90.000000
_cell_volume 2584.368143
_symmetry_space_group_name_H-M "I M M 2"
_symmetry_group_IT_number 44
_symmetry_cell_setting 'orthorhombic'
loop_
_space_group_symop_operation_xyz
x,y,z
-x,-y,z
-x,y,z
x,-y,z
1/2+x,1/2+y,1/2+z
1/2-x,1/2-y,1/2+z
1/2-x,1/2+y,1/2+z
1/2+x,1/2-y,1/2+z
loop_
_atom_site_type_symbol
_atom_site_label
_atom_site_fract_x
_atom_site_fract_y
_atom_site_fract_z
Si Si1 0.811419 0.675267 0.849320
Si Si2 0.203006 0.329869 0.272885
Si Si3 0.500000 0.677591 0.901134
Si Si4 0.202374 0.168434 0.196700
Si Si5 0.313970 0.175271 0.538685
Si Si6 0.198818 0.329906 0.613419
Si Si7 0.000000 0.177952 0.488041
O O1 0.798545 0.500000 0.845337
O O2 0.779034 0.746822 0.808633
O O3 0.665923 0.722945 0.878199
O O4 0.000000 0.709374 0.862473
O O5 0.245067 0.500000 0.274180
O O6 0.257352 0.259804 0.233053
O O7 0.000000 0.315691 0.275171
O O8 0.500000 0.500000 0.901720
O O9 0.500000 0.727063 0.944572
O O10 0.263015 0.223459 0.155895
O O11 0.000000 0.169697 0.196010
O O12 0.257792 0.000000 0.200792
O O13 0.500000 0.213006 0.524635
O O14 0.286890 0.242099 0.580151
O O15 0.165373 0.224569 0.510935
O O16 0.303337 0.000000 0.541511
O O17 0.251315 0.500000 0.612024
O O18 0.000000 0.322482 0.607061
O O19 0.000000 0.000000 0.487634
#
# Coordination Sequence:
#
# PCOD9374699 Si02
#       7
#     8   8   4   8   8   8   4
#     4  10  20  34  56  83 108 141 183 224 270 324
#     4  10  20  34  53  77 108 146 183 222 273 327
#     4   9  18  34  57  83 113 143 177 227 277 323
#     4   9  18  32  50  73 104 143 185 230 274 318
#     4  10  20  34  55  81 110 146 182 220 271 327
#     4  10  20  34  53  77 107 144 185 227 272 321
#     4   9  18  34  55  83 115 143 177 225 277 327
#
# _framework density 18.573205000000002
#
# number of rings (size 3 to 8) (size 9 to 14) (size 15 to 20)
#    0.000    2.333    1.667    1.000    0.000    4.000 
#    0.000    6.667    0.000    2.000    0.000    2.333 
#    0.000    0.000    0.000    0.000    0.000    0.000 
#
# Total GULP energy -133934.494673 kJ/mol
# GULP energy per Si atom -5580.603945 kJ/mol
# Density = 1.853093 g / cm^3
# Si number density = 18.573205 Si / 1000 Ang^3
#
#
#
# Elastic Constant Matrix: (Units=GPa)
#
#
# Indices 1 2 3 4 5 6 
#
# 1 118.7770 35.5647 84.1767 0.0000 0.0000 0.0000
# 2 35.5647 18.3046 31.8011 0.0000 0.0000 0.0000
# 3 84.1767 31.8011 156.2792 0.0000 0.0000 0.0000
# 4 0.0000 0.0000 0.0000 20.8919 0.0000 0.0000
# 5 0.0000 0.0000 0.0000 0.0000 20.4774 0.0000
# 6 0.0000 0.0000 0.0000 0.0000 0.0000 15.0975
#
#
#
# Elastic Compliance Matrix: (Units=1/GPa)
#
#
# Indices 1 2 3 4 5 6 
#
# 1 0.022364 -0.034841 -0.004956 0.000000 0.000000 0.000000
# 2 -0.034841 0.138786 -0.009475 0.000000 0.000000 0.000000
# 3 -0.004956 -0.009475 0.010996 0.000000 0.000000 0.000000
# 4 0.000000 0.000000 0.000000 0.047865 0.000000 0.000000
# 5 0.000000 0.000000 0.000000 0.000000 0.048834 0.000000
# 6 0.000000 0.000000 0.000000 0.000000 0.000000 0.066236
#
#
# Mechanical properties :
#
#
# Convention : Reuss Voigt Hill
#
# Bulk Modulus (GPa) = 13.58654 66.27174 39.92914
# Shear Modulus (GPa) = 10.91321 20.74793 15.83057
#
# Velocity S-wave (km/s) = 2.42663 3.34591 2.92264
# Velocity P-wave (km/s) = 3.89646 7.11939 5.73882
#
# Compressibility (1/GPa) = 0.07360225
#
# Stress axis : x y z
#
# Youngs Moduli (GPa) = 44.71536 7.20531 90.93960
#
# Poissons Ratio (x) = 0.25104 0.45070
# Poissons Ratio (y) = 1.55793 0.86165
# Poissons Ratio (z) = 0.22161 0.06827
#
# Static dielectric constant tensor:
#      x y z
#    x 1.665910 0.000000 0.000000 
#    y 0.000000 1.624660 0.000000 
#    z 0.000000 0.000000 1.606760 
# 
# From -- ./inp_files/26950.got.cif
#   From: 2010.05.17/outbox.cif.g08.bks.cpg/sg44_14_cif.got.tgz:26950.got - 2010.06.03 19:37:08.
