data_PCOD9374618
_publ_section_title
;
Structure prediction by ZEFSAII (Michael W. Deem and Ramdas Pophale) SiO2 
 PCOD9374618
Probable space group: I M M 2
;
_chemical_formula_sum "Si O2"
_cell_formula_units_Z 64
_cell_length_a 8.162334
_cell_length_b 29.442914
_cell_length_c 13.065240
_cell_angle_alpha 90.000000
_cell_angle_beta 90.000000
_cell_angle_gamma 90.000000
_cell_volume 3139.876340
_symmetry_space_group_name_H-M "I M M 2"
_symmetry_group_IT_number 44
_symmetry_cell_setting 'orthorhombic'
loop_
_space_group_symop_operation_xyz
x,y,z
-x,-y,z
-x,y,z
x,-y,z
1/2+x,1/2+y,1/2+z
1/2-x,1/2-y,1/2+z
1/2-x,1/2+y,1/2+z
1/2+x,1/2-y,1/2+z
loop_
_atom_site_type_symbol
_atom_site_label
_atom_site_fract_x
_atom_site_fract_y
_atom_site_fract_z
Si Si1 0.301878 0.049569 0.054460
Si Si2 0.687224 0.927588 0.273628
Si Si3 0.806400 0.096329 0.490895
Si Si4 0.201116 0.052384 0.702964
Si Si5 0.198411 0.303092 0.932138
Si Si6 0.688257 0.178219 0.210979
Si Si7 0.194096 0.794327 0.992559
Si Si8 0.305305 0.618218 0.384495
O O1 0.500000 0.056276 0.057601
O O2 0.241446 0.049968 0.171765
O O3 0.268442 0.000000 0.008937
O O4 0.224855 0.088224 0.985585
O O5 0.500000 0.943183 0.285261
O O6 0.766591 0.929457 0.384829
O O7 0.686158 0.874726 0.240551
O O8 0.743679 0.070687 0.591836
O O9 0.747815 0.148529 0.479507
O O10 0.000000 0.098291 0.500897
O O11 0.258325 0.088168 0.789628
O O12 0.000000 0.052156 0.704974
O O13 0.252296 0.000000 0.720359
O O14 0.255820 0.299380 0.814143
O O15 0.257347 0.257179 0.986013
O O16 0.000000 0.304270 0.929321
O O17 0.500000 0.192720 0.194869
O O18 0.780480 0.187321 0.106678
O O19 0.262088 0.831638 0.912066
O O20 0.000000 0.791594 0.972659
O O21 0.500000 0.622992 0.368080
#
# Coordination Sequence:
#
# PCOD9374618 Si02
#       8
#     8   8   8   8   8   8   8   8
#     4  10  20  34  53  78 108 140 175 217 268 327
#     4   9  18  34  53  74 105 142 172 211 274 331
#     4  10  20  34  56  82 106 138 187 234 267 319
#     4   9  19  36  56  79 111 148 182 226 285 335
#     4   9  20  37  53  75 110 149 180 219 280 336
#     4   9  17  32  53  72  99 139 173 210 267 327
#     4  10  20  33  53  80 107 137 180 228 271 322
#     4  10  20  35  56  80 107 142 183 227 275 330
#
# _framework density 20.382968000000002
#
# number of rings (size 3 to 8) (size 9 to 14) (size 15 to 20)
#    0.000    2.500    1.250    1.500    0.000    5.250 
#    0.000    3.750    0.000    2.625    0.000    0.000 
#    0.000    0.000    0.000    0.000    0.000    0.000 
#
# Total GULP energy -178352.696973 kJ/mol
# GULP energy per Si atom -5573.521780 kJ/mol
# Density = 2.033658 g / cm^3
# Si number density = 20.382968 Si / 1000 Ang^3
#
#
#
# Elastic Constant Matrix: (Units=GPa)
#
#
# Indices 1 2 3 4 5 6 
#
# 1 8.6506 5.0163 2.3596 0.0001 0.0000 0.0015
# 2 5.0163 52.9133 28.5030 0.0000 -0.0001 0.0024
# 3 2.3596 28.5030 102.9478 -0.0004 0.0002 -0.0029
# 4 0.0001 0.0000 -0.0004 24.6601 0.0001 -0.0021
# 5 0.0000 -0.0001 0.0002 0.0001 17.5557 0.0006
# 6 0.0015 0.0024 -0.0029 -0.0021 0.0006 -235.7527
#
#
#
# Elastic Compliance Matrix: (Units=1/GPa)
#
#
# Indices 1 2 3 4 5 6 
#
# 1 0.122344 -0.011856 0.000478 0.000000 0.000000 0.000001
# 2 -0.011856 0.023360 -0.006196 0.000000 0.000000 0.000000
# 3 0.000478 -0.006196 0.011418 0.000000 0.000000 0.000000
# 4 0.000000 0.000000 0.000000 0.040551 0.000000 0.000000
# 5 0.000000 0.000000 0.000000 0.000000 0.056962 0.000000
# 6 0.000001 0.000000 0.000000 0.000000 0.000000 -0.004242
#
#
# Mechanical properties :
#
#
# Convention : Reuss Voigt Hill
#
# Bulk Modulus (GPa) = 8.19841 26.25218 17.22530
# Shear Modulus (GPa) = 15.32805 -30.13185 -7.40190
#
# Velocity S-wave (km/s) = 2.74524 -3.84902 -1.90769
# Velocity P-wave (km/s) = 3.75225 2.61646 1.90178
#
# Compressibility (1/GPa) = 0.12197483
#
# Stress axis : x y z
#
# Youngs Moduli (GPa) = 8.17369 42.80737 87.57964
#
# Poissons Ratio (x) = 0.50753 -0.04190
# Poissons Ratio (y) = 0.09691 0.54265
# Poissons Ratio (z) = -0.00391 0.26524
#
# Static dielectric constant tensor:
#      x y z
#    x 1.734000 0.000000 0.000000 
#    y 0.000000 1.759860 0.000000 
#    z 0.000000 0.000000 1.728760 
# 
# From -- ./inp_files/11456.got.cif
#   From: 2010.05.17/outbox.cif.g08.bks.cpg/sg44_6_cif.got.tgz:11456.got - 2010.06.03 19:37:08.
