data_PCOD9374887
_publ_section_title
;
Structure prediction by ZEFSAII (Michael W. Deem and Ramdas Pophale) SiO2 
 PCOD9374887
Probable space group: I M M 2
;
_chemical_formula_sum "Si O2"
_cell_formula_units_Z 64
_cell_length_a 32.254665
_cell_length_b 7.623359
_cell_length_c 12.207065
_cell_angle_alpha 90.000000
_cell_angle_beta 90.000000
_cell_angle_gamma 90.000000
_cell_volume 3001.581672
_symmetry_space_group_name_H-M "I M M 2"
_symmetry_group_IT_number 44
_symmetry_cell_setting 'orthorhombic'
loop_
_space_group_symop_operation_xyz
x,y,z
-x,-y,z
-x,y,z
x,-y,z
1/2+x,1/2+y,1/2+z
1/2-x,1/2-y,1/2+z
1/2-x,1/2+y,1/2+z
1/2+x,1/2-y,1/2+z
loop_
_atom_site_type_symbol
_atom_site_label
_atom_site_fract_x
_atom_site_fract_y
_atom_site_fract_z
Si Si1 0.205572 0.792470 0.991150
Si Si2 0.955314 0.793895 0.977347
Si Si3 0.834149 0.712043 0.221656
Si Si4 0.701923 0.211619 0.952593
Si Si5 0.626837 0.284216 0.353649
Si Si6 0.570776 0.210091 0.717320
Si Si7 0.545468 0.290468 0.963349
Si Si8 0.376124 0.290124 0.102538
O O1 0.251845 0.720637 0.975560
O O2 0.168992 0.723055 0.912842
O O3 0.207995 0.000000 0.968279
O O4 0.190815 0.768250 0.115249
O O5 0.950961 0.778046 0.108219
O O6 0.000000 0.717854 0.943878
O O7 0.956157 0.000000 0.949772
O O8 0.913807 0.723312 0.920283
O O9 0.834850 0.500000 0.223640
O O10 0.813975 0.774142 0.334478
O O11 0.881601 0.772847 0.214785
O O12 0.703688 0.000000 0.948871
O O13 0.667212 0.255470 0.042072
O O14 0.627302 0.500000 0.356691
O O15 0.624375 0.227405 0.227619
O O16 0.551807 0.260109 0.833981
O O17 0.570228 0.000000 0.710751
O O18 0.500000 0.221498 0.996112
O O19 0.544818 0.500000 0.979951
O O20 0.585074 0.220732 0.030778
O O21 0.380834 0.500000 0.107640
#
# Coordination Sequence:
#
# PCOD9374887 Si02
#       8
#     8   8   8   8   8   8   8   8
#     4  10  21  37  59  82 109 145 182 224 274 326
#     4  10  20  35  57  82 109 143 181 226 277 327
#     4  10  21  37  58  82 112 145 179 226 276 322
#     4  10  22  39  57  82 114 146 181 226 277 327
#     4   9  19  36  56  80 108 140 180 224 271 324
#     4  11  21  35  56  82 112 147 182 222 277 333
#     4  10  21  36  55  82 113 144 183 231 277 324
#     4  10  21  37  59  82 108 146 187 228 273 325
#
# _framework density 21.322091
#
# number of rings (size 3 to 8) (size 9 to 14) (size 15 to 20)
#    0.000    2.000    2.500    0.750    1.750    4.000 
#    0.000    3.750    0.000    0.000    0.000    1.750 
#    0.000    0.000    0.000    0.000    0.000    0.000 
#
# Total GULP energy -178769.163621 kJ/mol
# GULP energy per Si atom -5586.536363 kJ/mol
# Density = 2.127356 g / cm^3
# Si number density = 21.322091 Si / 1000 Ang^3
#
#
#
# Elastic Constant Matrix: (Units=GPa)
#
#
# Indices 1 2 3 4 5 6 
#
# 1 220.6803 5.1225 92.6579 0.0000 0.0000 0.0000
# 2 5.1225 42.3051 -7.9034 0.0000 0.0000 0.0000
# 3 92.6579 -7.9034 149.3063 0.0000 0.0000 0.0000
# 4 0.0000 0.0000 0.0000 -9.9652 0.0000 0.0000
# 5 0.0000 0.0000 0.0000 0.0000 149.7084 0.0000
# 6 0.0000 0.0000 0.0000 0.0000 0.0000 13.0548
#
#
#
# Elastic Compliance Matrix: (Units=1/GPa)
#
#
# Indices 1 2 3 4 5 6 
#
# 1 0.006220 -0.001489 -0.003939 0.000000 0.000000 0.000000
# 2 -0.001489 0.024230 0.002207 0.000000 0.000000 0.000000
# 3 -0.003939 0.002207 0.009259 0.000000 0.000000 0.000000
# 4 0.000000 0.000000 0.000000 -0.100349 0.000000 0.000000
# 5 0.000000 0.000000 0.000000 0.000000 0.006680 0.000000
# 6 0.000000 0.000000 0.000000 0.000000 0.000000 0.076600
#
#
# Mechanical properties :
#
#
# Convention : Reuss Voigt Hill
#
# Bulk Modulus (GPa) = 30.06000 65.78287 47.92143
# Shear Modulus (GPa) = 124.46934 52.05392 88.26163
#
# Velocity S-wave (km/s) = 7.64869 4.94633 6.44083
# Velocity P-wave (km/s) = 9.59854 7.97123 8.82248
#
# Compressibility (1/GPa) = 0.03326680
#
# Stress axis : x y z
#
# Youngs Moduli (GPa) = 160.77730 41.27055 108.00542
#
# Poissons Ratio (x) = 0.06145 0.42541
# Poissons Ratio (y) = 0.23939 -0.23833
# Poissons Ratio (z) = 0.63326 -0.09107
#
# Static dielectric constant tensor:
#      x y z
#    x 1.779300 0.000000 0.000000 
#    y 0.000000 1.810370 0.000000 
#    z 0.000000 0.000000 1.716550 
# 
# From -- ./inp_files/11450.got.cif
#   From: 2010.05.17/outbox.cif.g08.bks.cpg/sg44_6_cif.got.tgz:11450.got - 2010.06.03 19:37:08.
