data_PCOD9374760
_publ_section_title
;
Structure prediction by ZEFSAII (Michael W. Deem and Ramdas Pophale) SiO2 
 PCOD9374760
Probable space group: I M M 2
;
_chemical_formula_sum "Si O2"
_cell_formula_units_Z 64
_cell_length_a 20.019863
_cell_length_b 21.241578
_cell_length_c 8.767008
_cell_angle_alpha 90.000000
_cell_angle_beta 90.000000
_cell_angle_gamma 90.000000
_cell_volume 3728.200674
_symmetry_space_group_name_H-M "I M M 2"
_symmetry_group_IT_number 44
_symmetry_cell_setting 'orthorhombic'
loop_
_space_group_symop_operation_xyz
x,y,z
-x,-y,z
-x,y,z
x,-y,z
1/2+x,1/2+y,1/2+z
1/2-x,1/2-y,1/2+z
1/2-x,1/2+y,1/2+z
1/2+x,1/2-y,1/2+z
loop_
_atom_site_type_symbol
_atom_site_label
_atom_site_fract_x
_atom_site_fract_y
_atom_site_fract_z
Si Si1 0.925677 0.374942 0.280740
Si Si2 0.289869 0.690284 0.779321
Si Si3 0.715157 0.070333 0.413964
Si Si4 0.576027 0.264662 0.915900
Si Si5 0.215157 0.570333 0.281806
Si Si6 0.574323 0.874942 0.415030
Si Si7 0.210131 0.190284 0.916450
Si Si8 0.076027 0.764662 0.779870
O O1 0.917176 0.307819 0.362454
O O2 0.863068 0.418443 0.318994
O O3 0.000000 0.399642 0.317425
O O4 0.923483 0.364065 0.097885
O O5 0.256728 0.626261 0.839018
O O6 0.366099 0.696508 0.834542
O O7 0.250000 0.750000 0.847885
O O8 0.285976 0.693685 0.597885
O O9 0.721606 0.075050 0.597885
O O10 0.636932 0.081557 0.376777
O O11 0.735427 0.000000 0.367511
O O12 0.500000 0.284210 0.878196
O O13 0.584621 0.267957 0.097885
O O14 0.235427 0.500000 0.328260
O O15 0.256728 0.626261 0.356752
O O16 0.500000 0.899642 0.378346
O O17 0.582824 0.807819 0.333316
O O18 0.133901 0.196508 0.861228
O O19 0.000000 0.784210 0.817575
#
# Coordination Sequence:
#
# PCOD9374760 Si02
#       8
#     8   8   8   8   8   8   8   8
#     4   9  17  30  50  77 110 148 186 222 263 318
#     4  12  23  36  57  82 110 146 188 232 278 325
#     4  10  21  36  54  79 113 151 188 228 276 329
#     4  10  20  34  55  83 112 141 177 226 281 332
#     4  10  21  36  54  79 113 151 188 228 276 329
#     4   9  17  30  50  77 110 148 186 222 263 318
#     4  12  23  36  57  82 110 146 188 232 278 325
#     4  10  20  34  55  83 112 141 177 226 281 332
#
# _framework density 17.166457999999999
#
# number of rings (size 3 to 8) (size 9 to 14) (size 15 to 20)
#    0.000    1.750    2.500    3.000    0.000    2.500 
#    0.000    2.500    0.000    0.750    0.000   10.500 
#    0.000    0.000    0.000    0.000    0.000    0.000 
#
# Total GULP energy -178642.356186 kJ/mol
# GULP energy per Si atom -5582.573631 kJ/mol
# Density = 1.712739 g / cm^3
# Si number density = 17.166458 Si / 1000 Ang^3
#
#
#
# Elastic Constant Matrix: (Units=GPa)
#
#
# Indices 1 2 3 4 5 6 
#
# 1 116.1772 75.6948 55.1425 0.0000 0.0000 0.0000
# 2 75.6948 123.5246 52.9301 0.0000 0.0000 0.0000
# 3 55.1425 52.9301 62.2176 0.0000 0.0000 0.0000
# 4 0.0000 0.0000 0.0000 22.5147 0.0000 0.0000
# 5 0.0000 0.0000 0.0000 0.0000 25.1417 0.0000
# 6 0.0000 0.0000 0.0000 0.0000 0.0000 21.2045
#
#
#
# Elastic Compliance Matrix: (Units=1/GPa)
#
#
# Indices 1 2 3 4 5 6 
#
# 1 0.017621 -0.006461 -0.010120 0.000000 0.000000 0.000000
# 2 -0.006461 0.015109 -0.007127 0.000000 0.000000 0.000000
# 3 -0.010120 -0.007127 0.031105 0.000000 0.000000 0.000000
# 4 0.000000 0.000000 0.000000 0.044416 0.000000 0.000000
# 5 0.000000 0.000000 0.000000 0.000000 0.039775 0.000000
# 6 0.000000 0.000000 0.000000 0.000000 0.000000 0.047160
#
#
# Mechanical properties :
#
#
# Convention : Reuss Voigt Hill
#
# Bulk Modulus (GPa) = 60.90957 74.38381 67.64669
# Shear Modulus (GPa) = 20.15524 21.64898 20.90211
#
# Velocity S-wave (km/s) = 3.43024 3.55508 3.49322
# Velocity P-wave (km/s) = 7.15874 7.76379 7.46739
#
# Compressibility (1/GPa) = 0.01641778
#
# Stress axis : x y z
#
# Youngs Moduli (GPa) = 56.75052 66.18608 32.14919
#
# Poissons Ratio (x) = 0.42766 0.32536
# Poissons Ratio (y) = 0.36669 0.22912
# Poissons Ratio (z) = 0.57433 0.47170
#
# Static dielectric constant tensor:
#      x y z
#    x 1.603800 0.000000 0.000000 
#    y 0.000000 1.551160 0.000000 
#    z 0.000000 0.000000 1.573980 
# 
# From -- ./inp_files/8447.got.cif
#   From: 2010.05.17/outbox.cif.g08.bks.cpg/sg44_5_cif.got.tgz:8447.got - 2010.06.03 19:37:08.
