data_PCOD9374662
_publ_section_title
;
Structure prediction by ZEFSAII (Michael W. Deem and Ramdas Pophale) SiO2 
 PCOD9374662
Probable space group: I M M 2
;
_chemical_formula_sum "Si O2"
_cell_formula_units_Z 64
_cell_length_a 23.802970
_cell_length_b 8.887894
_cell_length_c 19.424767
_cell_angle_alpha 90.000000
_cell_angle_beta 90.000000
_cell_angle_gamma 90.000000
_cell_volume 4109.470184
_symmetry_space_group_name_H-M "I M M 2"
_symmetry_group_IT_number 44
_symmetry_cell_setting 'orthorhombic'
loop_
_space_group_symop_operation_xyz
x,y,z
-x,-y,z
-x,y,z
x,-y,z
1/2+x,1/2+y,1/2+z
1/2-x,1/2-y,1/2+z
1/2-x,1/2+y,1/2+z
1/2+x,1/2-y,1/2+z
loop_
_atom_site_type_symbol
_atom_site_label
_atom_site_fract_x
_atom_site_fract_y
_atom_site_fract_z
Si Si1 0.934382 0.319938 0.654530
Si Si2 0.934849 0.319123 0.378430
Si Si3 0.249703 0.178882 0.516981
Si Si4 0.837103 0.180227 0.738365
Si Si5 0.383334 0.320037 0.016173
Si Si6 0.772519 0.821107 0.874139
Si Si7 0.835639 0.320211 0.279706
Si Si8 0.230660 0.821074 0.159888
O O1 0.928086 0.500000 0.654563
O O2 0.895408 0.248461 0.713274
O O3 0.912042 0.255596 0.582122
O O4 0.000000 0.283252 0.662795
O O5 0.930112 0.500000 0.388255
O O6 0.911931 0.239803 0.446814
O O7 0.894564 0.279771 0.314570
O O8 0.000000 0.282422 0.367048
O O9 0.183037 0.216635 0.515176
O O10 0.275483 0.232140 0.444894
O O11 0.275816 0.261409 0.582663
O O12 0.254836 0.000000 0.525197
O O13 0.819607 0.214290 0.816939
O O14 0.787703 0.247902 0.690680
O O15 0.836789 0.000000 0.729781
O O16 0.388994 0.500000 0.020931
O O17 0.713270 0.788418 0.835888
O O18 0.773855 0.000000 0.887968
O O19 0.833844 0.500000 0.266543
O O20 0.818456 0.234096 0.210830
O O21 0.235629 0.000000 0.161186
#
# Coordination Sequence:
#
# PCOD9374662 Si02
#       8
#     8   8   8   8   8   8   8   8
#     4  11  23  36  51  72  99 135 176 211 245 290
#     4  10  20  34  52  72  98 136 176 210 247 293
#     4  11  21  32  49  74 102 133 168 204 247 299
#     4  10  20  35  52  73  99 129 165 206 252 298
#     4  11  22  33  47  70 102 138 175 210 244 289
#     4   9  18  32  51  72  97 129 163 203 251 299
#     4   9  18  33  50  70  99 130 164 207 250 293
#     4  11  21  32  51  73  98 130 166 206 251 299
#
# _framework density 15.573783000000001
#
# number of rings (size 3 to 8) (size 9 to 14) (size 15 to 20)
#    0.000    1.750    2.500    3.750    0.000    6.750 
#    0.000    0.000    0.000    0.000    0.000    0.875 
#    0.000    5.000    0.000    0.000    0.000    0.000 
#
# Total GULP energy -178672.951226 kJ/mol
# GULP energy per Si atom -5583.529726 kJ/mol
# Density = 1.553834 g / cm^3
# Si number density = 15.573783 Si / 1000 Ang^3
#
#
#
# Elastic Constant Matrix: (Units=GPa)
#
#
# Indices 1 2 3 4 5 6 
#
# 1 91.0864 46.0811 66.7442 0.0000 0.0000 0.0000
# 2 46.0811 58.7075 62.1444 0.0000 0.0000 0.0000
# 3 66.7442 62.1444 127.3926 0.0000 0.0000 0.0000
# 4 0.0000 0.0000 0.0000 30.1995 0.0000 0.0000
# 5 0.0000 0.0000 0.0000 0.0000 18.4028 0.0000
# 6 0.0000 0.0000 0.0000 0.0000 0.0000 26.6651
#
#
#
# Elastic Compliance Matrix: (Units=1/GPa)
#
#
# Indices 1 2 3 4 5 6 
#
# 1 0.020130 -0.009587 -0.005870 0.000000 0.000000 0.000000
# 2 -0.009587 0.039787 -0.014386 0.000000 0.000000 0.000000
# 3 -0.005870 -0.014386 0.017943 0.000000 0.000000 0.000000
# 4 0.000000 0.000000 0.000000 0.033113 0.000000 0.000000
# 5 0.000000 0.000000 0.000000 0.000000 0.054340 0.000000
# 6 0.000000 0.000000 0.000000 0.000000 0.000000 0.037502
#
#
# Mechanical properties :
#
#
# Convention : Reuss Voigt Hill
#
# Bulk Modulus (GPa) = 55.02353 69.68065 62.35209
# Shear Modulus (GPa) = 18.61799 21.86792 20.24295
#
# Velocity S-wave (km/s) = 3.46131 3.75126 3.60920
# Velocity P-wave (km/s) = 7.16811 7.97509 7.58234
#
# Compressibility (1/GPa) = 0.01817404
#
# Stress axis : x y z
#
# Youngs Moduli (GPa) = 49.67745 25.13406 55.73284
#
# Poissons Ratio (x) = 0.24096 0.32714
# Poissons Ratio (y) = 0.47626 0.80176
# Poissons Ratio (z) = 0.29160 0.36157
#
# Static dielectric constant tensor:
#      x y z
#    x 1.507550 0.000000 0.000000 
#    y 0.000000 1.519160 0.000000 
#    z 0.000000 0.000000 1.505610 
# 
# From -- ./inp_files/20883.got.cif
#   From: 2010.05.17/outbox.cif.g08.bks.cpg/sg44_11_cif.got.tgz:20883.got - 2010.06.03 19:37:08.
