data_PCOD9374197
_publ_section_title
;
Structure prediction by ZEFSAII (Michael W. Deem and Ramdas Pophale) SiO2 
 PCOD9374197
Probable space group: I M M 2
;
_chemical_formula_sum "Si O2"
_cell_formula_units_Z 48
_cell_length_a 17.218810
_cell_length_b 13.804340
_cell_length_c 9.080501
_cell_angle_alpha 90.000000
_cell_angle_beta 90.000000
_cell_angle_gamma 90.000000
_cell_volume 2158.383398
_symmetry_space_group_name_H-M "I M M 2"
_symmetry_group_IT_number 44
_symmetry_cell_setting 'orthorhombic'
loop_
_space_group_symop_operation_xyz
x,y,z
-x,-y,z
-x,y,z
x,-y,z
1/2+x,1/2+y,1/2+z
1/2-x,1/2-y,1/2+z
1/2-x,1/2+y,1/2+z
1/2+x,1/2-y,1/2+z
loop_
_atom_site_type_symbol
_atom_site_label
_atom_site_fract_x
_atom_site_fract_y
_atom_site_fract_z
Si Si1 0.907436 0.822486 0.810460
Si Si2 0.681277 0.749114 0.810488
Si Si3 0.820590 0.104270 0.543733
Si Si4 0.636951 0.105423 0.610988
Si Si5 0.712979 0.618356 0.531106
Si Si6 0.411168 0.105204 0.281009
O O1 0.867200 0.892556 0.693887
O O2 0.882438 0.714247 0.755140
O O3 0.000000 0.826502 0.811170
O O4 0.871523 0.852005 0.966951
O O5 0.618555 0.810849 0.722509
O O6 0.719788 0.674283 0.689457
O O7 0.646436 0.682468 0.934932
O O8 0.733072 0.827338 0.905845
O O9 0.728624 0.121951 0.571907
O O10 0.825140 0.000000 0.472031
O O11 0.591956 0.104873 0.458879
O O12 0.630218 0.000000 0.680267
O O13 0.722123 0.500000 0.535615
O O14 0.500000 0.102946 0.229709
O O15 0.375067 0.000000 0.235782
#
# Coordination Sequence:
#
# PCOD9374197 Si02
#       6
#     8   8   8   8   8   8
#     4  11  22  40  63  88 123 168 210 257 309 368
#     4  12  21  40  62  88 125 160 203 263 310 365
#     4  11  23  39  59  85 120 166 210 252 306 366
#     4  10  19  34  59  85 118 156 194 244 301 360
#     4  12  24  39  62  95 128 164 210 258 313 378
#     4   9  18  35  61  91 118 152 198 245 301 367
#
# _framework density 22.238866000000002
#
# number of rings (size 3 to 8) (size 9 to 14) (size 15 to 20)
#    0.000    1.167    5.000    1.500    0.000    1.333 
#    0.000    5.833    0.000    2.000    0.000    0.000 
#    0.000    0.000    0.000    0.000    0.000    0.000 
#
# Total GULP energy -133702.274191 kJ/mol
# GULP energy per Si atom -5570.928091 kJ/mol
# Density = 2.218825 g / cm^3
# Si number density = 22.238866 Si / 1000 Ang^3
#
#
#
# Elastic Constant Matrix: (Units=GPa)
#
#
# Indices 1 2 3 4 5 6 
#
# 1 61.1794 -5.8443 4.0178 0.0000 0.0000 0.0000
# 2 -5.8443 169.1120 20.2060 0.0000 0.0000 0.0000
# 3 4.0178 20.2060 72.8473 0.0000 0.0000 0.0000
# 4 0.0000 0.0000 0.0000 33.2941 0.0000 0.0000
# 5 0.0000 0.0000 0.0000 0.0000 15.4669 0.0000
# 6 0.0000 0.0000 0.0000 0.0000 0.0000 7.8718
#
#
#
# Elastic Compliance Matrix: (Units=1/GPa)
#
#
# Indices 1 2 3 4 5 6 
#
# 1 0.016485 0.000702 -0.001104 0.000000 0.000000 0.000000
# 2 0.000702 0.006146 -0.001743 0.000000 0.000000 0.000000
# 3 -0.001104 -0.001743 0.014272 0.000000 0.000000 0.000000
# 4 0.000000 0.000000 0.000000 0.030035 0.000000 0.000000
# 5 0.000000 0.000000 0.000000 0.000000 0.064654 0.000000
# 6 0.000000 0.000000 0.000000 0.000000 0.000000 0.127036
#
#
# Mechanical properties :
#
#
# Convention : Reuss Voigt Hill
#
# Bulk Modulus (GPa) = 30.66427 37.76643 34.21535
# Shear Modulus (GPa) = 18.26216 30.31048 24.28632
#
# Velocity S-wave (km/s) = 2.86874 3.69582 3.30823
# Velocity P-wave (km/s) = 4.97910 5.93558 5.47826
#
# Compressibility (1/GPa) = 0.03261124
#
# Stress axis : x y z
#
# Youngs Moduli (GPa) = 60.66162 162.71295 70.06830
#
# Poissons Ratio (x) = -0.11416 0.07734
# Poissons Ratio (y) = -0.04256 0.12216
# Poissons Ratio (z) = 0.06696 0.28367
#
# Static dielectric constant tensor:
#      x y z
#    x 1.854180 0.000000 0.000000 
#    y 0.000000 1.910510 0.000000 
#    z 0.000000 0.000000 1.822580 
# 
# From -- ./inp_files/8120.got.cif
#   From: 2010.05.17/outbox.cif.g08.bks.cpg/sg44_5_cif.got.tgz:8120.got - 2010.06.03 19:37:08.
