data_PCOD9374431
_publ_section_title
;
Structure prediction by ZEFSAII (Michael W. Deem and Ramdas Pophale) SiO2 
 PCOD9374431
Probable space group: I M M 2
;
_chemical_formula_sum "Si O2"
_cell_formula_units_Z 56
_cell_length_a 16.772790
_cell_length_b 8.613863
_cell_length_c 23.799147
_cell_angle_alpha 90.000000
_cell_angle_beta 90.000000
_cell_angle_gamma 90.000000
_cell_volume 3438.465421
_symmetry_space_group_name_H-M "I M M 2"
_symmetry_group_IT_number 44
_symmetry_cell_setting 'orthorhombic'
loop_
_space_group_symop_operation_xyz
x,y,z
-x,-y,z
-x,y,z
x,-y,z
1/2+x,1/2+y,1/2+z
1/2-x,1/2-y,1/2+z
1/2-x,1/2+y,1/2+z
1/2+x,1/2-y,1/2+z
loop_
_atom_site_type_symbol
_atom_site_label
_atom_site_fract_x
_atom_site_fract_y
_atom_site_fract_z
Si Si1 0.175288 0.813057 0.321390
Si Si2 0.743887 0.185025 0.648235
Si Si3 0.500000 0.811505 0.122761
Si Si4 0.592726 0.312391 0.937330
Si Si5 0.500000 0.186254 0.251958
Si Si6 0.170508 0.185834 0.763754
Si Si7 0.909192 0.813042 0.205196
Si Si8 0.654153 0.185828 0.052615
O O1 0.134910 0.762403 0.379463
O O2 0.260995 0.741268 0.306514
O O3 0.117809 0.775077 0.268850
O O4 0.183738 0.000000 0.322884
O O5 0.799368 0.238628 0.701258
O O6 0.655102 0.235049 0.664860
O O7 0.772089 0.258060 0.589898
O O8 0.750199 0.000000 0.645073
O O9 0.500000 0.758512 0.186826
O O10 0.422452 0.760727 0.088965
O O11 0.500000 0.000000 0.123803
O O12 0.500000 0.259843 0.940433
O O13 0.591619 0.500000 0.937855
O O14 0.641786 0.253316 0.990841
O O15 0.416725 0.247203 0.276523
O O16 0.500000 0.000000 0.253333
O O17 0.167244 0.000000 0.763319
O O18 0.000000 0.765536 0.195278
O O19 0.903918 0.000000 0.199432
O O20 0.653899 0.000000 0.049537
#
# Coordination Sequence:
#
# PCOD9374431 Si02
#       8
#     8   8   4   8   4   8   8   8
#     4   9  18  33  51  71  99 134 169 203 241 291
#     4  10  20  32  47  71 102 133 163 202 251 296
#     4   9  18  29  45  69  99 131 165 200 233 284
#     4  10  20  33  50  74 102 133 168 205 244 288
#     4  11  19  31  51  73  99 133 167 200 245 298
#     4  10  20  32  47  72 102 130 164 206 250 293
#     4   9  17  31  52  75  98 129 167 205 244 290
#     4  11  20  33  49  71 101 134 170 204 240 290
#
# _framework density 16.286335999999999
#
# number of rings (size 3 to 8) (size 9 to 14) (size 15 to 20)
#    0.000    2.143    2.143    1.929    0.000    3.714 
#    0.000    0.000    0.000    2.571    1.857    0.000 
#    0.000    0.000    0.000    0.000    0.000    0.000 
#
# Total GULP energy -156198.491563 kJ/mol
# GULP energy per Si atom -5578.517556 kJ/mol
# Density = 1.624927 g / cm^3
# Si number density = 16.286336 Si / 1000 Ang^3
#
#
#
# Elastic Constant Matrix: (Units=GPa)
#
#
# Indices 1 2 3 4 5 6 
#
# 1 123.3365 29.8280 56.9007 0.0000 0.0000 0.0000
# 2 29.8280 26.6333 26.5028 0.0000 0.0000 0.0000
# 3 56.9007 26.5028 111.2182 0.0000 0.0000 0.0000
# 4 0.0000 0.0000 0.0000 22.4896 0.0000 0.0000
# 5 0.0000 0.0000 0.0000 0.0000 23.7766 0.0000
# 6 0.0000 0.0000 0.0000 0.0000 0.0000 21.9400
#
#
#
# Elastic Compliance Matrix: (Units=1/GPa)
#
#
# Indices 1 2 3 4 5 6 
#
# 1 0.012315 -0.009861 -0.003951 0.000000 0.000000 0.000000
# 2 -0.009861 0.057114 -0.008565 0.000000 0.000000 0.000000
# 3 -0.003951 -0.008565 0.013054 0.000000 0.000000 0.000000
# 4 0.000000 0.000000 0.000000 0.044465 0.000000 0.000000
# 5 0.000000 0.000000 0.000000 0.000000 0.042058 0.000000
# 6 0.000000 0.000000 0.000000 0.000000 0.000000 0.045579
#
#
# Mechanical properties :
#
#
# Convention : Reuss Voigt Hill
#
# Bulk Modulus (GPa) = 26.50471 54.18344 40.34408
# Shear Modulus (GPa) = 18.38806 23.50499 20.94653
#
# Velocity S-wave (km/s) = 3.36378 3.80311 3.59017
# Velocity P-wave (km/s) = 5.60323 7.25440 6.48161
#
# Compressibility (1/GPa) = 0.03772914
#
# Stress axis : x y z
#
# Youngs Moduli (GPa) = 81.19858 17.50885 76.60709
#
# Poissons Ratio (x) = 0.17266 0.30267
# Poissons Ratio (y) = 0.80072 0.65613
# Poissons Ratio (z) = 0.32081 0.14996
#
# Static dielectric constant tensor:
#      x y z
#    x 1.544060 0.000000 0.000000 
#    y 0.000000 1.548880 0.000000 
#    z 0.000000 0.000000 1.532040 
# 
# From -- ./inp_files/23127.got.cif
#   From: 2010.05.17/outbox.cif.g08.bks.cpg/sg44_12_cif.got.tgz:23127.got - 2010.06.03 19:37:08.
