data_PCOD9374369
_publ_section_title
;
Structure prediction by ZEFSAII (Michael W. Deem and Ramdas Pophale) SiO2 
 PCOD9374369
Probable space group: I M M 2
;
_chemical_formula_sum "Si O2"
_cell_formula_units_Z 40
_cell_length_a 8.627641
_cell_length_b 9.917927
_cell_length_c 26.386143
_cell_angle_alpha 90.000000
_cell_angle_beta 90.000000
_cell_angle_gamma 90.000000
_cell_volume 2257.817759
_symmetry_space_group_name_H-M "I M M 2"
_symmetry_group_IT_number 44
_symmetry_cell_setting 'orthorhombic'
loop_
_space_group_symop_operation_xyz
x,y,z
-x,-y,z
-x,y,z
x,-y,z
1/2+x,1/2+y,1/2+z
1/2-x,1/2-y,1/2+z
1/2-x,1/2+y,1/2+z
1/2+x,1/2-y,1/2+z
loop_
_atom_site_type_symbol
_atom_site_label
_atom_site_fract_x
_atom_site_fract_y
_atom_site_fract_z
Si Si1 0.812872 0.000000 0.949950
Si Si2 0.814545 0.000000 0.675026
Si Si3 0.186296 0.500000 0.845260
Si Si4 0.686441 0.500000 0.293558
Si Si5 0.685831 0.000000 0.226649
Si Si6 0.688081 0.500000 0.566220
Si Si7 0.314687 0.787441 0.871690
Si Si8 0.686015 0.714236 0.649121
O O1 0.750091 0.129360 0.919547
O O2 0.000000 0.000000 0.947697
O O3 0.760490 0.000000 0.008285
O O4 0.770831 0.000000 0.734667
O O5 0.748940 0.135342 0.650445
O O6 0.000000 0.000000 0.672204
O O7 0.229353 0.500000 0.785547
O O8 0.253164 0.635757 0.869509
O O9 0.000000 0.500000 0.848790
O O10 0.500000 0.500000 0.297950
O O11 0.752097 0.369933 0.322851
O O12 0.750631 0.870085 0.197066
O O13 0.500000 0.000000 0.223224
O O14 0.500000 0.500000 0.565230
O O15 0.735139 0.629901 0.599323
O O16 0.500000 0.791003 0.871720
O O17 0.500000 0.714253 0.651366
#
# Coordination Sequence:
#
# PCOD9374369 Si02
#       8
#     4   4   4   4   4   4   8   8
#     4  10  19  38  63  79  99 136 177 214 262 321
#     4  11  22  34  50  78 113 145 178 216 259 306
#     4  11  22  36  53  76 109 147 180 210 255 314
#     4  10  20  35  53  74 107 150 186 211 247 310
#     4  10  20  34  53  78 109 144 180 215 253 306
#     4   8  18  37  60  81  99 130 177 220 258 315
#     4  11  22  35  53  81 110 135 174 223 266 307
#     4  10  20  35  55  80 108 139 178 218 259 309
#
# _framework density 17.716221000000001
#
# number of rings (size 3 to 8) (size 9 to 14) (size 15 to 20)
#    0.000    1.800    0.000    6.900    0.000    8.000 
#    0.000    7.000    0.000    2.400    0.000    0.000 
#    0.000    0.000    0.000    0.000    0.000    0.000 
#
# Total GULP energy -111739.331853 kJ/mol
# GULP energy per Si atom -5586.966593 kJ/mol
# Density = 1.767590 g / cm^3
# Si number density = 17.716221 Si / 1000 Ang^3
#
#
#
# Elastic Constant Matrix: (Units=GPa)
#
#
# Indices 1 2 3 4 5 6 
#
# 1 79.5832 51.5597 47.8799 0.0000 0.0000 0.0000
# 2 51.5597 195.0169 86.1500 0.0000 0.0000 0.0000
# 3 47.8799 86.1500 144.2345 0.0000 0.0000 0.0000
# 4 0.0000 0.0000 0.0000 11.2702 0.0000 0.0000
# 5 0.0000 0.0000 0.0000 0.0000 21.5748 0.0000
# 6 0.0000 0.0000 0.0000 0.0000 0.0000 35.2622
#
#
#
# Elastic Compliance Matrix: (Units=1/GPa)
#
#
# Indices 1 2 3 4 5 6 
#
# 1 0.016662 -0.002665 -0.003939 0.000000 0.000000 0.000000
# 2 -0.002665 0.007392 -0.003530 0.000000 0.000000 0.000000
# 3 -0.003939 -0.003530 0.010350 0.000000 0.000000 0.000000
# 4 0.000000 0.000000 0.000000 0.088730 0.000000 0.000000
# 5 0.000000 0.000000 0.000000 0.000000 0.046350 0.000000
# 6 0.000000 0.000000 0.000000 0.000000 0.000000 0.028359
#
#
# Mechanical properties :
#
#
# Convention : Reuss Voigt Hill
#
# Bulk Modulus (GPa) = 70.75147 87.77929 79.26538
# Shear Modulus (GPa) = 22.43928 29.17111 25.80520
#
# Velocity S-wave (km/s) = 3.56279 4.06220 3.82066
# Velocity P-wave (km/s) = 7.54634 8.46505 8.01886
#
# Compressibility (1/GPa) = 0.01413398
#
# Stress axis : x y z
#
# Youngs Moduli (GPa) = 60.01654 135.28204 96.62218
#
# Poissons Ratio (x) = 0.36052 0.38063
# Poissons Ratio (y) = 0.15994 0.34112
# Poissons Ratio (z) = 0.23643 0.47761
#
# Static dielectric constant tensor:
#      x y z
#    x 1.596560 0.000000 0.000000 
#    y 0.000000 1.581370 0.000000 
#    z 0.000000 0.000000 1.590630 
# 
# From -- ./inp_files/26006.got.cif
#   From: 2010.05.17/outbox.cif.g08.bks.cpg/sg44_14_cif.got.tgz:26006.got - 2010.06.03 19:37:08.
