data_PCOD9374583
_publ_section_title
;
Structure prediction by ZEFSAII (Michael W. Deem and Ramdas Pophale) SiO2 
 PCOD9374583
Probable space group: I M M 2
;
_chemical_formula_sum "Si O2"
_cell_formula_units_Z 56
_cell_length_a 24.110185
_cell_length_b 9.155426
_cell_length_c 13.986810
_cell_angle_alpha 90.000000
_cell_angle_beta 90.000000
_cell_angle_gamma 90.000000
_cell_volume 3087.434657
_symmetry_space_group_name_H-M "I M M 2"
_symmetry_group_IT_number 44
_symmetry_cell_setting 'orthorhombic'
loop_
_space_group_symop_operation_xyz
x,y,z
-x,-y,z
-x,y,z
x,-y,z
1/2+x,1/2+y,1/2+z
1/2-x,1/2-y,1/2+z
1/2-x,1/2+y,1/2+z
1/2+x,1/2-y,1/2+z
loop_
_atom_site_type_symbol
_atom_site_label
_atom_site_fract_x
_atom_site_fract_y
_atom_site_fract_z
Si Si1 0.728385 0.824829 0.972320
Si Si2 0.563584 0.173633 0.893847
Si Si3 0.339038 0.674950 0.582540
Si Si4 0.332183 0.673994 0.802531
Si Si5 0.064586 0.674176 0.973794
Si Si6 0.065531 0.172863 0.771466
Si Si7 0.120544 0.327201 0.594305
O O1 0.711541 0.746766 0.874496
O O2 0.725707 0.000000 0.958441
O O3 0.788358 0.785720 0.012703
O O4 0.680802 0.789570 0.050761
O O5 0.500000 0.212309 0.874619
O O6 0.607969 0.263079 0.833213
O O7 0.571178 0.000000 0.875967
O O8 0.578592 0.196766 0.005461
O O9 0.347815 0.500000 0.575922
O O10 0.322617 0.708161 0.691555
O O11 0.394091 0.757792 0.550683
O O12 0.331214 0.500000 0.814840
O O13 0.070964 0.500000 0.968550
O O14 0.077491 0.745803 0.870930
O O15 0.000000 0.706582 0.995424
O O16 0.101785 0.236447 0.685466
O O17 0.000000 0.197000 0.749998
O O18 0.074357 0.000000 0.782855
O O19 0.120001 0.500000 0.617392
#
# Coordination Sequence:
#
# PCOD9374583 Si02
#       7
#     8   8   8   8   8   8   8
#     4   9  20  39  58  78 108 144 182 223 266 317
#     4   9  18  33  53  77 108 148 189 227 270 320
#     4  10  22  40  60  81 108 142 177 218 270 321
#     4  10  21  36  55  82 113 142 177 223 272 321
#     4  10  22  39  58  81 108 139 179 224 266 316
#     4  10  20  33  51  78 112 147 182 223 271 320
#     4   9  17  31  52  77 107 143 182 225 271 318
#
# _framework density 18.138034999999999
#
# number of rings (size 3 to 8) (size 9 to 14) (size 15 to 20)
#    0.000    2.429    0.000    2.571    0.000    8.286 
#    0.000    4.286    0.000    0.000    0.000    0.000 
#    0.000    0.000    0.000    0.000    0.000    0.000 
#
# Total GULP energy -156303.330847 kJ/mol
# GULP energy per Si atom -5582.261816 kJ/mol
# Density = 1.809675 g / cm^3
# Si number density = 18.138035 Si / 1000 Ang^3
#
#
#
# Elastic Constant Matrix: (Units=GPa)
#
#
# Indices 1 2 3 4 5 6 
#
# 1 86.3132 49.2167 64.9771 0.0000 0.0000 0.0000
# 2 49.2167 52.2810 60.8808 0.0000 0.0000 0.0000
# 3 64.9771 60.8808 110.3272 0.0000 0.0000 0.0000
# 4 0.0000 0.0000 0.0000 35.8640 0.0000 0.0000
# 5 0.0000 0.0000 0.0000 0.0000 15.6350 0.0000
# 6 0.0000 0.0000 0.0000 0.0000 0.0000 21.9116
#
#
#
# Elastic Compliance Matrix: (Units=1/GPa)
#
#
# Indices 1 2 3 4 5 6 
#
# 1 0.025980 -0.018577 -0.005050 0.000000 0.000000 0.000000
# 2 -0.018577 0.066800 -0.025921 0.000000 0.000000 0.000000
# 3 -0.005050 -0.025921 0.026342 0.000000 0.000000 0.000000
# 4 0.000000 0.000000 0.000000 0.027883 0.000000 0.000000
# 5 0.000000 0.000000 0.000000 0.000000 0.063959 0.000000
# 6 0.000000 0.000000 0.000000 0.000000 0.000000 0.045638
#
#
# Mechanical properties :
#
#
# Convention : Reuss Voigt Hill
#
# Bulk Modulus (GPa) = 49.93312 66.56339 58.24826
# Shear Modulus (GPa) = 13.79798 19.60525 16.70161
#
# Velocity S-wave (km/s) = 2.76111 3.29126 3.03777
# Velocity P-wave (km/s) = 6.14445 7.15689 6.66991
#
# Compressibility (1/GPa) = 0.02002679
#
# Stress axis : x y z
#
# Youngs Moduli (GPa) = 38.49130 14.97007 37.96257
#
# Poissons Ratio (x) = 0.27809 0.19171
# Poissons Ratio (y) = 0.71504 0.98402
# Poissons Ratio (z) = 0.19438 0.38804
#
# Static dielectric constant tensor:
#      x y z
#    x 1.617330 0.000000 0.000000 
#    y 0.000000 1.601720 0.000000 
#    z 0.000000 0.000000 1.598440 
# 
# From -- ./inp_files/19179.got.cif
#   From: 2010.05.17/outbox.cif.g08.bks.cpg/sg44_10_cif.got.tgz:19179.got - 2010.06.03 19:37:08.
