data_PCOD9374292
_publ_section_title
;
Structure prediction by ZEFSAII (Michael W. Deem and Ramdas Pophale) SiO2 
 PCOD9374292
Probable space group: I M M 2
;
_chemical_formula_sum "Si O2"
_cell_formula_units_Z 36
_cell_length_a 9.672027
_cell_length_b 12.829924
_cell_length_c 15.923643
_cell_angle_alpha 90.000000
_cell_angle_beta 90.000000
_cell_angle_gamma 90.000000
_cell_volume 1975.986697
_symmetry_space_group_name_H-M "I M M 2"
_symmetry_group_IT_number 44
_symmetry_cell_setting 'orthorhombic'
loop_
_space_group_symop_operation_xyz
x,y,z
-x,-y,z
-x,y,z
x,-y,z
1/2+x,1/2+y,1/2+z
1/2-x,1/2-y,1/2+z
1/2-x,1/2+y,1/2+z
1/2+x,1/2-y,1/2+z
loop_
_atom_site_type_symbol
_atom_site_label
_atom_site_fract_x
_atom_site_fract_y
_atom_site_fract_z
Si Si1 0.000000 0.128217 0.751801
Si Si2 0.000000 0.875837 0.247734
Si Si3 0.295484 0.875479 0.495862
Si Si4 0.500000 0.120176 0.834480
Si Si5 0.500000 0.375348 0.054801
Si Si6 0.248562 0.745882 0.839160
Si Si7 0.500000 0.808376 0.638796
O O1 0.136807 0.186711 0.786978
O O2 0.000000 0.148632 0.652459
O O3 0.000000 0.000000 0.765490
O O4 0.143069 0.834416 0.292325
O O5 0.000000 0.814398 0.159258
O O6 0.000000 0.000000 0.244996
O O7 0.137539 0.842746 0.508968
O O8 0.333568 0.815672 0.411172
O O9 0.373280 0.843280 0.580758
O O10 0.309693 0.000000 0.485910
O O11 0.638484 0.170802 0.870397
O O12 0.500000 0.141090 0.732153
O O13 0.500000 0.000000 0.848986
O O14 0.500000 0.500000 0.049854
#
# Coordination Sequence:
#
# PCOD9374292 Si02
#       7
#     4   4   8   4   4   8   4
#     4  11  21  36  56  85 116 144 179 232 280 323
#     4  10  21  41  60  79 109 150 189 223 264 334
#     4  11  20  34  54  81 109 137 178 233 276 315
#     4  10  19  36  56  78 106 146 189 226 265 330
#     4   9  18  31  53  76 101 133 172 223 278 313
#     4  10  21  34  56  82 111 146 185 223 277 333
#     4  10  21  34  56  80 104 137 180 222 272 324
#
# _framework density 18.218744999999998
#
# number of rings (size 3 to 8) (size 9 to 14) (size 15 to 20)
#    0.000    2.000    0.000    7.000    0.000    2.667 
#    0.000    5.000    0.000    0.000    0.000    0.000 
#    0.000    0.000    0.000    0.000    0.000    0.000 
#
# Total GULP energy -100207.917616 kJ/mol
# GULP energy per Si atom -5567.106534 kJ/mol
# Density = 1.817728 g / cm^3
# Si number density = 18.218745 Si / 1000 Ang^3
#
#
#
# Elastic Constant Matrix: (Units=GPa)
#
#
# Indices 1 2 3 4 5 6 
#
# 1 86.1036 32.1462 14.2921 0.0000 0.0000 0.0000
# 2 32.1462 152.3565 42.6140 0.0000 0.0000 0.0000
# 3 14.2921 42.6140 77.2989 0.0000 0.0000 0.0000
# 4 0.0000 0.0000 0.0000 33.0355 0.0000 0.0000
# 5 0.0000 0.0000 0.0000 0.0000 25.9007 0.0000
# 6 0.0000 0.0000 0.0000 0.0000 0.0000 14.6155
#
#
#
# Elastic Compliance Matrix: (Units=1/GPa)
#
#
# Indices 1 2 3 4 5 6 
#
# 1 0.012676 -0.002387 -0.001028 0.000000 0.000000 0.000000
# 2 -0.002387 0.008210 -0.004085 0.000000 0.000000 0.000000
# 3 -0.001028 -0.004085 0.015379 0.000000 0.000000 0.000000
# 4 0.000000 0.000000 0.000000 0.030271 0.000000 0.000000
# 5 0.000000 0.000000 0.000000 0.000000 0.038609 0.000000
# 6 0.000000 0.000000 0.000000 0.000000 0.000000 0.068420
#
#
# Mechanical properties :
#
#
# Convention : Reuss Voigt Hill
#
# Bulk Modulus (GPa) = 47.02489 54.87374 50.94931
# Shear Modulus (GPa) = 25.55572 29.82411 27.68992
#
# Velocity S-wave (km/s) = 3.74935 4.05038 3.90277
# Velocity P-wave (km/s) = 6.67913 7.21518 6.95232
#
# Compressibility (1/GPa) = 0.02126533
#
# Stress axis : x y z
#
# Youngs Moduli (GPa) = 78.89119 121.80793 65.02559
#
# Poissons Ratio (x) = 0.29076 0.06683
# Poissons Ratio (y) = 0.18832 0.26560
# Poissons Ratio (z) = 0.08108 0.49753
#
# Static dielectric constant tensor:
#      x y z
#    x 1.631720 0.000000 0.000000 
#    y 0.000000 1.621870 0.000000 
#    z 0.000000 0.000000 1.633330 
# 
# From -- ./inp_files/15771.got.cif
#   From: 2010.05.17/outbox.cif.g08.bks.cpg/sg44_8_cif.got.tgz:15771.got - 2010.06.03 19:37:08.
