data_PCOD9374374
_publ_section_title
;
Structure prediction by ZEFSAII (Michael W. Deem and Ramdas Pophale) SiO2 
 PCOD9374374
Probable space group: I M M 2
;
_chemical_formula_sum "Si O2"
_cell_formula_units_Z 58
_cell_length_a 7.895589
_cell_length_b 18.271511
_cell_length_c 17.351791
_cell_angle_alpha 90.000000
_cell_angle_beta 90.000000
_cell_angle_gamma 90.000000
_cell_volume 2503.244698
_symmetry_space_group_name_H-M "I M M 2"
_symmetry_group_IT_number 44
_symmetry_cell_setting 'orthorhombic'
loop_
_space_group_symop_operation_xyz
x,y,z
-x,-y,z
-x,y,z
x,-y,z
1/2+x,1/2+y,1/2+z
1/2-x,1/2-y,1/2+z
1/2-x,1/2+y,1/2+z
1/2+x,1/2-y,1/2+z
loop_
_atom_site_type_symbol
_atom_site_label
_atom_site_fract_x
_atom_site_fract_y
_atom_site_fract_z
Si Si1 0.793132 0.416744 0.768710
Si Si2 0.201948 0.843506 0.672955
Si Si3 0.695485 0.606532 0.006011
Si Si4 0.692569 0.869022 0.840742
Si Si5 0.805023 0.079073 0.998358
Si Si6 0.798509 0.318465 0.627923
Si Si7 0.000000 0.500000 0.965492
Si Si8 0.795850 0.708563 0.889420
O O1 0.733535 0.500000 0.780042
O O2 0.739547 0.380894 0.688009
O O3 0.743551 0.358216 0.833388
O O4 0.000000 0.419936 0.771182
O O5 0.228573 0.891981 0.597160
O O6 0.271588 0.878852 0.750637
O O7 0.269441 0.761531 0.652752
O O8 0.000000 0.836937 0.684453
O O9 0.500000 0.583744 0.992778
O O10 0.848553 0.561971 0.968425
O O11 0.717511 0.687842 0.971617
O O12 0.500000 0.887871 0.857168
O O13 0.796242 0.910298 0.906478
O O14 0.727068 0.783384 0.855564
O O15 0.000000 0.077345 0.021254
O O16 0.725933 0.000000 0.018870
O O17 0.731407 0.148365 0.043598
O O18 0.000000 0.312618 0.637917
O O19 0.000000 0.713896 0.892703
#
# Coordination Sequence:
#
# PCOD9374374 Si02
#       8
#     8   8   8   8   8   8   2   8
#     4   9  18  31  56  93 131 171 212 259 321 395
#     4  10  22  43  67  96 130 170 222 282 340 399
#     4  11  25  44  69  99 135 179 232 285 343 414
#     4  12  25  41  67  98 131 171 226 283 336 406
#     4  11  25  44  65  93 131 173 218 273 342 408
#     4  10  19  38  67  95 128 168 214 268 325 395
#     4  12  26  48  68  98 136 184 226 288 348 414
#     4  11  21  39  67  96 136 180 223 272 337 406
#
# _framework density 23.169927999999999
#
# number of rings (size 3 to 8) (size 9 to 14) (size 15 to 20)
#    0.000    1.379    2.069    3.517    1.931    3.310 
#    1.241    0.000    0.000    0.828    0.000    0.000 
#    0.000    0.000    0.000    0.000    0.000    0.000 
#
# Total GULP energy -161830.844098 kJ/mol
# GULP energy per Si atom -5580.373934 kJ/mol
# Density = 2.311719 g / cm^3
# Si number density = 23.169928 Si / 1000 Ang^3
#
#
#
# Elastic Constant Matrix: (Units=GPa)
#
#
# Indices 1 2 3 4 5 6 
#
# 1 47.6787 2.2945 6.8601 0.0000 0.0000 0.0000
# 2 2.2945 56.0886 -11.7284 0.0000 0.0000 0.0000
# 3 6.8601 -11.7284 83.2643 0.0000 0.0000 0.0000
# 4 0.0000 0.0000 0.0000 251.2260 0.0000 0.0000
# 5 0.0000 0.0000 0.0000 0.0000 19.6002 0.0000
# 6 0.0000 0.0000 0.0000 0.0000 0.0000 15.2120
#
#
#
# Elastic Compliance Matrix: (Units=1/GPa)
#
#
# Indices 1 2 3 4 5 6 
#
# 1 0.021314 -0.001277 -0.001936 0.000000 0.000000 0.000000
# 2 -0.001277 0.018446 0.002704 0.000000 0.000000 0.000000
# 3 -0.001936 0.002704 0.012550 0.000000 0.000000 0.000000
# 4 0.000000 0.000000 0.000000 0.003980 0.000000 0.000000
# 5 0.000000 0.000000 0.000000 0.000000 0.051020 0.000000
# 6 0.000000 0.000000 0.000000 0.000000 0.000000 0.065737
#
#
# Mechanical properties :
#
#
# Convention : Reuss Voigt Hill
#
# Bulk Modulus (GPa) = 19.49609 20.20933 19.85271
# Shear Modulus (GPa) = 26.15558 69.84801 48.00180
#
# Velocity S-wave (km/s) = 3.36349 5.49649 4.55656
# Velocity P-wave (km/s) = 4.84941 7.00165 6.02245
#
# Compressibility (1/GPa) = 0.05129234
#
# Stress axis : x y z
#
# Youngs Moduli (GPa) = 46.91820 54.21091 79.67967
#
# Poissons Ratio (x) = 0.06921 0.15425
# Poissons Ratio (y) = 0.05990 -0.21541
# Poissons Ratio (z) = 0.09083 -0.14656
#
# Static dielectric constant tensor:
#      x y z
#    x 1.824430 0.000000 0.000000 
#    y 0.000000 1.550090 0.000000 
#    z 0.000000 0.000000 1.927340 
# 
# From -- ./inp_files/20570.got.cif
#   From: 2010.05.17/outbox.cif.g08.bks.cpg/sg44_11_cif.got.tgz:20570.got - 2010.06.03 19:37:08.
