data_PCOD9374110
_publ_section_title
;
Structure prediction by ZEFSAII (Michael W. Deem and Ramdas Pophale) SiO2 
 PCOD9374110
Probable space group: I M M 2
;
_chemical_formula_sum "Si O2"
_cell_formula_units_Z 64
_cell_length_a 9.683214
_cell_length_b 28.479176
_cell_length_c 13.131446
_cell_angle_alpha 90.000000
_cell_angle_beta 90.000000
_cell_angle_gamma 90.000000
_cell_volume 3621.258282
_symmetry_space_group_name_H-M "I M M 2"
_symmetry_group_IT_number 44
_symmetry_cell_setting 'orthorhombic'
loop_
_space_group_symop_operation_xyz
x,y,z
-x,-y,z
-x,y,z
x,-y,z
1/2+x,1/2+y,1/2+z
1/2-x,1/2-y,1/2+z
1/2-x,1/2+y,1/2+z
1/2+x,1/2-y,1/2+z
loop_
_atom_site_type_symbol
_atom_site_label
_atom_site_fract_x
_atom_site_fract_y
_atom_site_fract_z
Si Si1 0.846753 0.296694 0.143070
Si Si2 0.336540 0.443591 0.399573
Si Si3 0.165727 0.381342 0.555276
Si Si4 0.838505 0.943536 0.667240
Si Si5 0.164144 0.386347 0.005157
Si Si6 0.657250 0.749901 0.288162
Si Si7 0.832540 0.357732 0.782667
Si Si8 0.651553 0.294558 0.508470
O O1 0.819408 0.335200 0.057182
O O2 0.735666 0.291518 0.230290
O O3 0.844562 0.245221 0.093771
O O4 0.000000 0.306404 0.184121
O O5 0.500000 0.432919 0.412960
O O6 0.322054 0.500000 0.405622
O O7 0.243301 0.418819 0.484329
O O8 0.298290 0.429202 0.283116
O O9 0.201321 0.383167 0.676325
O O10 0.225918 0.331162 0.519889
O O11 0.000000 0.384176 0.545114
O O12 0.747066 0.920912 0.578939
O O13 0.000000 0.930970 0.653718
O O14 0.828521 0.000000 0.663175
O O15 0.000000 0.397508 0.005921
O O16 0.212432 0.382433 0.887780
O O17 0.500000 0.751750 0.249703
O O18 0.714347 0.803118 0.279570
O O19 0.657612 0.734549 0.404712
O O20 0.000000 0.355641 0.789140
O O21 0.500000 0.318517 0.512925
#
# Coordination Sequence:
#
# PCOD9374110 Si02
#       8
#     8   8   8   8   8   8   8   8
#     4  10  20  33  50  76 108 140 181 228 264 306
#     4   9  20  41  64  82 107 142 175 215 274 338
#     4  11  22  35  56  83 111 143 184 232 270 315
#     4   9  20  40  62  83 108 137 172 218 272 329
#     4  10  20  36  57  80 109 144 182 222 268 322
#     4  10  19  34  52  69 101 149 188 219 262 318
#     4   9  18  35  54  75 108 149 185 219 265 315
#     4  10  20  34  52  74 106 150 188 220 266 321
#
# _framework density 17.673416
#
# number of rings (size 3 to 8) (size 9 to 14) (size 15 to 20)
#    0.000    2.250    2.500    1.125    1.750    2.000 
#    0.000    3.750    0.000    3.750    0.000    0.000 
#    0.000    0.000    0.000    0.000    0.000    0.000 
#
# Total GULP energy -178294.242244 kJ/mol
# GULP energy per Si atom -5571.695070 kJ/mol
# Density = 1.763319 g / cm^3
# Si number density = 17.673416 Si / 1000 Ang^3
#
#
#
# Elastic Constant Matrix: (Units=GPa)
#
#
# Indices 1 2 3 4 5 6 
#
# 1 56.6399 30.4661 55.5886 0.0000 0.0000 0.0000
# 2 30.4661 49.4180 39.3857 0.0000 0.0000 0.0000
# 3 55.5886 39.3857 124.8955 0.0001 0.0001 0.0001
# 4 0.0000 0.0000 0.0001 30.4622 0.0000 0.0000
# 5 0.0000 0.0000 0.0001 0.0000 26.9079 0.0000
# 6 0.0000 0.0000 0.0001 0.0000 0.0000 23.9448
#
#
#
# Elastic Compliance Matrix: (Units=1/GPa)
#
#
# Indices 1 2 3 4 5 6 
#
# 1 0.036529 -0.012772 -0.012231 0.000000 0.000000 0.000000
# 2 -0.012772 0.031495 -0.004247 0.000000 0.000000 0.000000
# 3 -0.012231 -0.004247 0.014790 0.000000 0.000000 0.000000
# 4 0.000000 0.000000 0.000000 0.032828 0.000000 0.000000
# 5 0.000000 0.000000 0.000000 0.000000 0.037164 0.000000
# 6 0.000000 0.000000 0.000000 0.000000 0.000000 0.041763
#
#
# Mechanical properties :
#
#
# Convention : Reuss Voigt Hill
#
# Bulk Modulus (GPa) = 41.13002 53.53712 47.33357
# Shear Modulus (GPa) = 19.14447 23.29721 21.22084
#
# Velocity S-wave (km/s) = 3.29482 3.63465 3.46890
# Velocity P-wave (km/s) = 6.14795 6.92622 6.54865
#
# Compressibility (1/GPa) = 0.02431314
#
# Stress axis : x y z
#
# Youngs Moduli (GPa) = 27.37532 31.75154 67.61494
#
# Poissons Ratio (x) = 0.40554 0.82698
# Poissons Ratio (y) = 0.34965 0.28716
# Poissons Ratio (z) = 0.33482 0.13485
#
# Static dielectric constant tensor:
#      x y z
#    x 1.627960 0.000000 0.000000 
#    y 0.000000 1.594240 0.000000 
#    z 0.000000 0.000000 1.616010 
# 
# From -- ./inp_files/11411.got.cif
#   From: 2010.05.17/outbox.cif.g08.bks.cpg/sg44_6_cif.got.tgz:11411.got - 2010.06.03 19:37:08.
