data_PCOD9374637
_publ_section_title
;
Structure prediction by ZEFSAII (Michael W. Deem and Ramdas Pophale) SiO2 
 PCOD9374637
Probable space group: I M M 2
;
_chemical_formula_sum "Si O2"
_cell_formula_units_Z 58
_cell_length_a 8.780542
_cell_length_b 26.067819
_cell_length_c 12.470681
_cell_angle_alpha 90.000000
_cell_angle_beta 90.000000
_cell_angle_gamma 90.000000
_cell_volume 2854.408931
_symmetry_space_group_name_H-M "I M M 2"
_symmetry_group_IT_number 44
_symmetry_cell_setting 'orthorhombic'
loop_
_space_group_symop_operation_xyz
x,y,z
-x,-y,z
-x,y,z
x,-y,z
1/2+x,1/2+y,1/2+z
1/2-x,1/2-y,1/2+z
1/2-x,1/2+y,1/2+z
1/2+x,1/2-y,1/2+z
loop_
_atom_site_type_symbol
_atom_site_label
_atom_site_fract_x
_atom_site_fract_y
_atom_site_fract_z
Si Si1 0.681792 0.211951 0.887010
Si Si2 0.833015 0.608170 0.983079
Si Si3 0.000000 0.500000 0.003395
Si Si4 0.823420 0.853104 0.697316
Si Si5 0.678909 0.556416 0.551129
Si Si6 0.674684 0.058465 0.818852
Si Si7 0.321163 0.677218 0.823019
Si Si8 0.818683 0.342112 0.607955
O O1 0.500000 0.203785 0.876993
O O2 0.758246 0.188606 0.780684
O O3 0.707385 0.272645 0.895947
O O4 0.732225 0.183069 0.995490
O O5 0.766580 0.636051 0.087957
O O6 0.000000 0.630590 0.959458
O O7 0.868677 0.547345 0.000888
O O8 0.730269 0.625830 0.883813
O O9 0.795026 0.906270 0.760527
O O10 0.000000 0.843254 0.675180
O O11 0.500000 0.562237 0.524579
O O12 0.699074 0.500000 0.600167
O O13 0.779908 0.558143 0.443283
O O14 0.737760 0.603059 0.620257
O O15 0.500000 0.077189 0.804401
O O16 0.678182 0.000000 0.779123
O O17 0.500000 0.674952 0.799207
O O18 0.231167 0.687561 0.713413
O O19 0.000000 0.347870 0.604009
#
# Coordination Sequence:
#
# PCOD9374637 Si02
#       8
#     8   8   2   8   8   8   8   8
#     4  10  24  44  66  97 136 180 228 280 345 414
#     4  10  23  46  71  98 132 178 230 282 344 419
#     4   8  24  48  78 100 134 188 238 292 338 438
#     4  12  24  37  62  98 137 176 227 286 343 404
#     4  10  20  36  57  89 127 165 213 270 330 387
#     4  10  20  33  54  82 123 172 215 263 328 400
#     4  11  25  46  70 100 135 175 229 290 343 404
#     4  11  23  42  67  95 132 177 225 274 335 415
#
# _framework density 20.319441999999999
#
# number of rings (size 3 to 8) (size 9 to 14) (size 15 to 20)
#    0.414    1.103    1.379    3.310    2.897    3.310 
#    1.241    1.034    0.000    0.000    0.000    0.000 
#    0.000    0.000    0.000    0.000    0.000    0.000 
#
# Total GULP energy -161529.091601 kJ/mol
# GULP energy per Si atom -5569.968676 kJ/mol
# Density = 2.027319 g / cm^3
# Si number density = 20.319442 Si / 1000 Ang^3
#
#
#
# Elastic Constant Matrix: (Units=GPa)
#
#
# Indices 1 2 3 4 5 6 
#
# 1 56.5177 22.4748 9.4703 0.0000 0.0000 0.0000
# 2 22.4748 78.7272 30.7161 0.0000 0.0000 0.0000
# 3 9.4703 30.7161 62.5507 -0.0001 0.0000 0.0000
# 4 0.0000 0.0000 -0.0001 18.2681 0.0000 0.0000
# 5 0.0000 0.0000 0.0000 0.0000 30.9882 0.0000
# 6 0.0000 0.0000 0.0000 0.0000 0.0000 24.8305
#
#
#
# Elastic Compliance Matrix: (Units=1/GPa)
#
#
# Indices 1 2 3 4 5 6 
#
# 1 0.019963 -0.005591 -0.000277 0.000000 0.000000 0.000000
# 2 -0.005591 0.017278 -0.007638 0.000000 0.000000 0.000000
# 3 -0.000277 -0.007638 0.019780 0.000000 0.000000 0.000000
# 4 0.000000 0.000000 0.000000 0.054740 0.000000 0.000000
# 5 0.000000 0.000000 0.000000 0.000000 0.032270 0.000000
# 6 0.000000 0.000000 0.000000 0.000000 0.000000 0.040273
#
#
# Mechanical properties :
#
#
# Convention : Reuss Voigt Hill
#
# Bulk Modulus (GPa) = 33.32327 35.90201 34.61264
# Shear Modulus (GPa) = 22.59168 23.82632 23.20900
#
# Velocity S-wave (km/s) = 3.33802 3.42802 3.38332
# Velocity P-wave (km/s) = 5.59391 5.77716 5.68627
#
# Compressibility (1/GPa) = 0.03000906
#
# Stress axis : x y z
#
# Youngs Moduli (GPa) = 50.09189 57.87609 50.55672
#
# Poissons Ratio (x) = 0.32359 0.01400
# Poissons Ratio (y) = 0.28006 0.38616
# Poissons Ratio (z) = 0.01387 0.44207
#
# Static dielectric constant tensor:
#      x y z
#    x 1.680700 0.000000 0.000000 
#    y 0.000000 1.746580 0.000000 
#    z 0.000000 0.000000 1.739930 
# 
# From -- ./inp_files/11306.got.cif
#   From: 2010.05.17/outbox.cif.g08.bks.cpg/sg44_6_cif.got.tgz:11306.got - 2010.06.03 19:37:08.
