data_PCOD9374844
_publ_section_title
;
Structure prediction by ZEFSAII (Michael W. Deem and Ramdas Pophale) SiO2 
 PCOD9374844
Probable space group: I M M 2
;
_chemical_formula_sum "Si O2"
_cell_formula_units_Z 64
_cell_length_a 16.638045
_cell_length_b 8.849375
_cell_length_c 22.699499
_cell_angle_alpha 90.000000
_cell_angle_beta 90.000000
_cell_angle_gamma 90.000000
_cell_volume 3342.190233
_symmetry_space_group_name_H-M "I M M 2"
_symmetry_group_IT_number 44
_symmetry_cell_setting 'orthorhombic'
loop_
_space_group_symop_operation_xyz
x,y,z
-x,-y,z
-x,y,z
x,-y,z
1/2+x,1/2+y,1/2+z
1/2-x,1/2-y,1/2+z
1/2-x,1/2+y,1/2+z
1/2+x,1/2-y,1/2+z
loop_
_atom_site_type_symbol
_atom_site_label
_atom_site_fract_x
_atom_site_fract_y
_atom_site_fract_z
Si Si1 0.585060 0.318443 0.511490
Si Si2 0.406993 0.668178 0.176463
Si Si3 0.908282 0.177611 0.817814
Si Si4 0.089706 0.182262 0.262388
Si Si5 0.623695 0.177845 0.635931
Si Si6 0.285186 0.174364 0.101266
Si Si7 0.741699 0.180237 0.968231
Si Si8 0.764548 0.180264 0.347880
O O1 0.500000 0.276601 0.483059
O O2 0.588852 0.500000 0.515930
O O3 0.587333 0.251692 0.577084
O O4 0.665096 0.271448 0.477688
O O5 0.500000 0.669773 0.160459
O O6 0.374533 0.500000 0.162335
O O7 0.402650 0.687104 0.246738
O O8 0.361793 0.795876 0.140790
O O9 0.825900 0.254911 0.839306
O O10 0.000000 0.230957 0.833514
O O11 0.904939 0.000000 0.834943
O O12 0.095717 0.249265 0.196844
O O13 0.167269 0.232163 0.300860
O O14 0.000000 0.221235 0.286226
O O15 0.093681 0.000000 0.258700
O O16 0.717225 0.218040 0.627771
O O17 0.608752 0.000000 0.636442
O O18 0.257444 0.000000 0.104799
O O19 0.297540 0.207734 0.032154
O O20 0.707848 0.267604 0.912662
O O21 0.739462 0.000000 0.956963
O O22 0.759954 0.000000 0.344024
#
# Coordination Sequence:
#
# PCOD9374844 Si02
#       8
#     8   8   8   8   8   8   8   8
#     4   9  18  34  55  78 106 140 174 208 255 320
#     4   9  18  33  54  82 112 139 171 215 267 319
#     4   9  19  36  57  81 112 149 181 210 258 327
#     4  10  22  40  58  77 107 146 184 223 272 331
#     4  11  21  32  52  83 113 138 170 216 269 321
#     4  10  20  35  55  78 105 141 181 216 261 322
#     4   9  20  37  54  73 101 140 182 220 261 315
#     4  11  23  37  56  81 106 138 184 234 277 315
#
# _framework density 19.149118999999999
#
# number of rings (size 3 to 8) (size 9 to 14) (size 15 to 20)
#    0.000    2.250    0.000    4.500    0.000    9.000 
#    0.000    3.125    0.000    2.250    0.000    0.000 
#    0.000    0.000    0.000    0.000    0.000    0.000 
#
# Total GULP energy -178437.023548 kJ/mol
# GULP energy per Si atom -5576.156986 kJ/mol
# Density = 1.910553 g / cm^3
# Si number density = 19.149119 Si / 1000 Ang^3
#
#
#
# Elastic Constant Matrix: (Units=GPa)
#
#
# Indices 1 2 3 4 5 6 
#
# 1 69.7882 17.4933 35.5507 0.0000 0.0000 0.0000
# 2 17.4933 19.0021 18.9823 0.0000 0.0000 0.0000
# 3 35.5507 18.9823 69.9046 0.0000 0.0000 0.0000
# 4 0.0000 0.0000 0.0000 26.4786 0.0000 0.0000
# 5 0.0000 0.0000 0.0000 0.0000 -4.0519 0.0000
# 6 0.0000 0.0000 0.0000 0.0000 0.0000 21.0892
#
#
#
# Elastic Compliance Matrix: (Units=1/GPa)
#
#
# Indices 1 2 3 4 5 6 
#
# 1 0.021155 -0.011977 -0.007506 0.000000 0.000000 0.000000
# 2 -0.011977 0.078996 -0.015360 0.000000 0.000000 0.000000
# 3 -0.007506 -0.015360 0.022294 0.000000 0.000000 0.000000
# 4 0.000000 0.000000 0.000000 0.037766 0.000000 0.000000
# 5 0.000000 0.000000 0.000000 0.000000 -0.246795 0.000000
# 6 0.000000 0.000000 0.000000 0.000000 0.000000 0.047418
#
#
# Mechanical properties :
#
#
# Convention : Reuss Voigt Hill
#
# Bulk Modulus (GPa) = 18.95449 33.63859 26.29654
# Shear Modulus (GPa) = 103.93868 14.48107 59.20988
#
# Velocity S-wave (km/s) = 7.37539 2.75294 5.56665
# Velocity P-wave (km/s) = 9.08011 5.26400 7.42153
#
# Compressibility (1/GPa) = 0.05275794
#
# Stress axis : x y z
#
# Youngs Moduli (GPa) = 47.27025 12.65894 44.85586
#
# Poissons Ratio (x) = 0.15161 0.33670
# Poissons Ratio (y) = 0.56614 0.68899
# Poissons Ratio (z) = 0.35483 0.19444
#
# Static dielectric constant tensor:
#      x y z
#    x 1.730670 0.000000 0.000000 
#    y 0.000000 1.661890 0.000000 
#    z 0.000000 0.000000 1.652140 
# 
# From -- ./inp_files/24385.got.cif
#   From: 2010.05.17/outbox.cif.g08.bks.cpg/sg44_13_cif.got.tgz:24385.got - 2010.06.03 19:37:08.
