data_PCOD9374063
_publ_section_title
;
Structure prediction by ZEFSAII (Michael W. Deem and Ramdas Pophale) SiO2 
 PCOD9374063
Probable space group: I M M 2
;
_chemical_formula_sum "Si O2"
_cell_formula_units_Z 48
_cell_length_a 8.049510
_cell_length_b 39.270629
_cell_length_c 7.846795
_cell_angle_alpha 90.000000
_cell_angle_beta 90.000000
_cell_angle_gamma 90.000000
_cell_volume 2480.445038
_symmetry_space_group_name_H-M "I M M 2"
_symmetry_group_IT_number 44
_symmetry_cell_setting 'orthorhombic'
loop_
_space_group_symop_operation_xyz
x,y,z
-x,-y,z
-x,y,z
x,-y,z
1/2+x,1/2+y,1/2+z
1/2-x,1/2-y,1/2+z
1/2-x,1/2+y,1/2+z
1/2+x,1/2-y,1/2+z
loop_
_atom_site_type_symbol
_atom_site_label
_atom_site_fract_x
_atom_site_fract_y
_atom_site_fract_z
Si Si1 0.299453 0.212160 0.349730
Si Si2 0.700545 0.212166 0.734484
Si Si3 0.796112 0.335827 0.542101
Si Si4 0.799721 0.961381 0.735124
Si Si5 0.299716 0.461378 0.848888
Si Si6 0.197203 0.413255 0.541998
O O1 0.500000 0.210780 0.352279
O O2 0.239064 0.205739 0.542110
O O3 0.249994 0.249996 0.292094
O O4 0.242016 0.184953 0.209589
O O5 0.500000 0.210784 0.731931
O O6 0.757981 0.184963 0.874642
O O7 0.736696 0.374685 0.542054
O O8 0.000000 0.335834 0.542108
O O9 0.743438 0.953449 0.542009
O O10 0.000000 0.962121 0.733086
O O11 0.743427 0.000000 0.777428
O O12 0.747593 0.934428 0.875456
O O13 0.500000 0.462107 0.850880
O O14 0.243466 0.500000 0.806600
O O15 0.247506 0.434429 0.708566
O O16 0.000000 0.410696 0.541921
#
# Coordination Sequence:
#
# PCOD9374063 Si02
#       6
#     8   8   8   8   8   8
#     4  10  19  33  55  77  98 130 171 214 260 310
#     4  10  19  33  55  77  98 130 171 214 260 310
#     4   9  20  36  50  73 110 144 172 208 265 327
#     4   9  19  37  59  80 106 145 187 224 268 321
#     4   9  19  37  59  80 106 145 187 224 268 321
#     4  11  22  34  53  82 114 146 180 222 272 323
#
# _framework density 19.351365999999999
#
# number of rings (size 3 to 8) (size 9 to 14) (size 15 to 20)
#    0.000    2.333    1.667    2.000    0.000    4.667 
#    0.000    8.333    0.000    0.000    0.000    0.000 
#    0.000    0.000    0.000    0.000    0.000    0.000 
#
# Total GULP energy -133962.851529 kJ/mol
# GULP energy per Si atom -5581.785480 kJ/mol
# Density = 1.930732 g / cm^3
# Si number density = 19.351366 Si / 1000 Ang^3
#
#
#
# Elastic Constant Matrix: (Units=GPa)
#
#
# Indices 1 2 3 4 5 6 
#
# 1 12.3227 12.1459 14.9997 -0.0003 0.0013 0.0001
# 2 12.1459 203.2544 145.4107 0.0076 0.0214 0.0001
# 3 14.9997 145.4107 211.8897 -0.0019 0.0217 -0.0009
# 4 -0.0003 0.0076 -0.0019 -10.2395 0.0137 0.0008
# 5 0.0013 0.0214 0.0217 0.0137 188.1071 0.0035
# 6 0.0001 0.0001 -0.0009 0.0008 0.0035 25.2929
#
#
#
# Elastic Compliance Matrix: (Units=1/GPa)
#
#
# Indices 1 2 3 4 5 6 
#
# 1 0.089065 -0.001594 -0.005211 -0.000003 0.000000 -0.000001
# 2 -0.001594 0.009694 -0.006539 0.000008 0.000000 0.000000
# 3 -0.005211 -0.006539 0.009576 -0.000006 0.000000 0.000000
# 4 -0.000003 0.000008 -0.000006 -0.097661 0.000007 0.000003
# 5 0.000000 0.000000 0.000000 0.000007 0.005316 -0.000001
# 6 -0.000001 0.000000 0.000000 0.000003 -0.000001 0.039537
#
#
# Mechanical properties :
#
#
# Convention : Reuss Voigt Hill
#
# Bulk Modulus (GPa) = 12.24804 85.84214 49.04509
# Shear Modulus (GPa) = 45.69066 57.62613 51.65839
#
# Velocity S-wave (km/s) = 4.86439 5.46292 5.17232
# Velocity P-wave (km/s) = 6.15571 9.17864 7.81473
#
# Compressibility (1/GPa) = 0.08164569
#
# Stress axis : x y z
#
# Youngs Moduli (GPa) = 11.22772 103.16074 104.42742
#
# Poissons Ratio (x) = 0.16449 0.54414
# Poissons Ratio (y) = 0.01790 0.68290
# Poissons Ratio (z) = 0.05850 0.67461
#
# Static dielectric constant tensor:
#      x y z
#    x 1.699240 0.000000 0.000000 
#    y 0.000000 1.650160 0.000010 
#    z 0.000000 0.000010 1.688070 
# 
# From -- ./inp_files/4908.got.cif
#   From: 2010.05.17/outbox.cif.g08.bks.cpg/sg44_3_cif.got.tgz:4908.got - 2010.06.03 19:37:08.
