data_PCOD9374771
_publ_section_title
;
Structure prediction by ZEFSAII (Michael W. Deem and Ramdas Pophale) SiO2 
 PCOD9374771
Probable space group: I M M 2
;
_chemical_formula_sum "Si O2"
_cell_formula_units_Z 64
_cell_length_a 8.854944
_cell_length_b 25.429663
_cell_length_c 15.336648
_cell_angle_alpha 90.000000
_cell_angle_beta 90.000000
_cell_angle_gamma 90.000000
_cell_volume 3453.479432
_symmetry_space_group_name_H-M "I M M 2"
_symmetry_group_IT_number 44
_symmetry_cell_setting 'orthorhombic'
loop_
_space_group_symop_operation_xyz
x,y,z
-x,-y,z
-x,y,z
x,-y,z
1/2+x,1/2+y,1/2+z
1/2-x,1/2-y,1/2+z
1/2-x,1/2+y,1/2+z
1/2+x,1/2-y,1/2+z
loop_
_atom_site_type_symbol
_atom_site_label
_atom_site_fract_x
_atom_site_fract_y
_atom_site_fract_z
Si Si1 0.681290 0.059885 0.537110
Si Si2 0.319577 0.648204 0.159016
Si Si3 0.678782 0.718694 0.813699
Si Si4 0.679159 0.161620 0.848605
Si Si5 0.819235 0.613349 0.856001
Si Si6 0.820119 0.733402 0.625095
Si Si7 0.317849 0.061525 0.170840
Si Si8 0.320607 0.637367 0.526068
O O1 0.500000 0.063641 0.548957
O O2 0.760804 0.101229 0.599854
O O3 0.713003 0.075524 0.437051
O O4 0.727466 0.000000 0.554219
O O5 0.500000 0.646793 0.168223
O O6 0.245238 0.646528 0.254571
O O7 0.280686 0.705042 0.116656
O O8 0.500000 0.714725 0.795261
O O9 0.705515 0.775330 0.857235
O O10 0.734528 0.668592 0.867101
O O11 0.771199 0.718320 0.723309
O O12 0.500000 0.152888 0.850075
O O13 0.756706 0.132225 0.928634
O O14 0.775089 0.587215 0.763852
O O15 0.000000 0.622540 0.853660
O O16 0.735356 0.693841 0.561708
O O17 0.000000 0.726852 0.614446
O O18 0.500000 0.065302 0.164017
O O19 0.245206 0.094249 0.092504
O O20 0.276933 0.000000 0.168827
O O21 0.500000 0.635095 0.526070
#
# Coordination Sequence:
#
# PCOD9374771 Si02
#       8
#     8   8   8   8   8   8   8   8
#     4  10  22  40  61  87 119 158 205 249 295 356
#     4  10  22  40  62  88 118 153 199 252 304 353
#     4  10  20  34  55  86 120 154 193 239 293 350
#     4  10  22  40  61  85 120 159 197 244 300 363
#     4  10  20  35  58  87 120 159 199 241 288 350
#     4  10  20  36  57  83 118 158 195 236 291 355
#     4  10  21  39  62  86 118 162 205 245 295 354
#     4  12  24  37  58  89 123 158 200 248 297 350
#
# _framework density 18.532035
#
# number of rings (size 3 to 8) (size 9 to 14) (size 15 to 20)
#    0.000    1.750    1.250    3.000    1.750    5.500 
#    0.000    0.625    0.000    6.000    0.000    0.000 
#    0.000    0.000    0.000    0.000    0.000    0.000 
#
# Total GULP energy -178810.498938 kJ/mol
# GULP energy per Si atom -5587.828092 kJ/mol
# Density = 1.848986 g / cm^3
# Si number density = 18.532035 Si / 1000 Ang^3
#
#
#
# Elastic Constant Matrix: (Units=GPa)
#
#
# Indices 1 2 3 4 5 6 
#
# 1 54.9551 49.2548 44.0118 0.0000 0.0000 0.0000
# 2 49.2548 118.8384 61.6145 0.0000 0.0000 0.0000
# 3 44.0118 61.6145 96.4237 -0.0001 0.0000 0.0000
# 4 0.0000 0.0000 -0.0001 27.0286 0.0000 0.0000
# 5 0.0000 0.0000 0.0000 0.0000 26.8166 0.0000
# 6 0.0000 0.0000 0.0000 0.0000 0.0000 27.0834
#
#
#
# Elastic Compliance Matrix: (Units=1/GPa)
#
#
# Indices 1 2 3 4 5 6 
#
# 1 0.034191 -0.009092 -0.009797 0.000000 0.000000 0.000000
# 2 -0.009092 0.015002 -0.005436 0.000000 0.000000 0.000000
# 3 -0.009797 -0.005436 0.018316 0.000000 0.000000 0.000000
# 4 0.000000 0.000000 0.000000 0.036998 0.000000 0.000000
# 5 0.000000 0.000000 0.000000 0.000000 0.037290 0.000000
# 6 0.000000 0.000000 0.000000 0.000000 0.000000 0.036923
#
#
# Mechanical properties :
#
#
# Convention : Reuss Voigt Hill
#
# Bulk Modulus (GPa) = 53.02278 64.44213 58.73246
# Shear Modulus (GPa) = 21.39899 23.87479 22.63689
#
# Velocity S-wave (km/s) = 3.40178 3.59318 3.49879
# Velocity P-wave (km/s) = 6.64101 7.21550 6.93421
#
# Compressibility (1/GPa) = 0.01885982
#
# Stress axis : x y z
#
# Youngs Moduli (GPa) = 29.24715 66.65987 54.59688
#
# Poissons Ratio (x) = 0.60607 0.53487
# Poissons Ratio (y) = 0.26591 0.29679
# Poissons Ratio (z) = 0.28652 0.36236
#
# Static dielectric constant tensor:
#      x y z
#    x 1.618360 0.000000 0.000000 
#    y 0.000000 1.627590 0.000000 
#    z 0.000000 0.000000 1.626860 
# 
# From -- ./inp_files/16811.got.cif
#   From: 2010.05.17/outbox.cif.g08.bks.cpg/sg44_9_cif.got.tgz:16811.got - 2010.06.03 19:37:08.
