data_PCOD9374899
_publ_section_title
;
Structure prediction by ZEFSAII (Michael W. Deem and Ramdas Pophale) SiO2 
 PCOD9374899
Probable space group: I M M 2
;
_chemical_formula_sum "Si O2"
_cell_formula_units_Z 64
_cell_length_a 28.870583
_cell_length_b 8.739130
_cell_length_c 12.905439
_cell_angle_alpha 90.000000
_cell_angle_beta 90.000000
_cell_angle_gamma 90.000000
_cell_volume 3256.091017
_symmetry_space_group_name_H-M "I M M 2"
_symmetry_group_IT_number 44
_symmetry_cell_setting 'orthorhombic'
loop_
_space_group_symop_operation_xyz
x,y,z
-x,-y,z
-x,y,z
x,-y,z
1/2+x,1/2+y,1/2+z
1/2-x,1/2-y,1/2+z
1/2-x,1/2+y,1/2+z
1/2+x,1/2-y,1/2+z
loop_
_atom_site_type_symbol
_atom_site_label
_atom_site_fract_x
_atom_site_fract_y
_atom_site_fract_z
Si Si1 0.448466 0.181505 0.909020
Si Si2 0.382899 0.682189 0.078249
Si Si3 0.794738 0.817111 0.460804
Si Si4 0.553462 0.183609 0.259306
Si Si5 0.305244 0.185790 0.522090
Si Si6 0.406097 0.681699 0.470540
Si Si7 0.821102 0.326194 0.248286
Si Si8 0.571537 0.174953 0.681805
O O1 0.500000 0.193629 0.954127
O O2 0.450164 0.230863 0.789101
O O3 0.435550 0.000000 0.909316
O O4 0.412894 0.275899 0.976736
O O5 0.381805 0.500000 0.094069
O O6 0.410053 0.757018 0.173879
O O7 0.330876 0.737649 0.049193
O O8 0.741667 0.763618 0.466165
O O9 0.814267 0.774298 0.348721
O O10 0.793253 0.000000 0.471706
O O11 0.500000 0.232502 0.238353
O O12 0.569651 0.243424 0.371333
O O13 0.554292 0.000000 0.258223
O O14 0.352994 0.258382 0.482009
O O15 0.296536 0.225163 0.642976
O O16 0.310675 0.000000 0.516726
O O17 0.405892 0.500000 0.460086
O O18 0.431984 0.730239 0.576870
O O19 0.807056 0.500000 0.273745
O O20 0.874350 0.329081 0.212610
O O21 0.556343 0.000000 0.662176
#
# Coordination Sequence:
#
# PCOD9374899 Si02
#       8
#     8   8   8   8   8   8   8   8
#     4  10  20  35  57  84 114 152 198 240 284 350
#     4  11  23  38  58  88 125 158 196 254 312 359
#     4  10  21  36  57  85 119 157 200 249 305 364
#     4  11  25  45  67  88 117 164 215 257 304 373
#     4   9  20  39  58  82 118 161 204 247 298 362
#     4  11  23  39  62  91 122 153 195 252 312 366
#     4   9  17  32  55  78 108 149 192 241 295 350
#     4   9  18  35  57  82 114 153 194 237 289 352
#
# _framework density 19.655469
#
# number of rings (size 3 to 8) (size 9 to 14) (size 15 to 20)
#    0.000    2.000    1.250    3.000    0.000    7.750 
#    0.000    2.500    0.000    0.000    0.000    0.000 
#    0.000    0.000    0.000    0.000    0.000    0.000 
#
# Total GULP energy -178522.586652 kJ/mol
# GULP energy per Si atom -5578.830833 kJ/mol
# Density = 1.961073 g / cm^3
# Si number density = 19.655469 Si / 1000 Ang^3
#
#
#
# Elastic Constant Matrix: (Units=GPa)
#
#
# Indices 1 2 3 4 5 6 
#
# 1 48.7607 13.9465 14.6766 0.0000 0.0000 0.0000
# 2 13.9465 39.0994 14.0374 0.0000 0.0000 0.0000
# 3 14.6766 14.0374 75.5044 0.0000 0.0000 0.0000
# 4 0.0000 0.0000 0.0000 28.8022 0.0000 0.0000
# 5 0.0000 0.0000 0.0000 0.0000 19.0204 0.0000
# 6 0.0000 0.0000 0.0000 0.0000 0.0000 15.2216
#
#
#
# Elastic Compliance Matrix: (Units=1/GPa)
#
#
# Indices 1 2 3 4 5 6 
#
# 1 0.023552 -0.007241 -0.003232 0.000000 0.000000 0.000000
# 2 -0.007241 0.029631 -0.004101 0.000000 0.000000 0.000000
# 3 -0.003232 -0.004101 0.014635 0.000000 0.000000 0.000000
# 4 0.000000 0.000000 0.000000 0.034720 0.000000 0.000000
# 5 0.000000 0.000000 0.000000 0.000000 0.052575 0.000000
# 6 0.000000 0.000000 0.000000 0.000000 0.000000 0.065696
#
#
# Mechanical properties :
#
#
# Convention : Reuss Voigt Hill
#
# Bulk Modulus (GPa) = 25.85969 27.63173 26.74571
# Shear Modulus (GPa) = 19.02250 20.65577 19.83913
#
# Velocity S-wave (km/s) = 3.11432 3.24526 3.18046
# Velocity P-wave (km/s) = 5.11048 5.30385 5.20806
#
# Compressibility (1/GPa) = 0.03867023
#
# Stress axis : x y z
#
# Youngs Moduli (GPa) = 42.45920 33.74845 68.32931
#
# Poissons Ratio (x) = 0.24436 0.22084
# Poissons Ratio (y) = 0.30743 0.28025
# Poissons Ratio (z) = 0.13723 0.13842
#
# Static dielectric constant tensor:
#      x y z
#    x 1.745350 0.000000 0.000000 
#    y 0.000000 1.675020 0.000000 
#    z 0.000000 0.000000 1.682920 
# 
# From -- ./inp_files/15114.got.cif
#   From: 2010.05.17/outbox.cif.g08.bks.cpg/sg44_8_cif.got.tgz:15114.got - 2010.06.03 19:37:08.
