data_PCOD9374036
_publ_section_title
;
Structure prediction by ZEFSAII (Michael W. Deem and Ramdas Pophale) SiO2 
 PCOD9374036
Probable space group: I M M 2
;
_chemical_formula_sum "Si O2"
_cell_formula_units_Z 64
_cell_length_a 8.926641
_cell_length_b 25.918976
_cell_length_c 15.215437
_cell_angle_alpha 90.000000
_cell_angle_beta 90.000000
_cell_angle_gamma 90.000000
_cell_volume 3520.386436
_symmetry_space_group_name_H-M "I M M 2"
_symmetry_group_IT_number 44
_symmetry_cell_setting 'orthorhombic'
loop_
_space_group_symop_operation_xyz
x,y,z
-x,-y,z
-x,y,z
x,-y,z
1/2+x,1/2+y,1/2+z
1/2-x,1/2-y,1/2+z
1/2-x,1/2+y,1/2+z
1/2+x,1/2-y,1/2+z
loop_
_atom_site_type_symbol
_atom_site_label
_atom_site_fract_x
_atom_site_fract_y
_atom_site_fract_z
Si Si1 0.319206 0.155006 0.351420
Si Si2 0.675058 0.776835 0.031668
Si Si3 0.180944 0.393419 0.552209
Si Si4 0.322247 0.169563 0.554615
Si Si5 0.819234 0.940341 0.876002
Si Si6 0.321054 0.359945 0.227054
Si Si7 0.182389 0.442191 0.736456
Si Si8 0.174996 0.262751 0.321316
O O1 0.500000 0.159728 0.344323
O O2 0.280731 0.154134 0.454948
O O3 0.270534 0.103051 0.302432
O O4 0.246156 0.206248 0.310714
O O5 0.500000 0.768769 0.054609
O O6 0.722733 0.833279 0.063567
O O7 0.769885 0.728862 0.065831
O O8 0.686589 0.776175 0.925393
O O9 0.251017 0.416097 0.464037
O O10 0.225126 0.425951 0.637677
O O11 0.000000 0.394695 0.544198
O O12 0.500000 0.166170 0.563383
O O13 0.244190 0.136161 0.629508
O O14 0.774069 0.905917 0.792365
O O15 0.000000 0.938210 0.882172
O O16 0.774312 0.000000 0.867309
O O17 0.500000 0.358462 0.223694
O O18 0.260279 0.306794 0.268386
O O19 0.234315 0.500000 0.757593
O O20 0.000000 0.442718 0.738572
O O21 0.000000 0.262565 0.297677
#
# Coordination Sequence:
#
# PCOD9374036 Si02
#       8
#     8   8   8   8   8   8   8   8
#     4   9  19  36  56  79 109 146 184 225 274 327
#     4   9  18  32  51  79 114 147 177 215 269 328
#     4  10  19  33  55  84 114 145 182 222 268 328
#     4  10  21  35  53  79 112 145 185 232 277 326
#     4  10  22  39  57  79 110 148 188 230 279 335
#     4  11  22  36  56  79 108 147 187 229 280 332
#     4   9  18  33  55  82 109 141 183 225 266 319
#     4  10  19  33  53  80 112 142 177 223 269 324
#
# _framework density 18.179822000000001
#
# number of rings (size 3 to 8) (size 9 to 14) (size 15 to 20)
#    0.000    2.250    1.250    1.500    1.750    2.750 
#    0.000    1.250    0.000    1.875    0.000    0.000 
#    0.000    0.000    0.000    0.000    0.000    0.000 
#
# Total GULP energy -178658.551280 kJ/mol
# GULP energy per Si atom -5583.079728 kJ/mol
# Density = 1.813844 g / cm^3
# Si number density = 18.179822 Si / 1000 Ang^3
#
#
#
# Elastic Constant Matrix: (Units=GPa)
#
#
# Indices 1 2 3 4 5 6 
#
# 1 26.4102 27.1380 32.6973 0.0000 0.0000 0.0000
# 2 27.1380 134.3409 61.0373 0.0000 0.0000 0.0000
# 3 32.6973 61.0373 82.5876 0.0000 0.0000 0.0000
# 4 0.0000 0.0000 0.0000 26.6373 0.0000 0.0000
# 5 0.0000 0.0000 0.0000 0.0000 24.7097 0.0000
# 6 0.0000 0.0000 0.0000 0.0000 0.0000 17.0207
#
#
#
# Elastic Compliance Matrix: (Units=1/GPa)
#
#
# Indices 1 2 3 4 5 6 
#
# 1 0.074817 -0.002493 -0.027779 0.000000 0.000000 0.000000
# 2 -0.002493 0.011290 -0.007357 0.000000 0.000000 0.000000
# 3 -0.027779 -0.007357 0.028544 0.000000 0.000000 0.000000
# 4 0.000000 0.000000 0.000000 0.037541 0.000000 0.000000
# 5 0.000000 0.000000 0.000000 0.000000 0.040470 0.000000
# 6 0.000000 0.000000 0.000000 0.000000 0.000000 0.058752
#
#
# Mechanical properties :
#
#
# Convention : Reuss Voigt Hill
#
# Bulk Modulus (GPa) = 25.38465 53.89820 39.64142
# Shear Modulus (GPa) = 14.71443 21.83796 18.27620
#
# Velocity S-wave (km/s) = 2.84805 3.46962 3.17409
# Velocity P-wave (km/s) = 4.98082 6.76481 5.94017
#
# Compressibility (1/GPa) = 0.03939389
#
# Stress axis : x y z
#
# Youngs Moduli (GPa) = 13.36589 88.57436 35.03399
#
# Poissons Ratio (x) = 0.22077 0.97320
# Poissons Ratio (y) = 0.03331 0.25775
# Poissons Ratio (z) = 0.37129 0.65166
#
# Static dielectric constant tensor:
#      x y z
#    x 1.608740 0.000000 0.000000 
#    y 0.000000 1.606450 0.000000 
#    z 0.000000 0.000000 1.631360 
# 
# From -- ./inp_files/16847.got.cif
#   From: 2010.05.17/outbox.cif.g08.bks.cpg/sg44_9_cif.got.tgz:16847.got - 2010.06.03 19:37:08.
