data_PCOD9374236
_publ_section_title
;
Structure prediction by ZEFSAII (Michael W. Deem and Ramdas Pophale) SiO2 
 PCOD9374236
Probable space group: I M M 2
;
_chemical_formula_sum "Si O2"
_cell_formula_units_Z 58
_cell_length_a 12.969024
_cell_length_b 16.725412
_cell_length_c 13.431368
_cell_angle_alpha 90.000000
_cell_angle_beta 90.000000
_cell_angle_gamma 90.000000
_cell_volume 2913.428517
_symmetry_space_group_name_H-M "I M M 2"
_symmetry_group_IT_number 44
_symmetry_cell_setting 'orthorhombic'
loop_
_space_group_symop_operation_xyz
x,y,z
-x,-y,z
-x,y,z
x,-y,z
1/2+x,1/2+y,1/2+z
1/2-x,1/2-y,1/2+z
1/2-x,1/2+y,1/2+z
1/2+x,1/2-y,1/2+z
loop_
_atom_site_type_symbol
_atom_site_label
_atom_site_fract_x
_atom_site_fract_y
_atom_site_fract_z
Si Si1 0.158426 0.143992 0.270930
Si Si2 0.000000 0.000000 0.223378
Si Si3 0.183302 0.588110 0.098915
Si Si4 0.613147 0.354807 0.004121
Si Si5 0.613488 0.262151 0.582401
Si Si6 0.618757 0.091544 0.817479
Si Si7 0.884811 0.594910 0.715861
Si Si8 0.827569 0.322714 0.517383
O O1 0.127175 0.150959 0.385383
O O2 0.130283 0.218400 0.199751
O O3 0.282081 0.131126 0.265943
O O4 0.091349 0.070068 0.228441
O O5 0.138129 0.500000 0.077432
O O6 0.125478 0.667715 0.062523
O O7 0.186470 0.596853 0.218356
O O8 0.295866 0.594222 0.051177
O O9 0.500000 0.386912 0.025863
O O10 0.624961 0.263930 0.041685
O O11 0.500000 0.289055 0.553290
O O12 0.705129 0.310045 0.529526
O O13 0.500000 0.104524 0.785795
O O14 0.626660 0.000000 0.854720
O O15 0.645700 0.149550 0.907167
O O16 0.881249 0.500000 0.730807
O O17 0.869506 0.616050 0.599312
O O18 0.000000 0.622965 0.746861
#
# Coordination Sequence:
#
# PCOD9374236 Si02
#       8
#     8   2   8   8   8   8   8   8
#     4  11  22  36  61  89 117 153 194 235 285 339
#     4  12  20  36  58  96 114 150 196 242 272 344
#     4  10  23  37  56  83 111 144 191 239 284 330
#     4  11  22  37  58  83 113 152 190 236 278 336
#     4  10  20  38  58  85 117 149 185 232 287 343
#     4  10  19  35  58  82 108 143 188 239 282 331
#     4  10  20  35  56  86 120 150 183 234 292 351
#     4  10  21  35  57  85 113 147 190 231 287 343
#
# _framework density 19.907816
#
# number of rings (size 3 to 8) (size 9 to 14) (size 15 to 20)
#    0.000    1.655    2.069    2.897    0.966    2.207 
#    0.000    4.138    0.000    2.483    0.000    0.000 
#    0.000    0.000    0.000    0.000    0.000    0.000 
#
# Total GULP energy -161611.569186 kJ/mol
# GULP energy per Si atom -5572.812731 kJ/mol
# Density = 1.986250 g / cm^3
# Si number density = 19.907816 Si / 1000 Ang^3
#
#
#
# Elastic Constant Matrix: (Units=GPa)
#
#
# Indices 1 2 3 4 5 6 
#
# 1 147.4504 18.0993 12.3368 0.0000 0.0000 0.0000
# 2 18.0993 64.9050 -5.0084 -0.0001 0.0000 0.0000
# 3 12.3368 -5.0084 33.0809 -0.0001 0.0000 0.0000
# 4 0.0000 -0.0001 -0.0001 15.8377 0.0000 0.0000
# 5 0.0000 0.0000 0.0000 0.0000 12.4948 0.0000
# 6 0.0000 0.0000 0.0000 0.0000 0.0000 8.0694
#
#
#
# Elastic Compliance Matrix: (Units=1/GPa)
#
#
# Indices 1 2 3 4 5 6 
#
# 1 0.007319 -0.002278 -0.003074 0.000000 0.000000 0.000000
# 2 -0.002278 0.016298 0.003317 0.000000 0.000000 0.000000
# 3 -0.003074 0.003317 0.031878 0.000000 0.000000 0.000000
# 4 0.000000 0.000000 0.000000 0.063141 0.000000 0.000000
# 5 0.000000 0.000000 0.000000 0.000000 0.080033 0.000000
# 6 0.000000 0.000000 0.000000 0.000000 0.000000 0.123925
#
#
# Mechanical properties :
#
#
# Convention : Reuss Voigt Hill
#
# Bulk Modulus (GPa) = 19.44609 32.92128 26.18369
# Shear Modulus (GPa) = 14.54309 21.94762 18.24536
#
# Velocity S-wave (km/s) = 2.70575 3.32394 3.03065
# Velocity P-wave (km/s) = 4.42162 5.59501 5.04256
#
# Compressibility (1/GPa) = 0.05142421
#
# Stress axis : x y z
#
# Youngs Moduli (GPa) = 136.63451 61.35581 31.37001
#
# Poissons Ratio (x) = 0.13978 0.09644
# Poissons Ratio (y) = 0.31127 -0.10406
# Poissons Ratio (z) = 0.42005 -0.20353
#
# Static dielectric constant tensor:
#      x y z
#    x 1.712840 0.000000 0.000000 
#    y 0.000000 1.724210 0.000000 
#    z 0.000000 0.000000 1.682040 
# 
# From -- ./inp_files/17916.got.cif
#   From: 2010.05.17/outbox.cif.g08.bks.cpg/sg44_9_cif.got.tgz:17916.got - 2010.06.03 19:37:08.
