data_PCOD9374070
_publ_section_title
;
Structure prediction by ZEFSAII (Michael W. Deem and Ramdas Pophale) SiO2 
 PCOD9374070
Probable space group: I M M 2
;
_chemical_formula_sum "Si O2"
_cell_formula_units_Z 48
_cell_length_a 7.990970
_cell_length_b 9.333929
_cell_length_c 34.881670
_cell_angle_alpha 90.000000
_cell_angle_beta 90.000000
_cell_angle_gamma 90.000000
_cell_volume 2601.724235
_symmetry_space_group_name_H-M "I M M 2"
_symmetry_group_IT_number 44
_symmetry_cell_setting 'orthorhombic'
loop_
_space_group_symop_operation_xyz
x,y,z
-x,-y,z
-x,y,z
x,-y,z
1/2+x,1/2+y,1/2+z
1/2-x,1/2-y,1/2+z
1/2-x,1/2+y,1/2+z
1/2+x,1/2-y,1/2+z
loop_
_atom_site_type_symbol
_atom_site_label
_atom_site_fract_x
_atom_site_fract_y
_atom_site_fract_z
Si Si1 0.304105 0.163945 0.223720
Si Si2 0.802235 0.327505 0.959215
Si Si3 0.500000 0.174017 0.092599
Si Si4 0.815719 0.825210 0.142032
Si Si5 0.000000 0.673304 0.502794
Si Si6 0.302354 0.838043 0.796946
Si Si7 0.798947 0.662934 0.870186
O O1 0.500000 0.160853 0.213557
O O2 0.211113 0.221091 0.186049
O O3 0.279397 0.251390 0.262301
O O4 0.248749 0.000000 0.230711
O O5 0.784179 0.500000 0.964489
O O6 0.666746 0.241551 0.983893
O O7 0.764892 0.297276 0.914258
O O8 0.000000 0.293336 0.966375
O O9 0.334422 0.224122 0.114943
O O10 0.500000 0.000000 0.094675
O O11 0.500000 0.209921 0.047943
O O12 0.000000 0.783462 0.128382
O O13 0.808616 0.000000 0.142956
O O14 0.000000 0.500000 0.498473
O O15 0.500000 0.839455 0.789483
O O16 0.272427 0.764658 0.837804
O O17 0.238369 0.000000 0.797755
O O18 0.739001 0.500000 0.863989
O O19 0.000000 0.662285 0.866187
#
# Coordination Sequence:
#
# PCOD9374070 Si02
#       7
#     8   8   4   8   4   8   8
#     4  10  19  33  55  80 105 136 184 238 279 325
#     4   9  20  40  63  85 113 153 200 247 293 345
#     4   9  18  33  49  79 119 149 183 229 283 345
#     4   9  16  29  52  78 107 144 183 229 280 326
#     4  11  23  35  57  91 127 157 189 239 301 367
#     4  11  24  36  47  73 113 149 181 222 275 338
#     4   9  19  37  59  80 101 134 186 239 282 326
#
# _framework density 18.449303
#
# number of rings (size 3 to 8) (size 9 to 14) (size 15 to 20)
#    0.000    2.333    0.833    2.750    1.167    6.333 
#    0.000    3.333    0.000    2.000    0.000    2.333 
#    0.000    0.000    0.000    0.000    0.000    0.000 
#
# Total GULP energy -133889.326436 kJ/mol
# GULP energy per Si atom -5578.721935 kJ/mol
# Density = 1.840731 g / cm^3
# Si number density = 18.449303 Si / 1000 Ang^3
#
#
#
# Elastic Constant Matrix: (Units=GPa)
#
#
# Indices 1 2 3 4 5 6 
#
# 1 107.4202 34.9092 68.6788 0.0000 0.0000 0.0000
# 2 34.9092 54.6521 56.3138 0.0000 0.0000 0.0000
# 3 68.6788 56.3138 119.2868 0.0000 0.0000 0.0000
# 4 0.0000 0.0000 0.0000 16.7527 0.0000 0.0000
# 5 0.0000 0.0000 0.0000 0.0000 11.4421 0.0000
# 6 0.0000 0.0000 0.0000 0.0000 0.0000 21.5502
#
#
#
# Elastic Compliance Matrix: (Units=1/GPa)
#
#
# Indices 1 2 3 4 5 6 
#
# 1 0.014780 -0.001310 -0.007891 0.000000 0.000000 0.000000
# 2 -0.001310 0.035745 -0.016121 0.000000 0.000000 0.000000
# 3 -0.007891 -0.016121 0.020537 0.000000 0.000000 0.000000
# 4 0.000000 0.000000 0.000000 0.059692 0.000000 0.000000
# 5 0.000000 0.000000 0.000000 0.000000 0.087397 0.000000
# 6 0.000000 0.000000 0.000000 0.000000 0.000000 0.046403
#
#
# Mechanical properties :
#
#
# Convention : Reuss Voigt Hill
#
# Bulk Modulus (GPa) = 48.97478 66.79588 57.88533
# Shear Modulus (GPa) = 15.52779 18.04616 16.78697
#
# Velocity S-wave (km/s) = 2.90426 3.13093 3.01972
# Velocity P-wave (km/s) = 6.15220 7.02524 6.60316
#
# Compressibility (1/GPa) = 0.02041867
#
# Stress axis : x y z
#
# Youngs Moduli (GPa) = 67.65846 27.97597 48.69269
#
# Poissons Ratio (x) = 0.03664 0.38425
# Poissons Ratio (y) = 0.08860 0.78496
# Poissons Ratio (z) = 0.53392 0.45099
#
# Static dielectric constant tensor:
#      x y z
#    x 1.660470 0.000000 0.000000 
#    y 0.000000 1.627100 0.000000 
#    z 0.000000 0.000000 1.608860 
# 
# From -- ./inp_files/26954.got.cif
#   From: 2010.05.17/outbox.cif.g08.bks.cpg/sg44_14_cif.got.tgz:26954.got - 2010.06.03 19:37:08.
