data_PCOD9374368
_publ_section_title
;
Structure prediction by ZEFSAII (Michael W. Deem and Ramdas Pophale) SiO2 
 PCOD9374368
Probable space group: I M M 2
;
_chemical_formula_sum "Si O2"
_cell_formula_units_Z 34
_cell_length_a 10.044105
_cell_length_b 7.722414
_cell_length_c 19.977207
_cell_angle_alpha 90.000000
_cell_angle_beta 90.000000
_cell_angle_gamma 90.000000
_cell_volume 1549.526808
_symmetry_space_group_name_H-M "I M M 2"
_symmetry_group_IT_number 44
_symmetry_cell_setting 'orthorhombic'
loop_
_space_group_symop_operation_xyz
x,y,z
-x,-y,z
-x,y,z
x,-y,z
1/2+x,1/2+y,1/2+z
1/2-x,1/2-y,1/2+z
1/2-x,1/2+y,1/2+z
1/2+x,1/2-y,1/2+z
loop_
_atom_site_type_symbol
_atom_site_label
_atom_site_fract_x
_atom_site_fract_y
_atom_site_fract_z
Si Si1 0.795881 0.694078 0.728070
Si Si2 0.155521 0.210926 0.878878
Si Si3 0.500000 0.500000 0.195250
Si Si4 0.642712 0.207037 0.611321
Si Si5 0.651631 0.793402 0.997819
O O1 0.845740 0.500000 0.715382
O O2 0.792659 0.722621 0.807544
O O3 0.662400 0.717908 0.685371
O O4 0.887106 0.847563 0.700519
O O5 0.253999 0.270792 0.937533
O O6 0.000000 0.262908 0.887662
O O7 0.155473 0.000000 0.876506
O O8 0.500000 0.266023 0.582557
O O9 0.765909 0.261032 0.565155
O O10 0.641342 0.000000 0.613756
O O11 0.500000 0.723931 0.999615
O O12 0.641614 0.000000 0.989206
#
# Coordination Sequence:
#
# PCOD9374368 Si02
#       5
#     8   8   2   8   8
#     4  12  24  40  70 100 132 176 226 271 328 395
#     4  10  19  38  62  90 131 176 219 270 323 386
#     4  12  22  44  62 106 136 176 212 278 328 398
#     4  11  25  45  65  91 131 177 223 280 337 394
#     4  10  23  40  64  96 131 172 219 271 334 398
#
# _framework density 21.942181999999999
#
# number of rings (size 3 to 8) (size 9 to 14) (size 15 to 20)
#    0.000    1.176    3.529    1.765    1.647    5.176 
#    0.000    2.353    0.000    0.000    0.000    0.000 
#    0.000    0.000    0.000    0.000    0.000    0.000 
#
# Total GULP energy -94701.163249 kJ/mol
# GULP energy per Si atom -5570.656662 kJ/mol
# Density = 2.189224 g / cm^3
# Si number density = 21.942182 Si / 1000 Ang^3
#
#
#
# Elastic Constant Matrix: (Units=GPa)
#
#
# Indices 1 2 3 4 5 6 
#
# 1 167.5428 18.5727 100.4838 0.0000 0.0000 0.0000
# 2 18.5727 104.7557 3.7922 0.0000 0.0000 0.0000
# 3 100.4838 3.7922 118.3852 0.0000 0.0000 0.0000
# 4 0.0000 0.0000 0.0000 25.8337 0.0000 0.0000
# 5 0.0000 0.0000 0.0000 0.0000 -4.7583 0.0000
# 6 0.0000 0.0000 0.0000 0.0000 0.0000 26.4080
#
#
#
# Elastic Compliance Matrix: (Units=1/GPa)
#
#
# Indices 1 2 3 4 5 6 
#
# 1 0.012500 -0.001834 -0.010551 0.000000 0.000000 0.000000
# 2 -0.001834 0.009826 0.001242 0.000000 0.000000 0.000000
# 3 -0.010551 0.001242 0.017363 0.000000 0.000000 0.000000
# 4 0.000000 0.000000 0.000000 0.038709 0.000000 0.000000
# 5 0.000000 0.000000 0.000000 0.000000 -0.210159 0.000000
# 6 0.000000 0.000000 0.000000 0.000000 0.000000 0.037867
#
#
# Mechanical properties :
#
#
# Convention : Reuss Voigt Hill
#
# Bulk Modulus (GPa) = 57.46240 70.70900 64.08570
# Shear Modulus (GPa) = -75.98085 27.35232 -24.31426
#
# Velocity S-wave (km/s) = -5.89092 3.53450 -3.33243
# Velocity P-wave (km/s) = 4.47500 6.99657 3.80305
#
# Compressibility (1/GPa) = 0.01740268
#
# Stress axis : x y z
#
# Youngs Moduli (GPa) = 80.00047 101.76812 57.59451
#
# Poissons Ratio (x) = 0.18667 0.60768
# Poissons Ratio (y) = 0.14674 -0.07154
# Poissons Ratio (z) = 0.84409 -0.12641
#
# Static dielectric constant tensor:
#      x y z
#    x 1.879000 0.000000 0.000000 
#    y 0.000000 1.799770 0.000000 
#    z 0.000000 0.000000 1.815080 
# 
# From -- ./inp_files/22561.got.cif
#   From: 2010.05.17/outbox.cif.g08.bks.cpg/sg44_12_cif.got.tgz:22561.got - 2010.06.03 19:37:08.
