data_PCOD9374112
_publ_section_title
;
Structure prediction by ZEFSAII (Michael W. Deem and Ramdas Pophale) SiO2 
 PCOD9374112
Probable space group: I M M 2
;
_chemical_formula_sum "Si O2"
_cell_formula_units_Z 48
_cell_length_a 31.187876
_cell_length_b 12.405395
_cell_length_c 5.523628
_cell_angle_alpha 90.000000
_cell_angle_beta 90.000000
_cell_angle_gamma 90.000000
_cell_volume 2137.080190
_symmetry_space_group_name_H-M "I M M 2"
_symmetry_group_IT_number 44
_symmetry_cell_setting 'orthorhombic'
loop_
_space_group_symop_operation_xyz
x,y,z
-x,-y,z
-x,y,z
x,-y,z
1/2+x,1/2+y,1/2+z
1/2-x,1/2-y,1/2+z
1/2-x,1/2+y,1/2+z
1/2+x,1/2-y,1/2+z
loop_
_atom_site_type_symbol
_atom_site_label
_atom_site_fract_x
_atom_site_fract_y
_atom_site_fract_z
Si Si1 0.660795 0.113676 0.383390
Si Si2 0.817327 0.795603 0.224564
Si Si3 0.549594 0.669707 0.328164
Si Si4 0.908302 0.830303 0.331487
Si Si5 0.265425 0.116683 0.018452
Si Si6 0.422929 0.876893 0.081526
O O1 0.657448 0.217756 0.542710
O O2 0.707866 0.113965 0.267651
O O3 0.626393 0.117901 0.169812
O O4 0.653013 0.000000 0.514814
O O5 0.857132 0.848465 0.361997
O O6 0.784337 0.868487 0.077388
O O7 0.786375 0.715787 0.375891
O O8 0.500000 0.642088 0.352828
O O9 0.574596 0.634721 0.570011
O O10 0.553902 0.800231 0.279399
O O11 0.569016 0.626134 0.074818
O O12 0.921281 0.702095 0.351508
O O13 0.272210 0.000000 0.897201
O O14 0.438268 0.000000 0.053859
#
# Coordination Sequence:
#
# PCOD9374112 Si02
#       6
#     8   8   8   8   8   8
#     4  10  19  34  52  76 106 147 198 235 273 338
#     4  12  20  37  57  75 116 153 188 245 295 335
#     4  10  20  36  52  74 105 138 187 237 281 347
#     4  10  21  34  54  75 101 146 185 226 289 345
#     4  11  23  35  54  83 110 150 201 239 287 348
#     4   9  19  32  49  74 105 143 187 232 278 336
#
# _framework density 22.460550000000001
#
# number of rings (size 3 to 8) (size 9 to 14) (size 15 to 20)
#    1.000    0.667    5.000    1.000    0.000    1.667 
#    0.000    0.000    0.000    0.000    0.000    0.000 
#    0.000    4.000    0.000    0.000    0.000    0.000 
#
# Total GULP energy -133722.515338 kJ/mol
# GULP energy per Si atom -5571.771472 kJ/mol
# Density = 2.240943 g / cm^3
# Si number density = 22.460550 Si / 1000 Ang^3
#
#
#
# Elastic Constant Matrix: (Units=GPa)
#
#
# Indices 1 2 3 4 5 6 
#
# 1 122.0826 13.8854 42.1022 -0.0002 0.0000 -0.0001
# 2 13.8854 66.6589 11.3536 -0.0001 0.0002 0.0002
# 3 42.1022 11.3536 98.6536 -0.0013 0.0008 0.0010
# 4 -0.0002 -0.0001 -0.0013 -63.2875 -0.0004 -0.0006
# 5 0.0000 0.0002 0.0008 -0.0004 31.6929 0.0005
# 6 -0.0001 0.0002 0.0010 -0.0006 0.0005 1.6068
#
#
#
# Elastic Compliance Matrix: (Units=1/GPa)
#
#
# Indices 1 2 3 4 5 6 
#
# 1 0.009722 -0.001345 -0.003994 0.000000 0.000000 0.000003
# 2 -0.001345 0.015488 -0.001209 0.000000 0.000000 -0.000002
# 3 -0.003994 -0.001209 0.011980 0.000000 0.000000 -0.000007
# 4 0.000000 0.000000 0.000000 -0.015801 0.000000 -0.000006
# 5 0.000000 0.000000 0.000000 0.000000 0.031553 -0.000010
# 6 0.000003 -0.000002 -0.000007 -0.000006 -0.000010 0.622351
#
#
# Mechanical properties :
#
#
# Convention : Reuss Voigt Hill
#
# Bulk Modulus (GPa) = 41.50299 46.89751 44.20025
# Shear Modulus (GPa) = 7.17959 8.67270 7.92614
#
# Velocity S-wave (km/s) = 1.78982 1.96715 1.88058
# Velocity P-wave (km/s) = 4.77384 5.10733 4.94340
#
# Compressibility (1/GPa) = 0.02409465
#
# Stress axis : x y z
#
# Youngs Moduli (GPa) = 102.86424 64.56736 83.47170
#
# Poissons Ratio (x) = 0.08683 0.33339
# Poissons Ratio (y) = 0.13833 0.10088
# Poissons Ratio (z) = 0.41085 0.07803
#
# Static dielectric constant tensor:
#      x y z
#    x 1.825890 0.000000 0.000000 
#    y 0.000000 2.127690 0.000000 
#    z 0.000000 0.000000 1.847550 
# 
# From -- ./inp_files/3278.got.cif
#   From: 2010.05.17/outbox.cif.g08.bks.cpg/sg44_2_cif.got.tgz:3278.got - 2010.06.03 19:37:08.
