data_PCOD9374732
_publ_section_title
;
Structure prediction by ZEFSAII (Michael W. Deem and Ramdas Pophale) SiO2 
 PCOD9374732
Probable space group: I M M 2
;
_chemical_formula_sum "Si O2"
_cell_formula_units_Z 48
_cell_length_a 24.223138
_cell_length_b 7.657694
_cell_length_c 12.129345
_cell_angle_alpha 90.000000
_cell_angle_beta 90.000000
_cell_angle_gamma 90.000000
_cell_volume 2249.913183
_symmetry_space_group_name_H-M "I M M 2"
_symmetry_group_IT_number 44
_symmetry_cell_setting 'orthorhombic'
loop_
_space_group_symop_operation_xyz
x,y,z
-x,-y,z
-x,y,z
x,-y,z
1/2+x,1/2+y,1/2+z
1/2-x,1/2-y,1/2+z
1/2-x,1/2+y,1/2+z
1/2+x,1/2-y,1/2+z
loop_
_atom_site_type_symbol
_atom_site_label
_atom_site_fract_x
_atom_site_fract_y
_atom_site_fract_z
Si Si1 0.868221 0.289762 0.627800
Si Si2 0.937117 0.288829 0.841443
Si Si3 0.339552 0.301487 0.486709
Si Si4 0.936839 0.791964 0.409832
Si Si5 0.229909 0.296049 0.776287
Si Si6 0.350157 0.285437 0.734826
O O1 0.864541 0.500000 0.624305
O O2 0.911281 0.240751 0.723850
O O3 0.895397 0.234865 0.513105
O O4 0.809358 0.223588 0.677505
O O5 0.932843 0.500000 0.850984
O O6 0.900312 0.205382 0.935437
O O7 0.000000 0.237245 0.847980
O O8 0.319530 0.500000 0.496982
O O9 0.301929 0.217314 0.392141
O O10 0.344084 0.226280 0.608571
O O11 0.903349 0.724049 0.303059
O O12 0.000000 0.723584 0.424891
O O13 0.942133 0.000000 0.397421
O O14 0.235854 0.500000 0.750044
O O15 0.291911 0.228098 0.787783
O O16 0.353486 0.500000 0.734841
#
# Coordination Sequence:
#
# PCOD9374732 Si02
#       6
#     8   8   8   8   8   8
#     4   9  18  33  55  79 104 137 177 221 266 314
#     4   9  18  34  55  77 106 145 180 213 264 323
#     4  10  20  34  54  81 107 133 176 228 271 316
#     4  10  21  36  54  78 109 145 182 219 265 323
#     4   9  19  37  57  76 105 143 179 220 274 331
#     4   9  20  37  55  75 106 146 180 216 270 331
#
# _framework density 21.334157999999999
#
# number of rings (size 3 to 8) (size 9 to 14) (size 15 to 20)
#    0.000    2.667    0.000    2.000    2.333    4.667 
#    0.000    5.000    0.000    0.000    0.000    0.000 
#    0.000    0.000    0.000    0.000    0.000    0.000 
#
# Total GULP energy -133795.693984 kJ/mol
# GULP energy per Si atom -5574.820583 kJ/mol
# Density = 2.128560 g / cm^3
# Si number density = 21.334158 Si / 1000 Ang^3
#
#
#
# Elastic Constant Matrix: (Units=GPa)
#
#
# Indices 1 2 3 4 5 6 
#
# 1 103.4426 10.3874 46.0884 0.0000 0.0000 0.0000
# 2 10.3874 30.1435 -3.6319 0.0000 0.0000 0.0000
# 3 46.0884 -3.6319 108.0789 0.0000 0.0000 0.0000
# 4 0.0000 0.0000 0.0000 29.5219 0.0000 0.0000
# 5 0.0000 0.0000 0.0000 0.0000 12.3439 0.0000
# 6 0.0000 0.0000 0.0000 0.0000 0.0000 15.6734
#
#
#
# Elastic Compliance Matrix: (Units=1/GPa)
#
#
# Indices 1 2 3 4 5 6 
#
# 1 0.012651 -0.005030 -0.005564 0.000000 0.000000 0.000000
# 2 -0.005030 0.035309 0.003332 0.000000 0.000000 0.000000
# 3 -0.005564 0.003332 0.011737 0.000000 0.000000 0.000000
# 4 0.000000 0.000000 0.000000 0.033873 0.000000 0.000000
# 5 0.000000 0.000000 0.000000 0.000000 0.081012 0.000000
# 6 0.000000 0.000000 0.000000 0.000000 0.000000 0.063802
#
#
# Mechanical properties :
#
#
# Convention : Reuss Voigt Hill
#
# Bulk Modulus (GPa) = 22.13718 38.59477 30.36597
# Shear Modulus (GPa) = 18.65897 24.09590 21.37743
#
# Velocity S-wave (km/s) = 2.96058 3.36438 3.16892
# Velocity P-wave (km/s) = 4.69954 5.76385 5.25869
#
# Compressibility (1/GPa) = 0.04517288
#
# Stress axis : x y z
#
# Youngs Moduli (GPa) = 79.04328 28.32105 85.19982
#
# Poissons Ratio (x) = 0.14246 0.47405
# Poissons Ratio (y) = 0.39759 -0.28384
# Poissons Ratio (z) = 0.43979 -0.09435
#
# Static dielectric constant tensor:
#      x y z
#    x 1.781490 0.000000 0.000000 
#    y 0.000000 1.799060 0.000000 
#    z 0.000000 0.000000 1.760070 
# 
# From -- ./inp_files/11127.got.cif
#   From: 2010.05.17/outbox.cif.g08.bks.cpg/sg44_6_cif.got.tgz:11127.got - 2010.06.03 19:37:08.
