data_PCOD9374473
_publ_section_title
;
Structure prediction by ZEFSAII (Michael W. Deem and Ramdas Pophale) SiO2 
 PCOD9374473
Probable space group: I M M 2
;
_chemical_formula_sum "Si O2"
_cell_formula_units_Z 48
_cell_length_a 7.477926
_cell_length_b 9.262024
_cell_length_c 35.367159
_cell_angle_alpha 90.000000
_cell_angle_beta 90.000000
_cell_angle_gamma 90.000000
_cell_volume 2449.555253
_symmetry_space_group_name_H-M "I M M 2"
_symmetry_group_IT_number 44
_symmetry_cell_setting 'orthorhombic'
loop_
_space_group_symop_operation_xyz
x,y,z
-x,-y,z
-x,y,z
x,-y,z
1/2+x,1/2+y,1/2+z
1/2-x,1/2-y,1/2+z
1/2-x,1/2+y,1/2+z
1/2+x,1/2-y,1/2+z
loop_
_atom_site_type_symbol
_atom_site_label
_atom_site_fract_x
_atom_site_fract_y
_atom_site_fract_z
Si Si1 0.714791 0.163487 0.081550
Si Si2 0.286241 0.171156 0.806276
Si Si3 0.212749 0.337754 0.156711
Si Si4 0.000000 0.672112 0.856881
Si Si5 0.500000 0.828659 0.446622
Si Si6 0.211235 0.326674 0.496652
Si Si7 0.217833 0.164921 0.229446
O O1 0.500000 0.156109 0.079612
O O2 0.761206 0.266632 0.115919
O O3 0.780672 0.000000 0.088786
O O4 0.771839 0.210318 0.039555
O O5 0.500000 0.191432 0.811426
O O6 0.235301 0.238942 0.765681
O O7 0.171927 0.253924 0.837624
O O8 0.249940 0.000000 0.806871
O O9 0.285645 0.500000 0.158254
O O10 0.281877 0.237301 0.190562
O O11 0.000000 0.347355 0.162700
O O12 0.000000 0.696385 0.901764
O O13 0.000000 0.500000 0.849742
O O14 0.671163 0.756289 0.466389
O O15 0.500000 0.000000 0.453240
O O16 0.233215 0.500000 0.492911
O O17 0.000000 0.295060 0.492860
O O18 0.000000 0.161067 0.228359
O O19 0.279146 0.000000 0.233307
#
# Coordination Sequence:
#
# PCOD9374473 Si02
#       7
#     8   8   8   4   4   8   8
#     4   9  19  36  55  77 107 144 190 239 287 343
#     4  10  21  39  64  91 120 155 195 247 304 354
#     4  10  20  32  49  78 114 149 189 238 286 338
#     4  11  25  43  61  89 125 159 199 245 293 363
#     4  11  25  41  61  91 125 157 195 245 303 363
#     4   9  20  40  64  88 116 155 201 248 298 357
#     4   9  17  32  55  81 111 151 196 237 285 348
#
# _framework density 19.595395
#
# number of rings (size 3 to 8) (size 9 to 14) (size 15 to 20)
#    0.000    2.333    0.000    3.000    1.167    7.333 
#    1.500    5.000    0.000    0.000    0.000    0.000 
#    0.000    0.000    0.000    0.000    0.000    0.000 
#
# Total GULP energy -134055.523192 kJ/mol
# GULP energy per Si atom -5585.646800 kJ/mol
# Density = 1.955080 g / cm^3
# Si number density = 19.595395 Si / 1000 Ang^3
#
#
#
# Elastic Constant Matrix: (Units=GPa)
#
#
# Indices 1 2 3 4 5 6 
#
# 1 80.9197 52.0059 55.7668 0.0000 0.0000 0.0000
# 2 52.0059 148.4986 113.9888 0.0000 0.0000 0.0000
# 3 55.7668 113.9888 169.3090 0.0000 0.0000 0.0000
# 4 0.0000 0.0000 0.0000 37.5357 0.0000 0.0000
# 5 0.0000 0.0000 0.0000 0.0000 40.8890 0.0000
# 6 0.0000 0.0000 0.0000 0.0000 0.0000 4.7523
#
#
#
# Elastic Compliance Matrix: (Units=1/GPa)
#
#
# Indices 1 2 3 4 5 6 
#
# 1 0.016768 -0.003379 -0.003248 0.000000 0.000000 0.000000
# 2 -0.003379 0.014617 -0.008728 0.000000 0.000000 0.000000
# 3 -0.003248 -0.008728 0.012853 0.000000 0.000000 0.000000
# 4 0.000000 0.000000 0.000000 0.026641 0.000000 0.000000
# 5 0.000000 0.000000 0.000000 0.000000 0.024456 0.000000
# 6 0.000000 0.000000 0.000000 0.000000 0.000000 0.210426
#
#
# Mechanical properties :
#
#
# Convention : Reuss Voigt Hill
#
# Bulk Modulus (GPa) = 73.92533 93.58337 83.75435
# Shear Modulus (GPa) = 14.66353 28.43311 21.54832
#
# Velocity S-wave (km/s) = 2.73850 3.81334 3.31971
# Velocity P-wave (km/s) = 6.91426 8.20063 7.58476
#
# Compressibility (1/GPa) = 0.01352716
#
# Stress axis : x y z
#
# Youngs Moduli (GPa) = 59.63717 68.41167 77.80553
#
# Poissons Ratio (x) = 0.23118 0.25271
# Poissons Ratio (y) = 0.20153 0.67911
# Poissons Ratio (z) = 0.19370 0.59711
#
# Static dielectric constant tensor:
#      x y z
#    x 1.719600 0.000000 0.000000 
#    y 0.000000 1.669780 0.000000 
#    z 0.000000 0.000000 1.653650 
# 
# From -- ./inp_files/26923.got.cif
#   From: 2010.05.17/outbox.cif.g08.bks.cpg/sg44_14_cif.got.tgz:26923.got - 2010.06.03 19:37:08.
