data_PCOD9374017
_publ_section_title
;
Structure prediction by ZEFSAII (Michael W. Deem and Ramdas Pophale) SiO2 
 PCOD9374017
Probable space group: I M M 2
;
_chemical_formula_sum "Si O2"
_cell_formula_units_Z 64
_cell_length_a 8.841163
_cell_length_b 33.673461
_cell_length_c 12.091817
_cell_angle_alpha 90.000000
_cell_angle_beta 90.000000
_cell_angle_gamma 90.000000
_cell_volume 3599.885764
_symmetry_space_group_name_H-M "I M M 2"
_symmetry_group_IT_number 44
_symmetry_cell_setting 'orthorhombic'
loop_
_space_group_symop_operation_xyz
x,y,z
-x,-y,z
-x,y,z
x,-y,z
1/2+x,1/2+y,1/2+z
1/2-x,1/2-y,1/2+z
1/2-x,1/2+y,1/2+z
1/2+x,1/2-y,1/2+z
loop_
_atom_site_type_symbol
_atom_site_label
_atom_site_fract_x
_atom_site_fract_y
_atom_site_fract_z
Si Si1 0.816901 0.309847 0.125000
Si Si2 0.317086 0.145454 0.046046
Si Si3 0.817608 0.453968 0.162907
Si Si4 0.315842 0.122079 0.799918
Si Si5 0.819425 0.219481 0.172925
Si Si6 0.670474 0.452646 0.930746
Si Si7 0.179815 0.598299 0.759809
Si Si8 0.819854 0.171282 0.388435
O O1 0.772543 0.342756 0.215648
O O2 0.773553 0.264964 0.157235
O O3 0.000000 0.311409 0.114953
O O4 0.741109 0.319122 0.008559
O O5 0.500000 0.147588 0.045894
O O6 0.256556 0.187697 0.090414
O O7 0.272104 0.112544 0.137824
O O8 0.265463 0.132948 0.923881
O O9 0.768587 0.500000 0.183496
O O10 0.767171 0.420779 0.251503
O O11 0.000000 0.454182 0.161672
O O12 0.761249 0.440834 0.041263
O O13 0.500000 0.121172 0.802589
O O14 0.788306 0.205591 0.298309
O O15 0.000000 0.216805 0.155946
O O16 0.500000 0.436749 0.937535
O O17 0.665765 0.500000 0.933860
O O18 0.745055 0.439462 0.816276
O O19 0.232890 0.633393 0.840903
O O20 0.000000 0.594226 0.760388
O O21 0.000000 0.164503 0.389540
#
# Coordination Sequence:
#
# PCOD9374017 Si02
#       8
#     8   8   8   8   8   8   8   8
#     4  10  20  33  51  74 102 134 171 215 260 313
#     4   9  19  35  55  74  98 136 178 215 258 312
#     4   9  17  31  53  80 108 138 174 217 265 316
#     4   9  18  33  53  76 102 136 174 213 261 315
#     4   9  20  35  50  72 101 134 170 213 265 311
#     4  10  20  33  52  79 109 138 170 213 262 311
#     4  10  19  33  53  76 102 134 172 212 256 307
#     4  10  20  34  52  74 100 131 170 212 258 307
#
# _framework density 17.778343
#
# number of rings (size 3 to 8) (size 9 to 14) (size 15 to 20)
#    0.000    2.500    0.000    1.875    1.750    3.250 
#    0.000    1.875    0.000    2.250    0.000    1.750 
#    0.000    0.000    0.000    0.000    0.000    0.000 
#
# Total GULP energy -178402.474979 kJ/mol
# GULP energy per Si atom -5575.077343 kJ/mol
# Density = 1.773788 g / cm^3
# Si number density = 17.778343 Si / 1000 Ang^3
#
#
#
# Elastic Constant Matrix: (Units=GPa)
#
#
# Indices 1 2 3 4 5 6 
#
# 1 13.6890 18.7474 24.4840 0.0000 0.0000 0.0000
# 2 18.7474 87.5849 75.7815 0.0000 0.0000 0.0000
# 3 24.4840 75.7815 148.0869 -0.0005 -0.0004 0.0000
# 4 0.0000 0.0000 -0.0005 16.9002 -0.0001 0.0000
# 5 0.0000 0.0000 -0.0004 -0.0001 14.4450 -0.0001
# 6 0.0000 0.0000 0.0000 0.0000 -0.0001 22.3528
#
#
#
# Elastic Compliance Matrix: (Units=1/GPa)
#
#
# Indices 1 2 3 4 5 6 
#
# 1 0.113011 -0.014398 -0.011317 0.000000 0.000000 0.000000
# 2 -0.014398 0.022324 -0.009044 0.000000 0.000000 0.000000
# 3 -0.011317 -0.009044 0.013252 0.000000 0.000000 0.000000
# 4 0.000000 0.000000 0.000000 0.059171 0.000000 0.000000
# 5 0.000000 0.000000 0.000000 0.000000 0.069228 0.000000
# 6 0.000000 0.000000 0.000000 0.000000 0.000000 0.044737
#
#
# Mechanical properties :
#
#
# Convention : Reuss Voigt Hill
#
# Bulk Modulus (GPa) = 12.64701 54.15408 33.40054
# Shear Modulus (GPa) = 11.97327 19.42946 15.70136
#
# Velocity S-wave (km/s) = 2.59795 3.30945 2.97505
# Velocity P-wave (km/s) = 4.01601 6.71789 5.53437
#
# Compressibility (1/GPa) = 0.07907009
#
# Stress axis : x y z
#
# Youngs Moduli (GPa) = 8.84868 44.79424 75.46170
#
# Poissons Ratio (x) = 0.64497 0.85397
# Poissons Ratio (y) = 0.12741 0.68244
# Poissons Ratio (z) = 0.10014 0.40510
#
# Static dielectric constant tensor:
#      x y z
#    x 1.606910 0.000000 0.000000 
#    y 0.000000 1.639320 0.000000 
#    z 0.000000 0.000000 1.591400 
# 
# From -- ./inp_files/11549.got.cif
#   From: 2010.05.17/outbox.cif.g08.bks.cpg/sg44_6_cif.got.tgz:11549.got - 2010.06.03 19:37:08.
