data_PCOD9374934
_publ_section_title
;
Structure prediction by ZEFSAII (Michael W. Deem and Ramdas Pophale) SiO2 
 PCOD9374934
Probable space group: I M M 2
;
_chemical_formula_sum "Si O2"
_cell_formula_units_Z 64
_cell_length_a 29.243606
_cell_length_b 8.702321
_cell_length_c 12.101918
_cell_angle_alpha 90.000000
_cell_angle_beta 90.000000
_cell_angle_gamma 90.000000
_cell_volume 3079.783791
_symmetry_space_group_name_H-M "I M M 2"
_symmetry_group_IT_number 44
_symmetry_cell_setting 'orthorhombic'
loop_
_space_group_symop_operation_xyz
x,y,z
-x,-y,z
-x,y,z
x,-y,z
1/2+x,1/2+y,1/2+z
1/2-x,1/2-y,1/2+z
1/2-x,1/2+y,1/2+z
1/2+x,1/2-y,1/2+z
loop_
_atom_site_type_symbol
_atom_site_label
_atom_site_fract_x
_atom_site_fract_y
_atom_site_fract_z
Si Si1 0.579567 0.323213 0.271710
Si Si2 0.448280 0.316288 0.024523
Si Si3 0.153272 0.317137 0.488449
Si Si4 0.779486 0.822728 0.674002
Si Si5 0.134858 0.326964 0.099234
Si Si6 0.831257 0.675048 0.854443
Si Si7 0.691045 0.676457 0.766756
Si Si8 0.550814 0.328164 0.516432
O O1 0.597821 0.500000 0.263646
O O2 0.554388 0.292777 0.157486
O O3 0.620298 0.205267 0.295231
O O4 0.550479 0.316938 0.383345
O O5 0.500000 0.264957 0.987978
O O6 0.445901 0.500000 0.003751
O O7 0.399589 0.244753 0.983910
O O8 0.151573 0.500000 0.500039
O O9 0.183039 0.247330 0.590109
O O10 0.181226 0.269334 0.378611
O O11 0.798691 0.797175 0.797636
O O12 0.731286 0.737490 0.686622
O O13 0.772781 0.000000 0.646361
O O14 0.143757 0.500000 0.139256
O O15 0.146996 0.204510 0.191193
O O16 0.082858 0.301592 0.064373
O O17 0.162052 0.303452 0.984540
O O18 0.815909 0.500000 0.833802
O O19 0.698864 0.500000 0.795025
O O20 0.500000 0.318297 0.560072
O O21 0.569495 0.500000 0.539702
#
# Coordination Sequence:
#
# PCOD9374934 Si02
#       8
#     8   8   8   8   8   8   8   8
#     4   9  16  29  52  84 125 167 207 256 313 374
#     4  10  20  36  61  94 132 176 223 271 329 393
#     4  12  26  46  69  97 135 174 220 274 334 395
#     4  12  25  43  68  97 130 167 211 261 320 385
#     4  10  22  40  61  89 128 165 207 259 315 377
#     4  10  20  35  58  90 128 166 204 252 309 373
#     4  12  27  47  70  94 125 167 218 270 327 390
#     4   9  17  31  54  86 123 166 215 263 316 378
#
# _framework density 20.780681000000001
#
# number of rings (size 3 to 8) (size 9 to 14) (size 15 to 20)
#    0.000    1.500    1.250    4.500    1.750    3.500 
#    0.000    0.625    0.000    6.000    0.000    0.000 
#    0.000    0.000    0.000    0.000    0.000    0.000 
#
# Total GULP energy -178492.051321 kJ/mol
# GULP energy per Si atom -5577.876604 kJ/mol
# Density = 2.073338 g / cm^3
# Si number density = 20.780681 Si / 1000 Ang^3
#
#
#
# Elastic Constant Matrix: (Units=GPa)
#
#
# Indices 1 2 3 4 5 6 
#
# 1 81.0357 26.0281 22.9108 0.0000 0.0000 0.0000
# 2 26.0281 78.0720 20.8204 0.0000 0.0000 0.0000
# 3 22.9108 20.8204 44.6485 0.0000 0.0000 0.0000
# 4 0.0000 0.0000 0.0000 23.5707 0.0000 0.0000
# 5 0.0000 0.0000 0.0000 0.0000 3.1055 0.0000
# 6 0.0000 0.0000 0.0000 0.0000 0.0000 19.6145
#
#
#
# Elastic Compliance Matrix: (Units=1/GPa)
#
#
# Indices 1 2 3 4 5 6 
#
# 1 0.015189 -0.003409 -0.006204 0.000000 0.000000 0.000000
# 2 -0.003409 0.015393 -0.005429 0.000000 0.000000 0.000000
# 3 -0.006204 -0.005429 0.028112 0.000000 0.000000 0.000000
# 4 0.000000 0.000000 0.000000 0.042426 0.000000 0.000000
# 5 0.000000 0.000000 0.000000 0.000000 0.322014 0.000000
# 6 0.000000 0.000000 0.000000 0.000000 0.000000 0.050983
#
#
# Mechanical properties :
#
#
# Convention : Reuss Voigt Hill
#
# Bulk Modulus (GPa) = 34.95270 38.14166 36.54718
# Shear Modulus (GPa) = 9.73257 18.19126 13.96192
#
# Velocity S-wave (km/s) = 2.16648 2.96191 2.59486
# Velocity P-wave (km/s) = 4.80775 5.48557 5.15781
#
# Compressibility (1/GPa) = 0.02861009
#
# Stress axis : x y z
#
# Youngs Moduli (GPa) = 65.83526 64.96449 35.57154
#
# Poissons Ratio (x) = 0.22149 0.22070
# Poissons Ratio (y) = 0.22445 0.19310
# Poissons Ratio (z) = 0.40847 0.35267
#
# Static dielectric constant tensor:
#      x y z
#    x 1.812840 0.000000 0.000000 
#    y 0.000000 1.740610 0.000000 
#    z 0.000000 0.000000 1.737720 
# 
# From -- ./inp_files/15119.got.cif
#   From: 2010.05.17/outbox.cif.g08.bks.cpg/sg44_8_cif.got.tgz:15119.got - 2010.06.03 19:37:08.
