data_PCOD9374138
_publ_section_title
;
Structure prediction by ZEFSAII (Michael W. Deem and Ramdas Pophale) SiO2 
 PCOD9374138
Probable space group: I M M 2
;
_chemical_formula_sum "Si O2"
_cell_formula_units_Z 64
_cell_length_a 8.812893
_cell_length_b 25.945152
_cell_length_c 15.213973
_cell_angle_alpha 90.000000
_cell_angle_beta 90.000000
_cell_angle_gamma 90.000000
_cell_volume 3478.703049
_symmetry_space_group_name_H-M "I M M 2"
_symmetry_group_IT_number 44
_symmetry_cell_setting 'orthorhombic'
loop_
_space_group_symop_operation_xyz
x,y,z
-x,-y,z
-x,y,z
x,-y,z
1/2+x,1/2+y,1/2+z
1/2-x,1/2-y,1/2+z
1/2-x,1/2+y,1/2+z
1/2+x,1/2-y,1/2+z
loop_
_atom_site_type_symbol
_atom_site_label
_atom_site_fract_x
_atom_site_fract_y
_atom_site_fract_z
Si Si1 0.816615 0.559975 0.097380
Si Si2 0.183080 0.655250 0.613950
Si Si3 0.815087 0.393105 0.910561
Si Si4 0.185088 0.442289 0.728310
Si Si5 0.179609 0.137988 0.736564
Si Si6 0.179940 0.669320 0.410704
Si Si7 0.323097 0.763775 0.644471
Si Si8 0.677851 0.777569 0.433907
O O1 0.775025 0.500000 0.103296
O O2 0.750438 0.593813 0.175747
O O3 0.000000 0.563616 0.100028
O O4 0.766149 0.583335 0.003524
O O5 0.231883 0.603305 0.662910
O O6 0.222418 0.654314 0.510502
O O7 0.255711 0.706671 0.654730
O O8 0.000000 0.659874 0.620701
O O9 0.768200 0.426479 0.826884
O O10 0.768843 0.333442 0.901905
O O11 0.000000 0.392651 0.911969
O O12 0.236331 0.500000 0.705948
O O13 0.000000 0.442761 0.727278
O O14 0.238709 0.136432 0.836155
O O15 0.234362 0.192630 0.696940
O O16 0.000000 0.135007 0.733979
O O17 0.228835 0.728976 0.400099
O O18 0.000000 0.664499 0.401273
O O19 0.500000 0.765205 0.668941
O O20 0.312448 0.777095 0.540291
O O21 0.500000 0.770683 0.410552
#
# Coordination Sequence:
#
# PCOD9374138 Si02
#       8
#     8   8   8   8   8   8   8   8
#     4  10  20  37  60  84 114 153 194 234 280 338
#     4   9  19  35  55  82 114 147 186 235 283 331
#     4   9  16  29  51  83 118 149 182 220 267 330
#     4   9  17  30  52  83 114 144 183 228 270 321
#     4  12  24  37  56  81 112 149 192 239 290 340
#     4  10  21  36  53  77 113 149 190 237 285 338
#     4  10  19  34  55  80 112 147 184 226 275 338
#     4   9  17  31  52  80 114 148 181 219 273 336
#
# _framework density 18.397662
#
# number of rings (size 3 to 8) (size 9 to 14) (size 15 to 20)
#    0.000    2.250    1.250    2.250    1.750    2.750 
#    0.000    0.625    0.000    3.375    0.000    0.000 
#    0.000    0.000    0.000    0.000    0.000    0.000 
#
# Total GULP energy -178668.133780 kJ/mol
# GULP energy per Si atom -5583.379181 kJ/mol
# Density = 1.835579 g / cm^3
# Si number density = 18.397662 Si / 1000 Ang^3
#
#
#
# Elastic Constant Matrix: (Units=GPa)
#
#
# Indices 1 2 3 4 5 6 
#
# 1 26.4265 28.6296 28.4427 0.0000 0.0000 0.0000
# 2 28.6296 141.5940 63.2675 0.0000 0.0000 0.0000
# 3 28.4427 63.2675 78.9093 0.0001 0.0000 0.0000
# 4 0.0000 0.0000 0.0001 27.2444 0.0000 0.0000
# 5 0.0000 0.0000 0.0000 0.0000 15.8348 0.0000
# 6 0.0000 0.0000 0.0000 0.0000 0.0000 25.0515
#
#
#
# Elastic Compliance Matrix: (Units=1/GPa)
#
#
# Indices 1 2 3 4 5 6 
#
# 1 0.063287 -0.004057 -0.019559 0.000000 0.000000 0.000000
# 2 -0.004057 0.011265 -0.007570 0.000000 0.000000 0.000000
# 3 -0.019559 -0.007570 0.025792 0.000000 0.000000 0.000000
# 4 0.000000 0.000000 0.000000 0.036705 0.000000 0.000000
# 5 0.000000 0.000000 0.000000 0.000000 0.063152 0.000000
# 6 0.000000 0.000000 0.000000 0.000000 0.000000 0.039918
#
#
# Mechanical properties :
#
#
# Convention : Reuss Voigt Hill
#
# Bulk Modulus (GPa) = 26.33451 54.17883 40.25667
# Shear Modulus (GPa) = 15.86555 22.06546 18.96551
#
# Velocity S-wave (km/s) = 2.93980 3.46694 3.21419
# Velocity P-wave (km/s) = 5.08609 6.74825 5.97525
#
# Compressibility (1/GPa) = 0.03797298
#
# Stress axis : x y z
#
# Youngs Moduli (GPa) = 15.80095 88.76992 38.77171
#
# Poissons Ratio (x) = 0.36014 0.75834
# Poissons Ratio (y) = 0.06410 0.29349
# Poissons Ratio (z) = 0.30905 0.67196
#
# Static dielectric constant tensor:
#      x y z
#    x 1.620730 0.000000 0.000000 
#    y 0.000000 1.611870 0.000000 
#    z 0.000000 0.000000 1.644390 
# 
# From -- ./inp_files/16848.got.cif
#   From: 2010.05.17/outbox.cif.g08.bks.cpg/sg44_9_cif.got.tgz:16848.got - 2010.06.03 19:37:08.
