data_PCOD9374139
_publ_section_title
;
Structure prediction by ZEFSAII (Michael W. Deem and Ramdas Pophale) SiO2 
 PCOD9374139
Probable space group: I M M 2
;
_chemical_formula_sum "Si O2"
_cell_formula_units_Z 64
_cell_length_a 8.007953
_cell_length_b 29.398189
_cell_length_c 12.767154
_cell_angle_alpha 90.000000
_cell_angle_beta 90.000000
_cell_angle_gamma 90.000000
_cell_volume 3005.634659
_symmetry_space_group_name_H-M "I M M 2"
_symmetry_group_IT_number 44
_symmetry_cell_setting 'orthorhombic'
loop_
_space_group_symop_operation_xyz
x,y,z
-x,-y,z
-x,y,z
x,-y,z
1/2+x,1/2+y,1/2+z
1/2-x,1/2-y,1/2+z
1/2-x,1/2+y,1/2+z
1/2+x,1/2-y,1/2+z
loop_
_atom_site_type_symbol
_atom_site_label
_atom_site_fract_x
_atom_site_fract_y
_atom_site_fract_z
Si Si1 0.799791 0.051247 0.605080
Si Si2 0.197410 0.307948 0.370287
Si Si3 0.805596 0.333808 0.601068
Si Si4 0.304926 0.622217 0.934556
Si Si5 0.305717 0.951034 0.278010
Si Si6 0.811910 0.068394 0.055037
Si Si7 0.202715 0.790603 0.318450
Si Si8 0.700138 0.089516 0.828377
O O1 0.732350 0.090744 0.527517
O O2 0.765825 0.065386 0.724648
O O3 0.000000 0.049657 0.589344
O O4 0.734540 0.000000 0.584934
O O5 0.208526 0.304629 0.495939
O O6 0.268491 0.260783 0.328105
O O7 0.262892 0.357705 0.335895
O O8 0.000000 0.309062 0.343223
O O9 0.696646 0.377967 0.579283
O O10 0.751783 0.309125 0.705268
O O11 0.000000 0.348560 0.609501
O O12 0.500000 0.629160 0.959012
O O13 0.288783 0.590616 0.831317
O O14 0.235837 0.671890 0.903463
O O15 0.500000 0.946587 0.305572
O O16 0.289632 0.950974 0.152658
O O17 0.241724 0.000000 0.316986
O O18 0.000000 0.051775 0.061650
O O19 0.747686 0.064283 0.936558
O O20 0.000000 0.789479 0.326728
O O21 0.500000 0.090829 0.824368
#
# Coordination Sequence:
#
# PCOD9374139 Si02
#       8
#     8   8   8   8   8   8   8   8
#     4  10  22  40  60  84 118 159 203 252 302 359
#     4   8  18  35  54  80 115 153 191 238 295 350
#     4  10  19  34  55  80 114 151 188 239 294 346
#     4  10  21  37  59  85 115 154 198 243 292 352
#     4  11  23  37  56  84 117 149 185 235 291 349
#     4  11  21  36  59  84 111 148 189 235 292 356
#     4  10  19  34  57  84 114 153 198 241 293 356
#     4  10  21  39  61  84 116 156 198 248 300 353
#
# _framework density 21.293339
#
# number of rings (size 3 to 8) (size 9 to 14) (size 15 to 20)
#    0.000    2.000    1.250    3.375    0.000    3.750 
#    0.000    5.000    0.000    0.000    0.000    0.000 
#    0.000    0.000    0.000    0.000    0.000    0.000 
#
# Total GULP energy -178553.565184 kJ/mol
# GULP energy per Si atom -5579.798912 kJ/mol
# Density = 2.124487 g / cm^3
# Si number density = 21.293339 Si / 1000 Ang^3
#
#
#
# Elastic Constant Matrix: (Units=GPa)
#
#
# Indices 1 2 3 4 5 6 
#
# 1 31.1054 3.0232 -5.9220 -0.0001 0.0000 0.0000
# 2 3.0232 70.2958 11.9722 -0.0003 0.0000 0.0000
# 3 -5.9220 11.9722 78.6772 -0.0008 0.0000 0.0000
# 4 -0.0001 -0.0003 -0.0008 48.1849 0.0000 0.0001
# 5 0.0000 0.0000 0.0000 0.0000 23.1755 0.0000
# 6 0.0000 0.0000 0.0000 0.0001 0.0000 1.7528
#
#
#
# Elastic Compliance Matrix: (Units=1/GPa)
#
#
# Indices 1 2 3 4 5 6 
#
# 1 0.032857 -0.001883 0.002760 0.000000 0.000000 0.000000
# 2 -0.001883 0.014712 -0.002380 0.000000 0.000000 0.000000
# 3 0.002760 -0.002380 0.013280 0.000000 0.000000 0.000000
# 4 0.000000 0.000000 0.000000 0.020753 0.000000 -0.000001
# 5 0.000000 0.000000 0.000000 0.000000 0.043149 0.000000
# 6 0.000000 0.000000 0.000000 -0.000001 0.000000 0.570528
#
#
# Mechanical properties :
#
#
# Convention : Reuss Voigt Hill
#
# Bulk Modulus (GPa) = 17.28859 22.02503 19.65681
# Shear Modulus (GPa) = 6.96798 26.02295 16.49547
#
# Velocity S-wave (km/s) = 1.81093 3.49967 2.78632
# Velocity P-wave (km/s) = 3.53688 5.16685 4.42752
#
# Compressibility (1/GPa) = 0.05784161
#
# Stress axis : x y z
#
# Youngs Moduli (GPa) = 30.43472 67.97169 75.30055
#
# Poissons Ratio (x) = 0.12800 -0.20781
# Poissons Ratio (y) = 0.05731 0.17925
# Poissons Ratio (z) = -0.08399 0.16180
#
# Static dielectric constant tensor:
#      x y z
#    x 1.762450 0.000000 0.000000 
#    y 0.000000 1.801990 0.000000 
#    z 0.000000 0.000000 1.754060 
# 
# From -- ./inp_files/11551.got.cif
#   From: 2010.05.17/outbox.cif.g08.bks.cpg/sg44_6_cif.got.tgz:11551.got - 2010.06.03 19:37:08.
