data_PCOD9374749
_publ_section_title
;
Structure prediction by ZEFSAII (Michael W. Deem and Ramdas Pophale) SiO2 
 PCOD9374749
Probable space group: I M M 2
;
_chemical_formula_sum "Si O2"
_cell_formula_units_Z 40
_cell_length_a 13.863574
_cell_length_b 8.678859
_cell_length_c 18.919330
_cell_angle_alpha 90.000000
_cell_angle_beta 90.000000
_cell_angle_gamma 90.000000
_cell_volume 2276.373861
_symmetry_space_group_name_H-M "I M M 2"
_symmetry_group_IT_number 44
_symmetry_cell_setting 'orthorhombic'
loop_
_space_group_symop_operation_xyz
x,y,z
-x,-y,z
-x,y,z
x,-y,z
1/2+x,1/2+y,1/2+z
1/2-x,1/2-y,1/2+z
1/2-x,1/2+y,1/2+z
1/2+x,1/2-y,1/2+z
loop_
_atom_site_type_symbol
_atom_site_label
_atom_site_fract_x
_atom_site_fract_y
_atom_site_fract_z
Si Si1 0.702203 0.683048 0.115410
Si Si2 0.889462 0.184537 0.181249
Si Si3 0.386761 0.814473 0.973336
Si Si4 0.889501 0.315336 0.756478
Si Si5 0.702052 0.184673 0.822317
O O1 0.696623 0.500000 0.123039
O O2 0.811284 0.738804 0.129846
O O3 0.639118 0.760319 0.177764
O O4 0.663627 0.735941 0.039873
O O5 0.861059 0.240104 0.259913
O O6 0.000000 0.225687 0.165709
O O7 0.879234 0.000000 0.177801
O O8 0.500000 0.775099 0.971461
O O9 0.337340 0.771793 0.899157
O O10 0.379121 0.000000 0.981091
O O11 0.880017 0.500000 0.759566
O O12 0.811112 0.239354 0.808010
O O13 0.000000 0.273421 0.771910
O O14 0.696419 0.000000 0.815111
#
# Coordination Sequence:
#
# PCOD9374749 Si02
#       5
#     8   8   8   8   8
#     4  11  22  34  53  80 107 136 174 219 261 305
#     4  10  20  35  56  79 105 139 175 212 257 309
#     4  10  21  37  55  76 106 141 173 210 260 313
#     4  10  20  35  55  77 105 141 176 213 259 309
#     4  10  20  34  55  81 107 136 173 216 259 307
#
# _framework density 17.571805000000001
#
# number of rings (size 3 to 8) (size 9 to 14) (size 15 to 20)
#    0.000    1.800    0.000    7.200    0.000    8.400 
#    0.000    1.000    0.000    1.200    0.000    0.000 
#    0.000    0.000    0.000    0.000    0.000    0.000 
#
# Total GULP energy -111721.992538 kJ/mol
# GULP energy per Si atom -5586.099627 kJ/mol
# Density = 1.753181 g / cm^3
# Si number density = 17.571805 Si / 1000 Ang^3
#
#
#
# Elastic Constant Matrix: (Units=GPa)
#
#
# Indices 1 2 3 4 5 6 
#
# 1 120.0975 23.5921 56.0377 0.0000 0.0000 0.0000
# 2 23.5921 39.9087 24.2792 0.0000 0.0000 0.0000
# 3 56.0377 24.2792 107.5923 0.0000 0.0000 0.0000
# 4 0.0000 0.0000 0.0000 31.2024 0.0000 0.0000
# 5 0.0000 0.0000 0.0000 0.0000 12.0167 0.0000
# 6 0.0000 0.0000 0.0000 0.0000 0.0000 21.0219
#
#
#
# Elastic Compliance Matrix: (Units=1/GPa)
#
#
# Indices 1 2 3 4 5 6 
#
# 1 0.011438 -0.003637 -0.005136 0.000000 0.000000 0.000000
# 2 -0.003637 0.030201 -0.004921 0.000000 0.000000 0.000000
# 3 -0.005136 -0.004921 0.013080 0.000000 0.000000 0.000000
# 4 0.000000 0.000000 0.000000 0.032049 0.000000 0.000000
# 5 0.000000 0.000000 0.000000 0.000000 0.083218 0.000000
# 6 0.000000 0.000000 0.000000 0.000000 0.000000 0.047570
#
#
# Mechanical properties :
#
#
# Convention : Reuss Voigt Hill
#
# Bulk Modulus (GPa) = 36.58936 52.82404 44.70670
# Shear Modulus (GPa) = 19.68096 23.76083 21.72089
#
# Velocity S-wave (km/s) = 3.35032 3.68123 3.51967
# Velocity P-wave (km/s) = 5.98616 6.94231 6.48189
#
# Compressibility (1/GPa) = 0.02733035
#
# Stress axis : x y z
#
# Youngs Moduli (GPa) = 87.43081 33.11179 76.45215
#
# Poissons Ratio (x) = 0.12041 0.39270
# Poissons Ratio (y) = 0.31794 0.37622
# Poissons Ratio (z) = 0.44909 0.16294
#
# Static dielectric constant tensor:
#      x y z
#    x 1.597140 0.000000 0.000000 
#    y 0.000000 1.591530 0.000000 
#    z 0.000000 0.000000 1.563910 
# 
# From -- ./inp_files/20172.got.cif
#   From: 2010.05.17/outbox.cif.g08.bks.cpg/sg44_11_cif.got.tgz:20172.got - 2010.06.03 19:37:08.
