data_PCOD9374396
_publ_section_title
;
Structure prediction by ZEFSAII (Michael W. Deem and Ramdas Pophale) SiO2 
 PCOD9374396
Probable space group: I M M 2
;
_chemical_formula_sum "Si O2"
_cell_formula_units_Z 48
_cell_length_a 7.251429
_cell_length_b 23.435443
_cell_length_c 12.237141
_cell_angle_alpha 90.000000
_cell_angle_beta 90.000000
_cell_angle_gamma 90.000000
_cell_volume 2079.585260
_symmetry_space_group_name_H-M "I M M 2"
_symmetry_group_IT_number 44
_symmetry_cell_setting 'orthorhombic'
loop_
_space_group_symop_operation_xyz
x,y,z
-x,-y,z
-x,y,z
x,-y,z
1/2+x,1/2+y,1/2+z
1/2-x,1/2-y,1/2+z
1/2-x,1/2+y,1/2+z
1/2+x,1/2-y,1/2+z
loop_
_atom_site_type_symbol
_atom_site_label
_atom_site_fract_x
_atom_site_fract_y
_atom_site_fract_z
Si Si1 0.223803 0.342081 0.001230
Si Si2 0.710622 0.863049 0.741339
Si Si3 0.223078 0.739105 0.804693
Si Si4 0.776599 0.563586 0.836951
Si Si5 0.274431 0.934161 0.939147
Si Si6 0.723125 0.144833 0.138092
O O1 0.292695 0.345398 0.124528
O O2 0.000000 0.336599 0.004088
O O3 0.283750 0.293986 0.914464
O O4 0.273884 0.401349 0.943581
O O5 0.500000 0.880639 0.718646
O O6 0.711674 0.803610 0.806429
O O7 0.786753 0.912022 0.819988
O O8 0.282356 0.704938 0.693789
O O9 0.000000 0.738629 0.804128
O O10 0.707665 0.500000 0.834359
O O11 0.724339 0.599618 0.731568
O O12 0.000000 0.562087 0.834831
O O13 0.500000 0.933942 0.941268
O O14 0.220181 0.000000 0.962757
O O15 0.215374 0.885564 0.026465
O O16 0.500000 0.148410 0.131480
#
# Coordination Sequence:
#
# PCOD9374396 Si02
#       6
#     8   8   8   8   8   8
#     4   8  16  29  41  61  92 120 148 186 231 275
#     4  10  20  31  46  69  96 123 152 192 237 281
#     4   9  18  32  49  66  90 125 160 192 230 275
#     4   8  12  20  38  61  85 116 149 181 221 269
#     4   9  17  28  43  67  98 126 152 191 242 284
#     4   8  14  25  42  65  90 117 153 194 229 268
#
# _framework density 23.081524999999999
#
# number of rings (size 3 to 8) (size 9 to 14) (size 15 to 20)
#    0.000    3.333    0.000    2.500    2.333    2.667 
#    0.000    3.333    0.000    0.500    0.000    0.000 
#    0.000   21.333    0.000    0.000    0.000    0.000 
#
# Total GULP energy -133849.334009 kJ/mol
# GULP energy per Si atom -5577.055584 kJ/mol
# Density = 2.302899 g / cm^3
# Si number density = 23.081525 Si / 1000 Ang^3
#
#
#
# Elastic Constant Matrix: (Units=GPa)
#
#
# Indices 1 2 3 4 5 6 
#
# 1 104.4581 -10.5822 1.1648 0.0000 0.0000 0.0000
# 2 -10.5822 65.3941 13.4871 0.0001 0.0000 0.0000
# 3 1.1648 13.4871 116.1918 0.0005 0.0000 0.0000
# 4 0.0000 0.0001 0.0005 17.2514 0.0000 0.0000
# 5 0.0000 0.0000 0.0000 0.0000 -21.6494 0.0000
# 6 0.0000 0.0000 0.0000 0.0000 0.0000 2.5476
#
#
#
# Elastic Compliance Matrix: (Units=1/GPa)
#
#
# Indices 1 2 3 4 5 6 
#
# 1 0.009742 0.001636 -0.000288 0.000000 0.000000 0.000000
# 2 0.001636 0.015942 -0.001867 0.000000 0.000000 0.000000
# 3 -0.000288 -0.001867 0.008826 0.000000 0.000000 0.000000
# 4 0.000000 0.000000 0.000000 0.057966 0.000000 0.000000
# 5 0.000000 0.000000 0.000000 0.000000 -0.046191 0.000001
# 6 0.000000 0.000000 0.000000 0.000000 0.000001 0.392528
#
#
# Mechanical properties :
#
#
# Convention : Reuss Voigt Hill
#
# Bulk Modulus (GPa) = 29.87515 32.68704 31.28110
# Shear Modulus (GPa) = 11.08626 18.42820 14.75723
#
# Velocity S-wave (km/s) = 2.19397 2.82866 2.53129
# Velocity P-wave (km/s) = 4.40334 4.98605 4.70373
#
# Compressibility (1/GPa) = 0.03347263
#
# Stress axis : x y z
#
# Youngs Moduli (GPa) = 102.64685 62.72887 113.30110
#
# Poissons Ratio (x) = -0.10261 0.03258
# Poissons Ratio (y) = -0.16791 0.21151
# Poissons Ratio (z) = 0.02952 0.11710
#
# Static dielectric constant tensor:
#      x y z
#    x 1.939570 0.000000 0.000000 
#    y 0.000000 1.814250 0.000000 
#    z 0.000000 0.000000 1.866030 
# 
# From -- ./inp_files/11144.got.cif
#   From: 2010.05.17/outbox.cif.g08.bks.cpg/sg44_6_cif.got.tgz:11144.got - 2010.06.03 19:37:08.
