data_PCOD9374073
_publ_section_title
;
Structure prediction by ZEFSAII (Michael W. Deem and Ramdas Pophale) SiO2 
 PCOD9374073
Probable space group: I M M 2
;
_chemical_formula_sum "Si O2"
_cell_formula_units_Z 64
_cell_length_a 20.155804
_cell_length_b 8.743116
_cell_length_c 21.205026
_cell_angle_alpha 90.000000
_cell_angle_beta 90.000000
_cell_angle_gamma 90.000000
_cell_volume 3736.845792
_symmetry_space_group_name_H-M "I M M 2"
_symmetry_group_IT_number 44
_symmetry_cell_setting 'orthorhombic'
loop_
_space_group_symop_operation_xyz
x,y,z
-x,-y,z
-x,y,z
x,-y,z
1/2+x,1/2+y,1/2+z
1/2-x,1/2-y,1/2+z
1/2-x,1/2+y,1/2+z
1/2+x,1/2-y,1/2+z
loop_
_atom_site_type_symbol
_atom_site_label
_atom_site_fract_x
_atom_site_fract_y
_atom_site_fract_z
Si Si1 0.787380 0.816838 0.852940
Si Si2 0.209784 0.818716 0.471775
Si Si3 0.212392 0.315330 0.603978
Si Si4 0.574238 0.317356 0.786148
Si Si5 0.425981 0.684166 0.300924
Si Si6 0.073756 0.315433 0.660373
Si Si7 0.212629 0.816011 0.231455
Si Si8 0.575045 0.182569 0.925628
O O1 0.751991 0.745901 0.913439
O O2 0.864541 0.771440 0.844841
O O3 0.750823 0.761075 0.789500
O O4 0.782790 0.000000 0.856991
O O5 0.234883 0.756783 0.538645
O O6 0.134334 0.760556 0.462918
O O7 0.211077 0.000000 0.469900
O O8 0.213757 0.500000 0.598530
O O9 0.136520 0.266950 0.619163
O O10 0.256380 0.271187 0.664524
O O11 0.500000 0.284320 0.762051
O O12 0.577784 0.500000 0.799396
O O13 0.634845 0.280160 0.740172
O O14 0.582733 0.230500 0.852371
O O15 0.500000 0.726914 0.323290
O O16 0.423950 0.500000 0.294305
O O17 0.417001 0.755459 0.231539
O O18 0.074645 0.500000 0.662078
O O19 0.000000 0.267079 0.638671
O O20 0.220859 0.000000 0.237283
O O21 0.500000 0.226785 0.944829
O O22 0.580927 0.000000 0.931669
#
# Coordination Sequence:
#
# PCOD9374073 Si02
#       8
#     8   8   8   8   8   8   8   8
#     4  11  21  34  56  81 107 140 178 221 270 321
#     4  12  25  38  53  75 107 145 187 228 271 318
#     4  10  21  36  52  74 107 144 183 222 266 316
#     4   9  17  30  51  80 111 141 174 215 262 313
#     4   9  18  32  52  80 110 137 170 215 264 315
#     4   9  17  30  50  76 106 140 174 208 252 311
#     4  10  19  33  55  81 108 140 177 221 266 316
#     4  10  20  34  53  78 108 142 179 218 265 321
#
# _framework density 17.126743000000001
#
# number of rings (size 3 to 8) (size 9 to 14) (size 15 to 20)
#    0.000    2.000    2.500    1.875    0.000    2.750 
#    0.000    1.250    0.000    0.750    0.000    3.500 
#    0.000    0.000    0.000    0.000    0.000    0.000 
#
# Total GULP energy -178561.227977 kJ/mol
# GULP energy per Si atom -5580.038374 kJ/mol
# Density = 1.708776 g / cm^3
# Si number density = 17.126743 Si / 1000 Ang^3
#
#
#
# Elastic Constant Matrix: (Units=GPa)
#
#
# Indices 1 2 3 4 5 6 
#
# 1 110.6033 35.7304 65.3372 0.0000 0.0000 0.0000
# 2 35.7304 32.2551 37.2662 0.0000 0.0000 0.0000
# 3 65.3372 37.2662 117.2060 0.0000 0.0000 0.0000
# 4 0.0000 0.0000 0.0000 25.0950 0.0000 0.0000
# 5 0.0000 0.0000 0.0000 0.0000 20.4149 0.0000
# 6 0.0000 0.0000 0.0000 0.0000 0.0000 16.1125
#
#
#
# Elastic Compliance Matrix: (Units=1/GPa)
#
#
# Indices 1 2 3 4 5 6 
#
# 1 0.015818 -0.011593 -0.005132 0.000000 0.000000 0.000000
# 2 -0.011593 0.057502 -0.011820 0.000000 0.000000 0.000000
# 3 -0.005132 -0.011820 0.015151 0.000000 0.000000 0.000000
# 4 0.000000 0.000000 0.000000 0.039849 0.000000 0.000000
# 5 0.000000 0.000000 0.000000 0.000000 0.048984 0.000000
# 6 0.000000 0.000000 0.000000 0.000000 0.000000 0.062064
#
#
# Mechanical properties :
#
#
# Convention : Reuss Voigt Hill
#
# Bulk Modulus (GPa) = 31.86707 59.63690 45.75198
# Shear Modulus (GPa) = 16.29102 20.43986 18.36544
#
# Velocity S-wave (km/s) = 3.08750 3.45838 3.27819
# Velocity P-wave (km/s) = 5.59976 7.13048 6.41097
#
# Compressibility (1/GPa) = 0.03138035
#
# Stress axis : x y z
#
# Youngs Moduli (GPa) = 63.21900 17.39073 66.00233
#
# Poissons Ratio (x) = 0.20162 0.33870
# Poissons Ratio (y) = 0.73292 0.78016
# Poissons Ratio (z) = 0.32442 0.20556
#
# Static dielectric constant tensor:
#      x y z
#    x 1.615970 0.000000 0.000000 
#    y 0.000000 1.573280 0.000000 
#    z 0.000000 0.000000 1.548310 
# 
# From -- ./inp_files/22291.got.cif
#   From: 2010.05.17/outbox.cif.g08.bks.cpg/sg44_12_cif.got.tgz:22291.got - 2010.06.03 19:37:08.
