data_PCOD9374068
_publ_section_title
;
Structure prediction by ZEFSAII (Michael W. Deem and Ramdas Pophale) SiO2 
 PCOD9374068
Probable space group: I M M 2
;
_chemical_formula_sum "Si O2"
_cell_formula_units_Z 56
_cell_length_a 15.124905
_cell_length_b 7.882628
_cell_length_c 22.407639
_cell_angle_alpha 90.000000
_cell_angle_beta 90.000000
_cell_angle_gamma 90.000000
_cell_volume 2671.528344
_symmetry_space_group_name_H-M "I M M 2"
_symmetry_group_IT_number 44
_symmetry_cell_setting 'orthorhombic'
loop_
_space_group_symop_operation_xyz
x,y,z
-x,-y,z
-x,y,z
x,-y,z
1/2+x,1/2+y,1/2+z
1/2-x,1/2-y,1/2+z
1/2-x,1/2+y,1/2+z
1/2+x,1/2-y,1/2+z
loop_
_atom_site_type_symbol
_atom_site_label
_atom_site_fract_x
_atom_site_fract_y
_atom_site_fract_z
Si Si1 0.789327 0.201394 0.460460
Si Si2 0.282850 0.297942 0.734051
Si Si3 0.098699 0.204633 0.989784
Si Si4 0.903226 0.699932 0.709651
Si Si5 0.400375 0.706798 0.626866
Si Si6 0.898637 0.795735 0.573046
Si Si7 0.400059 0.799867 0.845462
O O1 0.685500 0.240062 0.454635
O O2 0.829475 0.265914 0.523454
O O3 0.847205 0.269990 0.406347
O O4 0.800679 0.000000 0.460880
O O5 0.273734 0.500000 0.724846
O O6 0.183767 0.227787 0.741148
O O7 0.330134 0.228858 0.674555
O O8 0.344906 0.273258 0.790538
O O9 0.000000 0.261568 0.970627
O O10 0.097286 0.000000 0.989921
O O11 0.112109 0.262413 0.058616
O O12 0.908876 0.500000 0.723680
O O13 0.886994 0.718115 0.638535
O O14 0.000000 0.776193 0.722385
O O15 0.500000 0.753874 0.645580
O O16 0.397188 0.500000 0.626255
O O17 0.000000 0.759264 0.553528
O O18 0.890950 0.000000 0.579214
O O19 0.500000 0.730279 0.848685
O O20 0.405620 0.000000 0.835491
#
# Coordination Sequence:
#
# PCOD9374068 Si02
#       7
#     8   8   8   8   8   8   8
#     4  11  22  36  56  80 108 144 183 223 268 320
#     4  10  19  33  55  79 106 143 181 218 263 314
#     4   9  18  34  56  82 113 146 180 220 264 313
#     4   9  18  32  52  81 113 142 175 215 259 311
#     4   8  14  26  48  78 107 137 175 216 261 316
#     4   9  18  32  51  78 111 144 177 216 266 320
#     4  11  25  42  58  78 104 135 176 226 275 324
#
# _framework density 20.961784000000002
#
# number of rings (size 3 to 8) (size 9 to 14) (size 15 to 20)
#    0.000    2.429    0.000    3.429    0.000    5.429 
#    0.000    2.857    0.000    3.429    0.000    0.000 
#    0.000    0.000    0.000    0.000    0.000    0.000 
#
# Total GULP energy -156281.347766 kJ/mol
# GULP energy per Si atom -5581.476706 kJ/mol
# Density = 2.091407 g / cm^3
# Si number density = 20.961784 Si / 1000 Ang^3
#
#
#
# Elastic Constant Matrix: (Units=GPa)
#
#
# Indices 1 2 3 4 5 6 
#
# 1 186.7045 0.9878 48.3310 0.0000 0.0000 0.0000
# 2 0.9878 20.3002 -11.2612 0.0000 0.0000 0.0000
# 3 48.3310 -11.2612 24.6307 0.0000 0.0000 0.0000
# 4 0.0000 0.0000 0.0000 13.6200 0.0000 0.0000
# 5 0.0000 0.0000 0.0000 0.0000 18.6420 0.0000
# 6 0.0000 0.0000 0.0000 0.0000 0.0000 16.4673
#
#
#
# Elastic Compliance Matrix: (Units=1/GPa)
#
#
# Indices 1 2 3 4 5 6 
#
# 1 0.017638 -0.026873 -0.046896 0.000000 0.000000 0.000000
# 2 -0.026873 0.106943 0.101625 0.000000 0.000000 0.000000
# 3 -0.046896 0.101625 0.179083 0.000000 0.000000 0.000000
# 4 0.000000 0.000000 0.000000 0.073421 0.000000 0.000000
# 5 0.000000 0.000000 0.000000 0.000000 0.053642 0.000000
# 6 0.000000 0.000000 0.000000 0.000000 0.000000 0.060727
#
#
# Mechanical properties :
#
#
# Convention : Reuss Voigt Hill
#
# Bulk Modulus (GPa) = 2.78260 34.19449 18.48855
# Shear Modulus (GPa) = 9.00037 22.65104 15.82570
#
# Velocity S-wave (km/s) = 2.07437 3.29079 2.75067
# Velocity P-wave (km/s) = 2.65852 5.54863 4.35058
#
# Compressibility (1/GPa) = 0.35937627
#
# Stress axis : x y z
#
# Youngs Moduli (GPa) = 56.69638 9.35080 5.58401
#
# Poissons Ratio (x) = 0.25128 0.26187
# Poissons Ratio (y) = 1.52359 -0.56747
# Poissons Ratio (z) = 2.65882 -0.95027
#
# Static dielectric constant tensor:
#      x y z
#    x 1.830130 0.000000 0.000000 
#    y 0.000000 1.773730 0.000000 
#    z 0.000000 0.000000 1.713940 
# 
# From -- ./inp_files/23007.got.cif
#   From: 2010.05.17/outbox.cif.g08.bks.cpg/sg44_12_cif.got.tgz:23007.got - 2010.06.03 19:37:08.
