data_PCOD9374060
_publ_section_title
;
Structure prediction by ZEFSAII (Michael W. Deem and Ramdas Pophale) SiO2 
 PCOD9374060
Probable space group: I M M 2
;
_chemical_formula_sum "Si O2"
_cell_formula_units_Z 56
_cell_length_a 24.340067
_cell_length_b 8.782728
_cell_length_c 13.999862
_cell_angle_alpha 90.000000
_cell_angle_beta 90.000000
_cell_angle_gamma 90.000000
_cell_volume 2992.781131
_symmetry_space_group_name_H-M "I M M 2"
_symmetry_group_IT_number 44
_symmetry_cell_setting 'orthorhombic'
loop_
_space_group_symop_operation_xyz
x,y,z
-x,-y,z
-x,y,z
x,-y,z
1/2+x,1/2+y,1/2+z
1/2-x,1/2-y,1/2+z
1/2-x,1/2+y,1/2+z
1/2+x,1/2-y,1/2+z
loop_
_atom_site_type_symbol
_atom_site_label
_atom_site_fract_x
_atom_site_fract_y
_atom_site_fract_z
Si Si1 0.834687 0.183147 0.732530
Si Si2 0.333319 0.682439 0.448417
Si Si3 0.729038 0.682772 0.044526
Si Si4 0.562448 0.817216 0.129322
Si Si5 0.564144 0.681652 0.757591
Si Si6 0.373263 0.817852 0.935852
Si Si7 0.436479 0.817889 0.547901
O O1 0.820437 0.231079 0.839609
O O2 0.792271 0.231184 0.649669
O O3 0.894076 0.244789 0.701355
O O4 0.836541 0.000000 0.731159
O O5 0.331101 0.500000 0.453882
O O6 0.288266 0.753188 0.518490
O O7 0.393277 0.740280 0.477911
O O8 0.729175 0.500000 0.040456
O O9 0.684418 0.747797 0.969783
O O10 0.500000 0.764712 0.142101
O O11 0.563824 0.000000 0.140318
O O12 0.584349 0.783459 0.022500
O O13 0.500000 0.712768 0.782448
O O14 0.570904 0.500000 0.749799
O O15 0.603158 0.748267 0.839032
O O16 0.574471 0.758187 0.655125
O O17 0.368189 0.000000 0.927424
O O18 0.500000 0.780410 0.525067
O O19 0.430330 0.000000 0.545129
#
# Coordination Sequence:
#
# PCOD9374060 Si02
#       7
#     8   8   8   8   8   8   8
#     4   9  21  39  57  79 109 144 182 227 275 326
#     4  11  23  40  61  84 111 145 184 227 281 338
#     4  10  21  39  59  81 111 146 189 235 278 329
#     4   9  18  32  52  80 113 148 186 228 273 323
#     4  10  20  34  54  82 115 151 191 234 280 332
#     4  10  19  33  54  81 115 152 189 231 282 335
#     4  10  22  40  60  83 112 146 185 230 279 332
#
# _framework density 18.711690999999998
#
# number of rings (size 3 to 8) (size 9 to 14) (size 15 to 20)
#    0.000    2.143    0.000    2.571    0.000    6.571 
#    0.000    7.143    0.000    0.000    0.000    0.000 
#    0.000    0.000    0.000    0.000    0.000    0.000 
#
# Total GULP energy -156377.408183 kJ/mol
# GULP energy per Si atom -5584.907435 kJ/mol
# Density = 1.866910 g / cm^3
# Si number density = 18.711691 Si / 1000 Ang^3
#
#
#
# Elastic Constant Matrix: (Units=GPa)
#
#
# Indices 1 2 3 4 5 6 
#
# 1 94.1504 30.7112 51.5001 0.0000 0.0000 0.0000
# 2 30.7112 42.4385 28.0155 0.0000 0.0000 0.0000
# 3 51.5001 28.0155 82.2843 0.0000 0.0000 0.0000
# 4 0.0000 0.0000 0.0000 29.8476 0.0000 0.0000
# 5 0.0000 0.0000 0.0000 0.0000 20.0189 0.0000
# 6 0.0000 0.0000 0.0000 0.0000 0.0000 33.3052
#
#
#
# Elastic Compliance Matrix: (Units=1/GPa)
#
#
# Indices 1 2 3 4 5 6 
#
# 1 0.017655 -0.007071 -0.008643 0.000000 0.000000 0.000000
# 2 -0.007071 0.033227 -0.006887 0.000000 0.000000 0.000000
# 3 -0.008643 -0.006887 0.019907 0.000000 0.000000 0.000000
# 4 0.000000 0.000000 0.000000 0.033504 0.000000 0.000000
# 5 0.000000 0.000000 0.000000 0.000000 0.049953 0.000000
# 6 0.000000 0.000000 0.000000 0.000000 0.000000 0.030025
#
#
# Mechanical properties :
#
#
# Convention : Reuss Voigt Hill
#
# Bulk Modulus (GPa) = 39.08126 48.81409 43.94767
# Shear Modulus (GPa) = 21.00817 23.87743 22.44280
#
# Velocity S-wave (km/s) = 3.35435 3.57609 3.46699
# Velocity P-wave (km/s) = 5.99446 6.57231 6.29003
#
# Compressibility (1/GPa) = 0.02558771
#
# Stress axis : x y z
#
# Youngs Moduli (GPa) = 56.63997 30.09576 50.23329
#
# Poissons Ratio (x) = 0.21281 0.43415
# Poissons Ratio (y) = 0.40051 0.34597
# Poissons Ratio (z) = 0.48952 0.20728
#
# Static dielectric constant tensor:
#      x y z
#    x 1.629370 0.000000 0.000000 
#    y 0.000000 1.622770 0.000000 
#    z 0.000000 0.000000 1.636270 
# 
# From -- ./inp_files/16493.got.cif
#   From: 2010.05.17/outbox.cif.g08.bks.cpg/sg44_9_cif.got.tgz:16493.got - 2010.06.03 19:37:08.
