data_PCOD9374687
_publ_section_title
;
Structure prediction by ZEFSAII (Michael W. Deem and Ramdas Pophale) SiO2 
 PCOD9374687
Probable space group: I M M 2
;
_chemical_formula_sum "Si O2"
_cell_formula_units_Z 48
_cell_length_a 30.369166
_cell_length_b 8.847854
_cell_length_c 10.396188
_cell_angle_alpha 90.000000
_cell_angle_beta 90.000000
_cell_angle_gamma 90.000000
_cell_volume 2793.475956
_symmetry_space_group_name_H-M "I M M 2"
_symmetry_group_IT_number 44
_symmetry_cell_setting 'orthorhombic'
loop_
_space_group_symop_operation_xyz
x,y,z
-x,-y,z
-x,y,z
x,-y,z
1/2+x,1/2+y,1/2+z
1/2-x,1/2-y,1/2+z
1/2-x,1/2+y,1/2+z
1/2+x,1/2-y,1/2+z
loop_
_atom_site_type_symbol
_atom_site_label
_atom_site_fract_x
_atom_site_fract_y
_atom_site_fract_z
Si Si1 0.714946 0.180758 0.579220
Si Si2 0.281235 0.180949 0.875054
Si Si3 0.381147 0.681441 0.585585
Si Si4 0.550734 0.682145 0.365209
Si Si5 0.383618 0.182068 0.862726
Si Si6 0.550912 0.182067 0.089272
O O1 0.728527 0.220800 0.726029
O O2 0.749904 0.237104 0.475525
O O3 0.667267 0.254263 0.555502
O O4 0.710399 0.000000 0.574623
O O5 0.332795 0.217797 0.896163
O O6 0.275990 0.000000 0.889121
O O7 0.379408 0.500000 0.588403
O O8 0.416234 0.729431 0.477737
O O9 0.393902 0.742889 0.726100
O O10 0.500000 0.727396 0.391598
O O11 0.551886 0.500000 0.357358
O O12 0.563361 0.749113 0.226899
O O13 0.386256 0.000000 0.847997
O O14 0.416714 0.229750 0.975082
O O15 0.500000 0.224471 0.062827
O O16 0.552920 0.000000 0.098145
#
# Coordination Sequence:
#
# PCOD9374687 Si02
#       6
#     8   8   8   8   8   8
#     4  10  21  36  54  76 102 132 167 208 253 300
#     4   9  19  35  52  73 102 133 167 207 249 296
#     4  10  20  34  53  76 102 133 169 208 250 298
#     4   9  19  35  52  73 103 135 168 208 250 294
#     4   9  19  35  52  74 105 135 166 208 252 295
#     4   9  18  33  53  77 104 134 169 208 250 297
#
# _framework density 17.182893
#
# number of rings (size 3 to 8) (size 9 to 14) (size 15 to 20)
#    0.000    2.667    0.000    2.000    0.000    7.333 
#    0.000    3.333    0.000    0.000    0.000    0.000 
#    0.000    0.000    0.000    0.000    0.000    0.000 
#
# Total GULP energy -133867.104468 kJ/mol
# GULP energy per Si atom -5577.796020 kJ/mol
# Density = 1.714378 g / cm^3
# Si number density = 17.182893 Si / 1000 Ang^3
#
#
#
# Elastic Constant Matrix: (Units=GPa)
#
#
# Indices 1 2 3 4 5 6 
#
# 1 113.0921 43.4472 131.0265 0.0000 0.0000 0.0000
# 2 43.4472 27.7621 52.9378 0.0000 0.0000 0.0000
# 3 131.0265 52.9378 178.8814 0.0000 0.0000 0.0000
# 4 0.0000 0.0000 0.0000 34.9147 0.0000 0.0000
# 5 0.0000 0.0000 0.0000 0.0000 42.4503 0.0000
# 6 0.0000 0.0000 0.0000 0.0000 0.0000 20.3926
#
#
#
# Elastic Compliance Matrix: (Units=1/GPa)
#
#
# Indices 1 2 3 4 5 6 
#
# 1 0.065299 -0.025219 -0.040367 0.000000 0.000000 0.000000
# 2 -0.025219 0.092413 -0.008876 0.000000 0.000000 0.000000
# 3 -0.040367 -0.008876 0.037785 0.000000 0.000000 0.000000
# 4 0.000000 0.000000 0.000000 0.028641 0.000000 0.000000
# 5 0.000000 0.000000 0.000000 0.000000 0.023557 0.000000
# 6 0.000000 0.000000 0.000000 0.000000 0.000000 0.049037
#
#
# Mechanical properties :
#
#
# Convention : Reuss Voigt Hill
#
# Bulk Modulus (GPa) = 21.47168 86.06208 53.76688
# Shear Modulus (GPa) = 10.84172 25.70647 18.27409
#
# Velocity S-wave (km/s) = 2.51462 3.87208 3.26468
# Velocity P-wave (km/s) = 4.57757 8.37767 6.75053
#
# Compressibility (1/GPa) = 0.04657298
#
# Stress axis : x y z
#
# Youngs Moduli (GPa) = 15.31411 10.82098 26.46557
#
# Poissons Ratio (x) = 0.27289 1.06833
# Poissons Ratio (y) = 0.38621 0.23491
# Poissons Ratio (z) = 0.61818 0.09605
#
# Static dielectric constant tensor:
#      x y z
#    x 1.569420 0.000000 0.000000 
#    y 0.000000 1.575260 0.000000 
#    z 0.000000 0.000000 1.556870 
# 
# From -- ./inp_files/4872.got.cif
#   From: 2010.05.17/outbox.cif.g08.bks.cpg/sg44_3_cif.got.tgz:4872.got - 2010.06.03 19:37:08.
