data_PCOD9374450
_publ_section_title
;
Structure prediction by ZEFSAII (Michael W. Deem and Ramdas Pophale) SiO2 
 PCOD9374450
Probable space group: I M M 2
;
_chemical_formula_sum "Si O2"
_cell_formula_units_Z 56
_cell_length_a 7.477807
_cell_length_b 24.046183
_cell_length_c 14.527790
_cell_angle_alpha 90.000000
_cell_angle_beta 90.000000
_cell_angle_gamma 90.000000
_cell_volume 2612.281371
_symmetry_space_group_name_H-M "I M M 2"
_symmetry_group_IT_number 44
_symmetry_cell_setting 'orthorhombic'
loop_
_space_group_symop_operation_xyz
x,y,z
-x,-y,z
-x,y,z
x,-y,z
1/2+x,1/2+y,1/2+z
1/2-x,1/2-y,1/2+z
1/2-x,1/2+y,1/2+z
1/2+x,1/2-y,1/2+z
loop_
_atom_site_type_symbol
_atom_site_label
_atom_site_fract_x
_atom_site_fract_y
_atom_site_fract_z
Si Si1 0.217690 0.564504 0.407300
Si Si2 0.206025 0.677301 0.938419
Si Si3 0.281376 0.936178 0.113195
Si Si4 0.289545 0.437992 0.032149
Si Si5 0.216747 0.269527 0.122570
Si Si6 0.210372 0.661570 0.737523
Si Si7 0.715909 0.118871 0.721255
O O1 0.268306 0.500000 0.393932
O O2 0.274239 0.581406 0.509957
O O3 0.281055 0.600477 0.321251
O O4 0.000000 0.566093 0.406755
O O5 0.288080 0.677763 0.836905
O O6 0.000000 0.695324 0.929372
O O7 0.208755 0.614000 0.976934
O O8 0.283334 0.715432 0.020025
O O9 0.500000 0.935370 0.113546
O O10 0.215885 0.893827 0.190142
O O11 0.227585 0.000000 0.127939
O O12 0.500000 0.437511 0.011718
O O13 0.219534 0.500000 0.012079
O O14 0.265894 0.423904 0.140186
O O15 0.273325 0.211634 0.165569
O O16 0.276145 0.320475 0.187827
O O17 0.000000 0.270666 0.120518
O O18 0.000000 0.650766 0.753650
O O19 0.500000 0.119743 0.723913
#
# Coordination Sequence:
#
# PCOD9374450 Si02
#       7
#     8   8   8   8   8   8   8
#     4   8  13  23  43  71  99 125 156 197 243 288
#     4   9  20  37  53  72  99 132 172 210 244 295
#     4   8  15  28  46  72 102 124 152 202 251 288
#     4  10  20  32  48  74 105 134 167 210 258 301
#     4   9  19  34  49  69 100 131 160 200 247 294
#     4  10  20  34  55  78  96 123 165 206 245 291
#     4   9  17  30  49  72  99 135 174 205 240 293
#
# _framework density 21.437201000000002
#
# number of rings (size 3 to 8) (size 9 to 14) (size 15 to 20)
#    0.000    3.000    0.000    2.571    0.000    6.286 
#    0.000    2.857    0.000    1.286    0.000    2.000 
#    0.000    0.000    0.000    0.000    0.000    0.000 
#
# Total GULP energy -156228.537437 kJ/mol
# GULP energy per Si atom -5579.590623 kJ/mol
# Density = 2.138841 g / cm^3
# Si number density = 21.437201 Si / 1000 Ang^3
#
#
#
# Elastic Constant Matrix: (Units=GPa)
#
#
# Indices 1 2 3 4 5 6 
#
# 1 61.4095 -10.8246 2.7005 0.0000 0.0000 0.0000
# 2 -10.8246 73.3229 68.2640 0.0000 0.0000 0.0000
# 3 2.7005 68.2640 176.3853 0.0000 0.0000 0.0000
# 4 0.0000 0.0000 0.0000 17.9128 0.0000 0.0000
# 5 0.0000 0.0000 0.0000 0.0000 -8.1682 0.0000
# 6 0.0000 0.0000 0.0000 0.0000 0.0000 13.1146
#
#
#
# Elastic Compliance Matrix: (Units=1/GPa)
#
#
# Indices 1 2 3 4 5 6 
#
# 1 0.017134 0.004336 -0.001940 0.000000 0.000000 0.000000
# 2 0.004336 0.022418 -0.008742 0.000000 0.000000 0.000000
# 3 -0.001940 -0.008742 0.009083 0.000000 0.000000 0.000000
# 4 0.000000 0.000000 0.000000 0.055826 0.000000 0.000000
# 5 0.000000 0.000000 0.000000 0.000000 -0.122426 0.000000
# 6 0.000000 0.000000 0.000000 0.000000 0.000000 0.076251
#
#
# Mechanical properties :
#
#
# Convention : Reuss Voigt Hill
#
# Bulk Modulus (GPa) = 27.82389 47.93306 37.87847
# Shear Modulus (GPa) = 60.27156 21.30371 40.78763
#
# Velocity S-wave (km/s) = 5.30815 3.15584 4.36668
# Velocity P-wave (km/s) = 7.11168 5.97389 6.56747
#
# Compressibility (1/GPa) = 0.03594033
#
# Stress axis : x y z
#
# Youngs Moduli (GPa) = 58.36431 44.60777 110.10116
#
# Poissons Ratio (x) = -0.19342 0.21364
# Poissons Ratio (y) = -0.25307 0.96255
# Poissons Ratio (z) = 0.11325 0.38998
#
# Static dielectric constant tensor:
#      x y z
#    x 1.828970 0.000000 0.000000 
#    y 0.000000 1.738340 0.000000 
#    z 0.000000 0.000000 1.781830 
# 
# From -- ./inp_files/16486.got.cif
#   From: 2010.05.17/outbox.cif.g08.bks.cpg/sg44_9_cif.got.tgz:16486.got - 2010.06.03 19:37:08.
