data_PCOD9374483
_publ_section_title
;
Structure prediction by ZEFSAII (Michael W. Deem and Ramdas Pophale) SiO2 
 PCOD9374483
Probable space group: I M M 2
;
_chemical_formula_sum "Si O2"
_cell_formula_units_Z 64
_cell_length_a 8.982032
_cell_length_b 15.588583
_cell_length_c 23.429174
_cell_angle_alpha 90.000000
_cell_angle_beta 90.000000
_cell_angle_gamma 90.000000
_cell_volume 3280.486202
_symmetry_space_group_name_H-M "I M M 2"
_symmetry_group_IT_number 44
_symmetry_cell_setting 'orthorhombic'
loop_
_space_group_symop_operation_xyz
x,y,z
-x,-y,z
-x,y,z
x,-y,z
1/2+x,1/2+y,1/2+z
1/2-x,1/2-y,1/2+z
1/2-x,1/2+y,1/2+z
1/2+x,1/2-y,1/2+z
loop_
_atom_site_type_symbol
_atom_site_label
_atom_site_fract_x
_atom_site_fract_y
_atom_site_fract_z
Si Si1 0.677448 0.404882 0.608350
Si Si2 0.820528 0.279190 0.270741
Si Si3 0.338322 0.898665 0.428526
Si Si4 0.832242 0.169936 0.530078
Si Si5 0.822359 0.097589 0.314927
Si Si6 0.177554 0.899601 0.867350
Si Si7 0.171904 0.633411 0.489674
Si Si8 0.677785 0.733456 0.154400
O O1 0.500000 0.389769 0.608640
O O2 0.704977 0.500000 0.632757
O O3 0.738032 0.403818 0.543435
O O4 0.758876 0.328441 0.641242
O O5 0.773580 0.178739 0.277626
O O6 0.751993 0.336875 0.321006
O O7 0.757586 0.305472 0.209276
O O8 0.000000 0.283569 0.272842
O O9 0.500000 0.857927 0.418280
O O10 0.281435 0.880737 0.491444
O O11 0.223192 0.874842 0.379094
O O12 0.351380 0.000000 0.422555
O O13 0.832100 0.265142 0.502868
O O14 0.793807 0.180478 0.596298
O O15 0.000000 0.134875 0.525013
O O16 0.000000 0.093068 0.310937
O O17 0.765985 0.000000 0.302762
O O18 0.249904 0.884437 0.929616
O O19 0.000000 0.884386 0.870054
O O20 0.201243 0.000000 0.852243
O O21 0.000000 0.603589 0.489287
O O22 0.500000 0.737703 0.162257
#
# Coordination Sequence:
#
# PCOD9374483 Si02
#       8
#     8   8   8   8   8   8   8   8
#     4  10  20  34  54  82 115 148 182 222 271 330
#     4  11  23  39  60  84 111 147 191 237 284 334
#     4  10  20  32  50  80 111 136 170 218 268 319
#     4   9  19  35  54  77 105 140 178 215 265 328
#     4   9  19  36  57  82 114 149 181 216 266 331
#     4  11  24  40  58  82 113 150 192 237 286 340
#     4  10  20  34  55  84 115 144 179 226 279 337
#     4  10  22  39  57  78 106 142 186 231 275 330
#
# _framework density 19.509302000000002
#
# number of rings (size 3 to 8) (size 9 to 14) (size 15 to 20)
#    0.000    2.000    0.000    4.125    0.000   11.750 
#    0.000    1.875    0.000    0.750    0.000    0.000 
#    0.000    0.000    0.000    0.000    0.000    0.000 
#
# Total GULP energy -178570.787448 kJ/mol
# GULP energy per Si atom -5580.337108 kJ/mol
# Density = 1.946490 g / cm^3
# Si number density = 19.509302 Si / 1000 Ang^3
#
#
#
# Elastic Constant Matrix: (Units=GPa)
#
#
# Indices 1 2 3 4 5 6 
#
# 1 38.2097 17.7526 16.7570 0.0000 0.0000 0.0000
# 2 17.7526 27.7799 27.9562 0.0000 0.0000 0.0000
# 3 16.7570 27.9562 84.6973 0.0000 0.0000 0.0000
# 4 0.0000 0.0000 0.0000 8.8400 0.0000 0.0000
# 5 0.0000 0.0000 0.0000 0.0000 30.9636 0.0000
# 6 0.0000 0.0000 0.0000 0.0000 0.0000 24.3320
#
#
#
# Elastic Compliance Matrix: (Units=1/GPa)
#
#
# Indices 1 2 3 4 5 6 
#
# 1 0.037253 -0.024541 0.000730 0.000000 0.000000 0.000000
# 2 -0.024541 0.070068 -0.018272 0.000000 0.000000 0.000000
# 3 0.000730 -0.018272 0.017693 0.000000 0.000000 0.000000
# 4 0.000000 0.000000 0.000000 0.113122 0.000000 0.000000
# 5 0.000000 0.000000 0.000000 0.000000 0.032296 0.000000
# 6 0.000000 0.000000 0.000000 0.000000 0.000000 0.041098
#
#
# Mechanical properties :
#
#
# Convention : Reuss Voigt Hill
#
# Bulk Modulus (GPa) = 24.48084 30.62426 27.55255
# Shear Modulus (GPa) = 12.21556 18.70854 15.46205
#
# Velocity S-wave (km/s) = 2.50499 3.10006 2.81828
# Velocity P-wave (km/s) = 4.57626 5.34277 4.97430
#
# Compressibility (1/GPa) = 0.04084827
#
# Stress axis : x y z
#
# Youngs Moduli (GPa) = 26.84327 14.27181 56.51799
#
# Poissons Ratio (x) = 0.35025 -0.04125
# Poissons Ratio (y) = 0.65876 1.03271
# Poissons Ratio (z) = -0.01959 0.26078
#
# Static dielectric constant tensor:
#      x y z
#    x 1.682990 0.000000 0.000000 
#    y 0.000000 1.721680 0.000000 
#    z 0.000000 0.000000 1.662180 
# 
# From -- ./inp_files/23299.got.cif
#   From: 2010.05.17/outbox.cif.g08.bks.cpg/sg44_12_cif.got.tgz:23299.got - 2010.06.03 19:37:08.
