data_PCOD9374179
_publ_section_title
;
Structure prediction by ZEFSAII (Michael W. Deem and Ramdas Pophale) SiO2 
 PCOD9374179
Probable space group: I M M 2
;
_chemical_formula_sum "Si O2"
_cell_formula_units_Z 64
_cell_length_a 7.823722
_cell_length_b 26.145541
_cell_length_c 15.347865
_cell_angle_alpha 90.000000
_cell_angle_beta 90.000000
_cell_angle_gamma 90.000000
_cell_volume 3139.489344
_symmetry_space_group_name_H-M "I M M 2"
_symmetry_group_IT_number 44
_symmetry_cell_setting 'orthorhombic'
loop_
_space_group_symop_operation_xyz
x,y,z
-x,-y,z
-x,y,z
x,-y,z
1/2+x,1/2+y,1/2+z
1/2-x,1/2-y,1/2+z
1/2-x,1/2+y,1/2+z
1/2+x,1/2-y,1/2+z
loop_
_atom_site_type_symbol
_atom_site_label
_atom_site_fract_x
_atom_site_fract_y
_atom_site_fract_z
Si Si1 0.706397 0.831172 0.346300
Si Si2 0.702819 0.641180 0.030293
Si Si3 0.303418 0.718542 0.332833
Si Si4 0.195762 0.735789 0.140912
Si Si5 0.793464 0.650986 0.650024
Si Si6 0.292927 0.606263 0.353335
Si Si7 0.790942 0.941563 0.669536
Si Si8 0.794990 0.556975 0.534376
O O1 0.500000 0.828406 0.342874
O O2 0.756801 0.864439 0.428816
O O3 0.773478 0.773026 0.359808
O O4 0.763507 0.849764 0.251127
O O5 0.500000 0.644609 0.041375
O O6 0.778381 0.694151 0.066440
O O7 0.765639 0.595086 0.091183
O O8 0.500000 0.718719 0.363267
O O9 0.301722 0.720284 0.227011
O O10 0.226883 0.664587 0.361877
O O11 0.241002 0.793468 0.113706
O O12 0.000000 0.735114 0.169343
O O13 0.728535 0.602878 0.595193
O O14 0.000000 0.649796 0.649256
O O15 0.500000 0.608557 0.350321
O O16 0.236030 0.582317 0.261751
O O17 0.241443 0.572320 0.435016
O O18 0.000000 0.941847 0.669590
O O19 0.734383 0.000000 0.660785
O O20 0.728376 0.500000 0.553394
O O21 0.000000 0.555586 0.545730
#
# Coordination Sequence:
#
# PCOD9374179 Si02
#       8
#     8   8   8   8   8   8   8   8
#     4   9  19  35  55  80 112 144 183 231 277 329
#     4  11  21  35  55  80 113 149 186 227 275 332
#     4   9  18  35  55  79 113 148 181 220 274 333
#     4  11  21  33  54  83 113 143 182 229 275 329
#     4   9  20  40  60  78 109 150 186 229 285 338
#     4  10  19  34  57  83 113 148 187 226 274 336
#     4   9  18  34  56  79 106 145 187 223 266 325
#     4  10  22  39  58  83 113 146 189 237 283 332
#
# _framework density 20.385480999999999
#
# number of rings (size 3 to 8) (size 9 to 14) (size 15 to 20)
#    0.000    2.250    1.250    2.625    1.750    3.750 
#    0.000    0.625    0.000    3.000    0.000    0.000 
#    0.000    0.000    0.000    0.000    0.000    0.000 
#
# Total GULP energy -178670.858136 kJ/mol
# GULP energy per Si atom -5583.464317 kJ/mol
# Density = 2.033908 g / cm^3
# Si number density = 20.385481 Si / 1000 Ang^3
#
#
#
# Elastic Constant Matrix: (Units=GPa)
#
#
# Indices 1 2 3 4 5 6 
#
# 1 32.5469 10.7758 1.9183 0.0000 0.0000 0.0000
# 2 10.7758 152.9809 72.1437 0.0000 0.0000 0.0000
# 3 1.9183 72.1437 92.3963 0.0001 0.0000 0.0000
# 4 0.0000 0.0000 0.0001 28.0321 0.0000 0.0000
# 5 0.0000 0.0000 0.0000 0.0000 18.6757 0.0000
# 6 0.0000 0.0000 0.0000 0.0000 0.0000 17.4853
#
#
#
# Elastic Compliance Matrix: (Units=1/GPa)
#
#
# Indices 1 2 3 4 5 6 
#
# 1 0.031629 -0.003036 0.001714 0.000000 0.000000 0.000000
# 2 -0.003036 0.010638 -0.008243 0.000000 0.000000 0.000000
# 3 0.001714 -0.008243 0.017224 0.000000 0.000000 0.000000
# 4 0.000000 0.000000 0.000000 0.035673 0.000000 0.000000
# 5 0.000000 0.000000 0.000000 0.000000 0.053545 0.000000
# 6 0.000000 0.000000 0.000000 0.000000 0.000000 0.057191
#
#
# Mechanical properties :
#
#
# Convention : Reuss Voigt Hill
#
# Bulk Modulus (GPa) = 24.77700 49.73332 37.25516
# Shear Modulus (GPa) = 20.96570 25.71104 23.33837
#
# Velocity S-wave (km/s) = 3.21044 3.55525 3.38724
# Velocity P-wave (km/s) = 5.09149 6.42670 5.79766
#
# Compressibility (1/GPa) = 0.04036001
#
# Stress axis : x y z
#
# Youngs Moduli (GPa) = 31.61646 94.00252 58.05952
#
# Poissons Ratio (x) = 0.28541 -0.09952
# Poissons Ratio (y) = 0.09600 0.47860
# Poissons Ratio (z) = -0.05419 0.77488
#
# Static dielectric constant tensor:
#      x y z
#    x 1.754310 0.000000 0.000000 
#    y 0.000000 1.724450 0.000000 
#    z 0.000000 0.000000 1.710970 
# 
# From -- ./inp_files/16806.got.cif
#   From: 2010.05.17/outbox.cif.g08.bks.cpg/sg44_9_cif.got.tgz:16806.got - 2010.06.03 19:37:08.
