data_PCOD9374944
_publ_section_title
;
Structure prediction by ZEFSAII (Michael W. Deem and Ramdas Pophale) SiO2 
 PCOD9374944
Probable space group: I M M 2
;
_chemical_formula_sum "Si O2"
_cell_formula_units_Z 38
_cell_length_a 7.758846
_cell_length_b 12.559958
_cell_length_c 20.214969
_cell_angle_alpha 90.000000
_cell_angle_beta 90.000000
_cell_angle_gamma 90.000000
_cell_volume 1969.964494
_symmetry_space_group_name_H-M "I M M 2"
_symmetry_group_IT_number 44
_symmetry_cell_setting 'orthorhombic'
loop_
_space_group_symop_operation_xyz
x,y,z
-x,-y,z
-x,y,z
x,-y,z
1/2+x,1/2+y,1/2+z
1/2-x,1/2-y,1/2+z
1/2-x,1/2+y,1/2+z
1/2+x,1/2-y,1/2+z
loop_
_atom_site_type_symbol
_atom_site_label
_atom_site_fract_x
_atom_site_fract_y
_atom_site_fract_z
Si Si1 0.000000 0.119934 0.189891
Si Si2 0.000000 0.500000 0.255673
Si Si3 0.305823 0.500000 0.362755
Si Si4 0.195807 0.621175 0.794851
Si Si5 0.707080 0.224882 0.914038
Si Si6 0.000000 0.657528 0.134573
Si Si7 0.202264 0.880508 0.532581
O O1 0.166546 0.132874 0.236739
O O2 0.000000 0.215569 0.139332
O O3 0.000000 0.000000 0.162673
O O4 0.165464 0.500000 0.303824
O O5 0.000000 0.601564 0.206442
O O6 0.500000 0.500000 0.335955
O O7 0.278065 0.606270 0.405924
O O8 0.216282 0.500000 0.820966
O O9 0.230903 0.705661 0.851865
O O10 0.000000 0.632697 0.770732
O O11 0.500000 0.219303 0.911618
O O12 0.753639 0.290644 0.979729
O O13 0.169905 0.624112 0.094389
O O14 0.000000 0.865668 0.550058
O O15 0.217191 0.000000 0.503092
#
# Coordination Sequence:
#
# PCOD9374944 Si02
#       7
#     4   2   4   8   8   4   8
#     4  10  22  40  60  88 128 164 214 260 314 388
#     4  12  24  44  68  96 140 172 224 274 320 404
#     4  12  26  42  64 100 132 180 216 269 338 392
#     4  10  20  35  61  95 123 159 206 264 325 376
#     4  11  21  40  64  92 134 164 210 266 329 391
#     4  12  24  42  66  90 126 180 216 265 316 390
#     4  10  23  42  64  93 124 164 217 269 325 382
#
# _framework density 19.289688000000002
#
# number of rings (size 3 to 8) (size 9 to 14) (size 15 to 20)
#    0.000    1.263    3.158    2.526    2.947    2.526 
#    1.895    0.000    0.000    0.000    0.000    0.000 
#    0.000    0.000    0.000    0.000    0.000    0.000 
#
# Total GULP energy -106151.665196 kJ/mol
# GULP energy per Si atom -5586.929747 kJ/mol
# Density = 1.924578 g / cm^3
# Si number density = 19.289688 Si / 1000 Ang^3
#
#
#
# Elastic Constant Matrix: (Units=GPa)
#
#
# Indices 1 2 3 4 5 6 
#
# 1 114.2005 44.6752 42.2556 0.0000 0.0000 0.0000
# 2 44.6752 154.4219 50.7595 0.0000 0.0000 0.0000
# 3 42.2556 50.7595 59.4286 0.0000 0.0000 0.0000
# 4 0.0000 0.0000 0.0000 32.3474 0.0000 0.0000
# 5 0.0000 0.0000 0.0000 0.0000 -4.1319 0.0000
# 6 0.0000 0.0000 0.0000 0.0000 0.0000 28.4793
#
#
#
# Elastic Compliance Matrix: (Units=1/GPa)
#
#
# Indices 1 2 3 4 5 6 
#
# 1 0.011977 -0.000926 -0.007726 0.000000 0.000000 0.000000
# 2 -0.000926 0.009075 -0.007093 0.000000 0.000000 0.000000
# 3 -0.007726 -0.007093 0.028378 0.000000 0.000000 0.000000
# 4 0.000000 0.000000 0.000000 0.030914 0.000000 0.000000
# 5 0.000000 0.000000 0.000000 0.000000 -0.242018 0.000000
# 6 0.000000 0.000000 0.000000 0.000000 0.000000 0.035113
#
#
# Mechanical properties :
#
#
# Convention : Reuss Voigt Hill
#
# Bulk Modulus (GPa) = 55.73477 67.04795 61.39136
# Shear Modulus (GPa) = -56.12267 24.02968 -16.04649
#
# Velocity S-wave (km/s) = -5.39980 3.53331 -2.88734
# Velocity P-wave (km/s) = 3.14973 7.17493 4.55845
#
# Compressibility (1/GPa) = 0.01794212
#
# Stress axis : x y z
#
# Youngs Moduli (GPa) = 83.49209 110.19146 35.23800
#
# Poissons Ratio (x) = 0.10200 0.27223
# Poissons Ratio (y) = 0.07728 0.24995
# Poissons Ratio (z) = 0.64502 0.78160
#
# Static dielectric constant tensor:
#      x y z
#    x 1.686710 0.000000 0.000000 
#    y 0.000000 1.696640 0.000000 
#    z 0.000000 0.000000 1.625550 
# 
# From -- ./inp_files/20053.got.cif
#   From: 2010.05.17/outbox.cif.g08.bks.cpg/sg44_11_cif.got.tgz:20053.got - 2010.06.03 19:37:08.
