data_PCOD9374590
_publ_section_title
;
Structure prediction by ZEFSAII (Michael W. Deem and Ramdas Pophale) SiO2 
 PCOD9374590
Probable space group: I M M 2
;
_chemical_formula_sum "Si O2"
_cell_formula_units_Z 32
_cell_length_a 10.644530
_cell_length_b 18.557341
_cell_length_c 9.112615
_cell_angle_alpha 90.000000
_cell_angle_beta 90.000000
_cell_angle_gamma 90.000000
_cell_volume 1800.052868
_symmetry_space_group_name_H-M "I M M 2"
_symmetry_group_IT_number 44
_symmetry_cell_setting 'orthorhombic'
loop_
_space_group_symop_operation_xyz
x,y,z
-x,-y,z
-x,y,z
x,-y,z
1/2+x,1/2+y,1/2+z
1/2-x,1/2-y,1/2+z
1/2-x,1/2+y,1/2+z
1/2+x,1/2-y,1/2+z
loop_
_atom_site_type_symbol
_atom_site_label
_atom_site_fract_x
_atom_site_fract_y
_atom_site_fract_z
Si Si1 0.500000 0.414123 0.231300
Si Si2 0.251036 0.084719 0.548071
Si Si3 0.776459 0.915832 0.197577
Si Si4 0.000000 0.834936 0.040260
Si Si5 0.500000 0.914894 0.221539
Si Si6 0.500000 0.163583 0.533189
O O1 0.500000 0.500000 0.265834
O O2 0.375257 0.399067 0.136745
O O3 0.500000 0.367627 0.377557
O O4 0.226289 0.095212 0.373845
O O5 0.371148 0.130862 0.596834
O O6 0.280704 0.000000 0.566828
O O7 0.877625 0.865569 0.122556
O O8 0.633158 0.903263 0.143366
O O9 0.808344 0.000000 0.171242
O O10 0.000000 0.749040 0.038854
O O11 0.500000 0.865728 0.365645
O O12 0.500000 0.000000 0.267445
#
# Coordination Sequence:
#
# PCOD9374590 Si02
#       6
#     4   8   8   4   4   4
#     4  10  21  36  53  76 105 136 170 208 254 304
#     4   9  18  36  60  77  93 129 181 223 246 282
#     4   9  17  33  56  78  98 129 177 219 248 288
#     4  12  23  31  47  79 117 142 154 194 264 324
#     4   8  16  34  60  79  91 123 181 231 249 273
#     4  10  20  33  52  78 107 133 167 209 257 305
#
# _framework density 17.777256000000001
#
# number of rings (size 3 to 8) (size 9 to 14) (size 15 to 20)
#    0.000    2.500    0.000    4.500    0.000    6.000 
#    0.000    1.250    0.000    3.000    0.000    0.000 
#    0.000    0.000    0.000    0.000    0.000    0.000 
#
# Total GULP energy -89227.640518 kJ/mol
# GULP energy per Si atom -5576.727532 kJ/mol
# Density = 1.773679 g / cm^3
# Si number density = 17.777256 Si / 1000 Ang^3
#
#
#
# Elastic Constant Matrix: (Units=GPa)
#
#
# Indices 1 2 3 4 5 6 
#
# 1 194.4981 112.8962 60.4081 0.0000 0.0000 0.0000
# 2 112.8962 112.3952 49.9272 -0.0001 -0.0001 0.0001
# 3 60.4081 49.9272 46.6869 -0.0001 -0.0001 0.0001
# 4 0.0000 -0.0001 -0.0001 16.9523 0.0000 0.0000
# 5 0.0000 -0.0001 -0.0001 0.0000 -0.4181 0.0001
# 6 0.0000 0.0001 0.0001 0.0000 0.0001 10.0732
#
#
#
# Elastic Compliance Matrix: (Units=1/GPa)
#
#
# Indices 1 2 3 4 5 6 
#
# 1 0.013020 -0.010657 -0.005450 0.000000 0.000003 0.000000
# 2 -0.010657 0.025672 -0.013664 0.000000 -0.000003 0.000000
# 3 -0.005450 -0.013664 0.043083 0.000000 -0.000003 0.000000
# 4 0.000000 0.000000 0.000000 0.058989 -0.000006 0.000000
# 5 0.000003 -0.000003 -0.000003 -0.000006 -2.391986 0.000015
# 6 0.000000 0.000000 0.000000 0.000000 0.000015 0.099273
#
#
# Mechanical properties :
#
#
# Convention : Reuss Voigt Hill
#
# Bulk Modulus (GPa) = 44.97865 88.89369 66.93617
# Shear Modulus (GPa) = -2.39808 14.01140 5.80666
#
# Velocity S-wave (km/s) = -1.16271 2.81047 1.80926
# Velocity P-wave (km/s) = 4.85321 7.78745 6.48838
#
# Compressibility (1/GPa) = 0.02223277
#
# Stress axis : x y z
#
# Youngs Moduli (GPa) = 76.80492 38.95367 23.21113
#
# Poissons Ratio (x) = 0.41514 0.12649
# Poissons Ratio (y) = 0.81853 0.31715
# Poissons Ratio (z) = 0.41856 0.53226
#
# Static dielectric constant tensor:
#      x y z
#    x 1.637730 0.000000 0.000000 
#    y 0.000000 1.578340 0.000000 
#    z 0.000000 0.000000 1.588910 
# 
# From -- ./inp_files/5427.got.cif
#   From: 2010.05.17/outbox.cif.g08.bks.cpg/sg44_3_cif.got.tgz:5427.got - 2010.06.03 19:37:08.
