data_PCOD9374136
_publ_section_title
;
Structure prediction by ZEFSAII (Michael W. Deem and Ramdas Pophale) SiO2 
 PCOD9374136
Probable space group: I M M 2
;
_chemical_formula_sum "Si O2"
_cell_formula_units_Z 64
_cell_length_a 25.831471
_cell_length_b 8.162395
_cell_length_c 15.418616
_cell_angle_alpha 90.000000
_cell_angle_beta 90.000000
_cell_angle_gamma 90.000000
_cell_volume 3250.963835
_symmetry_space_group_name_H-M "I M M 2"
_symmetry_group_IT_number 44
_symmetry_cell_setting 'orthorhombic'
loop_
_space_group_symop_operation_xyz
x,y,z
-x,-y,z
-x,y,z
x,-y,z
1/2+x,1/2+y,1/2+z
1/2-x,1/2-y,1/2+z
1/2-x,1/2+y,1/2+z
1/2+x,1/2-y,1/2+z
loop_
_atom_site_type_symbol
_atom_site_label
_atom_site_fract_x
_atom_site_fract_y
_atom_site_fract_z
Si Si1 0.152050 0.199979 0.021020
Si Si2 0.941532 0.304450 0.548019
Si Si3 0.732958 0.808208 0.988951
Si Si4 0.132015 0.191248 0.396973
Si Si5 0.610796 0.196304 0.225673
Si Si6 0.280273 0.308468 0.181871
Si Si7 0.668680 0.301392 0.717960
Si Si8 0.558222 0.301844 0.400658
O O1 0.150903 0.250498 0.121936
O O2 0.152779 0.000000 0.020259
O O3 0.207693 0.251048 0.981841
O O4 0.102744 0.256221 0.966644
O O5 0.944799 0.500000 0.558716
O O6 0.907713 0.271992 0.463161
O O7 0.912600 0.241983 0.634256
O O8 0.000000 0.239263 0.541522
O O9 0.689722 0.714639 0.935116
O O10 0.730505 0.000000 0.965511
O O11 0.719069 0.789679 0.091003
O O12 0.134024 0.255070 0.298459
O O13 0.119387 0.000000 0.394829
O O14 0.668331 0.267753 0.234921
O O15 0.574671 0.247698 0.304793
O O16 0.614564 0.000000 0.223052
O O17 0.279359 0.500000 0.160698
O O18 0.227303 0.260691 0.229016
O O19 0.669864 0.500000 0.719171
O O20 0.500000 0.245842 0.421279
O O21 0.558410 0.500000 0.403343
#
# Coordination Sequence:
#
# PCOD9374136 Si02
#       8
#     8   8   8   8   8   8   8   8
#     4   8  17  36  58  79 109 150 191 233 284 339
#     4  10  22  40  60  80 110 156 200 233 281 350
#     4  10  19  34  55  79 113 155 191 228 283 344
#     4  11  22  35  56  87 118 149 193 242 288 338
#     4  11  22  37  57  82 114 154 191 229 286 349
#     4  11  21  34  55  85 116 148 190 234 285 339
#     4   9  20  38  57  81 117 155 192 236 288 347
#     4  10  21  37  58  85 113 146 195 247 287 332
#
# _framework density 19.686468999999999
#
# number of rings (size 3 to 8) (size 9 to 14) (size 15 to 20)
#    0.000    2.000    1.250    3.375    1.750    2.500 
#    0.000    3.125    0.000    2.250    0.000    0.000 
#    0.000    0.000    0.000    0.000    0.000    0.000 
#
# Total GULP energy -178709.376900 kJ/mol
# GULP energy per Si atom -5584.668028 kJ/mol
# Density = 1.964166 g / cm^3
# Si number density = 19.686469 Si / 1000 Ang^3
#
#
#
# Elastic Constant Matrix: (Units=GPa)
#
#
# Indices 1 2 3 4 5 6 
#
# 1 119.5797 7.8861 51.2297 0.0000 0.0000 0.0000
# 2 7.8861 18.9225 1.5115 0.0000 0.0000 0.0000
# 3 51.2297 1.5115 75.4057 0.0000 0.0000 0.0000
# 4 0.0000 0.0000 0.0000 14.9714 0.0000 0.0000
# 5 0.0000 0.0000 0.0000 0.0000 26.5237 0.0000
# 6 0.0000 0.0000 0.0000 0.0000 0.0000 12.0143
#
#
#
# Elastic Compliance Matrix: (Units=1/GPa)
#
#
# Indices 1 2 3 4 5 6 
#
# 1 0.012153 -0.004412 -0.008168 0.000000 0.000000 0.000000
# 2 -0.004412 0.054534 0.001905 0.000000 0.000000 0.000000
# 3 -0.008168 0.001905 0.018773 0.000000 0.000000 0.000000
# 4 0.000000 0.000000 0.000000 0.066794 0.000000 0.000000
# 5 0.000000 0.000000 0.000000 0.000000 0.037702 0.000000
# 6 0.000000 0.000000 0.000000 0.000000 0.000000 0.083234
#
#
# Mechanical properties :
#
#
# Convention : Reuss Voigt Hill
#
# Bulk Modulus (GPa) = 15.59872 37.24027 26.41950
# Shear Modulus (GPa) = 15.82723 20.92058 18.37391
#
# Velocity S-wave (km/s) = 2.83850 3.26343 3.05835
# Velocity P-wave (km/s) = 4.32245 5.75827 5.09123
#
# Compressibility (1/GPa) = 0.06410781
#
# Stress axis : x y z
#
# Youngs Moduli (GPa) = 82.28457 18.33721 53.26875
#
# Poissons Ratio (x) = 0.08091 0.43511
# Poissons Ratio (y) = 0.36307 -0.10145
# Poissons Ratio (z) = 0.67211 -0.03492
#
# Static dielectric constant tensor:
#      x y z
#    x 1.680190 0.000000 0.000000 
#    y 0.000000 1.675220 0.000000 
#    z 0.000000 0.000000 1.696940 
# 
# From -- ./inp_files/19458.got.cif
#   From: 2010.05.17/outbox.cif.g08.bks.cpg/sg44_10_cif.got.tgz:19458.got - 2010.06.03 19:37:08.
