data_PCOD9374565
_publ_section_title
;
Structure prediction by ZEFSAII (Michael W. Deem and Ramdas Pophale) SiO2 
 PCOD9374565
Probable space group: I M M 2
;
_chemical_formula_sum "Si O2"
_cell_formula_units_Z 64
_cell_length_a 34.282725
_cell_length_b 7.977520
_cell_length_c 12.117785
_cell_angle_alpha 90.000000
_cell_angle_beta 90.000000
_cell_angle_gamma 90.000000
_cell_volume 3314.106644
_symmetry_space_group_name_H-M "I M M 2"
_symmetry_group_IT_number 44
_symmetry_cell_setting 'orthorhombic'
loop_
_space_group_symop_operation_xyz
x,y,z
-x,-y,z
-x,y,z
x,-y,z
1/2+x,1/2+y,1/2+z
1/2-x,1/2-y,1/2+z
1/2-x,1/2+y,1/2+z
1/2+x,1/2-y,1/2+z
loop_
_atom_site_type_symbol
_atom_site_label
_atom_site_fract_x
_atom_site_fract_y
_atom_site_fract_z
Si Si1 0.393516 0.703883 0.019550
Si Si2 0.543820 0.297873 0.848491
Si Si3 0.189645 0.195858 0.143191
Si Si4 0.853116 0.798488 0.738109
Si Si5 0.955025 0.699253 0.104315
Si Si6 0.276475 0.203103 0.103522
Si Si7 0.877848 0.797313 0.980690
Si Si8 0.818264 0.695463 0.386852
O O1 0.390831 0.500000 0.015622
O O2 0.384424 0.755371 0.144812
O O3 0.432310 0.755761 0.955712
O O4 0.359267 0.781070 0.946676
O O5 0.500000 0.231897 0.853480
O O6 0.543086 0.500000 0.849773
O O7 0.559237 0.248287 0.727674
O O8 0.233146 0.267396 0.127672
O O9 0.180935 0.210556 0.272047
O O10 0.192543 0.000000 0.112728
O O11 0.154404 0.265636 0.069164
O O12 0.810297 0.753479 0.690089
O O13 0.864750 0.736232 0.859321
O O14 0.854046 0.000000 0.742973
O O15 0.957503 0.500000 0.099494
O O16 0.000000 0.765425 0.089507
O O17 0.921698 0.753548 0.018541
O O18 0.276698 0.000000 0.103785
O O19 0.288292 0.258282 0.980032
O O20 0.876442 0.000000 0.979857
O O21 0.810493 0.500000 0.364702
#
# Coordination Sequence:
#
# PCOD9374565 Si02
#       8
#     8   8   8   8   8   8   8   8
#     4   9  17  32  52  74 102 133 166 207 256 306
#     4   9  17  30  51  77 104 134 167 208 260 315
#     4  10  21  35  51  73 103 135 169 213 262 310
#     4   9  19  35  55  76 102 138 178 217 258 307
#     4  10  21  36  54  78 109 140 173 219 268 314
#     4   9  20  36  52  72 101 136 170 211 263 312
#     4  10  21  36  55  78 105 141 180 220 263 314
#     4  10  20  33  51  74  98 128 168 209 252 302
#
# _framework density 19.311388999999998
#
# number of rings (size 3 to 8) (size 9 to 14) (size 15 to 20)
#    0.000    2.500    0.000    1.500    1.750    6.250 
#    0.000    0.625    0.000    2.250    0.000    1.750 
#    0.000    0.000    0.000    0.000    0.000    0.000 
#
# Total GULP energy -178358.777128 kJ/mol
# GULP energy per Si atom -5573.711785 kJ/mol
# Density = 1.926744 g / cm^3
# Si number density = 19.311389 Si / 1000 Ang^3
#
#
#
# Elastic Constant Matrix: (Units=GPa)
#
#
# Indices 1 2 3 4 5 6 
#
# 1 94.7819 9.4461 84.0936 0.0000 0.0000 0.0000
# 2 9.4461 14.8865 8.9931 0.0000 0.0000 0.0000
# 3 84.0936 8.9931 150.7454 0.0000 0.0000 0.0000
# 4 0.0000 0.0000 0.0000 2.9434 0.0000 0.0000
# 5 0.0000 0.0000 0.0000 0.0000 11.5306 0.0000
# 6 0.0000 0.0000 0.0000 0.0000 0.0000 20.6305
#
#
#
# Elastic Compliance Matrix: (Units=1/GPa)
#
#
# Indices 1 2 3 4 5 6 
#
# 1 0.021504 -0.006637 -0.011600 0.000000 0.000000 0.000000
# 2 -0.006637 0.071735 -0.000577 0.000000 0.000000 0.000000
# 3 -0.011600 -0.000577 0.013139 0.000000 0.000000 0.000000
# 4 0.000000 0.000000 0.000000 0.339745 0.000000 0.000000
# 5 0.000000 0.000000 0.000000 0.000000 0.086726 0.000000
# 6 0.000000 0.000000 0.000000 0.000000 0.000000 0.048472
#
#
# Mechanical properties :
#
#
# Convention : Reuss Voigt Hill
#
# Bulk Modulus (GPa) = 14.54555 51.71994 33.13275
# Shear Modulus (GPa) = 7.78978 17.54630 12.66804
#
# Velocity S-wave (km/s) = 2.01061 3.01757 2.56400
# Velocity P-wave (km/s) = 3.59701 6.24349 5.09508
#
# Compressibility (1/GPa) = 0.06874953
#
# Stress axis : x y z
#
# Youngs Moduli (GPa) = 46.50309 13.94021 76.10803
#
# Poissons Ratio (x) = 0.09253 0.88286
# Poissons Ratio (y) = 0.30866 0.04391
# Poissons Ratio (z) = 0.53944 0.00804
#
# Static dielectric constant tensor:
#      x y z
#    x 1.710180 0.000000 0.000000 
#    y 0.000000 1.697870 0.000000 
#    z 0.000000 0.000000 1.684230 
# 
# From -- ./inp_files/15091.got.cif
#   From: 2010.05.17/outbox.cif.g08.bks.cpg/sg44_8_cif.got.tgz:15091.got - 2010.06.03 19:37:08.
