data_PCOD9374393
_publ_section_title
;
Structure prediction by ZEFSAII (Michael W. Deem and Ramdas Pophale) SiO2 
 PCOD9374393
Probable space group: I M M 2
;
_chemical_formula_sum "Si O2"
_cell_formula_units_Z 40
_cell_length_a 7.378392
_cell_length_b 9.972354
_cell_length_c 26.329175
_cell_angle_alpha 90.000000
_cell_angle_beta 90.000000
_cell_angle_gamma 90.000000
_cell_volume 1937.299037
_symmetry_space_group_name_H-M "I M M 2"
_symmetry_group_IT_number 44
_symmetry_cell_setting 'orthorhombic'
loop_
_space_group_symop_operation_xyz
x,y,z
-x,-y,z
-x,y,z
x,-y,z
1/2+x,1/2+y,1/2+z
1/2-x,1/2-y,1/2+z
1/2-x,1/2+y,1/2+z
1/2+x,1/2-y,1/2+z
loop_
_atom_site_type_symbol
_atom_site_label
_atom_site_fract_x
_atom_site_fract_y
_atom_site_fract_z
Si Si1 0.214221 0.848366 0.720250
Si Si2 0.217921 0.847733 0.127597
Si Si3 0.279183 0.653615 0.512888
Si Si4 0.720734 0.153668 0.423488
Si Si5 0.721166 0.154119 0.308613
O O1 0.233616 0.762180 0.669068
O O2 0.286958 0.758227 0.766558
O O3 0.000000 0.860358 0.729576
O O4 0.287035 0.000000 0.716712
O O5 0.278753 0.812816 0.070371
O O6 0.000000 0.853438 0.126353
O O7 0.281000 0.000000 0.140057
O O8 0.500000 0.658202 0.512894
O O9 0.227351 0.500000 0.502950
O O10 0.215959 0.750643 0.468399
O O11 0.500000 0.156840 0.423744
O O12 0.775702 0.190436 0.366118
O O13 0.774565 0.000000 0.432455
O O14 0.500000 0.153486 0.307657
O O15 0.776673 0.000000 0.298133
#
# Coordination Sequence:
#
# PCOD9374393 Si02
#       5
#     8   8   8   8   8
#     4  10  20  31  44  66  93 119 150 187 225 264
#     4   9  18  32  48  66  89 119 154 186 218 263
#     4   8  14  24  38  58  84 111 139 174 216 260
#     4   8  13  21  35  57  83 110 140 173 212 258
#     4   8  14  25  40  58  83 115 147 178 215 261
#
# _framework density 20.647300999999999
#
# number of rings (size 3 to 8) (size 9 to 14) (size 15 to 20)
#    0.000    3.400    0.000    3.000    0.000    3.200 
#    0.000    6.000    0.000    0.000    0.000    1.400 
#    0.000    8.000    0.000    0.000    0.000    0.000 
#
# Total GULP energy -111567.045231 kJ/mol
# GULP energy per Si atom -5578.352262 kJ/mol
# Density = 2.060031 g / cm^3
# Si number density = 20.647301 Si / 1000 Ang^3
#
#
#
# Elastic Constant Matrix: (Units=GPa)
#
#
# Indices 1 2 3 4 5 6 
#
# 1 71.6759 5.7922 2.4464 0.0000 0.0000 0.0000
# 2 5.7922 179.4034 167.5287 0.0000 0.0000 0.0000
# 3 2.4464 167.5287 210.5267 0.0000 0.0000 0.0000
# 4 0.0000 0.0000 0.0000 41.9015 0.0000 0.0000
# 5 0.0000 0.0000 0.0000 0.0000 9.4469 0.0000
# 6 0.0000 0.0000 0.0000 0.0000 0.0000 3.5701
#
#
#
# Elastic Compliance Matrix: (Units=1/GPa)
#
#
# Indices 1 2 3 4 5 6 
#
# 1 0.014020 -0.001170 0.000768 0.000000 0.000000 0.000000
# 2 -0.001170 0.021794 -0.017329 0.000000 0.000000 0.000000
# 3 0.000768 -0.017329 0.018531 0.000000 0.000000 0.000000
# 4 0.000000 0.000000 0.000000 0.023865 0.000000 0.000000
# 5 0.000000 0.000000 0.000000 0.000000 0.105855 0.000000
# 6 0.000000 0.000000 0.000000 0.000000 0.000000 0.280106
#
#
# Mechanical properties :
#
#
# Convention : Reuss Voigt Hill
#
# Bulk Modulus (GPa) = 52.95792 90.34896 71.65344
# Shear Modulus (GPa) = 9.88285 30.03962 19.96124
#
# Velocity S-wave (km/s) = 2.19018 3.81844 3.11267
# Velocity P-wave (km/s) = 5.66572 7.95575 6.90631
#
# Compressibility (1/GPa) = 0.01888292
#
# Stress axis : x y z
#
# Youngs Moduli (GPa) = 71.32662 45.88440 53.96398
#
# Poissons Ratio (x) = 0.05367 -0.04144
# Poissons Ratio (y) = 0.08343 0.93515
# Poissons Ratio (z) = -0.05477 0.79514
#
# Static dielectric constant tensor:
#      x y z
#    x 1.858160 0.000000 0.000000 
#    y 0.000000 1.708580 0.000000 
#    z 0.000000 0.000000 1.712780 
# 
# From -- ./inp_files/22756.got.cif
#   From: 2010.05.17/outbox.cif.g08.bks.cpg/sg44_12_cif.got.tgz:22756.got - 2010.06.03 19:37:08.
