data_PCOD9374886
_publ_section_title
;
Structure prediction by ZEFSAII (Michael W. Deem and Ramdas Pophale) SiO2 
 PCOD9374886
Probable space group: I M M 2
;
_chemical_formula_sum "Si O2"
_cell_formula_units_Z 48
_cell_length_a 7.785424
_cell_length_b 9.399204
_cell_length_c 31.893854
_cell_angle_alpha 90.000000
_cell_angle_beta 90.000000
_cell_angle_gamma 90.000000
_cell_volume 2333.889805
_symmetry_space_group_name_H-M "I M M 2"
_symmetry_group_IT_number 44
_symmetry_cell_setting 'orthorhombic'
loop_
_space_group_symop_operation_xyz
x,y,z
-x,-y,z
-x,y,z
x,-y,z
1/2+x,1/2+y,1/2+z
1/2-x,1/2-y,1/2+z
1/2-x,1/2+y,1/2+z
1/2+x,1/2-y,1/2+z
loop_
_atom_site_type_symbol
_atom_site_label
_atom_site_fract_x
_atom_site_fract_y
_atom_site_fract_z
Si Si1 0.293468 0.162767 0.186600
Si Si2 0.295112 0.661636 0.524568
Si Si3 0.706573 0.337118 0.780089
Si Si4 0.294082 0.338479 0.941949
Si Si5 0.789372 0.663602 0.360941
Si Si6 0.293472 0.338881 0.107144
O O1 0.500000 0.157324 0.183233
O O2 0.251360 0.213797 0.233420
O O3 0.228075 0.261508 0.149152
O O4 0.228668 0.000000 0.182464
O O5 0.500000 0.653601 0.523992
O O6 0.225829 0.500000 0.523893
O O7 0.240658 0.750187 0.483877
O O8 0.243714 0.744316 0.566553
O O9 0.500000 0.342267 0.782872
O O10 0.770694 0.500000 0.784432
O O11 0.767484 0.238495 0.817928
O O12 0.500000 0.347851 0.937613
O O13 0.226985 0.500000 0.944452
O O14 0.230792 0.254056 0.901083
O O15 0.734663 0.500000 0.363648
O O16 0.000000 0.663903 0.361104
O O17 0.500000 0.347294 0.110736
O O18 0.227632 0.500000 0.102623
#
# Coordination Sequence:
#
# PCOD9374886 Si02
#       6
#     8   8   8   8   8   8
#     4   9  18  33  52  74 102 136 172 211 258 310
#     4  11  24  39  55  78 108 139 172 213 262 314
#     4   9  17  30  49  73 101 133 171 215 259 304
#     4  10  20  35  57  82 106 136 176 218 260 309
#     4   9  17  30  50  76 104 135 173 215 257 303
#     4  10  21  37  57  80 105 136 176 218 260 310
#
# _framework density 20.566524000000001
#
# number of rings (size 3 to 8) (size 9 to 14) (size 15 to 20)
#    0.000    2.333    0.000    2.500    0.000    8.667 
#    0.000    2.500    0.000    3.000    0.000    0.000 
#    0.000    0.000    0.000    0.000    0.000    0.000 
#
# Total GULP energy -134045.408856 kJ/mol
# GULP energy per Si atom -5585.225369 kJ/mol
# Density = 2.051971 g / cm^3
# Si number density = 20.566524 Si / 1000 Ang^3
#
#
#
# Elastic Constant Matrix: (Units=GPa)
#
#
# Indices 1 2 3 4 5 6 
#
# 1 26.3549 8.2969 0.3733 0.0000 0.0000 0.0000
# 2 8.2969 198.6505 146.6603 0.0000 0.0000 0.0000
# 3 0.3733 146.6603 227.3192 0.0000 0.0000 0.0000
# 4 0.0000 0.0000 0.0000 44.4819 0.0000 0.0000
# 5 0.0000 0.0000 0.0000 0.0000 23.8722 0.0000
# 6 0.0000 0.0000 0.0000 0.0000 0.0000 30.1557
#
#
#
# Elastic Compliance Matrix: (Units=1/GPa)
#
#
# Indices 1 2 3 4 5 6 
#
# 1 0.038865 -0.003010 0.001878 0.000000 0.000000 0.000000
# 2 -0.003010 0.009846 -0.006347 0.000000 0.000000 0.000000
# 3 0.001878 -0.006347 0.008491 0.000000 0.000000 0.000000
# 4 0.000000 0.000000 0.000000 0.022481 0.000000 0.000000
# 5 0.000000 0.000000 0.000000 0.000000 0.041890 0.000000
# 6 0.000000 0.000000 0.000000 0.000000 0.000000 0.033161
#
#
# Mechanical properties :
#
#
# Convention : Reuss Voigt Hill
#
# Bulk Modulus (GPa) = 23.67234 84.77617 54.22425
# Shear Modulus (GPa) = 27.20753 39.50157 33.35455
#
# Velocity S-wave (km/s) = 3.64112 4.38730 4.03151
# Velocity P-wave (km/s) = 5.40482 8.18380 6.93493
#
# Compressibility (1/GPa) = 0.04224340
#
# Stress axis : x y z
#
# Youngs Moduli (GPa) = 25.73038 101.56653 117.77020
#
# Poissons Ratio (x) = 0.30568 -0.22117
# Poissons Ratio (y) = 0.07744 0.74752
# Poissons Ratio (z) = -0.04832 0.64467
#
# Static dielectric constant tensor:
#      x y z
#    x 1.760600 0.000000 0.000000 
#    y 0.000000 1.728030 0.000000 
#    z 0.000000 0.000000 1.692490 
# 
# From -- ./inp_files/26858.got.cif
#   From: 2010.05.17/outbox.cif.g08.bks.cpg/sg44_14_cif.got.tgz:26858.got - 2010.06.03 19:37:08.
