data_PCOD9374190
_publ_section_title
;
Structure prediction by ZEFSAII (Michael W. Deem and Ramdas Pophale) SiO2 
 PCOD9374190
Probable space group: I M M 2
;
_chemical_formula_sum "Si O2"
_cell_formula_units_Z 58
_cell_length_a 16.015654
_cell_length_b 7.481656
_cell_length_c 19.286725
_cell_angle_alpha 90.000000
_cell_angle_beta 90.000000
_cell_angle_gamma 90.000000
_cell_volume 2311.005089
_symmetry_space_group_name_H-M "I M M 2"
_symmetry_group_IT_number 44
_symmetry_cell_setting 'orthorhombic'
loop_
_space_group_symop_operation_xyz
x,y,z
-x,-y,z
-x,y,z
x,-y,z
1/2+x,1/2+y,1/2+z
1/2-x,1/2-y,1/2+z
1/2-x,1/2+y,1/2+z
1/2+x,1/2-y,1/2+z
loop_
_atom_site_type_symbol
_atom_site_label
_atom_site_fract_x
_atom_site_fract_y
_atom_site_fract_z
Si Si1 0.271891 0.699794 0.462690
Si Si2 0.906786 0.286079 0.851536
Si Si3 0.410905 0.213309 0.107762
Si Si4 0.592659 0.212765 0.578988
Si Si5 0.500000 0.500000 0.801525
Si Si6 0.882571 0.704709 0.239119
Si Si7 0.799479 0.287840 0.721902
Si Si8 0.591786 0.787561 0.942150
O O1 0.244161 0.500000 0.480334
O O2 0.339474 0.704470 0.402288
O O3 0.327756 0.752922 0.529682
O O4 0.186215 0.785055 0.431286
O O5 0.905850 0.500000 0.864577
O O6 0.876145 0.258544 0.773596
O O7 0.000000 0.220921 0.863209
O O8 0.500000 0.285792 0.132684
O O9 0.330335 0.282018 0.147642
O O10 0.409150 0.232265 0.025789
O O11 0.411746 0.000000 0.121603
O O12 0.500000 0.278426 0.554516
O O13 0.603881 0.269788 0.659168
O O14 0.587227 0.000000 0.581293
O O15 0.427640 0.342104 0.789238
O O16 0.911590 0.500000 0.245470
O O17 0.783904 0.702656 0.249798
O O18 0.782151 0.500000 0.718609
O O19 0.500000 0.707549 0.920436
O O20 0.588319 0.000000 0.922975
#
# Coordination Sequence:
#
# PCOD9374190 Si02
#       8
#     8   8   8   8   2   8   8   8
#     4  11  22  33  55  84 110 150 205 252 300 361
#     4  10  22  40  59  81 115 158 200 247 304 363
#     4   8  13  24  48  83 113 140 182 235 296 368
#     4  10  21  36  54  82 122 158 189 235 298 363
#     4  12  22  40  64  86 126 164 202 248 304 364
#     4  11  23  38  60  91 124 163 200 248 308 367
#     4  10  19  34  58  84 113 152 197 245 301 365
#     4   8  15  29  49  76 110 139 173 232 296 355
#
# _framework density 25.097306
#
# number of rings (size 3 to 8) (size 9 to 14) (size 15 to 20)
#    0.000    2.207    1.379    3.103    0.966    5.517 
#    0.000    0.000    1.517    2.897    0.000    7.724 
#    0.000    0.000    0.000    0.000    0.000    0.000 
#
# Total GULP energy -161687.960836 kJ/mol
# GULP energy per Si atom -5575.446925 kJ/mol
# Density = 2.504018 g / cm^3
# Si number density = 25.097306 Si / 1000 Ang^3
#
#
#
# Elastic Constant Matrix: (Units=GPa)
#
#
# Indices 1 2 3 4 5 6 
#
# 1 226.2536 18.7618 28.2937 0.0000 0.0000 0.0000
# 2 18.7618 66.1156 4.1447 0.0000 0.0000 0.0000
# 3 28.2937 4.1447 59.9042 0.0000 0.0000 0.0000
# 4 0.0000 0.0000 0.0000 -61.1164 0.0000 0.0000
# 5 0.0000 0.0000 0.0000 0.0000 74.4953 0.0000
# 6 0.0000 0.0000 0.0000 0.0000 0.0000 15.7047
#
#
#
# Elastic Compliance Matrix: (Units=1/GPa)
#
#
# Indices 1 2 3 4 5 6 
#
# 1 0.004794 -0.001224 -0.002180 0.000000 0.000000 0.000000
# 2 -0.001224 0.015503 -0.000495 0.000000 0.000000 0.000000
# 3 -0.002180 -0.000495 0.017757 0.000000 0.000000 0.000000
# 4 0.000000 0.000000 0.000000 -0.016362 0.000000 0.000000
# 5 0.000000 0.000000 0.000000 0.000000 0.013424 0.000000
# 6 0.000000 0.000000 0.000000 0.000000 0.000000 0.063675
#
#
# Mechanical properties :
#
#
# Convention : Reuss Voigt Hill
#
# Bulk Modulus (GPa) = 33.04887 50.51933 41.78410
# Shear Modulus (GPa) = 42.85497 25.88826 34.37162
#
# Velocity S-wave (km/s) = 4.13674 3.21521 3.70474
# Velocity P-wave (km/s) = 6.00114 5.82722 5.91482
#
# Compressibility (1/GPa) = 0.03025822
#
# Stress axis : x y z
#
# Youngs Moduli (GPa) = 208.60038 64.50243 56.31591
#
# Poissons Ratio (x) = 0.07893 0.12274
# Poissons Ratio (y) = 0.25527 0.02786
# Poissons Ratio (z) = 0.45465 0.03191
#
# Static dielectric constant tensor:
#      x y z
#    x 2.031700 0.000000 0.000000 
#    y 0.000000 2.001170 0.000000 
#    z 0.000000 0.000000 2.012320 
# 
# From -- ./inp_files/25728.got.cif
#   From: 2010.05.17/outbox.cif.g08.bks.cpg/sg44_13_cif.got.tgz:25728.got - 2010.06.03 19:37:08.
