data_PCOD9374504
_publ_section_title
;
Structure prediction by ZEFSAII (Michael W. Deem and Ramdas Pophale) SiO2 
 PCOD9374504
Probable space group: I M M 2
;
_chemical_formula_sum "Si O2"
_cell_formula_units_Z 56
_cell_length_a 9.012579
_cell_length_b 18.876876
_cell_length_c 21.204024
_cell_angle_alpha 90.000000
_cell_angle_beta 90.000000
_cell_angle_gamma 90.000000
_cell_volume 3607.426528
_symmetry_space_group_name_H-M "I M M 2"
_symmetry_group_IT_number 44
_symmetry_cell_setting 'orthorhombic'
loop_
_space_group_symop_operation_xyz
x,y,z
-x,-y,z
-x,y,z
x,-y,z
1/2+x,1/2+y,1/2+z
1/2-x,1/2-y,1/2+z
1/2-x,1/2+y,1/2+z
1/2+x,1/2-y,1/2+z
loop_
_atom_site_type_symbol
_atom_site_label
_atom_site_fract_x
_atom_site_fract_y
_atom_site_fract_z
Si Si1 0.820915 0.582134 0.704330
Si Si2 0.329827 0.215399 0.133268
Si Si3 0.678522 0.916081 0.447729
Si Si4 0.322124 0.152977 0.579907
Si Si5 0.321088 0.081888 0.712319
Si Si6 0.822748 0.154597 0.326176
Si Si7 0.828832 0.211784 0.772174
O O1 0.789528 0.500000 0.692167
O O2 0.777239 0.635697 0.647970
O O3 0.742005 0.608347 0.768020
O O4 0.000000 0.590261 0.712766
O O5 0.500000 0.213577 0.111571
O O6 0.237613 0.267652 0.089384
O O7 0.326829 0.251503 0.202786
O O8 0.500000 0.906722 0.440750
O O9 0.724963 0.883038 0.514801
O O10 0.760753 0.878298 0.390388
O O11 0.707839 0.000000 0.447124
O O12 0.500000 0.154606 0.580107
O O13 0.277415 0.107268 0.641567
O O14 0.500000 0.088376 0.716660
O O15 0.245734 0.135799 0.761050
O O16 0.281111 0.000000 0.721597
O O17 0.761044 0.234110 0.315883
O O18 0.000000 0.154092 0.324318
O O19 0.000000 0.206293 0.791979
#
# Coordination Sequence:
#
# PCOD9374504 Si02
#       7
#     8   8   8   8   8   8   8
#     4   9  17  30  47  66  90 120 150 180 219 268
#     4   8  15  27  43  63  86 113 145 182 222 261
#     4  10  20  33  47  63  87 121 156 184 214 259
#     4   9  17  29  45  64  88 121 155 182 213 258
#     4   9  16  27  45  70  97 120 145 183 227 264
#     4  11  21  31  44  64  90 118 150 188 228 265
#     4   9  17  30  46  63  86 118 153 184 220 268
#
# _framework density 15.523531
#
# number of rings (size 3 to 8) (size 9 to 14) (size 15 to 20)
#    0.000    2.714    0.000    3.429    0.000    8.286 
#    0.000    0.000    0.000    2.571    0.000    1.000 
#    0.000    3.429    0.000    0.000    0.000    0.000 
#
# Total GULP energy -156008.015940 kJ/mol
# GULP energy per Si atom -5571.714855 kJ/mol
# Density = 1.548820 g / cm^3
# Si number density = 15.523531 Si / 1000 Ang^3
#
#
#
# Elastic Constant Matrix: (Units=GPa)
#
#
# Indices 1 2 3 4 5 6 
#
# 1 47.7729 54.3159 35.7115 0.0000 0.0000 0.0000
# 2 54.3159 160.4629 58.5031 0.0000 0.0000 0.0000
# 3 35.7115 58.5031 63.9176 0.0000 0.0000 0.0000
# 4 0.0000 0.0000 0.0000 24.8864 0.0000 0.0000
# 5 0.0000 0.0000 0.0000 0.0000 12.7162 0.0000
# 6 0.0000 0.0000 0.0000 0.0000 0.0000 26.5034
#
#
#
# Elastic Compliance Matrix: (Units=1/GPa)
#
#
# Indices 1 2 3 4 5 6 
#
# 1 0.042653 -0.008629 -0.015933 0.000000 0.000000 0.000000
# 2 -0.008629 0.011099 -0.005338 0.000000 0.000000 0.000000
# 3 -0.015933 -0.005338 0.029432 0.000000 0.000000 0.000000
# 4 0.000000 0.000000 0.000000 0.040183 0.000000 0.000000
# 5 0.000000 0.000000 0.000000 0.000000 0.078640 0.000000
# 6 0.000000 0.000000 0.000000 0.000000 0.000000 0.037731
#
#
# Mechanical properties :
#
#
# Convention : Reuss Voigt Hill
#
# Bulk Modulus (GPa) = 42.76102 63.24605 53.00353
# Shear Modulus (GPa) = 16.26905 21.06275 18.66590
#
# Velocity S-wave (km/s) = 3.24083 3.68751 3.47136
# Velocity P-wave (km/s) = 6.45056 7.67859 7.09121
#
# Compressibility (1/GPa) = 0.02338579
#
# Stress axis : x y z
#
# Youngs Moduli (GPa) = 23.44476 90.09948 33.97608
#
# Poissons Ratio (x) = 0.77747 0.54134
# Poissons Ratio (y) = 0.20230 0.18135
# Poissons Ratio (z) = 0.37354 0.48091
#
# Static dielectric constant tensor:
#      x y z
#    x 1.524280 0.000000 0.000000 
#    y 0.000000 1.528400 0.000000 
#    z 0.000000 0.000000 1.495020 
# 
# From -- ./inp_files/20676.got.cif
#   From: 2010.05.17/outbox.cif.g08.bks.cpg/sg44_11_cif.got.tgz:20676.got - 2010.06.03 19:37:08.
