data_PCOD9374001
_publ_section_title
;
Structure prediction by ZEFSAII (Michael W. Deem and Ramdas Pophale) SiO2 
 PCOD9374001
Probable space group: I M M 2
;
_chemical_formula_sum "Si O2"
_cell_formula_units_Z 64
_cell_length_a 31.561233
_cell_length_b 8.280753
_cell_length_c 15.017032
_cell_angle_alpha 90.000000
_cell_angle_beta 90.000000
_cell_angle_gamma 90.000000
_cell_volume 3924.712949
_symmetry_space_group_name_H-M "I M M 2"
_symmetry_group_IT_number 44
_symmetry_cell_setting 'orthorhombic'
loop_
_space_group_symop_operation_xyz
x,y,z
-x,-y,z
-x,y,z
x,-y,z
1/2+x,1/2+y,1/2+z
1/2-x,1/2-y,1/2+z
1/2-x,1/2+y,1/2+z
1/2+x,1/2-y,1/2+z
loop_
_atom_site_type_symbol
_atom_site_label
_atom_site_fract_x
_atom_site_fract_y
_atom_site_fract_z
Si Si1 0.709543 0.306789 0.990750
Si Si2 0.293657 0.306494 0.599196
Si Si3 0.226961 0.306319 0.292956
Si Si4 0.952263 0.194904 0.887918
Si Si5 0.323889 0.696430 0.288427
Si Si6 0.868950 0.804918 0.608557
Si Si7 0.867882 0.197040 0.971617
Si Si8 0.548297 0.807177 0.186886
O O1 0.710631 0.500000 0.997064
O O2 0.710772 0.255883 0.887810
O O3 0.751091 0.247464 0.045715
O O4 0.665195 0.250866 0.035089
O O5 0.293359 0.500000 0.596625
O O6 0.293957 0.250100 0.701224
O O7 0.336423 0.248099 0.549400
O O8 0.226296 0.500000 0.295482
O O9 0.275636 0.250175 0.285581
O O10 0.916391 0.250908 0.957395
O O11 0.941106 0.239566 0.785728
O O12 0.000000 0.255015 0.905133
O O13 0.952909 0.000000 0.891368
O O14 0.324107 0.500000 0.286815
O O15 0.348755 0.751282 0.201995
O O16 0.345170 0.745764 0.379921
O O17 0.917196 0.746534 0.614355
O O18 0.869843 0.000000 0.606785
O O19 0.868600 0.000000 0.975563
O O20 0.500000 0.754074 0.166918
O O21 0.548783 0.000000 0.192876
#
# Coordination Sequence:
#
# PCOD9374001 Si02
#       8
#     8   8   8   8   8   8   8   8
#     4  11  22  35  51  74 100 129 168 211 250 295
#     4  11  21  33  50  72  99 134 169 204 251 302
#     4  11  21  36  51  68  99 135 169 211 250 291
#     4   9  16  28  48  70  93 128 169 201 238 292
#     4   9  15  27  46  68  96 128 159 197 242 282
#     4  10  19  33  51  69  95 131 168 203 241 291
#     4   9  16  28  46  69  97 128 162 200 242 285
#     4  10  20  31  44  69 103 130 157 200 247 291
#
# _framework density 16.306926000000001
#
# number of rings (size 3 to 8) (size 9 to 14) (size 15 to 20)
#    0.000    2.000    3.750    1.500    0.000    1.750 
#    0.000    2.500    0.000    0.000    0.000    0.875 
#    0.000    5.000    0.000    0.000    0.000    0.000 
#
# Total GULP energy -178346.468203 kJ/mol
# GULP energy per Si atom -5573.327131 kJ/mol
# Density = 1.626981 g / cm^3
# Si number density = 16.306926 Si / 1000 Ang^3
#
#
#
# Elastic Constant Matrix: (Units=GPa)
#
#
# Indices 1 2 3 4 5 6 
#
# 1 132.3436 14.5536 57.5906 0.0000 0.0000 0.0000
# 2 14.5536 22.1656 12.1431 0.0000 0.0000 0.0000
# 3 57.5906 12.1431 98.8030 0.0000 0.0000 0.0000
# 4 0.0000 0.0000 0.0000 19.3756 0.0000 0.0000
# 5 0.0000 0.0000 0.0000 0.0000 21.5542 0.0000
# 6 0.0000 0.0000 0.0000 0.0000 0.0000 18.1811
#
#
#
# Elastic Compliance Matrix: (Units=1/GPa)
#
#
# Indices 1 2 3 4 5 6 
#
# 1 0.010409 -0.003764 -0.005605 0.000000 0.000000 0.000000
# 2 -0.003764 0.049733 -0.003918 0.000000 0.000000 0.000000
# 3 -0.005605 -0.003918 0.013870 0.000000 0.000000 0.000000
# 4 0.000000 0.000000 0.000000 0.051611 0.000000 0.000000
# 5 0.000000 0.000000 0.000000 0.000000 0.046395 0.000000
# 6 0.000000 0.000000 0.000000 0.000000 0.000000 0.055002
#
#
# Mechanical properties :
#
#
# Convention : Reuss Voigt Hill
#
# Bulk Modulus (GPa) = 21.08028 46.87630 33.97829
# Shear Modulus (GPa) = 18.55937 23.09052 20.82494
#
# Velocity S-wave (km/s) = 3.37728 3.76705 3.57748
# Velocity P-wave (km/s) = 5.30691 6.90866 6.16007
#
# Compressibility (1/GPa) = 0.04743770
#
# Stress axis : x y z
#
# Youngs Moduli (GPa) = 96.07181 20.10739 72.10057
#
# Poissons Ratio (x) = 0.07568 0.40409
# Poissons Ratio (y) = 0.36161 0.28251
# Poissons Ratio (z) = 0.53844 0.07879
#
# Static dielectric constant tensor:
#      x y z
#    x 1.589760 0.000000 0.000000 
#    y 0.000000 1.573300 0.000000 
#    z 0.000000 0.000000 1.541100 
# 
# From -- ./inp_files/19684.got.cif
#   From: 2010.05.17/outbox.cif.g08.bks.cpg/sg44_10_cif.got.tgz:19684.got - 2010.06.03 19:37:08.
