data_PCOD9374982
_publ_section_title
;
Structure prediction by ZEFSAII (Michael W. Deem and Ramdas Pophale) SiO2 
 PCOD9374982
Probable space group: I M M 2
;
_chemical_formula_sum "Si O2"
_cell_formula_units_Z 40
_cell_length_a 8.195750
_cell_length_b 26.557560
_cell_length_c 10.319833
_cell_angle_alpha 90.000000
_cell_angle_beta 90.000000
_cell_angle_gamma 90.000000
_cell_volume 2246.205794
_symmetry_space_group_name_H-M "I M M 2"
_symmetry_group_IT_number 44
_symmetry_cell_setting 'orthorhombic'
loop_
_space_group_symop_operation_xyz
x,y,z
-x,-y,z
-x,y,z
x,-y,z
1/2+x,1/2+y,1/2+z
1/2-x,1/2-y,1/2+z
1/2-x,1/2+y,1/2+z
1/2+x,1/2-y,1/2+z
loop_
_atom_site_type_symbol
_atom_site_label
_atom_site_fract_x
_atom_site_fract_y
_atom_site_fract_z
Si Si1 0.312354 0.700535 0.682460
Si Si2 0.000000 0.559189 0.855582
Si Si3 0.500000 0.058399 0.043833
Si Si4 0.696576 0.371361 0.927163
Si Si5 0.814032 0.188972 0.687851
Si Si6 0.678839 0.853638 0.935287
O O1 0.500000 0.690733 0.650045
O O2 0.275588 0.669228 0.812326
O O3 0.285148 0.759578 0.701267
O O4 0.212082 0.679901 0.560887
O O5 0.832903 0.585609 0.905406
O O6 0.000000 0.500000 0.888083
O O7 0.000000 0.563900 0.698812
O O8 0.346254 0.089278 0.985397
O O9 0.500000 0.000000 0.010148
O O10 0.500000 0.385274 0.923927
O O11 0.731397 0.344348 0.063866
O O12 0.799806 0.156969 0.819181
O O13 0.000000 0.205112 0.667365
O O14 0.500000 0.839792 0.881578
#
# Coordination Sequence:
#
# PCOD9374982 Si02
#       6
#     8   4   4   8   8   8
#     4  11  21  36  58  85 118 163 201 242 295 354
#     4  11  22  41  71  91 113 161 205 257 318 350
#     4   9  20  39  65  89 113 149 205 255 296 354
#     4  10  23  40  58  90 126 154 202 257 297 361
#     4  11  23  36  56  85 123 163 196 238 300 360
#     4  10  20  36  57  85 117 151 196 244 290 353
#
# _framework density 17.807807
#
# number of rings (size 3 to 8) (size 9 to 14) (size 15 to 20)
#    0.600    1.000    2.000    3.000    4.200    2.000 
#    0.000    2.000    0.000    3.600    0.000    0.000 
#    0.000    0.000    0.000    0.000    0.000    0.000 
#
# Total GULP energy -111450.605547 kJ/mol
# GULP energy per Si atom -5572.530277 kJ/mol
# Density = 1.776728 g / cm^3
# Si number density = 17.807807 Si / 1000 Ang^3
#
#
#
# Elastic Constant Matrix: (Units=GPa)
#
#
# Indices 1 2 3 4 5 6 
#
# 1 59.4339 51.7667 23.0246 0.0002 0.0002 0.0003
# 2 51.7667 127.4933 49.4951 -0.0005 -0.0002 -0.0006
# 3 23.0246 49.4951 95.9478 -0.0020 -0.0012 -0.0030
# 4 0.0002 -0.0005 -0.0020 -15.1744 -0.0006 -0.0015
# 5 0.0002 -0.0002 -0.0012 -0.0006 27.5656 -0.0006
# 6 0.0003 -0.0006 -0.0030 -0.0015 -0.0006 10.6100
#
#
#
# Elastic Compliance Matrix: (Units=1/GPa)
#
#
# Indices 1 2 3 4 5 6 
#
# 1 0.026108 -0.010214 -0.000996 0.000001 0.000000 -0.000002
# 2 -0.010214 0.013804 -0.004670 0.000000 0.000000 0.000000
# 3 -0.000996 -0.004670 0.013070 -0.000002 0.000001 0.000003
# 4 0.000001 0.000000 -0.000002 -0.065900 -0.000001 -0.000009
# 5 0.000000 0.000000 0.000001 -0.000001 0.036277 0.000002
# 6 -0.000002 0.000000 0.000003 -0.000009 0.000002 0.094250
#
#
# Mechanical properties :
#
#
# Convention : Reuss Voigt Hill
#
# Bulk Modulus (GPa) = 47.12074 59.04976 53.08525
# Shear Modulus (GPa) = 31.96080 15.17282 23.56681
#
# Velocity S-wave (km/s) = 4.24106 2.92213 3.64180
# Velocity P-wave (km/s) = 7.10636 6.67956 6.89626
#
# Compressibility (1/GPa) = 0.02122208
#
# Stress axis : x y z
#
# Youngs Moduli (GPa) = 38.30314 72.44517 76.50972
#
# Poissons Ratio (x) = 0.73994 0.07622
# Poissons Ratio (y) = 0.39122 0.35727
# Poissons Ratio (z) = 0.03816 0.33829
#
# Static dielectric constant tensor:
#      x y z
#    x 1.604270 0.000000 0.000000 
#    y 0.000000 1.594650 0.000000 
#    z 0.000000 0.000000 1.589930 
# 
# From -- ./inp_files/4643.got.cif
#   From: 2010.05.17/outbox.cif.g08.bks.cpg/sg44_3_cif.got.tgz:4643.got - 2010.06.03 19:37:08.
