data_PCOD9374003
_publ_section_title
;
Structure prediction by ZEFSAII (Michael W. Deem and Ramdas Pophale) SiO2 
 PCOD9374003
Probable space group: I M M 2
;
_chemical_formula_sum "Si O2"
_cell_formula_units_Z 64
_cell_length_a 8.529892
_cell_length_b 29.410351
_cell_length_c 13.362636
_cell_angle_alpha 90.000000
_cell_angle_beta 90.000000
_cell_angle_gamma 90.000000
_cell_volume 3352.245978
_symmetry_space_group_name_H-M "I M M 2"
_symmetry_group_IT_number 44
_symmetry_cell_setting 'orthorhombic'
loop_
_space_group_symop_operation_xyz
x,y,z
-x,-y,z
-x,y,z
x,-y,z
1/2+x,1/2+y,1/2+z
1/2-x,1/2-y,1/2+z
1/2-x,1/2+y,1/2+z
1/2+x,1/2-y,1/2+z
loop_
_atom_site_type_symbol
_atom_site_label
_atom_site_fract_x
_atom_site_fract_y
_atom_site_fract_z
Si Si1 0.810365 0.360974 0.382170
Si Si2 0.812349 0.118089 0.666423
Si Si3 0.685847 0.756867 0.865522
Si Si4 0.821559 0.200400 0.532949
Si Si5 0.687463 0.446917 0.779385
Si Si6 0.821941 0.284087 0.676047
Si Si7 0.813171 0.446230 0.995163
Si Si8 0.310802 0.115940 0.102610
O O1 0.756877 0.383418 0.278095
O O2 0.753350 0.308112 0.382206
O O3 0.760454 0.385358 0.485732
O O4 0.000000 0.359806 0.382727
O O5 0.753428 0.163849 0.609216
O O6 0.765359 0.078624 0.589231
O O7 0.000000 0.120304 0.677427
O O8 0.500000 0.758448 0.886481
O O9 0.712541 0.741078 0.753620
O O10 0.757320 0.715018 0.929836
O O11 0.830186 0.249650 0.583966
O O12 0.000000 0.183585 0.513297
O O13 0.500000 0.444675 0.785708
O O14 0.735005 0.500000 0.770114
O O15 0.743295 0.419679 0.681855
O O16 0.755249 0.429434 0.885836
O O17 0.770112 0.333635 0.642161
O O18 0.000000 0.287429 0.716422
O O19 0.777006 0.500000 0.999238
O O20 0.000000 0.440219 0.001003
O O21 0.500000 0.112146 0.103705
#
# Coordination Sequence:
#
# PCOD9374003 Si02
#       8
#     8   8   8   8   8   8   8   8
#     4  10  20  36  56  79 113 157 201 240 281 332
#     4  11  22  36  58  86 117 153 192 237 288 340
#     4  10  19  33  51  73 107 151 193 236 281 328
#     4   9  18  33  51  74 110 150 186 227 278 328
#     4  10  22  41  64  89 117 146 180 230 290 348
#     4  10  19  34  52  76 110 148 190 233 277 329
#     4  10  22  42  66  89 115 146 183 231 285 343
#     4  10  21  37  59  84 113 153 196 239 285 336
#
# _framework density 19.091677000000001
#
# number of rings (size 3 to 8) (size 9 to 14) (size 15 to 20)
#    0.000    2.000    2.500    1.125    1.750    2.500 
#    0.000    1.875    0.000    0.750    0.000    0.000 
#    0.000    0.000    0.000    0.000    0.000    0.000 
#
# Total GULP energy -178324.737213 kJ/mol
# GULP energy per Si atom -5572.648038 kJ/mol
# Density = 1.904822 g / cm^3
# Si number density = 19.091677 Si / 1000 Ang^3
#
#
#
# Elastic Constant Matrix: (Units=GPa)
#
#
# Indices 1 2 3 4 5 6 
#
# 1 16.8907 17.2981 27.8635 0.0000 0.0000 0.0000
# 2 17.2981 58.0607 36.2549 -0.0001 0.0000 0.0000
# 3 27.8635 36.2549 123.7312 -0.0003 0.0000 0.0000
# 4 0.0000 -0.0001 -0.0003 33.2509 0.0000 0.0000
# 5 0.0000 0.0000 0.0000 0.0000 30.5897 0.0000
# 6 0.0000 0.0000 0.0000 0.0000 0.0000 15.8082
#
#
#
# Elastic Compliance Matrix: (Units=1/GPa)
#
#
# Indices 1 2 3 4 5 6 
#
# 1 0.112900 -0.021738 -0.019055 0.000000 0.000000 0.000000
# 2 -0.021738 0.025266 -0.002508 0.000000 0.000000 0.000000
# 3 -0.019055 -0.002508 0.013108 0.000000 0.000000 0.000000
# 4 0.000000 0.000000 0.000000 0.030074 0.000000 0.000000
# 5 0.000000 0.000000 0.000000 0.000000 0.032691 0.000000
# 6 0.000000 0.000000 0.000000 0.000000 0.000000 0.063258
#
#
# Mechanical properties :
#
#
# Convention : Reuss Voigt Hill
#
# Bulk Modulus (GPa) = 15.46261 40.16840 27.81551
# Shear Modulus (GPa) = 12.97163 23.74748 18.35956
#
# Velocity S-wave (km/s) = 2.60943 3.53067 3.10442
# Velocity P-wave (km/s) = 4.14675 6.14055 5.23936
#
# Compressibility (1/GPa) = 0.06467214
#
# Stress axis : x y z
#
# Youngs Moduli (GPa) = 8.85739 39.57910 76.28969
#
# Poissons Ratio (x) = 0.86037 1.45369
# Poissons Ratio (y) = 0.19254 0.19133
# Poissons Ratio (z) = 0.16878 0.09926
#
# Static dielectric constant tensor:
#      x y z
#    x 1.665640 0.000000 0.000000 
#    y 0.000000 1.668380 0.000000 
#    z 0.000000 0.000000 1.704320 
# 
# From -- ./inp_files/11445.got.cif
#   From: 2010.05.17/outbox.cif.g08.bks.cpg/sg44_6_cif.got.tgz:11445.got - 2010.06.03 19:37:08.
