data_PCOD9374625
_publ_section_title
;
Structure prediction by ZEFSAII (Michael W. Deem and Ramdas Pophale) SiO2 
 PCOD9374625
Probable space group: I M M 2
;
_chemical_formula_sum "Si O2"
_cell_formula_units_Z 64
_cell_length_a 13.231946
_cell_length_b 24.733231
_cell_length_c 8.994325
_cell_angle_alpha 90.000000
_cell_angle_beta 90.000000
_cell_angle_gamma 90.000000
_cell_volume 2943.561743
_symmetry_space_group_name_H-M "I M M 2"
_symmetry_group_IT_number 44
_symmetry_cell_setting 'orthorhombic'
loop_
_space_group_symop_operation_xyz
x,y,z
-x,-y,z
-x,y,z
x,-y,z
1/2+x,1/2+y,1/2+z
1/2-x,1/2-y,1/2+z
1/2-x,1/2+y,1/2+z
1/2+x,1/2-y,1/2+z
loop_
_atom_site_type_symbol
_atom_site_label
_atom_site_fract_x
_atom_site_fract_y
_atom_site_fract_z
Si Si1 0.889326 0.910775 0.823100
Si Si2 0.878527 0.243545 0.153302
Si Si3 0.205848 0.128622 0.109779
Si Si4 0.384758 0.312228 0.103070
Si Si5 0.619594 0.222636 0.321272
Si Si6 0.676725 0.059885 0.690803
Si Si7 0.615811 0.160388 0.883786
Si Si8 0.269887 0.118773 0.401683
O O1 0.889832 0.851773 0.745528
O O2 0.792107 0.939535 0.753473
O O3 0.000000 0.934792 0.795417
O O4 0.868883 0.899961 0.995294
O O5 0.840633 0.183256 0.179426
O O6 0.853197 0.288367 0.279579
O O7 0.000000 0.244149 0.151842
O O8 0.846507 0.255732 0.982934
O O9 0.226341 0.092014 0.253388
O O10 0.303219 0.146069 0.010908
O O11 0.500000 0.305897 0.043821
O O12 0.346270 0.255982 0.174919
O O13 0.311839 0.344345 0.991735
O O14 0.500000 0.229139 0.315818
O O15 0.649253 0.160452 0.333167
O O16 0.620191 0.107859 0.776845
O O17 0.684026 0.078104 0.520121
O O18 0.634464 0.000000 0.710377
O O19 0.500000 0.168789 0.936341
#
# Coordination Sequence:
#
# PCOD9374625 Si02
#       8
#     8   8   8   8   8   8   8   8
#     4   9  18  36  60  85 114 148 193 244 300 362
#     4  10  20  34  57  87 122 160 200 241 290 353
#     4  11  23  34  59  90 126 164 197 239 297 365
#     4   9  19  35  54  80 114 156 198 238 285 349
#     4  10  20  33  53  81 117 160 201 240 286 343
#     4  10  22  41  65  88 110 150 207 263 313 358
#     4  10  23  42  62  90 122 159 206 252 296 354
#     4  11  24  35  57  86 124 163 198 246 296 355
#
# _framework density 21.742367999999999
#
# number of rings (size 3 to 8) (size 9 to 14) (size 15 to 20)
#    0.000    2.000    2.500    0.375    3.500    2.000 
#    0.000    5.000    0.000    0.750    0.000    0.000 
#    0.000    0.000    0.000    0.000    0.000    0.000 
#
# Total GULP energy -178698.080807 kJ/mol
# GULP energy per Si atom -5584.315025 kJ/mol
# Density = 2.169288 g / cm^3
# Si number density = 21.742368 Si / 1000 Ang^3
#
#
#
# Elastic Constant Matrix: (Units=GPa)
#
#
# Indices 1 2 3 4 5 6 
#
# 1 69.0898 -10.9429 0.3829 0.0001 0.0001 0.0000
# 2 -10.9429 60.4760 6.8279 0.0007 0.0001 -0.0001
# 3 0.3829 6.8279 111.9801 0.0024 -0.0004 -0.0004
# 4 0.0001 0.0007 0.0024 4.0184 0.0001 -0.0002
# 5 0.0001 0.0001 -0.0004 0.0001 19.5108 0.0001
# 6 0.0000 -0.0001 -0.0004 -0.0002 0.0001 1.5445
#
#
#
# Elastic Compliance Matrix: (Units=1/GPa)
#
#
# Indices 1 2 3 4 5 6 
#
# 1 0.014906 0.002722 -0.000217 -0.000001 0.000000 0.000001
# 2 0.002722 0.017147 -0.001055 -0.000003 0.000000 0.000001
# 3 -0.000217 -0.001055 0.008995 -0.000005 0.000000 0.000003
# 4 -0.000001 -0.000003 -0.000005 0.248858 -0.000001 0.000034
# 5 0.000000 0.000000 0.000000 -0.000001 0.051254 -0.000003
# 6 0.000001 0.000001 0.000003 0.000034 -0.000003 0.647472
#
#
# Mechanical properties :
#
#
# Convention : Reuss Voigt Hill
#
# Bulk Modulus (GPa) = 22.75395 26.00908 24.38151
# Shear Modulus (GPa) = 4.99809 21.36660 13.18235
#
# Velocity S-wave (km/s) = 1.51782 3.13823 2.46498
# Velocity P-wave (km/s) = 3.68235 5.01196 4.39769
#
# Compressibility (1/GPa) = 0.04394841
#
# Stress axis : x y z
#
# Youngs Moduli (GPa) = 67.08616 58.31898 111.17021
#
# Poissons Ratio (x) = -0.15873 0.02412
# Poissons Ratio (y) = -0.18259 0.11727
# Poissons Ratio (z) = 0.01455 0.06152
#
# Static dielectric constant tensor:
#      x y z
#    x 1.861700 0.000000 0.000000 
#    y 0.000000 1.776640 0.000000 
#    z 0.000000 0.000000 1.836990 
# 
# From -- ./inp_files/7584.got.cif
#   From: 2010.05.17/outbox.cif.g08.bks.cpg/sg44_4_cif.got.tgz:7584.got - 2010.06.03 19:37:08.
