data_PCOD9374882
_publ_section_title
;
Structure prediction by ZEFSAII (Michael W. Deem and Ramdas Pophale) SiO2 
 PCOD9374882
Probable space group: I M M 2
;
_chemical_formula_sum "Si O2"
_cell_formula_units_Z 48
_cell_length_a 14.432839
_cell_length_b 7.454385
_cell_length_c 19.134000
_cell_angle_alpha 90.000000
_cell_angle_beta 90.000000
_cell_angle_gamma 90.000000
_cell_volume 2058.587616
_symmetry_space_group_name_H-M "I M M 2"
_symmetry_group_IT_number 44
_symmetry_cell_setting 'orthorhombic'
loop_
_space_group_symop_operation_xyz
x,y,z
-x,-y,z
-x,y,z
x,-y,z
1/2+x,1/2+y,1/2+z
1/2-x,1/2-y,1/2+z
1/2-x,1/2+y,1/2+z
1/2+x,1/2-y,1/2+z
loop_
_atom_site_type_symbol
_atom_site_label
_atom_site_fract_x
_atom_site_fract_y
_atom_site_fract_z
Si Si1 0.600657 0.713288 0.611110
Si Si2 0.600344 0.713607 0.443949
Si Si3 0.104478 0.287998 0.598741
Si Si4 0.755624 0.196984 0.713421
Si Si5 0.897563 0.281344 0.317133
Si Si6 0.802573 0.281568 0.456169
O O1 0.500000 0.772457 0.636717
O O2 0.611366 0.500000 0.623655
O O3 0.601113 0.735102 0.528074
O O4 0.682049 0.809902 0.650118
O O5 0.500000 0.785087 0.418645
O O6 0.598975 0.500000 0.428651
O O7 0.702757 0.783229 0.426933
O O8 0.098079 0.500000 0.585791
O O9 0.154582 0.269740 0.673719
O O10 0.165473 0.218598 0.532960
O O11 0.000000 0.214742 0.598793
O O12 0.690470 0.285393 0.772300
O O13 0.781154 0.000000 0.740118
O O14 0.897357 0.500000 0.309658
O O15 0.878762 0.240473 0.398021
O O16 0.000000 0.217907 0.296229
O O17 0.793674 0.500000 0.460208
#
# Coordination Sequence:
#
# PCOD9374882 Si02
#       6
#     8   8   8   8   8   8
#     4   9  16  28  48  73 101 132 170 215 254 293
#     4   8  13  22  41  71 100 122 154 208 261 293
#     4  10  20  35  57  80  99 129 178 228 267 308
#     4  11  21  32  48  74 110 142 167 207 263 322
#     4   9  18  31  47  72 106 141 173 208 256 311
#     4   9  15  28  51  76 102 131 171 220 263 301
#
# _framework density 23.316956000000001
#
# number of rings (size 3 to 8) (size 9 to 14) (size 15 to 20)
#    0.000    2.667    1.667    2.500    0.000    3.333 
#    0.000    0.833    0.000    5.000    0.000    0.000 
#    0.000    0.000    0.000    0.000    0.000    0.000 
#
# Total GULP energy -133753.626053 kJ/mol
# GULP energy per Si atom -5573.067752 kJ/mol
# Density = 2.326389 g / cm^3
# Si number density = 23.316956 Si / 1000 Ang^3
#
#
#
# Elastic Constant Matrix: (Units=GPa)
#
#
# Indices 1 2 3 4 5 6 
#
# 1 163.4917 2.5084 40.1203 0.0000 0.0000 0.0000
# 2 2.5084 55.1999 1.7198 0.0000 0.0000 0.0000
# 3 40.1203 1.7198 75.8976 0.0000 0.0000 0.0000
# 4 0.0000 0.0000 0.0000 7.4471 0.0000 0.0000
# 5 0.0000 0.0000 0.0000 0.0000 17.6164 0.0000
# 6 0.0000 0.0000 0.0000 0.0000 0.0000 -7.8354
#
#
#
# Elastic Compliance Matrix: (Units=1/GPa)
#
#
# Indices 1 2 3 4 5 6 
#
# 1 0.007031 -0.000204 -0.003712 0.000000 0.000000 0.000000
# 2 -0.000204 0.018135 -0.000303 0.000000 0.000000 0.000000
# 3 -0.003712 -0.000303 0.015145 0.000000 0.000000 0.000000
# 4 0.000000 0.000000 0.000000 0.134280 0.000000 0.000000
# 5 0.000000 0.000000 0.000000 0.000000 0.056765 0.000000
# 6 0.000000 0.000000 0.000000 0.000000 0.000000 -0.127626
#
#
# Mechanical properties :
#
#
# Convention : Reuss Voigt Hill
#
# Bulk Modulus (GPa) = 31.37529 42.58735 36.98132
# Shear Modulus (GPa) = 40.71937 20.12832 30.42384
#
# Velocity S-wave (km/s) = 4.18346 2.94130 3.61611
# Velocity P-wave (km/s) = 6.06797 5.46252 5.77319
#
# Compressibility (1/GPa) = 0.03187221
#
# Stress axis : x y z
#
# Youngs Moduli (GPa) = 142.23724 55.14296 66.03007
#
# Poissons Ratio (x) = 0.01124 0.24509
# Poissons Ratio (y) = 0.02899 0.02002
# Poissons Ratio (z) = 0.52795 0.01672
#
# Static dielectric constant tensor:
#      x y z
#    x 1.940060 0.000000 0.000000 
#    y 0.000000 1.904540 0.000000 
#    z 0.000000 0.000000 1.855060 
# 
# From -- ./inp_files/22904.got.cif
#   From: 2010.05.17/outbox.cif.g08.bks.cpg/sg44_12_cif.got.tgz:22904.got - 2010.06.03 19:37:08.
