data_PCOD9374530
_publ_section_title
;
Structure prediction by ZEFSAII (Michael W. Deem and Ramdas Pophale) SiO2 
 PCOD9374530
Probable space group: I M M 2
;
_chemical_formula_sum "Si O2"
_cell_formula_units_Z 48
_cell_length_a 15.752436
_cell_length_b 7.644719
_cell_length_c 18.050685
_cell_angle_alpha 90.000000
_cell_angle_beta 90.000000
_cell_angle_gamma 90.000000
_cell_volume 2173.716679
_symmetry_space_group_name_H-M "I M M 2"
_symmetry_group_IT_number 44
_symmetry_cell_setting 'orthorhombic'
loop_
_space_group_symop_operation_xyz
x,y,z
-x,-y,z
-x,y,z
x,-y,z
1/2+x,1/2+y,1/2+z
1/2-x,1/2-y,1/2+z
1/2-x,1/2+y,1/2+z
1/2+x,1/2-y,1/2+z
loop_
_atom_site_type_symbol
_atom_site_label
_atom_site_fract_x
_atom_site_fract_y
_atom_site_fract_z
Si Si1 0.405942 0.786748 0.231920
Si Si2 0.404771 0.207396 0.640585
Si Si3 0.225131 0.208108 0.010282
Si Si4 0.093752 0.713354 0.559397
Si Si5 0.227918 0.707296 0.849847
Si Si6 0.093390 0.203101 0.309762
O O1 0.500000 0.732823 0.256889
O O2 0.396639 0.737754 0.146024
O O3 0.332722 0.721087 0.285811
O O4 0.404194 0.000000 0.233155
O O5 0.500000 0.260232 0.615512
O O6 0.334114 0.246972 0.579675
O O7 0.390627 0.291068 0.721113
O O8 0.405071 0.000000 0.652881
O O9 0.321354 0.277814 0.019824
O O10 0.230208 0.000000 0.007663
O O11 0.190563 0.270544 0.931497
O O12 0.093277 0.500000 0.556204
O O13 0.000000 0.771531 0.533316
O O14 0.236007 0.500000 0.835386
O O15 0.323132 0.783588 0.846533
O O16 0.000000 0.282474 0.323587
O O17 0.088267 0.000000 0.332249
#
# Coordination Sequence:
#
# PCOD9374530 Si02
#       6
#     8   8   8   8   8   8
#     4   8  14  27  49  72  91 118 161 208 248 290
#     4  10  21  37  57  79 103 135 177 224 272 322
#     4  11  22  34  51  77 108 141 175 214 261 312
#     4   8  15  30  52  76  99 126 166 213 257 302
#     4  10  20  33  49  73 106 140 171 206 254 311
#     4   9  18  34  56  79 103 135 176 220 264 311
#
# _framework density 22.081994999999999
#
# number of rings (size 3 to 8) (size 9 to 14) (size 15 to 20)
#    0.000    2.667    0.000    3.000    0.000    5.667 
#    0.000    1.667    0.000    1.500    0.000    4.667 
#    0.000    0.000    0.000    0.000    0.000    0.000 
#
# Total GULP energy -133965.919123 kJ/mol
# GULP energy per Si atom -5581.913297 kJ/mol
# Density = 2.203174 g / cm^3
# Si number density = 22.081995 Si / 1000 Ang^3
#
#
#
# Elastic Constant Matrix: (Units=GPa)
#
#
# Indices 1 2 3 4 5 6 
#
# 1 80.8006 6.0750 22.1084 0.0000 0.0000 0.0000
# 2 6.0750 48.2294 -9.9414 0.0000 0.0000 0.0000
# 3 22.1084 -9.9414 38.8030 0.0000 0.0000 0.0000
# 4 0.0000 0.0000 0.0000 14.7808 0.0000 0.0000
# 5 0.0000 0.0000 0.0000 0.0000 65.7797 0.0000
# 6 0.0000 0.0000 0.0000 0.0000 0.0000 1.8566
#
#
#
# Elastic Compliance Matrix: (Units=1/GPa)
#
#
# Indices 1 2 3 4 5 6 
#
# 1 0.015340 -0.003942 -0.009750 0.000000 0.000000 0.000000
# 2 -0.003942 0.022903 0.008114 0.000000 0.000000 0.000000
# 3 -0.009750 0.008114 0.033405 0.000000 0.000000 0.000000
# 4 0.000000 0.000000 0.000000 0.067656 0.000000 0.000000
# 5 0.000000 0.000000 0.000000 0.000000 0.015202 0.000000
# 6 0.000000 0.000000 0.000000 0.000000 0.000000 0.538617
#
#
# Mechanical properties :
#
#
# Convention : Reuss Voigt Hill
#
# Bulk Modulus (GPa) = 16.53110 22.70188 19.61649
# Shear Modulus (GPa) = 6.90184 26.45614 16.67899
#
# Velocity S-wave (km/s) = 1.76984 3.46509 2.75129
# Velocity P-wave (km/s) = 3.41745 5.12954 4.35839
#
# Compressibility (1/GPa) = 0.06049204
#
# Stress axis : x y z
#
# Youngs Moduli (GPa) = 65.18750 43.66181 29.93540
#
# Poissons Ratio (x) = 0.17212 0.29188
# Poissons Ratio (y) = 0.25697 -0.24289
# Poissons Ratio (z) = 0.63560 -0.35427
#
# Static dielectric constant tensor:
#      x y z
#    x 1.742560 0.000000 0.000000 
#    y 0.000000 1.818260 0.000000 
#    z 0.000000 0.000000 1.769270 
# 
# From -- ./inp_files/16075.got.cif
#   From: 2010.05.17/outbox.cif.g08.bks.cpg/sg44_9_cif.got.tgz:16075.got - 2010.06.03 19:37:08.
