data_PCOD9374755
_publ_section_title
;
Structure prediction by ZEFSAII (Michael W. Deem and Ramdas Pophale) SiO2 
 PCOD9374755
Probable space group: I M M 2
;
_chemical_formula_sum "Si O2"
_cell_formula_units_Z 64
_cell_length_a 8.260416
_cell_length_b 20.355878
_cell_length_c 21.328640
_cell_angle_alpha 90.000000
_cell_angle_beta 90.000000
_cell_angle_gamma 90.000000
_cell_volume 3586.368592
_symmetry_space_group_name_H-M "I M M 2"
_symmetry_group_IT_number 44
_symmetry_cell_setting 'orthorhombic'
loop_
_space_group_symop_operation_xyz
x,y,z
-x,-y,z
-x,y,z
x,-y,z
1/2+x,1/2+y,1/2+z
1/2-x,1/2-y,1/2+z
1/2-x,1/2+y,1/2+z
1/2+x,1/2-y,1/2+z
loop_
_atom_site_type_symbol
_atom_site_label
_atom_site_fract_x
_atom_site_fract_y
_atom_site_fract_z
Si Si1 0.690744 0.790461 0.224510
Si Si2 0.305294 0.210105 0.464691
Si Si3 0.805843 0.073640 0.269876
Si Si4 0.304673 0.072586 0.413708
Si Si5 0.303612 0.213434 0.602494
Si Si6 0.697280 0.927520 0.795009
Si Si7 0.307669 0.790220 0.844923
Si Si8 0.803181 0.572183 0.148127
O O1 0.500000 0.785142 0.233292
O O2 0.741221 0.866498 0.228965
O O3 0.740224 0.757135 0.159359
O O4 0.771706 0.752215 0.282736
O O5 0.500000 0.206309 0.467188
O O6 0.244627 0.135943 0.451158
O O7 0.250608 0.234205 0.532953
O O8 0.260986 0.255396 0.406258
O O9 0.741160 0.081739 0.340840
O O10 0.000000 0.076973 0.271850
O O11 0.758523 0.000000 0.248970
O O12 0.500000 0.071883 0.418263
O O13 0.246002 0.000000 0.433453
O O14 0.500000 0.214997 0.605830
O O15 0.251080 0.137621 0.612791
O O16 0.500000 0.926847 0.796670
O O17 0.755467 0.864086 0.832591
O O18 0.740983 0.920782 0.721553
O O19 0.750213 0.000000 0.816575
O O20 0.500000 0.793516 0.852264
O O21 0.747695 0.500000 0.126034
O O22 0.000000 0.571279 0.145251
#
# Coordination Sequence:
#
# PCOD9374755 Si02
#       8
#     8   8   8   8   8   8   8   8
#     4  12  23  35  54  79 108 140 178 223 268 315
#     4  10  21  34  50  76 110 144 178 221 265 311
#     4  10  20  34  55  82 107 134 173 220 270 322
#     4   9  17  30  48  74 110 147 179 213 257 309
#     4  10  20  35  53  75 106 144 184 221 264 316
#     4   8  14  26  48  78 103 124 163 218 264 304
#     4  11  20  33  56  79 103 138 178 219 265 320
#     4   8  13  24  46  75 103 131 170 215 255 301
#
# _framework density 17.84535
#
# number of rings (size 3 to 8) (size 9 to 14) (size 15 to 20)
#    0.000    2.250    2.500    2.625    0.000    1.750 
#    0.000    2.500    0.000    3.375    0.000    5.250 
#    0.000    0.000    0.000    0.000    0.000    0.000 
#
# Total GULP energy -178471.834270 kJ/mol
# GULP energy per Si atom -5577.244821 kJ/mol
# Density = 1.780473 g / cm^3
# Si number density = 17.845350 Si / 1000 Ang^3
#
#
#
# Elastic Constant Matrix: (Units=GPa)
#
#
# Indices 1 2 3 4 5 6 
#
# 1 2.8492 -5.1819 -5.4155 0.0000 0.0000 0.0000
# 2 -5.1819 106.0673 50.3464 0.0000 0.0000 0.0000
# 3 -5.4155 50.3464 95.1797 0.0000 0.0000 0.0000
# 4 0.0000 0.0000 0.0000 28.4554 0.0000 0.0000
# 5 0.0000 0.0000 0.0000 0.0000 18.9441 0.0000
# 6 0.0000 0.0000 0.0000 0.0000 0.0000 14.4520
#
#
#
# Elastic Compliance Matrix: (Units=1/GPa)
#
#
# Indices 1 2 3 4 5 6 
#
# 1 0.404293 0.011794 0.016765 0.000000 0.000000 0.000000
# 2 0.011794 0.012933 -0.006170 0.000000 0.000000 0.000000
# 3 0.016765 -0.006170 0.014724 0.000000 0.000000 0.000000
# 4 0.000000 0.000000 0.000000 0.035143 0.000000 0.000000
# 5 0.000000 0.000000 0.000000 0.000000 0.052787 0.000000
# 6 0.000000 0.000000 0.000000 0.000000 0.000000 0.069195
#
#
# Mechanical properties :
#
#
# Convention : Reuss Voigt Hill
#
# Bulk Modulus (GPa) = 2.09763 31.51046 16.80405
# Shear Modulus (GPa) = 7.11030 23.32677 15.21854
#
# Velocity S-wave (km/s) = 1.99826 3.61939 2.92344
# Velocity P-wave (km/s) = 2.54992 5.92980 4.56424
#
# Compressibility (1/GPa) = 0.47672744
#
# Stress axis : x y z
#
# Youngs Moduli (GPa) = 2.47345 77.32260 67.91655
#
# Poissons Ratio (x) = -0.91196 -1.13859
# Poissons Ratio (y) = -0.02917 0.41904
# Poissons Ratio (z) = -0.04147 0.47707
#
# Static dielectric constant tensor:
#      x y z
#    x 1.625010 0.000000 0.000000 
#    y 0.000000 1.638160 0.000000 
#    z 0.000000 0.000000 1.592150 
# 
# From -- ./inp_files/22298.got.cif
#   From: 2010.05.17/outbox.cif.g08.bks.cpg/sg44_12_cif.got.tgz:22298.got - 2010.06.03 19:37:08.
