data_PCOD9374871
_publ_section_title
;
Structure prediction by ZEFSAII (Michael W. Deem and Ramdas Pophale) SiO2 
 PCOD9374871
Probable space group: I M M 2
;
_chemical_formula_sum "Si O2"
_cell_formula_units_Z 64
_cell_length_a 29.002723
_cell_length_b 8.481648
_cell_length_c 13.113767
_cell_angle_alpha 90.000000
_cell_angle_beta 90.000000
_cell_angle_gamma 90.000000
_cell_volume 3225.867183
_symmetry_space_group_name_H-M "I M M 2"
_symmetry_group_IT_number 44
_symmetry_cell_setting 'orthorhombic'
loop_
_space_group_symop_operation_xyz
x,y,z
-x,-y,z
-x,y,z
x,-y,z
1/2+x,1/2+y,1/2+z
1/2-x,1/2-y,1/2+z
1/2-x,1/2+y,1/2+z
1/2+x,1/2-y,1/2+z
loop_
_atom_site_type_symbol
_atom_site_label
_atom_site_fract_x
_atom_site_fract_y
_atom_site_fract_z
Si Si1 0.428051 0.680428 0.781700
Si Si2 0.795485 0.811141 0.999991
Si Si3 0.179341 0.181488 0.220979
Si Si4 0.097024 0.312102 0.492556
Si Si5 0.446908 0.192674 0.207341
Si Si6 0.198130 0.809660 0.438112
Si Si7 0.949373 0.810267 0.060650
Si Si8 0.881075 0.687366 0.891638
O O1 0.443769 0.500000 0.795716
O O2 0.374163 0.677296 0.750993
O O3 0.430560 0.766272 0.889666
O O4 0.449544 0.746536 0.677908
O O5 0.743062 0.755171 0.992738
O O6 0.829711 0.750911 0.911632
O O7 0.798116 0.000000 0.997906
O O8 0.813615 0.749164 0.109727
O O9 0.202199 0.252960 0.321308
O O10 0.195647 0.000000 0.213819
O O11 0.101307 0.500000 0.496132
O O12 0.071383 0.259349 0.595552
O O13 0.148729 0.242369 0.482703
O O14 0.500000 0.243724 0.224622
O O15 0.410648 0.245808 0.294161
O O16 0.447312 0.000000 0.209664
O O17 0.198533 0.000000 0.436493
O O18 0.000000 0.781111 0.015831
O O19 0.941497 0.000000 0.064656
O O20 0.910785 0.734809 0.990792
O O21 0.878188 0.500000 0.883505
#
# Coordination Sequence:
#
# PCOD9374871 Si02
#       8
#     8   8   8   8   8   8   8   8
#     4   9  17  34  55  78 110 148 181 223 287 349
#     4  11  21  37  59  84 113 151 196 242 295 355
#     4   8  16  33  55  72 102 147 180 216 279 349
#     4  10  20  36  59  85 112 150 199 246 290 344
#     4   9  20  39  60  82 117 164 204 243 299 361
#     4  10  21  38  57  83 115 152 193 240 298 354
#     4  10  20  35  56  82 114 150 185 227 287 351
#     4  11  22  37  58  84 114 152 198 247 294 348
#
# _framework density 19.839627
#
# number of rings (size 3 to 8) (size 9 to 14) (size 15 to 20)
#    0.000    2.250    1.250    2.625    0.000    2.750 
#    0.000    9.375    0.000    4.125    0.000    0.000 
#    0.000    0.000    0.000    0.000    0.000    0.000 
#
# Total GULP energy -178405.073785 kJ/mol
# GULP energy per Si atom -5575.158556 kJ/mol
# Density = 1.979447 g / cm^3
# Si number density = 19.839627 Si / 1000 Ang^3
#
#
#
# Elastic Constant Matrix: (Units=GPa)
#
#
# Indices 1 2 3 4 5 6 
#
# 1 54.2463 10.5552 24.1718 0.0000 0.0000 0.0000
# 2 10.5552 31.8265 9.8441 0.0000 0.0000 0.0000
# 3 24.1718 9.8441 103.5802 0.0000 0.0000 0.0000
# 4 0.0000 0.0000 0.0000 23.8110 0.0000 0.0000
# 5 0.0000 0.0000 0.0000 0.0000 26.7009 0.0000
# 6 0.0000 0.0000 0.0000 0.0000 0.0000 -115.4321
#
#
#
# Elastic Compliance Matrix: (Units=1/GPa)
#
#
# Indices 1 2 3 4 5 6 
#
# 1 0.021553 -0.005762 -0.004482 0.000000 0.000000 0.000000
# 2 -0.005762 0.033912 -0.001878 0.000000 0.000000 0.000000
# 3 -0.004482 -0.001878 0.010879 0.000000 0.000000 0.000000
# 4 0.000000 0.000000 0.000000 0.041997 0.000000 0.000000
# 5 0.000000 0.000000 0.000000 0.000000 0.037452 0.000000
# 6 0.000000 0.000000 0.000000 0.000000 0.000000 -0.008663
#
#
# Mechanical properties :
#
#
# Convention : Reuss Voigt Hill
#
# Bulk Modulus (GPa) = 23.75319 30.97724 27.36521
# Shear Modulus (GPa) = 28.50512 -3.31191 12.59660
#
# Velocity S-wave (km/s) = 3.79460 -1.29343 2.52250
# Velocity P-wave (km/s) = 5.58545 3.66294 4.72304
#
# Compressibility (1/GPa) = 0.04209961
#
# Stress axis : x y z
#
# Youngs Moduli (GPa) = 46.39795 29.48795 91.92173
#
# Poissons Ratio (x) = 0.16990 0.41200
# Poissons Ratio (y) = 0.26732 0.17267
# Poissons Ratio (z) = 0.20796 0.05539
#
# Static dielectric constant tensor:
#      x y z
#    x 1.709170 0.000000 0.000000 
#    y 0.000000 1.696810 0.000000 
#    z 0.000000 0.000000 1.731380 
# 
# From -- ./inp_files/15069.got.cif
#   From: 2010.05.17/outbox.cif.g08.bks.cpg/sg44_8_cif.got.tgz:15069.got - 2010.06.03 19:37:08.
