data_PCOD9374524
_publ_section_title
;
Structure prediction by ZEFSAII (Michael W. Deem and Ramdas Pophale) SiO2 
 PCOD9374524
Probable space group: I M M 2
;
_chemical_formula_sum "Si O2"
_cell_formula_units_Z 48
_cell_length_a 8.436143
_cell_length_b 14.068424
_cell_length_c 18.200852
_cell_angle_alpha 90.000000
_cell_angle_beta 90.000000
_cell_angle_gamma 90.000000
_cell_volume 2160.136025
_symmetry_space_group_name_H-M "I M M 2"
_symmetry_group_IT_number 44
_symmetry_cell_setting 'orthorhombic'
loop_
_space_group_symop_operation_xyz
x,y,z
-x,-y,z
-x,y,z
x,-y,z
1/2+x,1/2+y,1/2+z
1/2-x,1/2-y,1/2+z
1/2-x,1/2+y,1/2+z
1/2+x,1/2-y,1/2+z
loop_
_atom_site_type_symbol
_atom_site_label
_atom_site_fract_x
_atom_site_fract_y
_atom_site_fract_z
Si Si1 0.185817 0.601900 0.204700
Si Si2 0.182706 0.360292 0.828711
Si Si3 0.186539 0.102714 0.482773
Si Si4 0.188860 0.688948 0.670619
Si Si5 0.818316 0.334362 0.365208
Si Si6 0.685964 0.687133 0.514399
O O1 0.251074 0.500000 0.179137
O O2 0.267617 0.699126 0.179718
O O3 0.189985 0.600933 0.293761
O O4 0.000000 0.608649 0.183589
O O5 0.285146 0.400845 0.894855
O O6 0.241164 0.366023 0.744824
O O7 0.194214 0.248371 0.846560
O O8 0.000000 0.391370 0.833763
O O9 0.269601 0.199706 0.508985
O O10 0.000000 0.111006 0.498815
O O11 0.245548 0.000000 0.511177
O O12 0.262922 0.654194 0.594920
O O13 0.000000 0.680953 0.667416
O O14 0.775957 0.364926 0.447386
O O15 0.000000 0.296841 0.366926
O O16 0.500000 0.676528 0.504500
#
# Coordination Sequence:
#
# PCOD9374524 Si02
#       6
#     8   8   8   8   8   8
#     4   9  18  32  50  73  99 127 158 191 232 282
#     4   9  17  30  49  70  92 121 159 198 233 276
#     4  10  20  33  50  72  98 127 157 192 236 284
#     4  10  20  33  49  71  98 127 159 195 237 282
#     4   9  16  29  49  69  93 124 158 196 233 275
#     4  11  21  32  49  71  96 127 161 198 237 279
#
# _framework density 22.220822999999999
#
# number of rings (size 3 to 8) (size 9 to 14) (size 15 to 20)
#    0.000    2.333    0.000    5.500    0.000    5.000 
#    0.000    0.000    0.000    1.000    0.000    2.333 
#    0.000    0.000    0.000    0.000    0.000    0.000 
#
# Total GULP energy -133838.930934 kJ/mol
# GULP energy per Si atom -5576.622122 kJ/mol
# Density = 2.217025 g / cm^3
# Si number density = 22.220823 Si / 1000 Ang^3
#
#
#
# Elastic Constant Matrix: (Units=GPa)
#
#
# Indices 1 2 3 4 5 6 
#
# 1 61.9546 0.4832 15.0100 0.0000 0.0000 0.0000
# 2 0.4832 25.3428 -13.2749 0.0000 0.0000 0.0000
# 3 15.0100 -13.2749 155.7107 0.0000 0.0000 0.0000
# 4 0.0000 0.0000 0.0000 -6.4279 0.0000 0.0000
# 5 0.0000 0.0000 0.0000 0.0000 32.3870 0.0000
# 6 0.0000 0.0000 0.0000 0.0000 0.0000 -14.8954
#
#
#
# Elastic Compliance Matrix: (Units=1/GPa)
#
#
# Indices 1 2 3 4 5 6 
#
# 1 0.016562 -0.001206 -0.001699 0.000000 0.000000 0.000000
# 2 -0.001206 0.041391 0.003645 0.000000 0.000000 0.000000
# 3 -0.001699 0.003645 0.006897 0.000000 0.000000 0.000000
# 4 0.000000 0.000000 0.000000 -0.155571 0.000000 0.000000
# 5 0.000000 0.000000 0.000000 0.000000 0.030877 0.000000
# 6 0.000000 0.000000 0.000000 0.000000 0.000000 -0.067135
#
#
# Mechanical properties :
#
#
# Convention : Reuss Voigt Hill
#
# Bulk Modulus (GPa) = 15.07627 27.49387 21.28507
# Shear Modulus (GPa) = -47.01481 18.26538 -14.37472
#
# Velocity S-wave (km/s) = -4.60477 2.87015 -2.54619
# Velocity P-wave (km/s) = 4.63384 4.83566 0.97754
#
# Compressibility (1/GPa) = 0.06632941
#
# Stress axis : x y z
#
# Youngs Moduli (GPa) = 60.37932 24.15970 144.99632
#
# Poissons Ratio (x) = 0.02913 0.24640
# Poissons Ratio (y) = 0.07281 -0.52851
# Poissons Ratio (z) = 0.10260 -0.08806
#
# Static dielectric constant tensor:
#      x y z
#    x 1.748700 0.000000 0.000000 
#    y 0.000000 1.886800 0.000000 
#    z 0.000000 0.000000 1.882300 
# 
# From -- ./inp_files/20460.got.cif
#   From: 2010.05.17/outbox.cif.g08.bks.cpg/sg44_11_cif.got.tgz:20460.got - 2010.06.03 19:37:08.
