data_PCOD9374614
_publ_section_title
;
Structure prediction by ZEFSAII (Michael W. Deem and Ramdas Pophale) SiO2 
 PCOD9374614
Probable space group: I M M 2
;
_chemical_formula_sum "Si O2"
_cell_formula_units_Z 56
_cell_length_a 9.352581
_cell_length_b 21.097145
_cell_length_c 14.373619
_cell_angle_alpha 90.000000
_cell_angle_beta 90.000000
_cell_angle_gamma 90.000000
_cell_volume 2836.098400
_symmetry_space_group_name_H-M "I M M 2"
_symmetry_group_IT_number 44
_symmetry_cell_setting 'orthorhombic'
loop_
_space_group_symop_operation_xyz
x,y,z
-x,-y,z
-x,y,z
x,-y,z
1/2+x,1/2+y,1/2+z
1/2-x,1/2-y,1/2+z
1/2-x,1/2+y,1/2+z
1/2+x,1/2-y,1/2+z
loop_
_atom_site_type_symbol
_atom_site_label
_atom_site_fract_x
_atom_site_fract_y
_atom_site_fract_z
Si Si1 0.338749 0.715872 0.431450
Si Si2 0.840219 0.927967 0.429188
Si Si3 0.667176 0.924400 0.609445
Si Si4 0.174592 0.864055 0.116776
Si Si5 0.337270 0.309221 0.808103
Si Si6 0.163157 0.500000 0.378344
Si Si7 0.332277 0.000000 0.101400
Si Si8 0.161125 0.108484 0.779422
O O1 0.500000 0.738447 0.453569
O O2 0.291201 0.672987 0.519842
O O3 0.242181 0.771626 0.390216
O O4 0.345831 0.670412 0.341742
O O5 0.723765 0.912263 0.506385
O O6 0.837514 0.881294 0.343645
O O7 0.000000 0.923487 0.472275
O O8 0.818993 0.000000 0.398679
O O9 0.500000 0.912124 0.618805
O O10 0.758602 0.884699 0.682299
O O11 0.692322 0.000000 0.627914
O O12 0.216706 0.817253 0.202319
O O13 0.250979 0.933277 0.125198
O O14 0.000000 0.872866 0.119151
O O15 0.500000 0.284751 0.803574
O O16 0.164513 0.500000 0.489052
O O17 0.246287 0.440301 0.338805
O O18 0.000000 0.500000 0.344571
O O19 0.500000 0.000000 0.133498
O O20 0.000000 0.084710 0.764381
#
# Coordination Sequence:
#
# PCOD9374614 Si02
#       8
#     8   8   8   8   8   4   4   8
#     4  10  23  41  60  86 122 161 204 251 304 371
#     4   9  19  37  59  85 115 151 198 249 303 367
#     4  10  20  33  52  82 117 153 193 241 294 348
#     4  10  22  42  66  92 124 167 214 256 312 380
#     4  10  23  41  65  91 117 159 207 255 310 368
#     4  11  21  33  53  86 123 156 197 251 310 364
#     4  11  23  37  61  98 131 162 203 263 324 366
#     4  11  21  34  56  85 118 161 204 246 303 364
#
# _framework density 19.745436000000002
#
# number of rings (size 3 to 8) (size 9 to 14) (size 15 to 20)
#    0.000    1.857    2.143    1.286    1.000    5.143 
#    0.000    2.857    0.000    0.000    0.000    0.000 
#    0.000    0.000    0.000    0.000    0.000    0.000 
#
# Total GULP energy -156097.314143 kJ/mol
# GULP energy per Si atom -5574.904077 kJ/mol
# Density = 1.970049 g / cm^3
# Si number density = 19.745436 Si / 1000 Ang^3
#
#
#
# Elastic Constant Matrix: (Units=GPa)
#
#
# Indices 1 2 3 4 5 6 
#
# 1 87.2171 28.2987 25.4236 0.0000 0.0000 0.0000
# 2 28.2987 57.0754 25.9354 0.0000 0.0000 0.0000
# 3 25.4236 25.9354 68.6443 0.0000 0.0000 0.0000
# 4 0.0000 0.0000 0.0000 18.6419 0.0000 0.0000
# 5 0.0000 0.0000 0.0000 0.0000 22.8023 0.0000
# 6 0.0000 0.0000 0.0000 0.0000 0.0000 36.0411
#
#
#
# Elastic Compliance Matrix: (Units=1/GPa)
#
#
# Indices 1 2 3 4 5 6 
#
# 1 0.014203 -0.005616 -0.003138 0.000000 0.000000 0.000000
# 2 -0.005616 0.023373 -0.006751 0.000000 0.000000 0.000000
# 3 -0.003138 -0.006751 0.018281 0.000000 0.000000 0.000000
# 4 0.000000 0.000000 0.000000 0.053643 0.000000 0.000000
# 5 0.000000 0.000000 0.000000 0.000000 0.043855 0.000000
# 6 0.000000 0.000000 0.000000 0.000000 0.000000 0.027746
#
#
# Mechanical properties :
#
#
# Convention : Reuss Voigt Hill
#
# Bulk Modulus (GPa) = 40.24774 41.36135 40.80455
# Shear Modulus (GPa) = 22.68684 24.38232 23.53458
#
# Velocity S-wave (km/s) = 3.39332 3.51783 3.45614
# Velocity P-wave (km/s) = 5.98167 6.12315 6.05282
#
# Compressibility (1/GPa) = 0.02484611
#
# Stress axis : x y z
#
# Youngs Moduli (GPa) = 70.40985 42.78503 54.70202
#
# Poissons Ratio (x) = 0.24027 0.17168
# Poissons Ratio (y) = 0.39540 0.36929
# Poissons Ratio (z) = 0.22098 0.28884
#
# Static dielectric constant tensor:
#      x y z
#    x 1.722580 0.000000 0.000000 
#    y 0.000000 1.751560 0.000000 
#    z 0.000000 0.000000 1.689400 
# 
# From -- ./inp_files/16513.got.cif
#   From: 2010.05.17/outbox.cif.g08.bks.cpg/sg44_9_cif.got.tgz:16513.got - 2010.06.03 19:37:08.
