data_PCOD9374378
_publ_section_title
;
Structure prediction by ZEFSAII (Michael W. Deem and Ramdas Pophale) SiO2 
 PCOD9374378
Probable space group: I M M 2
;
_chemical_formula_sum "Si O2"
_cell_formula_units_Z 64
_cell_length_a 14.244678
_cell_length_b 7.668072
_cell_length_c 23.949499
_cell_angle_alpha 90.000000
_cell_angle_beta 90.000000
_cell_angle_gamma 90.000000
_cell_volume 2615.985012
_symmetry_space_group_name_H-M "I M M 2"
_symmetry_group_IT_number 44
_symmetry_cell_setting 'orthorhombic'
loop_
_space_group_symop_operation_xyz
x,y,z
-x,-y,z
-x,y,z
x,-y,z
1/2+x,1/2+y,1/2+z
1/2-x,1/2-y,1/2+z
1/2-x,1/2+y,1/2+z
1/2+x,1/2-y,1/2+z
loop_
_atom_site_type_symbol
_atom_site_label
_atom_site_fract_x
_atom_site_fract_y
_atom_site_fract_z
Si Si1 0.145062 0.796701 0.639190
Si Si2 0.809486 0.790923 0.399588
Si Si3 0.856094 0.297696 0.278779
Si Si4 0.400792 0.200656 0.380714
Si Si5 0.816583 0.794647 0.519575
Si Si6 0.100949 0.199394 0.036573
Si Si7 0.132764 0.793320 0.758860
Si Si8 0.630908 0.204243 0.659188
O O1 0.138934 0.719381 0.576826
O O2 0.106004 0.724065 0.697549
O O3 0.256493 0.796040 0.651509
O O4 0.115045 0.000000 0.636890
O O5 0.867498 0.760866 0.342672
O O6 0.701667 0.721168 0.394294
O O7 0.847607 0.725689 0.459102
O O8 0.801674 0.000000 0.403618
O O9 0.882157 0.500000 0.278056
O O10 0.744753 0.281154 0.267991
O O11 0.895138 0.223063 0.220339
O O12 0.500000 0.282918 0.399164
O O13 0.404346 0.202062 0.313590
O O14 0.399583 0.000000 0.400311
O O15 0.701995 0.781392 0.521612
O O16 0.838693 0.000000 0.521591
O O17 0.097660 0.202166 0.103873
O O18 0.000000 0.278537 0.018811
O O19 0.104792 0.000000 0.017061
O O20 0.109759 0.000000 0.761064
O O21 0.603634 0.000000 0.656177
#
# Coordination Sequence:
#
# PCOD9374378 Si02
#       8
#     8   8   8   8   8   8   8   8
#     4   7  11  22  39  56  72  90 118 159 197 224
#     4   9  17  27  40  58  78 104 137 165 190 226
#     4   8  14  25  41  59  78  99 124 159 201 238
#     4   9  17  27  36  50  76 104 128 157 187 214
#     4   9  17  29  43  57  76 106 140 166 191 231
#     4  10  20  30  39  56  82 108 135 170 208 238
#     4   8  13  23  39  55  70  91 121 156 193 230
#     4   8  14  26  43  59  74  98 131 161 195 241
#
# _framework density 24.464973000000001
#
# number of rings (size 3 to 8) (size 9 to 14) (size 15 to 20)
#    0.000    3.500    0.000    2.625    0.000    2.750 
#    0.000    7.500    0.000    0.000    0.000    0.000 
#    0.000    1.000    0.000    5.000    0.000    3.750 
#
# Total GULP energy -178142.577920 kJ/mol
# GULP energy per Si atom -5566.955560 kJ/mol
# Density = 2.440929 g / cm^3
# Si number density = 24.464973 Si / 1000 Ang^3
#
#
#
# Elastic Constant Matrix: (Units=GPa)
#
#
# Indices 1 2 3 4 5 6 
#
# 1 48.2116 -4.3632 -4.7261 0.0000 0.0000 0.0000
# 2 -4.3632 42.4572 9.1211 0.0000 0.0000 0.0000
# 3 -4.7261 9.1211 249.0184 0.0000 0.0000 0.0000
# 4 0.0000 0.0000 0.0000 19.1789 0.0000 0.0000
# 5 0.0000 0.0000 0.0000 0.0000 -24.9827 0.0000
# 6 0.0000 0.0000 0.0000 0.0000 0.0000 1.3251
#
#
#
# Elastic Compliance Matrix: (Units=1/GPa)
#
#
# Indices 1 2 3 4 5 6 
#
# 1 0.020962 0.002085 0.000321 0.000000 0.000000 0.000000
# 2 0.002085 0.023947 -0.000838 0.000000 0.000000 0.000000
# 3 0.000321 -0.000838 0.004053 0.000000 0.000000 0.000000
# 4 0.000000 0.000000 0.000000 0.052141 0.000000 0.000000
# 5 0.000000 0.000000 0.000000 0.000000 -0.040028 0.000000
# 6 0.000000 0.000000 0.000000 0.000000 0.000000 0.754637
#
#
# Mechanical properties :
#
#
# Convention : Reuss Voigt Hill
#
# Bulk Modulus (GPa) = 19.19383 37.75010 28.47197
# Shear Modulus (GPa) = 6.02453 21.74796 13.88624
#
# Velocity S-wave (km/s) = 1.57094 2.98475 2.38501
# Velocity P-wave (km/s) = 3.33960 5.22896 4.38720
#
# Compressibility (1/GPa) = 0.05210007
#
# Stress axis : x y z
#
# Youngs Moduli (GPa) = 47.70510 41.75829 246.75841
#
# Poissons Ratio (x) = -0.08707 -0.07932
# Poissons Ratio (y) = -0.09947 0.20668
# Poissons Ratio (z) = -0.01534 0.03498
#
# Static dielectric constant tensor:
#      x y z
#    x 1.939430 0.000000 0.000000 
#    y 0.000000 1.910890 0.000000 
#    z 0.000000 0.000000 2.030890 
# 
# From -- ./inp_files/23459.got.cif
#   From: 2010.05.17/outbox.cif.g08.bks.cpg/sg44_12_cif.got.tgz:23459.got - 2010.06.03 19:37:08.
