data_PCOD9374854
_publ_section_title
;
Structure prediction by ZEFSAII (Michael W. Deem and Ramdas Pophale) SiO2 
 PCOD9374854
Probable space group: I M M 2
;
_chemical_formula_sum "Si O2"
_cell_formula_units_Z 48
_cell_length_a 30.306118
_cell_length_b 10.110127
_cell_length_c 8.612128
_cell_angle_alpha 90.000000
_cell_angle_beta 90.000000
_cell_angle_gamma 90.000000
_cell_volume 2638.744839
_symmetry_space_group_name_H-M "I M M 2"
_symmetry_group_IT_number 44
_symmetry_cell_setting 'orthorhombic'
loop_
_space_group_symop_operation_xyz
x,y,z
-x,-y,z
-x,y,z
x,-y,z
1/2+x,1/2+y,1/2+z
1/2-x,1/2-y,1/2+z
1/2-x,1/2+y,1/2+z
1/2+x,1/2-y,1/2+z
loop_
_atom_site_type_symbol
_atom_site_label
_atom_site_fract_x
_atom_site_fract_y
_atom_site_fract_z
Si Si1 0.192142 0.748515 0.214840
Si Si2 0.656775 0.154720 0.227584
Si Si3 0.870709 0.853162 0.463573
Si Si4 0.106840 0.353759 0.041564
Si Si5 0.550961 0.654082 0.731624
Si Si6 0.274524 0.348957 0.391194
O O1 0.165553 0.847824 0.325983
O O2 0.153230 0.664496 0.133567
O O3 0.225425 0.668209 0.324276
O O4 0.218906 0.815422 0.073065
O O5 0.619523 0.158135 0.361550
O O6 0.696694 0.240684 0.298849
O O7 0.668000 0.000000 0.199606
O O8 0.640339 0.234354 0.078571
O O9 0.918087 0.832374 0.382926
O O10 0.869328 0.000000 0.536140
O O11 0.089446 0.500000 0.073683
O O12 0.073304 0.244488 0.101577
O O13 0.500000 0.687664 0.759295
O O14 0.553529 0.500000 0.685768
O O15 0.289356 0.500000 0.364268
#
# Coordination Sequence:
#
# PCOD9374854 Si02
#       6
#     8   8   8   8   8   8
#     4  10  21  34  53  80 109 139 180 227 267 307
#     4  10  22  37  54  78 109 142 178 224 267 309
#     4  10  20  35  56  79 108 144 179 216 262 317
#     4   9  19  36  55  77 106 139 176 218 267 317
#     4   9  19  36  58  84 110 136 171 216 263 315
#     4  11  22  36  55  77 105 143 185 223 265 316
#
# _framework density 18.190466000000001
#
# number of rings (size 3 to 8) (size 9 to 14) (size 15 to 20)
#    0.000    2.167    0.000    2.500    0.000   11.667 
#    0.000    0.833    0.000    3.000    0.000    0.000 
#    0.000    0.000    0.000    0.000    0.000    0.000 
#
# Total GULP energy -133846.237737 kJ/mol
# GULP energy per Si atom -5576.926572 kJ/mol
# Density = 1.814906 g / cm^3
# Si number density = 18.190466 Si / 1000 Ang^3
#
#
#
# Elastic Constant Matrix: (Units=GPa)
#
#
# Indices 1 2 3 4 5 6 
#
# 1 94.2903 49.5032 54.1529 0.0000 0.0000 0.0000
# 2 49.5032 133.8923 61.7815 0.0000 0.0000 0.0000
# 3 54.1529 61.7815 86.4368 0.0000 0.0000 0.0000
# 4 0.0000 0.0000 0.0000 25.1656 0.0000 0.0000
# 5 0.0000 0.0000 0.0000 0.0000 13.2724 0.0000
# 6 0.0000 0.0000 0.0000 0.0000 0.0000 -30.0739
#
#
#
# Elastic Compliance Matrix: (Units=1/GPa)
#
#
# Indices 1 2 3 4 5 6 
#
# 1 0.016931 -0.002037 -0.009151 0.000000 0.000000 0.000000
# 2 -0.002037 0.011389 -0.006864 0.000000 0.000000 0.000000
# 3 -0.009151 -0.006864 0.022209 0.000000 0.000000 0.000000
# 4 0.000000 0.000000 0.000000 0.039737 0.000000 0.000000
# 5 0.000000 0.000000 0.000000 0.000000 0.075344 0.000000
# 6 0.000000 0.000000 0.000000 0.000000 0.000000 -0.033251
#
#
# Mechanical properties :
#
#
# Convention : Reuss Voigt Hill
#
# Bulk Modulus (GPa) = 69.33093 71.72163 70.52628
# Shear Modulus (GPa) = 28.85655 11.61828 20.23742
#
# Velocity S-wave (km/s) = 3.98723 2.53000 3.33908
# Velocity P-wave (km/s) = 7.70675 6.93168 7.32947
#
# Compressibility (1/GPa) = 0.01442358
#
# Stress axis : x y z
#
# Youngs Moduli (GPa) = 59.06423 87.80219 45.02755
#
# Poissons Ratio (x) = 0.17887 0.41205
# Poissons Ratio (y) = 0.12032 0.30908
# Poissons Ratio (z) = 0.54050 0.60270
#
# Static dielectric constant tensor:
#      x y z
#    x 1.612390 0.000000 0.000000 
#    y 0.000000 1.627050 0.000000 
#    z 0.000000 0.000000 1.628610 
# 
# From -- ./inp_files/4930.got.cif
#   From: 2010.05.17/outbox.cif.g08.bks.cpg/sg44_3_cif.got.tgz:4930.got - 2010.06.03 19:37:08.
