data_PCOD9374805
_publ_section_title
;
Structure prediction by ZEFSAII (Michael W. Deem and Ramdas Pophale) SiO2 
 PCOD9374805
Probable space group: I M M 2
;
_chemical_formula_sum "Si O2"
_cell_formula_units_Z 40
_cell_length_a 14.731341
_cell_length_b 9.024498
_cell_length_c 14.908008
_cell_angle_alpha 90.000000
_cell_angle_beta 90.000000
_cell_angle_gamma 90.000000
_cell_volume 1981.914672
_symmetry_space_group_name_H-M "I M M 2"
_symmetry_group_IT_number 44
_symmetry_cell_setting 'orthorhombic'
loop_
_space_group_symop_operation_xyz
x,y,z
-x,-y,z
-x,y,z
x,-y,z
1/2+x,1/2+y,1/2+z
1/2-x,1/2-y,1/2+z
1/2-x,1/2+y,1/2+z
1/2+x,1/2-y,1/2+z
loop_
_atom_site_type_symbol
_atom_site_label
_atom_site_fract_x
_atom_site_fract_y
_atom_site_fract_z
Si Si1 0.840197 0.325471 0.707830
Si Si2 0.145930 0.323191 0.238978
Si Si3 0.605131 0.162675 0.537797
Si Si4 0.393495 0.661609 0.377492
Si Si5 0.000000 0.821271 0.370203
Si Si6 0.000000 0.679506 0.568611
O O1 0.822064 0.500000 0.698860
O O2 0.747079 0.235791 0.720374
O O3 0.886306 0.286128 0.802250
O O4 0.910336 0.281929 0.628423
O O5 0.143282 0.500000 0.256388
O O6 0.103060 0.295476 0.141288
O O7 0.088029 0.240224 0.315377
O O8 0.500000 0.148311 0.510929
O O9 0.648596 0.279792 0.470280
O O10 0.648721 0.000000 0.529683
O O11 0.500000 0.640123 0.391244
O O12 0.355501 0.500000 0.351047
O O13 0.000000 0.757513 0.471763
O O14 0.000000 0.000000 0.370784
O O15 0.000000 0.500000 0.557816
#
# Coordination Sequence:
#
# PCOD9374805 Si02
#       6
#     8   8   8   8   4   4
#     4  11  23  41  65  94 126 169 219 270 326 389
#     4  11  23  42  66  94 129 170 215 270 328 387
#     4   9  18  35  59  85 116 156 197 244 306 372
#     4  10  20  34  57  89 122 157 196 248 309 372
#     4  12  26  44  69  98 133 178 225 274 328 400
#     4  10  24  46  69  92 131 182 225 276 336 394
#
# _framework density 20.182503000000001
#
# number of rings (size 3 to 8) (size 9 to 14) (size 15 to 20)
#    0.000    1.600    2.000    2.700    0.000    5.600 
#    0.000    4.000    0.000    0.000    0.000    0.000 
#    0.000    0.000    0.000    0.000    0.000    0.000 
#
# Total GULP energy -111405.737314 kJ/mol
# GULP energy per Si atom -5570.286866 kJ/mol
# Density = 2.013657 g / cm^3
# Si number density = 20.182503 Si / 1000 Ang^3
#
#
#
# Elastic Constant Matrix: (Units=GPa)
#
#
# Indices 1 2 3 4 5 6 
#
# 1 96.7489 44.5240 51.6683 0.0000 0.0000 0.0000
# 2 44.5240 79.4937 71.5032 0.0000 0.0000 0.0000
# 3 51.6683 71.5032 137.9850 0.0000 0.0000 0.0000
# 4 0.0000 0.0000 0.0000 28.5461 0.0000 0.0000
# 5 0.0000 0.0000 0.0000 0.0000 -14.8586 0.0000
# 6 0.0000 0.0000 0.0000 0.0000 0.0000 25.8718
#
#
#
# Elastic Compliance Matrix: (Units=1/GPa)
#
#
# Indices 1 2 3 4 5 6 
#
# 1 0.014290 -0.005976 -0.002254 0.000000 0.000000 0.000000
# 2 -0.005976 0.026062 -0.011267 0.000000 0.000000 0.000000
# 3 -0.002254 -0.011267 0.013930 0.000000 0.000000 0.000000
# 4 0.000000 0.000000 0.000000 0.035031 0.000000 0.000000
# 5 0.000000 0.000000 0.000000 0.000000 -0.067301 0.000000
# 6 0.000000 0.000000 0.000000 0.000000 0.000000 0.038652
#
#
# Mechanical properties :
#
#
# Convention : Reuss Voigt Hill
#
# Bulk Modulus (GPa) = 65.41764 72.17983 68.79874
# Shear Modulus (GPa) = 47.73094 17.68066 32.70580
#
# Velocity S-wave (km/s) = 4.86837 2.96301 4.02991
# Velocity P-wave (km/s) = 8.00530 6.89544 7.47101
#
# Compressibility (1/GPa) = 0.01528640
#
# Stress axis : x y z
#
# Youngs Moduli (GPa) = 69.97853 38.37075 71.78900
#
# Poissons Ratio (x) = 0.22932 0.16181
# Poissons Ratio (y) = 0.41822 0.80885
# Poissons Ratio (z) = 0.15773 0.43233
#
# Static dielectric constant tensor:
#      x y z
#    x 1.571140 0.000000 0.000000 
#    y 0.000000 1.745660 0.000000 
#    z 0.000000 0.000000 1.721760 
# 
# From -- ./inp_files/15810.got.cif
#   From: 2010.05.17/outbox.cif.g08.bks.cpg/sg44_8_cif.got.tgz:15810.got - 2010.06.03 19:37:08.
