data_PCOD9374377
_publ_section_title
;
Structure prediction by ZEFSAII (Michael W. Deem and Ramdas Pophale) SiO2 
 PCOD9374377
Probable space group: I M M 2
;
_chemical_formula_sum "Si O2"
_cell_formula_units_Z 36
_cell_length_a 14.844053
_cell_length_b 13.563215
_cell_length_c 9.665358
_cell_angle_alpha 90.000000
_cell_angle_beta 90.000000
_cell_angle_gamma 90.000000
_cell_volume 1945.956318
_symmetry_space_group_name_H-M "I M M 2"
_symmetry_group_IT_number 44
_symmetry_cell_setting 'orthorhombic'
loop_
_space_group_symop_operation_xyz
x,y,z
-x,-y,z
-x,y,z
x,-y,z
1/2+x,1/2+y,1/2+z
1/2-x,1/2-y,1/2+z
1/2-x,1/2+y,1/2+z
1/2+x,1/2-y,1/2+z
loop_
_atom_site_type_symbol
_atom_site_label
_atom_site_fract_x
_atom_site_fract_y
_atom_site_fract_z
Si Si1 0.500000 0.115534 0.287501
Si Si2 0.108880 0.888198 0.891125
Si Si3 0.000000 0.618066 0.229952
Si Si4 0.855498 0.684225 0.010388
Si Si5 0.343660 0.613567 0.068548
Si Si6 0.000000 0.739703 0.506170
O O1 0.413276 0.141776 0.381685
O O2 0.500000 0.181161 0.150782
O O3 0.500000 0.000000 0.255546
O O4 0.145380 0.876658 0.735028
O O5 0.000000 0.877234 0.885856
O O6 0.128914 0.000000 0.937285
O O7 0.147051 0.801770 0.986390
O O8 0.086477 0.656210 0.144794
O O9 0.000000 0.663425 0.381344
O O10 0.000000 0.500000 0.230333
O O11 0.757089 0.639035 0.023193
O O12 0.365768 0.500000 0.034975
O O13 0.413490 0.689339 0.002228
#
# Coordination Sequence:
#
# PCOD9374377 Si02
#       6
#     4   8   4   8   8   4
#     4  11  21  40  63  90 120 158 211 252 297 362
#     4  10  19  39  68  92 118 160 207 252 304 361
#     4  11  25  42  60  90 127 163 199 251 319 365
#     4  11  21  41  65  90 119 164 207 251 299 368
#     4  11  22  39  64  91 122 161 202 252 311 365
#     4  12  24  40  61  90 127 163 202 259 306 361
#
# _framework density 18.499901999999999
#
# number of rings (size 3 to 8) (size 9 to 14) (size 15 to 20)
#    0.000    1.111    5.556    3.333    3.111    0.000 
#    0.000    3.333    0.000    0.000    0.000    0.000 
#    0.000    0.000    0.000    0.000    0.000    0.000 
#
# Total GULP energy -100604.264854 kJ/mol
# GULP energy per Si atom -5589.125825 kJ/mol
# Density = 1.845780 g / cm^3
# Si number density = 18.499902 Si / 1000 Ang^3
#
#
#
# Elastic Constant Matrix: (Units=GPa)
#
#
# Indices 1 2 3 4 5 6 
#
# 1 78.8528 15.4633 22.6851 0.0000 0.0000 0.0000
# 2 15.4633 142.2241 39.3516 0.0000 0.0000 0.0000
# 3 22.6851 39.3516 82.2998 0.0000 0.0000 0.0000
# 4 0.0000 0.0000 0.0000 35.1254 0.0000 0.0000
# 5 0.0000 0.0000 0.0000 0.0000 3.2844 0.0000
# 6 0.0000 0.0000 0.0000 0.0000 0.0000 21.6748
#
#
#
# Elastic Compliance Matrix: (Units=1/GPa)
#
#
# Indices 1 2 3 4 5 6 
#
# 1 0.013807 -0.000516 -0.003559 0.000000 0.000000 0.000000
# 2 -0.000516 0.008123 -0.003741 0.000000 0.000000 0.000000
# 3 -0.003559 -0.003741 0.014921 0.000000 0.000000 0.000000
# 4 0.000000 0.000000 0.000000 0.028469 0.000000 0.000000
# 5 0.000000 0.000000 0.000000 0.000000 0.304468 0.000000
# 6 0.000000 0.000000 0.000000 0.000000 0.000000 0.046136
#
#
# Mechanical properties :
#
#
# Convention : Reuss Voigt Hill
#
# Bulk Modulus (GPa) = 47.13269 50.93074 49.03172
# Shear Modulus (GPa) = 11.39915 27.07538 19.23726
#
# Velocity S-wave (km/s) = 2.48498 3.82978 3.22818
# Velocity P-wave (km/s) = 5.81086 6.86632 6.36052
#
# Compressibility (1/GPa) = 0.02121670
#
# Stress axis : x y z
#
# Youngs Moduli (GPa) = 72.42716 123.11464 67.02153
#
# Poissons Ratio (x) = 0.06359 0.23852
# Poissons Ratio (y) = 0.03741 0.25075
# Poissons Ratio (z) = 0.25775 0.46062
#
# Static dielectric constant tensor:
#      x y z
#    x 1.620630 0.000000 0.000000 
#    y 0.000000 1.648610 0.000000 
#    z 0.000000 0.000000 1.609660 
# 
# From -- ./inp_files/6775.got.cif
#   From: 2010.05.17/outbox.cif.g08.bks.cpg/sg44_4_cif.got.tgz:6775.got - 2010.06.03 19:37:08.
