data_PCOD9374812
_publ_section_title
;
Structure prediction by ZEFSAII (Michael W. Deem and Ramdas Pophale) SiO2 
 PCOD9374812
Probable space group: I M M 2
;
_chemical_formula_sum "Si O2"
_cell_formula_units_Z 56
_cell_length_a 15.017915
_cell_length_b 19.383409
_cell_length_c 9.646487
_cell_angle_alpha 90.000000
_cell_angle_beta 90.000000
_cell_angle_gamma 90.000000
_cell_volume 2808.076823
_symmetry_space_group_name_H-M "I M M 2"
_symmetry_group_IT_number 44
_symmetry_cell_setting 'orthorhombic'
loop_
_space_group_symop_operation_xyz
x,y,z
-x,-y,z
-x,y,z
x,-y,z
1/2+x,1/2+y,1/2+z
1/2-x,1/2-y,1/2+z
1/2-x,1/2+y,1/2+z
1/2+x,1/2-y,1/2+z
loop_
_atom_site_type_symbol
_atom_site_label
_atom_site_fract_x
_atom_site_fract_y
_atom_site_fract_z
Si Si1 0.605395 0.077767 0.710830
Si Si2 0.103006 0.329881 0.954487
Si Si3 0.203414 0.077811 0.082856
Si Si4 0.272862 0.676599 0.803750
Si Si5 0.899591 0.382257 0.528827
Si Si6 0.667704 0.266161 0.100845
Si Si7 0.101027 0.829380 0.873739
O O1 0.500000 0.070155 0.687251
O O2 0.633022 0.132810 0.595352
O O3 0.644821 0.000000 0.701679
O O4 0.612760 0.108399 0.863658
O O5 0.175275 0.352928 0.843196
O O6 0.107601 0.246617 0.945081
O O7 0.000000 0.347611 0.924010
O O8 0.173290 0.119349 0.219977
O O9 0.311164 0.080203 0.083525
O O10 0.171957 0.000000 0.079282
O O11 0.168973 0.120328 0.950218
O O12 0.251260 0.736460 0.691148
O O13 0.310144 0.702766 0.950433
O O14 0.890816 0.301977 0.570027
O O15 0.000000 0.406956 0.563981
O O16 0.621668 0.316687 0.211493
O O17 0.000000 0.853856 0.891339
#
# Coordination Sequence:
#
# PCOD9374812 Si02
#       7
#     8   8   8   8   8   8   8
#     4   9  18  30  47  80 124 165 201 232 279 353
#     4   9  18  32  55  85 121 164 206 248 296 358
#     4  11  25  42  60  88 123 168 214 257 318 376
#     4  10  21  35  58  86 128 158 203 258 311 370
#     4  10  20  34  58  90 128 163 196 242 295 368
#     4  10  20  36  61  91 123 157 204 256 318 373
#     4  10  22  42  65  88 115 155 215 276 325 372
#
# _framework density 19.942474000000001
#
# number of rings (size 3 to 8) (size 9 to 14) (size 15 to 20)
#    0.000    2.143    0.000    4.286    6.000    5.143 
#    0.000    1.429    0.000    0.000    0.000    0.000 
#    0.000    0.000    0.000    0.000    0.000    0.000 
#
# Total GULP energy -156021.236131 kJ/mol
# GULP energy per Si atom -5572.187005 kJ/mol
# Density = 1.989708 g / cm^3
# Si number density = 19.942474 Si / 1000 Ang^3
#
#
#
# Elastic Constant Matrix: (Units=GPa)
#
#
# Indices 1 2 3 4 5 6 
#
# 1 56.0810 18.4849 18.3378 0.0000 0.0000 0.0000
# 2 18.4849 85.2135 59.3129 0.0000 0.0000 0.0000
# 3 18.3378 59.3129 123.4205 0.0000 0.0000 0.0000
# 4 0.0000 0.0000 0.0000 3.5871 0.0000 0.0000
# 5 0.0000 0.0000 0.0000 0.0000 23.5486 0.0000
# 6 0.0000 0.0000 0.0000 0.0000 0.0000 11.5793
#
#
#
# Elastic Compliance Matrix: (Units=1/GPa)
#
#
# Indices 1 2 3 4 5 6 
#
# 1 0.019340 -0.003299 -0.001288 0.000000 0.000000 0.000000
# 2 -0.003299 0.018196 -0.008255 0.000000 0.000000 0.000000
# 3 -0.001288 -0.008255 0.012261 0.000000 0.000000 0.000000
# 4 0.000000 0.000000 0.000000 0.278774 0.000000 0.000000
# 5 0.000000 0.000000 0.000000 0.000000 0.042465 0.000000
# 6 0.000000 0.000000 0.000000 0.000000 0.000000 0.086361
#
#
# Mechanical properties :
#
#
# Convention : Reuss Voigt Hill
#
# Bulk Modulus (GPa) = 41.46966 50.77623 46.12294
# Shear Modulus (GPa) = 10.18085 18.98164 14.58125
#
# Velocity S-wave (km/s) = 2.26190 3.08850 2.70694
# Velocity P-wave (km/s) = 5.25941 6.18345 5.74006
#
# Compressibility (1/GPa) = 0.02411402
#
# Stress axis : x y z
#
# Youngs Moduli (GPa) = 51.70669 54.95576 81.56077
#
# Poissons Ratio (x) = 0.18128 0.10507
# Poissons Ratio (y) = 0.17056 0.67326
# Poissons Ratio (z) = 0.06661 0.45364
#
# Static dielectric constant tensor:
#      x y z
#    x 1.746590 0.000000 0.000000 
#    y 0.000000 1.727070 0.000000 
#    z 0.000000 0.000000 1.726710 
# 
# From -- ./inp_files/7410.got.cif
#   From: 2010.05.17/outbox.cif.g08.bks.cpg/sg44_4_cif.got.tgz:7410.got - 2010.06.03 19:37:08.
