data_PCOD9374526
_publ_section_title
;
Structure prediction by ZEFSAII (Michael W. Deem and Ramdas Pophale) SiO2 
 PCOD9374526
Probable space group: I M M 2
;
_chemical_formula_sum "Si O2"
_cell_formula_units_Z 64
_cell_length_a 14.720896
_cell_length_b 8.816604
_cell_length_c 29.065914
_cell_angle_alpha 90.000000
_cell_angle_beta 90.000000
_cell_angle_gamma 90.000000
_cell_volume 3772.415873
_symmetry_space_group_name_H-M "I M M 2"
_symmetry_group_IT_number 44
_symmetry_cell_setting 'orthorhombic'
loop_
_space_group_symop_operation_xyz
x,y,z
-x,-y,z
-x,y,z
x,-y,z
1/2+x,1/2+y,1/2+z
1/2-x,1/2-y,1/2+z
1/2-x,1/2+y,1/2+z
1/2+x,1/2-y,1/2+z
loop_
_atom_site_type_symbol
_atom_site_label
_atom_site_fract_x
_atom_site_fract_y
_atom_site_fract_z
Si Si1 0.108256 0.820568 0.433790
Si Si2 0.714287 0.818118 0.285208
Si Si3 0.395151 0.182836 0.101127
Si Si4 0.774166 0.318942 0.514636
Si Si5 0.105250 0.681238 0.970426
Si Si6 0.394567 0.681450 0.200908
Si Si7 0.891237 0.821875 0.870957
Si Si8 0.602346 0.315387 0.828692
O O1 0.164630 0.730386 0.471267
O O2 0.126156 0.770809 0.381193
O O3 0.000000 0.804408 0.441324
O O4 0.130386 0.000000 0.437458
O O5 0.669596 0.748624 0.239979
O O6 0.658780 0.762976 0.329809
O O7 0.818415 0.769254 0.294221
O O8 0.710924 0.000000 0.282598
O O9 0.500000 0.223715 0.089567
O O10 0.327196 0.229992 0.060681
O O11 0.373030 0.255057 0.150330
O O12 0.391506 0.000000 0.105073
O O13 0.765229 0.500000 0.515396
O O14 0.676107 0.244561 0.507196
O O15 0.111740 0.500000 0.967735
O O16 0.130107 0.750637 0.920618
O O17 0.000000 0.722059 0.979847
O O18 0.500000 0.723528 0.210888
O O19 0.388724 0.500000 0.200880
O O20 0.000000 0.808155 0.864470
O O21 0.868056 0.000000 0.870605
O O22 0.500000 0.263447 0.818044
O O23 0.600234 0.500000 0.829301
#
# Coordination Sequence:
#
# PCOD9374526 Si02
#       8
#     8   8   8   8   8   8   8   8
#     4   9  17  30  49  73 103 138 173 207 243 290
#     4  11  20  30  51  77 100 132 170 206 248 300
#     4   9  19  36  55  76 103 131 160 198 246 301
#     4  11  21  32  51  77 104 133 165 206 255 305
#     4  10  21  36  52  71  99 136 176 214 250 293
#     4  10  21  36  53  74 101 131 162 201 250 300
#     4  10  20  33  49  72 104 137 168 206 251 297
#     4   8  16  31  48  68  96 130 168 206 239 276
#
# _framework density 16.965254000000002
#
# number of rings (size 3 to 8) (size 9 to 14) (size 15 to 20)
#    0.000    2.250    0.000    4.125    0.000    6.500 
#    0.000    1.875    0.000    3.750    0.000    1.750 
#    0.000    0.000    0.000    0.000    0.000    0.000 
#
# Total GULP energy -178634.306800 kJ/mol
# GULP energy per Si atom -5582.322088 kJ/mol
# Density = 1.692664 g / cm^3
# Si number density = 16.965254 Si / 1000 Ang^3
#
#
#
# Elastic Constant Matrix: (Units=GPa)
#
#
# Indices 1 2 3 4 5 6 
#
# 1 105.9418 39.4074 100.3455 0.0000 0.0000 0.0000
# 2 39.4074 37.9015 40.0527 0.0000 0.0000 0.0000
# 3 100.3455 40.0527 124.5034 0.0000 0.0000 0.0000
# 4 0.0000 0.0000 0.0000 28.7395 0.0000 0.0000
# 5 0.0000 0.0000 0.0000 0.0000 33.3378 0.0000
# 6 0.0000 0.0000 0.0000 0.0000 0.0000 22.3818
#
#
#
# Elastic Compliance Matrix: (Units=1/GPa)
#
#
# Indices 1 2 3 4 5 6 
#
# 1 0.043409 -0.012365 -0.031008 0.000000 0.000000 0.000000
# 2 -0.012365 0.043496 -0.004027 0.000000 0.000000 0.000000
# 3 -0.031008 -0.004027 0.034319 0.000000 0.000000 0.000000
# 4 0.000000 0.000000 0.000000 0.034795 0.000000 0.000000
# 5 0.000000 0.000000 0.000000 0.000000 0.029996 0.000000
# 6 0.000000 0.000000 0.000000 0.000000 0.000000 0.044679
#
#
# Mechanical properties :
#
#
# Convention : Reuss Voigt Hill
#
# Bulk Modulus (GPa) = 37.84519 69.77308 53.80914
# Shear Modulus (GPa) = 14.95656 22.79457 18.87556
#
# Velocity S-wave (km/s) = 2.97239 3.66950 3.33919
# Velocity P-wave (km/s) = 5.84261 7.69220 6.83030
#
# Compressibility (1/GPa) = 0.02642344
#
# Stress axis : x y z
#
# Youngs Moduli (GPa) = 23.03684 22.99060 29.13871
#
# Poissons Ratio (x) = 0.28429 0.90353
# Poissons Ratio (y) = 0.28486 0.11733
# Poissons Ratio (z) = 0.71433 0.09257
#
# Static dielectric constant tensor:
#      x y z
#    x 1.591890 0.000000 0.000000 
#    y 0.000000 1.569500 0.000000 
#    z 0.000000 0.000000 1.540150 
# 
# From -- ./inp_files/25768.got.cif
#   From: 2010.05.17/outbox.cif.g08.bks.cpg/sg44_13_cif.got.tgz:25768.got - 2010.06.03 19:37:08.
