data_PCOD9374655
_publ_section_title
;
Structure prediction by ZEFSAII (Michael W. Deem and Ramdas Pophale) SiO2 
 PCOD9374655
Probable space group: I M M 2
;
_chemical_formula_sum "Si O2"
_cell_formula_units_Z 48
_cell_length_a 8.794032
_cell_length_b 24.345711
_cell_length_c 14.051424
_cell_angle_alpha 90.000000
_cell_angle_beta 90.000000
_cell_angle_gamma 90.000000
_cell_volume 3008.367185
_symmetry_space_group_name_H-M "I M M 2"
_symmetry_group_IT_number 44
_symmetry_cell_setting 'orthorhombic'
loop_
_space_group_symop_operation_xyz
x,y,z
-x,-y,z
-x,y,z
x,-y,z
1/2+x,1/2+y,1/2+z
1/2-x,1/2-y,1/2+z
1/2-x,1/2+y,1/2+z
1/2+x,1/2-y,1/2+z
loop_
_atom_site_type_symbol
_atom_site_label
_atom_site_fract_x
_atom_site_fract_y
_atom_site_fract_z
Si Si1 0.181448 0.332987 0.588550
Si Si2 0.682993 0.230375 0.476819
Si Si3 0.817184 0.063862 0.987354
Si Si4 0.817255 0.776162 0.269806
Si Si5 0.682968 0.562067 0.266822
Si Si6 0.318211 0.164349 0.662227
O O1 0.249931 0.287717 0.515859
O O2 0.234545 0.392540 0.553594
O O3 0.248445 0.317275 0.691658
O O4 0.000000 0.328705 0.589425
O O5 0.500000 0.234827 0.473212
O O6 0.749798 0.216554 0.374258
O O7 0.723615 0.185000 0.556674
O O8 0.773359 0.073582 0.876745
O O9 0.000000 0.071089 0.994529
O O10 0.783737 0.000000 0.009099
O O11 0.777387 0.714879 0.232195
O O12 0.000000 0.780817 0.270218
O O13 0.500000 0.562471 0.264310
O O14 0.733839 0.500000 0.243240
O O15 0.744602 0.608563 0.197837
O O16 0.500000 0.158528 0.665158
#
# Coordination Sequence:
#
# PCOD9374655 Si02
#       6
#     8   8   8   8   8   8
#     4  11  21  32  49  74 102 132 164 198 242 294
#     4  10  20  34  50  71 100 130 163 203 245 290
#     4   9  18  33  51  71  98 131 164 202 248 291
#     4  10  20  34  51  73  99 127 163 203 245 293
#     4   9  18  31  48  71  97 126 160 196 236 284
#     4   9  19  32  47  70  98 126 156 194 238 284
#
# _framework density 15.955500000000001
#
# number of rings (size 3 to 8) (size 9 to 14) (size 15 to 20)
#    0.000    2.333    0.000    5.500    0.000    8.000 
#    0.000    1.667    0.000    1.000    0.000    4.667 
#    0.000    0.000    0.000    0.000    0.000    0.000 
#
# Total GULP energy -133910.223512 kJ/mol
# GULP energy per Si atom -5579.592646 kJ/mol
# Density = 1.591918 g / cm^3
# Si number density = 15.955500 Si / 1000 Ang^3
#
#
#
# Elastic Constant Matrix: (Units=GPa)
#
#
# Indices 1 2 3 4 5 6 
#
# 1 64.2150 52.2854 55.2211 0.0000 0.0000 0.0000
# 2 52.2854 115.2183 84.7825 0.0000 0.0000 0.0000
# 3 55.2211 84.7825 135.3833 0.0000 0.0000 0.0000
# 4 0.0000 0.0000 0.0000 20.1769 0.0000 0.0000
# 5 0.0000 0.0000 0.0000 0.0000 29.1388 0.0000
# 6 0.0000 0.0000 0.0000 0.0000 0.0000 28.8070
#
#
#
# Elastic Compliance Matrix: (Units=1/GPa)
#
#
# Indices 1 2 3 4 5 6 
#
# 1 0.027288 -0.007776 -0.006261 0.000000 0.000000 0.000000
# 2 -0.007776 0.018313 -0.008296 0.000000 0.000000 0.000000
# 3 -0.006261 -0.008296 0.015136 0.000000 0.000000 0.000000
# 4 0.000000 0.000000 0.000000 0.049562 0.000000 0.000000
# 5 0.000000 0.000000 0.000000 0.000000 0.034318 0.000000
# 6 0.000000 0.000000 0.000000 0.000000 0.000000 0.034714
#
#
# Mechanical properties :
#
#
# Convention : Reuss Voigt Hill
#
# Bulk Modulus (GPa) = 62.22823 77.71050 69.96937
# Shear Modulus (GPa) = 21.80039 23.79307 22.79673
#
# Velocity S-wave (km/s) = 3.70039 3.86581 3.78401
# Velocity P-wave (km/s) = 7.57252 8.29073 7.93975
#
# Compressibility (1/GPa) = 0.01606988
#
# Stress axis : x y z
#
# Youngs Moduli (GPa) = 36.64599 54.60636 66.06953
#
# Poissons Ratio (x) = 0.42464 0.41363
# Poissons Ratio (y) = 0.28497 0.54814
# Poissons Ratio (z) = 0.22943 0.45303
#
# Static dielectric constant tensor:
#      x y z
#    x 1.533130 0.000000 0.000000 
#    y 0.000000 1.519490 0.000000 
#    z 0.000000 0.000000 1.518740 
# 
# From -- ./inp_files/11132.got.cif
#   From: 2010.05.17/outbox.cif.g08.bks.cpg/sg44_6_cif.got.tgz:11132.got - 2010.06.03 19:37:08.
