data_PCOD9374986
_publ_section_title
;
Structure prediction by ZEFSAII (Michael W. Deem and Ramdas Pophale) SiO2 
 PCOD9374986
Probable space group: I M M 2
;
_chemical_formula_sum "Si O2"
_cell_formula_units_Z 48
_cell_length_a 9.316774
_cell_length_b 7.910137
_cell_length_c 35.124834
_cell_angle_alpha 90.000000
_cell_angle_beta 90.000000
_cell_angle_gamma 90.000000
_cell_volume 2588.593442
_symmetry_space_group_name_H-M "I M M 2"
_symmetry_group_IT_number 44
_symmetry_cell_setting 'orthorhombic'
loop_
_space_group_symop_operation_xyz
x,y,z
-x,-y,z
-x,y,z
x,-y,z
1/2+x,1/2+y,1/2+z
1/2-x,1/2-y,1/2+z
1/2-x,1/2+y,1/2+z
1/2+x,1/2-y,1/2+z
loop_
_atom_site_type_symbol
_atom_site_label
_atom_site_fract_x
_atom_site_fract_y
_atom_site_fract_z
Si Si1 0.335336 0.799765 0.414370
Si Si2 0.672264 0.692397 0.330533
Si Si3 0.673314 0.500000 0.788332
Si Si4 0.332824 0.704649 0.564301
Si Si5 0.336185 0.204580 0.989404
Si Si6 0.824977 0.312017 0.148171
Si Si7 0.174584 0.000000 0.199462
O O1 0.500000 0.750120 0.422850
O O2 0.291001 0.709337 0.375370
O O3 0.240693 0.761165 0.450923
O O4 0.332249 0.000000 0.406572
O O5 0.500000 0.724040 0.327558
O O6 0.700673 0.500000 0.317886
O O7 0.759222 0.834087 0.307900
O O8 0.500000 0.500000 0.792014
O O9 0.712653 0.500000 0.743660
O O10 0.500000 0.751123 0.559528
O O11 0.325883 0.500000 0.566820
O O12 0.245754 0.761732 0.527426
O O13 0.280625 0.775661 0.604681
O O14 0.500000 0.262135 0.989943
O O15 0.334041 0.000000 0.989885
O O16 0.781356 0.500000 0.159845
O O17 0.775937 0.165786 0.176621
O O18 0.000000 0.306124 0.147778
O O19 0.000000 0.000000 0.197970
#
# Coordination Sequence:
#
# PCOD9374986 Si02
#       7
#     8   8   4   8   8   8   4
#     4  10  20  36  58  80 104 140 191 242 283 329
#     4  10  21  40  65  87 113 153 199 246 293 345
#     4  11  23  37  59  91 127 157 189 239 299 367
#     4   9  16  29  50  73 101 139 185 234 278 322
#     4  10  21  34  49  75 112 150 184 223 279 343
#     4   9  16  28  50  77 105 141 185 231 277 327
#     4   9  18  33  51  79 117 149 179 227 289 341
#
# _framework density 18.542888000000001
#
# number of rings (size 3 to 8) (size 9 to 14) (size 15 to 20)
#    0.000    2.333    1.667    1.250    0.000    4.333 
#    0.000    3.333    0.000    2.000    0.000    0.000 
#    0.000    0.000    0.000    0.000    0.000    0.000 
#
# Total GULP energy -133941.721106 kJ/mol
# GULP energy per Si atom -5580.905046 kJ/mol
# Density = 1.850068 g / cm^3
# Si number density = 18.542888 Si / 1000 Ang^3
#
#
#
# Elastic Constant Matrix: (Units=GPa)
#
#
# Indices 1 2 3 4 5 6 
#
# 1 53.0028 43.8394 59.9624 0.0000 0.0000 0.0000
# 2 43.8394 111.8389 78.5338 0.0000 0.0000 0.0000
# 3 59.9624 78.5338 154.2207 0.0000 0.0000 0.0000
# 4 0.0000 0.0000 0.0000 13.7444 0.0000 0.0000
# 5 0.0000 0.0000 0.0000 0.0000 20.6873 0.0000
# 6 0.0000 0.0000 0.0000 0.0000 0.0000 16.8377
#
#
#
# Elastic Compliance Matrix: (Units=1/GPa)
#
#
# Indices 1 2 3 4 5 6 
#
# 1 0.036731 -0.006802 -0.010818 0.000000 0.000000 0.000000
# 2 -0.006802 0.015178 -0.005084 0.000000 0.000000 0.000000
# 3 -0.010818 -0.005084 0.013279 0.000000 0.000000 0.000000
# 4 0.000000 0.000000 0.000000 0.072757 0.000000 0.000000
# 5 0.000000 0.000000 0.000000 0.000000 0.048339 0.000000
# 6 0.000000 0.000000 0.000000 0.000000 0.000000 0.059391
#
#
# Mechanical properties :
#
#
# Convention : Reuss Voigt Hill
#
# Bulk Modulus (GPa) = 50.55517 75.97041 63.26279
# Shear Modulus (GPa) = 16.79680 19.36899 18.08290
#
# Velocity S-wave (km/s) = 3.01297 3.23546 3.12620
# Velocity P-wave (km/s) = 6.27910 7.41732 6.87182
#
# Compressibility (1/GPa) = 0.01978037
#
# Stress axis : x y z
#
# Youngs Moduli (GPa) = 27.22511 65.88470 75.30494
#
# Poissons Ratio (x) = 0.44814 0.81461
# Poissons Ratio (y) = 0.18518 0.38289
# Poissons Ratio (z) = 0.29451 0.33499
#
# Static dielectric constant tensor:
#      x y z
#    x 1.623150 0.000000 0.000000 
#    y 0.000000 1.659460 0.000000 
#    z 0.000000 0.000000 1.610900 
# 
# From -- ./inp_files/26902.got.cif
#   From: 2010.05.17/outbox.cif.g08.bks.cpg/sg44_14_cif.got.tgz:26902.got - 2010.06.03 19:37:08.
