data_PCOD9374992
_publ_section_title
;
Structure prediction by ZEFSAII (Michael W. Deem and Ramdas Pophale) SiO2 
 PCOD9374992
Probable space group: I M M 2
;
_chemical_formula_sum "Si O2"
_cell_formula_units_Z 40
_cell_length_a 8.160148
_cell_length_b 26.669675
_cell_length_c 9.183432
_cell_angle_alpha 90.000000
_cell_angle_beta 90.000000
_cell_angle_gamma 90.000000
_cell_volume 1998.576486
_symmetry_space_group_name_H-M "I M M 2"
_symmetry_group_IT_number 44
_symmetry_cell_setting 'orthorhombic'
loop_
_space_group_symop_operation_xyz
x,y,z
-x,-y,z
-x,y,z
x,-y,z
1/2+x,1/2+y,1/2+z
1/2-x,1/2-y,1/2+z
1/2-x,1/2+y,1/2+z
1/2+x,1/2-y,1/2+z
loop_
_atom_site_type_symbol
_atom_site_label
_atom_site_fract_x
_atom_site_fract_y
_atom_site_fract_z
Si Si1 0.304115 0.899969 0.434930
Si Si2 0.200742 0.000000 0.933863
Si Si3 0.802604 0.899700 0.769180
Si Si4 0.698144 0.199308 0.266921
Si Si5 0.803835 0.000000 0.269043
Si Si6 0.198059 0.200493 0.931915
O O1 0.500000 0.897795 0.437910
O O2 0.243037 0.900083 0.600300
O O3 0.242867 0.850837 0.348599
O O4 0.252713 0.950332 0.352342
O O5 0.255734 0.050070 0.850536
O O6 0.254396 0.000000 0.101664
O O7 0.000000 0.000000 0.933094
O O8 0.742462 0.849402 0.849118
O O9 0.000000 0.899680 0.779116
O O10 0.500000 0.199191 0.271001
O O11 0.755815 0.249192 0.350692
O O12 0.751061 0.199979 0.099666
O O13 0.000000 0.000000 0.266918
O O14 0.000000 0.200403 0.926136
#
# Coordination Sequence:
#
# PCOD9374992 Si02
#       6
#     8   4   8   8   4   8
#     4  11  23  38  56  83 117 149 185 231 285 342
#     4   9  19  35  56  82 108 137 180 233 280 324
#     4  10  20  36  58  83 111 146 191 237 280 331
#     4  10  22  38  56  82 116 151 189 236 287 338
#     4  11  22  39  62  84 110 147 188 231 280 334
#     4  10  21  37  58  84 113 150 197 240 279 333
#
# _framework density 20.014244999999999
#
# number of rings (size 3 to 8) (size 9 to 14) (size 15 to 20)
#    0.000    1.800    0.000    3.900    0.000    5.600 
#    0.000    2.000    0.000    0.000    0.000    0.000 
#    0.000    0.000    0.000    0.000    0.000    0.000 
#
# Total GULP energy -111809.956258 kJ/mol
# GULP energy per Si atom -5590.497813 kJ/mol
# Density = 1.996869 g / cm^3
# Si number density = 20.014245 Si / 1000 Ang^3
#
#
#
# Elastic Constant Matrix: (Units=GPa)
#
#
# Indices 1 2 3 4 5 6 
#
# 1 7.3004 17.6089 2.9722 0.0001 0.0001 0.0000
# 2 17.6089 253.4992 149.8762 0.0000 0.0000 0.0000
# 3 2.9722 149.8762 231.6811 0.0009 0.0003 -0.0001
# 4 0.0001 0.0000 0.0009 49.1025 0.0000 0.0000
# 5 0.0001 0.0000 0.0003 0.0000 30.5655 0.0000
# 6 0.0000 0.0000 -0.0001 0.0000 0.0000 -1.4349
#
#
#
# Elastic Compliance Matrix: (Units=1/GPa)
#
#
# Indices 1 2 3 4 5 6 
#
# 1 0.175733 -0.017609 0.009137 -0.000001 -0.000001 -0.000003
# 2 -0.017609 0.008152 -0.005048 0.000000 0.000000 0.000001
# 3 0.009137 -0.005048 0.007465 0.000000 0.000000 -0.000001
# 4 -0.000001 0.000000 0.000000 0.020366 0.000000 0.000000
# 5 -0.000001 0.000000 0.000000 0.000000 0.032717 -0.000001
# 6 -0.000003 0.000001 -0.000001 0.000000 -0.000001 -0.696895
#
#
# Mechanical properties :
#
#
# Convention : Reuss Voigt Hill
#
# Bulk Modulus (GPa) = 6.08605 92.59948 49.34276
# Shear Modulus (GPa) = -13.48973 37.11484 11.81255
#
# Velocity S-wave (km/s) = -2.59898 4.31097 2.43205
# Velocity P-wave (km/s) = 2.44107 8.43484 5.70910
#
# Compressibility (1/GPa) = 0.16431014
#
# Stress axis : x y z
#
# Youngs Moduli (GPa) = 5.69045 122.66196 133.96479
#
# Poissons Ratio (x) = 2.15995 -1.22402
# Poissons Ratio (y) = 0.10020 0.67625
# Poissons Ratio (z) = -0.05199 0.61920
#
# Static dielectric constant tensor:
#      x y z
#    x 1.702160 0.000000 0.000000 
#    y 0.000000 1.694260 0.000000 
#    z 0.000000 0.000000 1.647990 
# 
# From -- ./inp_files/4657.got.cif
#   From: 2010.05.17/outbox.cif.g08.bks.cpg/sg44_3_cif.got.tgz:4657.got - 2010.06.03 19:37:08.
