data_PCOD9374683
_publ_section_title
;
Structure prediction by ZEFSAII (Michael W. Deem and Ramdas Pophale) SiO2 
 PCOD9374683
Probable space group: I M M 2
;
_chemical_formula_sum "Si O2"
_cell_formula_units_Z 58
_cell_length_a 13.291761
_cell_length_b 9.059221
_cell_length_c 24.042859
_cell_angle_alpha 90.000000
_cell_angle_beta 90.000000
_cell_angle_gamma 90.000000
_cell_volume 2895.072790
_symmetry_space_group_name_H-M "I M M 2"
_symmetry_group_IT_number 44
_symmetry_cell_setting 'orthorhombic'
loop_
_space_group_symop_operation_xyz
x,y,z
-x,-y,z
-x,y,z
x,-y,z
1/2+x,1/2+y,1/2+z
1/2-x,1/2-y,1/2+z
1/2-x,1/2+y,1/2+z
1/2+x,1/2-y,1/2+z
loop_
_atom_site_type_symbol
_atom_site_label
_atom_site_fract_x
_atom_site_fract_y
_atom_site_fract_z
Si Si1 0.117739 0.326468 0.434100
Si Si2 0.792033 0.325898 0.881996
Si Si3 0.500000 0.000000 0.757808
Si Si4 0.384674 0.822974 0.264529
Si Si5 0.618729 0.166369 0.502008
Si Si6 0.188249 0.663847 0.213587
Si Si7 0.704330 0.673605 0.606177
Si Si8 0.615279 0.323735 0.053506
O O1 0.135392 0.500000 0.444177
O O2 0.190050 0.267766 0.385796
O O3 0.138418 0.236724 0.491186
O O4 0.000000 0.307332 0.420372
O O5 0.766758 0.500000 0.880396
O O6 0.864246 0.296577 0.830218
O O7 0.845838 0.294564 0.940410
O O8 0.591538 0.127183 0.752283
O O9 0.500000 0.776827 0.250031
O O10 0.287457 0.744870 0.237100
O O11 0.378474 0.000000 0.254508
O O12 0.500000 0.159064 0.501469
O O13 0.650984 0.278695 0.549302
O O14 0.657296 0.000000 0.515407
O O15 0.221117 0.500000 0.194584
O O16 0.153259 0.753365 0.159498
O O17 0.710419 0.500000 0.612026
O O18 0.814069 0.745336 0.597860
O O19 0.500000 0.284393 0.064288
O O20 0.624880 0.500000 0.054413
#
# Coordination Sequence:
#
# PCOD9374683 Si02
#       8
#     8   8   2   8   8   8   8   8
#     4  10  20  34  52  80 120 166 210 260 318 372
#     4  10  20  37  61  90 125 169 212 256 314 385
#     4   8  24  48  72  92 124 164 226 278 324 406
#     4  10  22  43  70 100 134 167 214 275 336 393
#     4  10  21  36  58  86 121 165 209 248 301 371
#     4  10  23  45  69  91 123 168 219 270 334 390
#     4  12  24  37  59  92 126 162 208 260 321 383
#     4  10  20  35  56  82 117 163 211 260 311 375
#
# _framework density 20.034039
#
# number of rings (size 3 to 8) (size 9 to 14) (size 15 to 20)
#    0.414    1.379    1.379    2.897    0.966    4.966 
#    1.241    1.034    0.000    2.483    0.000    0.000 
#    0.000    0.000    0.000    0.000    0.000    0.000 
#
# Total GULP energy -161483.698095 kJ/mol
# GULP energy per Si atom -5568.403383 kJ/mol
# Density = 1.998844 g / cm^3
# Si number density = 20.034039 Si / 1000 Ang^3
#
#
#
# Elastic Constant Matrix: (Units=GPa)
#
#
# Indices 1 2 3 4 5 6 
#
# 1 95.1409 22.6920 12.0191 0.0000 0.0000 0.0000
# 2 22.6920 72.8801 24.6984 0.0000 0.0000 0.0000
# 3 12.0191 24.6984 36.1982 0.0000 0.0000 0.0000
# 4 0.0000 0.0000 0.0000 21.8098 0.0000 0.0000
# 5 0.0000 0.0000 0.0000 0.0000 17.0105 0.0000
# 6 0.0000 0.0000 0.0000 0.0000 0.0000 32.6593
#
#
#
# Elastic Compliance Matrix: (Units=1/GPa)
#
#
# Indices 1 2 3 4 5 6 
#
# 1 0.011441 -0.002959 -0.001780 0.000000 0.000000 0.000000
# 2 -0.002959 0.018614 -0.011718 0.000000 0.000000 0.000000
# 3 -0.001780 -0.011718 0.036212 0.000000 0.000000 0.000000
# 4 0.000000 0.000000 0.000000 0.045851 0.000000 0.000000
# 5 0.000000 0.000000 0.000000 0.000000 0.058787 0.000000
# 6 0.000000 0.000000 0.000000 0.000000 0.000000 0.030619
#
#
# Mechanical properties :
#
#
# Convention : Reuss Voigt Hill
#
# Bulk Modulus (GPa) = 29.98210 35.89314 32.93762
# Shear Modulus (GPa) = 20.36203 23.94990 22.15596
#
# Velocity S-wave (km/s) = 3.19152 3.46129 3.32914
# Velocity P-wave (km/s) = 5.34594 5.82486 5.59053
#
# Compressibility (1/GPa) = 0.03335324
#
# Stress axis : x y z
#
# Youngs Moduli (GPa) = 87.40206 53.72428 27.61534
#
# Poissons Ratio (x) = 0.15898 0.04915
# Poissons Ratio (y) = 0.25864 0.32359
# Poissons Ratio (z) = 0.15556 0.62952
#
# Static dielectric constant tensor:
#      x y z
#    x 1.746000 0.000000 0.000000 
#    y 0.000000 1.698190 0.000000 
#    z 0.000000 0.000000 1.735470 
# 
# From -- ./inp_files/25690.got.cif
#   From: 2010.05.17/outbox.cif.g08.bks.cpg/sg44_13_cif.got.tgz:25690.got - 2010.06.03 19:37:08.
