data_PCOD9374301
_publ_section_title
;
Structure prediction by ZEFSAII (Michael W. Deem and Ramdas Pophale) SiO2 
 PCOD9374301
Probable space group: I M M 2
;
_chemical_formula_sum "Si O2"
_cell_formula_units_Z 64
_cell_length_a 8.631729
_cell_length_b 28.706227
_cell_length_c 12.975654
_cell_angle_alpha 90.000000
_cell_angle_beta 90.000000
_cell_angle_gamma 90.000000
_cell_volume 3215.164279
_symmetry_space_group_name_H-M "I M M 2"
_symmetry_group_IT_number 44
_symmetry_cell_setting 'orthorhombic'
loop_
_space_group_symop_operation_xyz
x,y,z
-x,-y,z
-x,y,z
x,-y,z
1/2+x,1/2+y,1/2+z
1/2-x,1/2-y,1/2+z
1/2-x,1/2+y,1/2+z
1/2+x,1/2-y,1/2+z
loop_
_atom_site_type_symbol
_atom_site_label
_atom_site_fract_x
_atom_site_fract_y
_atom_site_fract_z
Si Si1 0.186508 0.621895 0.857530
Si Si2 0.324033 0.181456 0.695650
Si Si3 0.312094 0.446093 0.681454
Si Si4 0.311533 0.049850 0.528667
Si Si5 0.323762 0.071936 0.749175
Si Si6 0.683173 0.699112 0.408181
Si Si7 0.685645 0.406373 0.460465
Si Si8 0.317015 0.704673 0.974457
O O1 0.246002 0.592040 0.760799
O O2 0.251919 0.673158 0.880408
O O3 0.000000 0.623870 0.854711
O O4 0.238838 0.591780 0.957224
O O5 0.500000 0.199667 0.704388
O O6 0.328917 0.126587 0.720277
O O7 0.217406 0.201594 0.785970
O O8 0.262063 0.189163 0.581342
O O9 0.500000 0.444652 0.686550
O O10 0.264690 0.500000 0.701763
O O11 0.263516 0.430492 0.566188
O O12 0.500000 0.052995 0.535488
O O13 0.252430 0.050980 0.645454
O O14 0.272674 0.000000 0.480396
O O15 0.500000 0.055281 0.761072
O O16 0.240014 0.067357 0.857614
O O17 0.500000 0.703820 0.427345
O O18 0.734925 0.647987 0.448833
O O19 0.773926 0.741532 0.458467
O O20 0.500000 0.405913 0.460453
O O21 0.500000 0.698231 0.980866
#
# Coordination Sequence:
#
# PCOD9374301 Si02
#       8
#     8   8   8   8   8   8   8   8
#     4  11  22  39  60  85 117 156 205 258 308 365
#     4  10  19  36  58  82 115 153 191 241 302 361
#     4  10  22  41  62  86 123 168 210 256 312 373
#     4   9  17  31  53  82 114 146 182 232 294 352
#     4   9  17  32  55  82 112 147 187 235 292 350
#     4  10  21  38  59  86 117 156 205 257 311 371
#     4   9  20  38  59  83 116 157 199 245 300 358
#     4  12  24  38  59  87 119 159 205 253 311 377
#
# _framework density 19.905671000000002
#
# number of rings (size 3 to 8) (size 9 to 14) (size 15 to 20)
#    0.000    2.000    1.250    2.625    0.000    3.750 
#    0.000    3.750    0.000    1.500    0.000    0.000 
#    0.000    0.000    0.000    0.000    0.000    0.000 
#
# Total GULP energy -178555.589740 kJ/mol
# GULP energy per Si atom -5579.862179 kJ/mol
# Density = 1.986036 g / cm^3
# Si number density = 19.905671 Si / 1000 Ang^3
#
#
#
# Elastic Constant Matrix: (Units=GPa)
#
#
# Indices 1 2 3 4 5 6 
#
# 1 37.3125 10.7945 8.9168 -0.0001 0.0000 0.0000
# 2 10.7945 50.4890 12.8841 -0.0002 0.0000 0.0001
# 3 8.9168 12.8841 96.7458 -0.0003 0.0000 -0.0001
# 4 -0.0001 -0.0002 -0.0003 22.1284 0.0000 0.0000
# 5 0.0000 0.0000 0.0000 0.0000 31.6776 0.0000
# 6 0.0000 0.0001 -0.0001 0.0000 0.0000 -13.1494
#
#
#
# Elastic Compliance Matrix: (Units=1/GPa)
#
#
# Indices 1 2 3 4 5 6 
#
# 1 0.028903 -0.005693 -0.001906 0.000000 0.000000 0.000000
# 2 -0.005693 0.021624 -0.002355 0.000000 0.000000 0.000000
# 3 -0.001906 -0.002355 0.010826 0.000000 0.000000 0.000000
# 4 0.000000 0.000000 0.000000 0.045191 0.000000 0.000000
# 5 0.000000 0.000000 0.000000 0.000000 0.031568 0.000000
# 6 0.000000 0.000000 0.000000 0.000000 0.000000 -0.076049
#
#
# Mechanical properties :
#
#
# Convention : Reuss Voigt Hill
#
# Bulk Modulus (GPa) = 24.12824 27.74871 25.93848
# Shear Modulus (GPa) = 52.19957 18.26145 35.23051
#
# Velocity S-wave (km/s) = 5.12644 3.03215 4.21155
# Velocity P-wave (km/s) = 6.86936 5.12142 6.05876
#
# Compressibility (1/GPa) = 0.04144520
#
# Stress axis : x y z
#
# Youngs Moduli (GPa) = 34.59835 46.24391 92.37320
#
# Poissons Ratio (x) = 0.26327 0.17604
# Poissons Ratio (y) = 0.19697 0.21755
# Poissons Ratio (z) = 0.06594 0.10891
#
# Static dielectric constant tensor:
#      x y z
#    x 1.680010 0.000000 0.000000 
#    y 0.000000 1.720110 0.000000 
#    z 0.000000 0.000000 1.694810 
# 
# From -- ./inp_files/11544.got.cif
#   From: 2010.05.17/outbox.cif.g08.bks.cpg/sg44_6_cif.got.tgz:11544.got - 2010.06.03 19:37:08.
