data_PCOD9374734
_publ_section_title
;
Structure prediction by ZEFSAII (Michael W. Deem and Ramdas Pophale) SiO2 
 PCOD9374734
Probable space group: I M M 2
;
_chemical_formula_sum "Si O2"
_cell_formula_units_Z 40
_cell_length_a 11.970970
_cell_length_b 7.695136
_cell_length_c 20.861986
_cell_angle_alpha 90.000000
_cell_angle_beta 90.000000
_cell_angle_gamma 90.000000
_cell_volume 1921.769479
_symmetry_space_group_name_H-M "I M M 2"
_symmetry_group_IT_number 44
_symmetry_cell_setting 'orthorhombic'
loop_
_space_group_symop_operation_xyz
x,y,z
-x,-y,z
-x,y,z
x,-y,z
1/2+x,1/2+y,1/2+z
1/2-x,1/2-y,1/2+z
1/2-x,1/2+y,1/2+z
1/2+x,1/2-y,1/2+z
loop_
_atom_site_type_symbol
_atom_site_label
_atom_site_fract_x
_atom_site_fract_y
_atom_site_fract_z
Si Si1 0.629260 0.787094 0.900060
Si Si2 0.624299 0.707010 0.644834
Si Si3 0.777299 0.712338 0.533195
Si Si4 0.248884 0.795385 0.773410
Si Si5 0.000000 0.707501 0.754085
Si Si6 0.500000 0.211664 0.108117
O O1 0.500000 0.735214 0.908961
O O2 0.678594 0.724624 0.832554
O O3 0.629705 0.000000 0.899830
O O4 0.705837 0.731660 0.959994
O O5 0.500000 0.776573 0.658557
O O6 0.615335 0.500000 0.637364
O O7 0.676354 0.774106 0.578160
O O8 0.707798 0.731600 0.704531
O O9 0.773524 0.500000 0.532308
O O10 0.889689 0.764127 0.570574
O O11 0.117636 0.762508 0.783895
O O12 0.266976 0.000000 0.772224
O O13 0.000000 0.774605 0.680837
O O14 0.000000 0.500000 0.752058
O O15 0.500000 0.000000 0.109647
#
# Coordination Sequence:
#
# PCOD9374734 Si02
#       6
#     8   8   8   8   4   4
#     4   9  17  30  50  77 109 141 176 223 273 318
#     4  10  20  34  54  81 109 143 186 227 269 320
#     4   9  15  28  51  79 104 132 178 234 272 305
#     4  11  22  35  53  82 113 142 177 223 280 330
#     4  11  21  37  59  81 105 140 181 222 270 327
#     4   9  14  25  53  81  97 118 169 230 272 305
#
# _framework density 20.814150999999999
#
# number of rings (size 3 to 8) (size 9 to 14) (size 15 to 20)
#    0.000    2.200    3.000    1.500    0.000    1.200 
#    1.800    0.000    0.000    2.400    0.000    0.000 
#    0.000    0.000    0.000    0.000    0.000    0.000 
#
# Total GULP energy -111609.844734 kJ/mol
# GULP energy per Si atom -5580.492237 kJ/mol
# Density = 2.076678 g / cm^3
# Si number density = 20.814151 Si / 1000 Ang^3
#
#
#
# Elastic Constant Matrix: (Units=GPa)
#
#
# Indices 1 2 3 4 5 6 
#
# 1 114.2892 -1.2977 46.4569 0.0000 0.0000 0.0000
# 2 -1.2977 34.3667 3.9858 0.0000 0.0000 0.0000
# 3 46.4569 3.9858 129.8333 0.0000 0.0000 0.0000
# 4 0.0000 0.0000 0.0000 10.4179 0.0000 0.0000
# 5 0.0000 0.0000 0.0000 0.0000 41.5352 0.0000
# 6 0.0000 0.0000 0.0000 0.0000 0.0000 11.9762
#
#
#
# Elastic Compliance Matrix: (Units=1/GPa)
#
#
# Indices 1 2 3 4 5 6 
#
# 1 0.010262 0.000816 -0.003697 0.000000 0.000000 0.000000
# 2 0.000816 0.029267 -0.001191 0.000000 0.000000 0.000000
# 3 -0.003697 -0.001191 0.009062 0.000000 0.000000 0.000000
# 4 0.000000 0.000000 0.000000 0.095988 0.000000 0.000000
# 5 0.000000 0.000000 0.000000 0.000000 0.024076 0.000000
# 6 0.000000 0.000000 0.000000 0.000000 0.000000 0.083499
#
#
# Mechanical properties :
#
#
# Convention : Reuss Voigt Hill
#
# Bulk Modulus (GPa) = 24.72326 41.86435 33.29380
# Shear Modulus (GPa) = 18.26294 28.07548 23.16921
#
# Velocity S-wave (km/s) = 2.96536 3.67667 3.34001
# Velocity P-wave (km/s) = 4.86090 6.17908 5.55920
#
# Compressibility (1/GPa) = 0.04044774
#
# Stress axis : x y z
#
# Youngs Moduli (GPa) = 97.44934 34.16835 110.35622
#
# Poissons Ratio (x) = -0.02789 0.40798
# Poissons Ratio (y) = -0.07954 0.13139
# Poissons Ratio (z) = 0.36026 0.04068
#
# Static dielectric constant tensor:
#      x y z
#    x 1.707860 0.000000 0.000000 
#    y 0.000000 1.794800 0.000000 
#    z 0.000000 0.000000 1.737150 
# 
# From -- ./inp_files/22776.got.cif
#   From: 2010.05.17/outbox.cif.g08.bks.cpg/sg44_12_cif.got.tgz:22776.got - 2010.06.03 19:37:08.
