data_PCOD9374845
_publ_section_title
;
Structure prediction by ZEFSAII (Michael W. Deem and Ramdas Pophale) SiO2 
 PCOD9374845
Probable space group: I M M 2
;
_chemical_formula_sum "Si O2"
_cell_formula_units_Z 64
_cell_length_a 8.020846
_cell_length_b 29.374294
_cell_length_c 13.027512
_cell_angle_alpha 90.000000
_cell_angle_beta 90.000000
_cell_angle_gamma 90.000000
_cell_volume 3069.368962
_symmetry_space_group_name_H-M "I M M 2"
_symmetry_group_IT_number 44
_symmetry_cell_setting 'orthorhombic'
loop_
_space_group_symop_operation_xyz
x,y,z
-x,-y,z
-x,y,z
x,-y,z
1/2+x,1/2+y,1/2+z
1/2-x,1/2-y,1/2+z
1/2-x,1/2+y,1/2+z
1/2+x,1/2-y,1/2+z
loop_
_atom_site_type_symbol
_atom_site_label
_atom_site_fract_x
_atom_site_fract_y
_atom_site_fract_z
Si Si1 0.805202 0.120082 0.785270
Si Si2 0.809377 0.429085 0.896439
Si Si3 0.204673 0.052213 0.962704
Si Si4 0.692761 0.178110 0.445058
Si Si5 0.200791 0.293299 0.169066
Si Si6 0.702018 0.950611 0.616938
Si Si7 0.698905 0.594189 0.677755
Si Si8 0.305507 0.695201 0.726088
O O1 0.739658 0.170146 0.757638
O O2 0.775264 0.089394 0.684497
O O3 0.000000 0.125336 0.804895
O O4 0.736370 0.089447 0.879073
O O5 0.808245 0.375813 0.926362
O O6 0.731118 0.432184 0.784260
O O7 0.000000 0.444671 0.886708
O O8 0.736146 0.450581 0.999462
O O9 0.258763 0.068698 0.075960
O O10 0.000000 0.051956 0.960122
O O11 0.257430 0.000000 0.942417
O O12 0.500000 0.193826 0.438119
O O13 0.758518 0.188899 0.557919
O O14 0.791656 0.197778 0.349142
O O15 0.267978 0.242348 0.185147
O O16 0.000000 0.291244 0.164965
O O17 0.500000 0.944759 0.613673
O O18 0.739225 0.000000 0.663703
O O19 0.500000 0.598009 0.667833
O O20 0.766516 0.646190 0.690592
O O21 0.500000 0.694375 0.696678
#
# Coordination Sequence:
#
# PCOD9374845 Si02
#       8
#     8   8   8   8   8   8   8   8
#     4  11  22  35  55  81 109 142 187 238 277 327
#     4   9  17  32  52  76 104 137 174 217 269 323
#     4   9  19  36  56  79 111 148 182 225 283 336
#     4   9  17  32  53  72 101 141 175 215 269 329
#     4  10  20  36  55  76 107 148 186 226 282 340
#     4  10  20  35  55  78 108 144 177 215 273 338
#     4   9  18  34  55  78 106 143 184 224 272 330
#     4   9  19  33  52  79 107 138 181 231 275 323
#
# _framework density 20.851192999999999
#
# number of rings (size 3 to 8) (size 9 to 14) (size 15 to 20)
#    0.000    2.500    1.250    0.750    0.000    3.750 
#    0.000    3.750    0.000    4.500    0.000    0.000 
#    0.000    0.000    0.000    0.000    0.000    0.000 
#
# Total GULP energy -178385.383416 kJ/mol
# GULP energy per Si atom -5574.543232 kJ/mol
# Density = 2.080373 g / cm^3
# Si number density = 20.851193 Si / 1000 Ang^3
#
#
#
# Elastic Constant Matrix: (Units=GPa)
#
#
# Indices 1 2 3 4 5 6 
#
# 1 9.1400 0.6508 -5.4828 -0.0002 -0.0018 0.0000
# 2 0.6508 59.7075 20.3672 -0.0008 -0.0138 0.0000
# 3 -5.4828 20.3672 101.3749 -0.0017 -0.0261 0.0000
# 4 -0.0002 -0.0008 -0.0017 22.5931 -0.0149 0.0000
# 5 -0.0018 -0.0138 -0.0261 -0.0149 332.8269 0.0003
# 6 0.0000 0.0000 0.0000 0.0000 0.0003 17.8365
#
#
#
# Elastic Compliance Matrix: (Units=1/GPa)
#
#
# Indices 1 2 3 4 5 6 
#
# 1 0.113788 -0.003585 0.006875 0.000001 0.000001 0.000000
# 2 -0.003585 0.018094 -0.003829 0.000000 0.000000 0.000000
# 3 0.006875 -0.003829 0.011005 0.000001 0.000001 0.000000
# 4 0.000001 0.000000 0.000001 0.044261 0.000002 0.000000
# 5 0.000001 0.000000 0.000001 0.000002 0.003005 0.000000
# 6 0.000000 0.000000 0.000000 0.000000 0.000000 0.056065
#
#
# Mechanical properties :
#
#
# Convention : Reuss Voigt Hill
#
# Bulk Modulus (GPa) = 7.05181 22.36586 14.70883
# Shear Modulus (GPa) = 16.97408 84.96378 50.96893
#
# Velocity S-wave (km/s) = 2.85627 6.39032 4.94946
# Velocity P-wave (km/s) = 3.77717 8.07452 6.30337
#
# Compressibility (1/GPa) = 0.14180754
#
# Stress axis : x y z
#
# Youngs Moduli (GPa) = 8.78826 55.26830 90.86376
#
# Poissons Ratio (x) = 0.19815 -0.62465
# Poissons Ratio (y) = 0.03151 0.34792
# Poissons Ratio (z) = -0.06042 0.21163
#
# Static dielectric constant tensor:
#      x y z
#    x 1.762020 0.000000 0.000000 
#    y 0.000000 1.772400 0.000000 
#    z 0.000000 0.000000 1.746460 
# 
# From -- ./inp_files/11509.got.cif
#   From: 2010.05.17/outbox.cif.g08.bks.cpg/sg44_6_cif.got.tgz:11509.got - 2010.06.03 19:37:08.
