data_PCOD9374226
_publ_section_title
;
Structure prediction by ZEFSAII (Michael W. Deem and Ramdas Pophale) SiO2 
 PCOD9374226
Probable space group: I M M 2
;
_chemical_formula_sum "Si O2"
_cell_formula_units_Z 48
_cell_length_a 7.863269
_cell_length_b 20.845244
_cell_length_c 14.899142
_cell_angle_alpha 90.000000
_cell_angle_beta 90.000000
_cell_angle_gamma 90.000000
_cell_volume 2442.144602
_symmetry_space_group_name_H-M "I M M 2"
_symmetry_group_IT_number 44
_symmetry_cell_setting 'orthorhombic'
loop_
_space_group_symop_operation_xyz
x,y,z
-x,-y,z
-x,y,z
x,-y,z
1/2+x,1/2+y,1/2+z
1/2-x,1/2-y,1/2+z
1/2-x,1/2+y,1/2+z
1/2+x,1/2-y,1/2+z
loop_
_atom_site_type_symbol
_atom_site_label
_atom_site_fract_x
_atom_site_fract_y
_atom_site_fract_z
Si Si1 0.800944 0.571283 0.576340
Si Si2 0.206822 0.233856 0.784176
Si Si3 0.798383 0.882892 0.270030
Si Si4 0.291779 0.427524 0.966013
Si Si5 0.801278 0.799207 0.983898
Si Si6 0.698584 0.319443 0.100687
O O1 0.731711 0.500000 0.557993
O O2 0.782624 0.586314 0.682049
O O3 0.718398 0.629542 0.522154
O O4 0.000000 0.571825 0.553922
O O5 0.266526 0.306780 0.771465
O O6 0.260265 0.208499 0.881681
O O7 0.270526 0.192225 0.699891
O O8 0.000000 0.234224 0.781558
O O9 0.735840 0.910517 0.364992
O O10 0.000000 0.894832 0.263733
O O11 0.500000 0.424155 0.964222
O O12 0.243958 0.500000 0.989274
O O13 0.228588 0.374923 0.037035
O O14 0.000000 0.781793 0.985596
O O15 0.710676 0.747773 0.047692
O O16 0.500000 0.335399 0.112609
#
# Coordination Sequence:
#
# PCOD9374226 Si02
#       6
#     8   8   8   8   8   8
#     4  11  24  40  57  80 113 153 191 232 288 344
#     4  10  21  35  54  83 116 145 183 233 281 333
#     4  11  20  32  56  87 115 146 183 230 283 336
#     4   9  18  32  52  81 113 144 183 226 271 328
#     4  11  22  36  56  83 113 146 189 236 279 329
#     4  10  19  35  57  79 109 149 187 226 277 334
#
# _framework density 19.654855000000001
#
# number of rings (size 3 to 8) (size 9 to 14) (size 15 to 20)
#    0.000    1.667    3.333    2.000    0.000    2.667 
#    0.000    0.833    0.000    4.500    0.000    0.000 
#    0.000    0.000    0.000    0.000    0.000    0.000 
#
# Total GULP energy -134052.950161 kJ/mol
# GULP energy per Si atom -5585.539590 kJ/mol
# Density = 1.961012 g / cm^3
# Si number density = 19.654855 Si / 1000 Ang^3
#
#
#
# Elastic Constant Matrix: (Units=GPa)
#
#
# Indices 1 2 3 4 5 6 
#
# 1 23.0045 -17.7356 -9.8273 0.0000 0.0000 0.0000
# 2 -17.7356 105.0885 24.1653 0.0000 0.0000 0.0000
# 3 -9.8273 24.1653 95.9451 0.0000 0.0000 0.0000
# 4 0.0000 0.0000 0.0000 18.7604 0.0000 0.0000
# 5 0.0000 0.0000 0.0000 0.0000 13.1378 0.0000
# 6 0.0000 0.0000 0.0000 0.0000 0.0000 -11.4722
#
#
#
# Elastic Compliance Matrix: (Units=1/GPa)
#
#
# Indices 1 2 3 4 5 6 
#
# 1 0.050902 0.007846 0.003237 0.000000 0.000000 0.000000
# 2 0.007846 0.011310 -0.002045 0.000000 0.000000 0.000000
# 3 0.003237 -0.002045 0.011269 0.000000 0.000000 0.000000
# 4 0.000000 0.000000 0.000000 0.053304 0.000000 0.000000
# 5 0.000000 0.000000 0.000000 0.000000 0.076116 0.000000
# 6 0.000000 0.000000 0.000000 0.000000 0.000000 -0.087167
#
#
# Mechanical properties :
#
#
# Convention : Reuss Voigt Hill
#
# Bulk Modulus (GPa) = 10.92197 24.13812 17.53004
# Shear Modulus (GPa) = 39.00864 19.24756 29.12810
#
# Velocity S-wave (km/s) = 4.45981 3.13274 3.85383
# Velocity P-wave (km/s) = 5.66470 5.03915 5.36106
#
# Compressibility (1/GPa) = 0.09155855
#
# Stress axis : x y z
#
# Youngs Moduli (GPa) = 19.64567 88.41565 88.73661
#
# Poissons Ratio (x) = -0.69372 -0.28728
# Poissons Ratio (y) = -0.15414 0.18147
# Poissons Ratio (z) = -0.06360 0.18081
#
# Static dielectric constant tensor:
#      x y z
#    x 1.706700 0.000000 0.000000 
#    y 0.000000 1.665700 0.000000 
#    z 0.000000 0.000000 1.687010 
# 
# From -- ./inp_files/16069.got.cif
#   From: 2010.05.17/outbox.cif.g08.bks.cpg/sg44_9_cif.got.tgz:16069.got - 2010.06.03 19:37:08.
