data_PCOD9374879
_publ_section_title
;
Structure prediction by ZEFSAII (Michael W. Deem and Ramdas Pophale) SiO2 
 PCOD9374879
Probable space group: I M M 2
;
_chemical_formula_sum "Si O2"
_cell_formula_units_Z 64
_cell_length_a 17.501461
_cell_length_b 24.859109
_cell_length_c 7.491429
_cell_angle_alpha 90.000000
_cell_angle_beta 90.000000
_cell_angle_gamma 90.000000
_cell_volume 3259.301459
_symmetry_space_group_name_H-M "I M M 2"
_symmetry_group_IT_number 44
_symmetry_cell_setting 'orthorhombic'
loop_
_space_group_symop_operation_xyz
x,y,z
-x,-y,z
-x,y,z
x,-y,z
1/2+x,1/2+y,1/2+z
1/2-x,1/2-y,1/2+z
1/2-x,1/2+y,1/2+z
1/2+x,1/2-y,1/2+z
loop_
_atom_site_type_symbol
_atom_site_label
_atom_site_fract_x
_atom_site_fract_y
_atom_site_fract_z
Si Si1 0.585152 0.646296 0.453430
Si Si2 0.148286 0.259007 0.031205
Si Si3 0.163688 0.438189 0.719953
Si Si4 0.700184 0.562464 0.000406
Si Si5 0.913476 0.329714 0.715187
Si Si6 0.178839 0.734234 0.427047
Si Si7 0.911960 0.157860 0.523032
Si Si8 0.285602 0.561833 0.420508
O O1 0.500000 0.627112 0.497723
O O2 0.602766 0.703032 0.544846
O O3 0.587692 0.657154 0.239661
O O4 0.650719 0.603020 0.490104
O O5 0.161769 0.283266 0.225822
O O6 0.231232 0.243700 0.951777
O O7 0.105904 0.298866 0.897772
O O8 0.137836 0.500000 0.736375
O O9 0.100040 0.392993 0.736081
O O10 0.208352 0.431928 0.532217
O O11 0.228325 0.428116 0.870829
O O12 0.676572 0.500000 0.978378
O O13 0.632535 0.604322 0.962838
O O14 0.723494 0.570070 0.208174
O O15 0.854194 0.307284 0.569722
O O16 0.000000 0.316974 0.660669
O O17 0.135462 0.790343 0.463015
O O18 0.000000 0.159659 0.463791
O O19 0.311268 0.500000 0.447312
#
# Coordination Sequence:
#
# PCOD9374879 Si02
#       8
#     8   8   8   8   8   8   8   8
#     4  10  20  35  56  85 124 162 199 247 303 361
#     4  12  24  41  64  89 121 166 210 252 304 368
#     4  10  22  41  65  88 114 154 204 252 305 362
#     4   9  19  36  59  86 117 158 206 251 294 354
#     4  12  26  43  64  95 130 158 202 259 311 372
#     4  12  24  41  64  89 121 166 210 252 304 368
#     4  10  20  35  56  85 124 162 199 247 303 361
#     4   9  19  36  59  86 117 158 206 251 294 354
#
# _framework density 19.636109000000001
#
# number of rings (size 3 to 8) (size 9 to 14) (size 15 to 20)
#    0.000    1.500    2.500    2.250    1.750    5.750 
#    0.000    2.500    0.000    2.250    0.000    5.250 
#    0.000    0.000    0.000    0.000    0.000    0.000 
#
# Total GULP energy -178905.248362 kJ/mol
# GULP energy per Si atom -5590.789011 kJ/mol
# Density = 1.959142 g / cm^3
# Si number density = 19.636109 Si / 1000 Ang^3
#
#
#
# Elastic Constant Matrix: (Units=GPa)
#
#
# Indices 1 2 3 4 5 6 
#
# 1 43.3182 14.4574 -13.8374 0.0000 0.0000 0.0000
# 2 14.4574 70.5944 3.7588 0.0000 0.0000 0.0000
# 3 -13.8374 3.7588 40.6342 0.0000 0.0000 0.0000
# 4 0.0000 0.0000 0.0000 16.6828 0.0000 0.0000
# 5 0.0000 0.0000 0.0000 0.0000 13.2436 0.0000
# 6 0.0000 0.0000 0.0000 0.0000 0.0000 6.3572
#
#
#
# Elastic Compliance Matrix: (Units=1/GPa)
#
#
# Indices 1 2 3 4 5 6 
#
# 1 0.028506 -0.006386 0.010298 0.000000 0.000000 0.000000
# 2 -0.006386 0.015666 -0.003624 0.000000 0.000000 0.000000
# 3 0.010298 -0.003624 0.028452 0.000000 0.000000 0.000000
# 4 0.000000 0.000000 0.000000 0.059942 0.000000 0.000000
# 5 0.000000 0.000000 0.000000 0.000000 0.075508 0.000000
# 6 0.000000 0.000000 0.000000 0.000000 0.000000 0.157302
#
#
# Mechanical properties :
#
#
# Convention : Reuss Voigt Hill
#
# Bulk Modulus (GPa) = 13.66122 18.14494 15.90308
# Shear Modulus (GPa) = 12.84684 17.26792 15.05738
#
# Velocity S-wave (km/s) = 2.56060 2.96868 2.77216
# Velocity P-wave (km/s) = 3.96415 4.58382 4.28520
#
# Compressibility (1/GPa) = 0.07319990
#
# Stress axis : x y z
#
# Youngs Moduli (GPa) = 35.08044 63.83148 35.14705
#
# Poissons Ratio (x) = 0.40764 -0.36195
# Poissons Ratio (y) = 0.22403 0.12737
# Poissons Ratio (z) = -0.36126 0.23132
#
# Static dielectric constant tensor:
#      x y z
#    x 1.647200 0.000000 0.000000 
#    y 0.000000 1.681110 0.000000 
#    z 0.000000 0.000000 1.714380 
# 
# From -- ./inp_files/7588.got.cif
#   From: 2010.05.17/outbox.cif.g08.bks.cpg/sg44_4_cif.got.tgz:7588.got - 2010.06.03 19:37:08.
