data_PCOD9374541
_publ_section_title
;
Structure prediction by ZEFSAII (Michael W. Deem and Ramdas Pophale) SiO2 
 PCOD9374541
Probable space group: I M M 2
;
_chemical_formula_sum "Si O2"
_cell_formula_units_Z 64
_cell_length_a 7.607109
_cell_length_b 9.517422
_cell_length_c 43.129725
_cell_angle_alpha 90.000000
_cell_angle_beta 90.000000
_cell_angle_gamma 90.000000
_cell_volume 3122.594960
_symmetry_space_group_name_H-M "I M M 2"
_symmetry_group_IT_number 44
_symmetry_cell_setting 'orthorhombic'
loop_
_space_group_symop_operation_xyz
x,y,z
-x,-y,z
-x,y,z
x,-y,z
1/2+x,1/2+y,1/2+z
1/2-x,1/2-y,1/2+z
1/2-x,1/2+y,1/2+z
1/2+x,1/2-y,1/2+z
loop_
_atom_site_type_symbol
_atom_site_label
_atom_site_fract_x
_atom_site_fract_y
_atom_site_fract_z
Si Si1 0.709107 0.158953 0.570450
Si Si2 0.209619 0.159415 0.265853
Si Si3 0.212082 0.337400 0.630933
Si Si4 0.211864 0.661052 0.392960
Si Si5 0.784326 0.161899 0.011654
Si Si6 0.711070 0.837146 0.198725
Si Si7 0.214640 0.662319 0.323775
Si Si8 0.290860 0.841257 0.452947
O O1 0.500000 0.148205 0.565653
O O2 0.735735 0.238798 0.602770
O O3 0.775886 0.253851 0.542080
O O4 0.780406 0.000000 0.570681
O O5 0.238098 0.226090 0.231833
O O6 0.278755 0.245567 0.295099
O O7 0.000000 0.150075 0.269670
O O8 0.281243 0.000000 0.265664
O O9 0.271635 0.500000 0.626705
O O10 0.271123 0.283937 0.665040
O O11 0.000000 0.341630 0.631412
O O12 0.272611 0.500000 0.398540
O O13 0.270384 0.706015 0.358437
O O14 0.263810 0.764327 0.420318
O O15 0.000000 0.656830 0.392374
O O16 0.724215 0.244342 0.980989
O O17 0.000000 0.160015 0.011685
O O18 0.727513 0.000000 0.011876
O O19 0.500000 0.837317 0.198149
O O20 0.771814 0.000000 0.199664
O O21 0.264906 0.500000 0.319717
O O22 0.000000 0.666688 0.323534
O O23 0.500000 0.851650 0.457763
O O24 0.219346 0.000000 0.453293
#
# Coordination Sequence:
#
# PCOD9374541 Si02
#       8
#     8   8   8   8   8   8   8   8
#     4  10  20  33  50  74 102 128 157 197 243 288
#     4   9  16  26  44  70  93 115 151 195 233 274
#     4   9  18  33  52  72  95 127 166 202 238 285
#     4   9  18  33  52  72  95 127 167 205 240 283
#     4   9  17  31  52  74  96 127 164 198 236 283
#     4   8  15  29  47  66  91 123 155 189 233 282
#     4   8  15  29  47  66  91 123 155 190 236 284
#     4  10  20  33  50  74 103 131 159 195 241 290
#
# _framework density 20.495774000000001
#
# number of rings (size 3 to 8) (size 9 to 14) (size 15 to 20)
#    0.000    3.000    0.000    2.625    0.000    4.500 
#    0.000    4.375    0.000    8.625    0.000    0.000 
#    0.000    0.000    0.000    0.000    0.000    0.000 
#
# Total GULP energy -178429.306052 kJ/mol
# GULP energy per Si atom -5575.915814 kJ/mol
# Density = 2.044912 g / cm^3
# Si number density = 20.495774 Si / 1000 Ang^3
#
#
#
# Elastic Constant Matrix: (Units=GPa)
#
#
# Indices 1 2 3 4 5 6 
#
# 1 39.4751 6.3601 0.4766 0.0000 0.0000 0.0000
# 2 6.3601 139.3298 125.4792 0.0000 0.0000 0.0000
# 3 0.4766 125.4792 232.9391 0.0000 0.0000 0.0000
# 4 0.0000 0.0000 0.0000 32.7904 0.0000 0.0000
# 5 0.0000 0.0000 0.0000 0.0000 20.8064 0.0000
# 6 0.0000 0.0000 0.0000 0.0000 0.0000 10.4205
#
#
#
# Elastic Compliance Matrix: (Units=1/GPa)
#
#
# Indices 1 2 3 4 5 6 
#
# 1 0.025671 -0.002184 0.001124 0.000000 0.000000 0.000000
# 2 -0.002184 0.014126 -0.007605 0.000000 0.000000 0.000000
# 3 0.001124 -0.007605 0.008387 0.000000 0.000000 0.000000
# 4 0.000000 0.000000 0.000000 0.030497 0.000000 0.000000
# 5 0.000000 0.000000 0.000000 0.000000 0.048062 0.000000
# 6 0.000000 0.000000 0.000000 0.000000 0.000000 0.095965
#
#
# Mechanical properties :
#
#
# Convention : Reuss Voigt Hill
#
# Bulk Modulus (GPa) = 32.41072 75.15288 53.78180
# Shear Modulus (GPa) = 19.97433 31.43201 25.70317
#
# Velocity S-wave (km/s) = 3.12518 3.92035 3.54513
# Velocity P-wave (km/s) = 5.37308 7.56567 6.56160
#
# Compressibility (1/GPa) = 0.03085399
#
# Stress axis : x y z
#
# Youngs Moduli (GPa) = 38.95483 70.79321 119.22987
#
# Poissons Ratio (x) = 0.15462 -0.13401
# Poissons Ratio (y) = 0.08508 0.90671
# Poissons Ratio (z) = -0.04378 0.53836
#
# Static dielectric constant tensor:
#      x y z
#    x 1.784820 0.000000 0.000000 
#    y 0.000000 1.709750 0.000000 
#    z 0.000000 0.000000 1.735940 
# 
# From -- ./inp_files/27452.got.cif
#   From: 2010.05.17/outbox.cif.g08.bks.cpg/sg44_14_cif.got.tgz:27452.got - 2010.06.03 19:37:08.
