data_PCOD9374307
_publ_section_title
;
Structure prediction by ZEFSAII (Michael W. Deem and Ramdas Pophale) SiO2 
 PCOD9374307
Probable space group: I M M 2
;
_chemical_formula_sum "Si O2"
_cell_formula_units_Z 58
_cell_length_a 7.375979
_cell_length_b 23.975537
_cell_length_c 15.333746
_cell_angle_alpha 90.000000
_cell_angle_beta 90.000000
_cell_angle_gamma 90.000000
_cell_volume 2711.666524
_symmetry_space_group_name_H-M "I M M 2"
_symmetry_group_IT_number 44
_symmetry_cell_setting 'orthorhombic'
loop_
_space_group_symop_operation_xyz
x,y,z
-x,-y,z
-x,y,z
x,-y,z
1/2+x,1/2+y,1/2+z
1/2-x,1/2-y,1/2+z
1/2-x,1/2+y,1/2+z
1/2+x,1/2-y,1/2+z
loop_
_atom_site_type_symbol
_atom_site_label
_atom_site_fract_x
_atom_site_fract_y
_atom_site_fract_z
Si Si1 0.791685 0.819284 0.970740
Si Si2 0.779547 0.273750 0.833437
Si Si3 0.783475 0.630151 0.081790
Si Si4 0.293934 0.439017 0.442662
Si Si5 0.286415 0.937056 0.743277
Si Si6 0.721569 0.900784 0.388052
Si Si7 0.713391 0.245738 0.136710
Si Si8 0.000000 0.000000 0.343654
O O1 0.716106 0.771369 0.905966
O O2 0.706326 0.880701 0.969348
O O3 0.000000 0.827022 0.941109
O O4 0.792497 0.798256 0.069411
O O5 0.733637 0.338347 0.852535
O O6 0.719382 0.256259 0.736213
O O7 0.000000 0.272402 0.836859
O O8 0.709941 0.602612 0.169575
O O9 0.744773 0.695135 0.090439
O O10 0.000000 0.622957 0.083906
O O11 0.727291 0.602971 0.991035
O O12 0.500000 0.440407 0.477385
O O13 0.211950 0.500000 0.462966
O O14 0.300197 0.434935 0.337733
O O15 0.500000 0.925062 0.757262
O O16 0.271661 0.000000 0.709458
O O17 0.500000 0.908396 0.380487
O O18 0.839766 0.950285 0.347393
O O19 0.500000 0.235277 0.141229
#
# Coordination Sequence:
#
# PCOD9374307 Si02
#       8
#     8   8   8   8   8   8   8   2
#     4  10  19  36  59  82 113 157 196 232 298 377
#     4   9  19  38  61  83 118 165 202 251 322 378
#     4  10  20  35  54  81 117 160 194 235 307 378
#     4   9  18  33  53  79 112 151 191 235 292 353
#     4   9  18  31  49  76 109 147 190 228 275 346
#     4  10  22  42  63  85 127 168 211 266 323 382
#     4  11  22  35  58  89 116 147 200 260 311 365
#     4  12  26  40  64  98 116 168 226 264 324 386
#
# _framework density 21.389060000000001
#
# number of rings (size 3 to 8) (size 9 to 14) (size 15 to 20)
#    0.000    2.207    1.379    1.448    1.931    2.207 
#    2.483    0.000    1.517    0.000    0.000    0.000 
#    0.000    0.000    0.000    0.000    0.000    0.000 
#
# Total GULP energy -161484.007626 kJ/mol
# GULP energy per Si atom -5568.414056 kJ/mol
# Density = 2.134038 g / cm^3
# Si number density = 21.389060 Si / 1000 Ang^3
#
#
#
# Elastic Constant Matrix: (Units=GPa)
#
#
# Indices 1 2 3 4 5 6 
#
# 1 94.4184 35.7372 1.8636 0.0000 0.0001 0.0000
# 2 35.7372 166.0368 30.4338 0.0000 0.0005 0.0000
# 3 1.8636 30.4338 56.0906 0.0001 0.0008 0.0001
# 4 0.0000 0.0000 0.0001 28.8542 -0.0001 0.0000
# 5 0.0001 0.0005 0.0008 -0.0001 164.0917 -0.0006
# 6 0.0000 0.0000 0.0001 0.0000 -0.0006 -4.4661
#
#
#
# Elastic Compliance Matrix: (Units=1/GPa)
#
#
# Indices 1 2 3 4 5 6 
#
# 1 0.011589 -0.002691 0.001075 0.000000 0.000000 0.000000
# 2 -0.002691 0.007313 -0.003878 0.000000 0.000000 0.000000
# 3 0.001075 -0.003878 0.019897 0.000000 0.000000 0.000000
# 4 0.000000 0.000000 0.000000 0.034657 0.000000 0.000000
# 5 0.000000 0.000000 0.000000 0.000000 0.006094 -0.000001
# 6 0.000000 0.000000 0.000000 0.000000 -0.000001 -0.223907
#
#
# Mechanical properties :
#
#
# Convention : Reuss Voigt Hill
#
# Bulk Modulus (GPa) = 35.95911 50.29056 43.12483
# Shear Modulus (GPa) = -40.29077 54.26335 6.98629
#
# Velocity S-wave (km/s) = -4.34488 5.04230 1.80925
# Velocity P-wave (km/s) = 2.88483 7.58043 4.95685
#
# Compressibility (1/GPa) = 0.02780936
#
# Stress axis : x y z
#
# Youngs Moduli (GPa) = 86.29161 136.74375 50.25892
#
# Poissons Ratio (x) = 0.36803 -0.05404
# Poissons Ratio (y) = 0.23224 0.19493
# Poissons Ratio (z) = -0.09279 0.53036
#
# Static dielectric constant tensor:
#      x y z
#    x 1.825420 0.000000 0.000000 
#    y 0.000000 1.851120 0.000000 
#    z 0.000000 0.000000 1.748020 
# 
# From -- ./inp_files/16696.got.cif
#   From: 2010.05.17/outbox.cif.g08.bks.cpg/sg44_9_cif.got.tgz:16696.got - 2010.06.03 19:37:08.
