data_PCOD9374016
_publ_section_title
;
Structure prediction by ZEFSAII (Michael W. Deem and Ramdas Pophale) SiO2 
 PCOD9374016
Probable space group: I M M 2
;
_chemical_formula_sum "Si O2"
_cell_formula_units_Z 64
_cell_length_a 8.082479
_cell_length_b 16.745687
_cell_length_c 23.100813
_cell_angle_alpha 90.000000
_cell_angle_beta 90.000000
_cell_angle_gamma 90.000000
_cell_volume 3126.617964
_symmetry_space_group_name_H-M "I M M 2"
_symmetry_group_IT_number 44
_symmetry_cell_setting 'orthorhombic'
loop_
_space_group_symop_operation_xyz
x,y,z
-x,-y,z
-x,y,z
x,-y,z
1/2+x,1/2+y,1/2+z
1/2-x,1/2-y,1/2+z
1/2-x,1/2+y,1/2+z
1/2+x,1/2-y,1/2+z
loop_
_atom_site_type_symbol
_atom_site_label
_atom_site_fract_x
_atom_site_fract_y
_atom_site_fract_z
Si Si1 0.309767 0.409481 0.582280
Si Si2 0.694463 0.240816 0.422982
Si Si3 0.815523 0.198661 0.298212
Si Si4 0.297556 0.910677 0.634266
Si Si5 0.817124 0.589864 0.704924
Si Si6 0.201025 0.586180 0.391810
Si Si7 0.192053 0.382311 0.263546
Si Si8 0.202928 0.733657 0.050535
O O1 0.500000 0.412431 0.562238
O O2 0.239022 0.500000 0.571755
O O3 0.305541 0.397070 0.651816
O O4 0.236973 0.325233 0.559824
O O5 0.500000 0.226327 0.416953
O O6 0.779845 0.205721 0.366090
O O7 0.725377 0.336294 0.421660
O O8 0.750032 0.209480 0.485273
O O9 0.697912 0.146131 0.259457
O O10 0.806488 0.287420 0.272102
O O11 0.000000 0.167170 0.289475
O O12 0.500000 0.907011 0.635372
O O13 0.237700 0.903705 0.700978
O O14 0.243490 0.834159 0.596355
O O15 0.253492 0.000000 0.612636
O O16 0.794930 0.500000 0.725761
O O17 0.000000 0.597590 0.678589
O O18 0.241934 0.500000 0.417984
O O19 0.260101 0.586723 0.324673
O O20 0.000000 0.594711 0.391224
O O21 0.000000 0.408542 0.262262
O O22 0.000000 0.736656 0.053426
#
# Coordination Sequence:
#
# PCOD9374016 Si02
#       8
#     8   8   8   8   8   8   8   8
#     4   9  17  31  52  75 100 134 173 209 248 301
#     4  10  20  33  48  68  98 133 171 215 256 294
#     4  10  19  33  53  73  96 129 168 207 250 305
#     4   9  15  24  42  68  95 122 153 192 242 296
#     4  10  20  33  50  76 107 131 156 201 261 317
#     4   9  17  30  48  72 101 128 157 198 248 305
#     4   8  14  25  45  72  96 118 148 192 243 292
#     4   9  18  31  46  67  97 133 173 214 250 291
#
# _framework density 20.469403
#
# number of rings (size 3 to 8) (size 9 to 14) (size 15 to 20)
#    0.000    2.750    0.000    3.000    0.000    5.000 
#    0.000    3.125    0.000    3.750    0.000    0.000 
#    0.000   20.500    0.000    0.000    0.000    0.000 
#
# Total GULP energy -178280.328263 kJ/mol
# GULP energy per Si atom -5571.260258 kJ/mol
# Density = 2.042281 g / cm^3
# Si number density = 20.469403 Si / 1000 Ang^3
#
#
#
# Elastic Constant Matrix: (Units=GPa)
#
#
# Indices 1 2 3 4 5 6 
#
# 1 18.7608 5.9880 -2.4405 0.0000 0.0000 0.0000
# 2 5.9880 67.7666 42.0506 0.0000 0.0000 0.0000
# 3 -2.4405 42.0506 85.5110 0.0000 0.0000 0.0000
# 4 0.0000 0.0000 0.0000 -7.6984 0.0000 0.0000
# 5 0.0000 0.0000 0.0000 0.0000 13.4106 0.0000
# 6 0.0000 0.0000 0.0000 0.0000 0.0000 3.4205
#
#
#
# Elastic Compliance Matrix: (Units=1/GPa)
#
#
# Indices 1 2 3 4 5 6 
#
# 1 0.056838 -0.008677 0.005889 0.000000 0.000000 0.000000
# 2 -0.008677 0.022561 -0.011342 0.000000 0.000000 0.000000
# 3 0.005889 -0.011342 0.017440 0.000000 0.000000 0.000000
# 4 0.000000 0.000000 0.000000 -0.129897 0.000000 0.000000
# 5 0.000000 0.000000 0.000000 0.000000 0.074568 0.000000
# 6 0.000000 0.000000 0.000000 0.000000 0.000000 0.292358
#
#
# Mechanical properties :
#
#
# Convention : Reuss Voigt Hill
#
# Bulk Modulus (GPa) = 14.58157 29.24828 21.91492
# Shear Modulus (GPa) = 12.98743 10.25590 11.62166
#
# Velocity S-wave (km/s) = 2.52162 2.24081 2.38535
# Velocity P-wave (km/s) = 3.95186 4.58419 4.27972
#
# Compressibility (1/GPa) = 0.06857970
#
# Stress axis : x y z
#
# Youngs Moduli (GPa) = 17.59384 44.32358 57.33904
#
# Poissons Ratio (x) = 0.38457 -0.33766
# Poissons Ratio (y) = 0.15265 0.65036
# Poissons Ratio (z) = -0.10361 0.50273
#
# Static dielectric constant tensor:
#      x y z
#    x 1.753070 0.000000 0.000000 
#    y 0.000000 1.766580 0.000000 
#    z 0.000000 0.000000 1.718820 
# 
# From -- ./inp_files/24371.got.cif
#   From: 2010.05.17/outbox.cif.g08.bks.cpg/sg44_13_cif.got.tgz:24371.got - 2010.06.03 19:37:08.
