data_PCOD9374940
_publ_section_title
;
Structure prediction by ZEFSAII (Michael W. Deem and Ramdas Pophale) SiO2 
 PCOD9374940
Probable space group: I M M 2
;
_chemical_formula_sum "Si O2"
_cell_formula_units_Z 48
_cell_length_a 7.855975
_cell_length_b 18.033102
_cell_length_c 17.688916
_cell_angle_alpha 90.000000
_cell_angle_beta 90.000000
_cell_angle_gamma 90.000000
_cell_volume 2505.946250
_symmetry_space_group_name_H-M "I M M 2"
_symmetry_group_IT_number 44
_symmetry_cell_setting 'orthorhombic'
loop_
_space_group_symop_operation_xyz
x,y,z
-x,-y,z
-x,y,z
x,-y,z
1/2+x,1/2+y,1/2+z
1/2-x,1/2-y,1/2+z
1/2-x,1/2+y,1/2+z
1/2+x,1/2-y,1/2+z
loop_
_atom_site_type_symbol
_atom_site_label
_atom_site_fract_x
_atom_site_fract_y
_atom_site_fract_z
Si Si1 0.795682 0.414978 0.828420
Si Si2 0.203773 0.159600 0.004224
Si Si3 0.500000 0.911355 0.907162
Si Si4 0.188091 0.089063 0.630923
Si Si5 0.203930 0.084833 0.160722
Si Si6 0.295943 0.833566 0.478772
Si Si7 0.500000 0.090493 0.734125
O O1 0.731156 0.500000 0.835315
O O2 0.754035 0.388059 0.744013
O O3 0.734997 0.364947 0.898056
O O4 0.000000 0.417813 0.833579
O O5 0.329803 0.116158 0.948932
O O6 0.232490 0.246457 0.989785
O O7 0.000000 0.144250 0.993480
O O8 0.252120 0.135168 0.089564
O O9 0.500000 0.884710 0.820414
O O10 0.500000 0.000000 0.907617
O O11 0.214832 0.122965 0.548438
O O12 0.334537 0.115074 0.687640
O O13 0.000000 0.107565 0.659494
O O14 0.201416 0.000000 0.624691
O O15 0.000000 0.080943 0.159645
O O16 0.270192 0.000000 0.151594
O O17 0.500000 0.845955 0.483255
O O18 0.500000 0.000000 0.734709
#
# Coordination Sequence:
#
# PCOD9374940 Si02
#       7
#     8   8   4   8   8   8   4
#     4   9  18  32  55  85 115 153 197 241 287 345
#     4  10  23  41  59  89 123 154 197 250 305 360
#     4  11  24  42  68  89 110 158 206 250 306 356
#     4  10  20  35  60  89 118 158 202 245 295 355
#     4   9  18  35  57  81 112 149 193 245 294 346
#     4  10  20  37  57  84 125 163 195 242 299 359
#     4   9  20  40  60  87 117 146 202 256 295 352
#
# _framework density 19.154442
#
# number of rings (size 3 to 8) (size 9 to 14) (size 15 to 20)
#    0.000    2.333    0.833    1.000    2.333    3.000 
#    3.000    3.333    0.000    0.000    0.000    0.000 
#    0.000    0.000    0.000    0.000    0.000    0.000 
#
# Total GULP energy -133926.862208 kJ/mol
# GULP energy per Si atom -5580.285925 kJ/mol
# Density = 1.911085 g / cm^3
# Si number density = 19.154442 Si / 1000 Ang^3
#
#
#
# Elastic Constant Matrix: (Units=GPa)
#
#
# Indices 1 2 3 4 5 6 
#
# 1 82.4226 46.6163 71.9337 0.0000 0.0000 0.0000
# 2 46.6163 48.1002 67.4843 0.0000 0.0000 0.0000
# 3 71.9337 67.4843 204.4130 0.0000 0.0000 0.0000
# 4 0.0000 0.0000 0.0000 3.6336 0.0000 0.0000
# 5 0.0000 0.0000 0.0000 0.0000 11.6272 0.0000
# 6 0.0000 0.0000 0.0000 0.0000 0.0000 19.4622
#
#
#
# Elastic Compliance Matrix: (Units=1/GPa)
#
#
# Indices 1 2 3 4 5 6 
#
# 1 0.027133 -0.024030 -0.001615 0.000000 0.000000 0.000000
# 2 -0.024030 0.060010 -0.011355 0.000000 0.000000 0.000000
# 3 -0.001615 -0.011355 0.009209 0.000000 0.000000 0.000000
# 4 0.000000 0.000000 0.000000 0.275213 0.000000 0.000000
# 5 0.000000 0.000000 0.000000 0.000000 0.086005 0.000000
# 6 0.000000 0.000000 0.000000 0.000000 0.000000 0.051382
#
#
# Mechanical properties :
#
#
# Convention : Reuss Voigt Hill
#
# Bulk Modulus (GPa) = 44.73968 78.55605 61.64787
# Shear Modulus (GPa) = 8.46879 16.87135 12.67007
#
# Velocity S-wave (km/s) = 2.10497 2.97106 2.57469
# Velocity P-wave (km/s) = 5.41442 7.27121 6.41040
#
# Compressibility (1/GPa) = 0.02235152
#
# Stress axis : x y z
#
# Youngs Moduli (GPa) = 36.85562 16.66384 108.58745
#
# Poissons Ratio (x) = 0.40043 0.17536
# Poissons Ratio (y) = 0.88565 1.23304
# Poissons Ratio (z) = 0.05952 0.18922
#
# Static dielectric constant tensor:
#      x y z
#    x 1.687300 0.000000 0.000000 
#    y 0.000000 1.626890 0.000000 
#    z 0.000000 0.000000 1.644580 
# 
# From -- ./inp_files/16146.got.cif
#   From: 2010.05.17/outbox.cif.g08.bks.cpg/sg44_9_cif.got.tgz:16146.got - 2010.06.03 19:37:08.
