data_PCOD9374259
_publ_section_title
;
Structure prediction by ZEFSAII (Michael W. Deem and Ramdas Pophale) SiO2 
 PCOD9374259
Probable space group: I M M 2
;
_chemical_formula_sum "Si O2"
_cell_formula_units_Z 64
_cell_length_a 17.586007
_cell_length_b 29.166613
_cell_length_c 6.301613
_cell_angle_alpha 90.000000
_cell_angle_beta 90.000000
_cell_angle_gamma 90.000000
_cell_volume 3232.250187
_symmetry_space_group_name_H-M "I M M 2"
_symmetry_group_IT_number 44
_symmetry_cell_setting 'orthorhombic'
loop_
_space_group_symop_operation_xyz
x,y,z
-x,-y,z
-x,y,z
x,-y,z
1/2+x,1/2+y,1/2+z
1/2-x,1/2-y,1/2+z
1/2-x,1/2+y,1/2+z
1/2+x,1/2-y,1/2+z
loop_
_atom_site_type_symbol
_atom_site_label
_atom_site_fract_x
_atom_site_fract_y
_atom_site_fract_z
Si Si1 0.637321 0.229683 0.904050
Si Si2 0.632594 0.049509 0.547487
Si Si3 0.689101 0.718174 0.270740
Si Si4 0.708000 0.087002 0.161460
Si Si5 0.203388 0.949176 0.777952
Si Si6 0.585458 0.871546 0.845947
Si Si7 0.323548 0.631051 0.972145
Si Si8 0.415167 0.684762 0.653213
O O1 0.725578 0.232085 0.831147
O O2 0.602481 0.182235 0.822311
O O3 0.589754 0.270687 0.802813
O O4 0.644164 0.240098 0.156566
O O5 0.654982 0.054012 0.301390
O O6 0.713764 0.048141 0.667131
O O7 0.592787 0.094711 0.642362
O O8 0.594767 0.000000 0.588396
O O9 0.644207 0.696552 0.468006
O O10 0.693490 0.676999 0.101869
O O11 0.750107 0.118653 0.331942
O O12 0.774162 0.064298 0.018250
O O13 0.651704 0.113107 0.005463
O O14 0.161958 0.909689 0.641611
O O15 0.168633 0.000000 0.767791
O O16 0.500000 0.877218 0.930744
O O17 0.388710 0.642866 0.802283
O O18 0.500000 0.677983 0.569769
#
# Coordination Sequence:
#
# PCOD9374259 Si02
#       8
#     8   8   8   8   8   8   8   8
#     4  11  22  39  61  86 114 154 201 254 310 368
#     4   9  19  36  56  79 114 158 204 250 298 355
#     4  11  22  38  62  87 115 155 205 250 306 365
#     4  10  19  35  59  86 116 156 205 254 306 357
#     4   9  17  32  58  91 117 143 190 250 302 353
#     4  11  24  37  53  82 121 160 205 258 308 362
#     4  10  21  37  60  87 120 155 195 248 304 368
#     4  11  24  40  60  88 121 159 203 249 305 371
#
# _framework density 19.800446999999998
#
# number of rings (size 3 to 8) (size 9 to 14) (size 15 to 20)
#    0.000    1.750    1.250    4.500    1.750    5.250 
#    0.000    0.000    0.000    0.375    0.000    0.000 
#    0.000    0.000    0.000    0.000    0.000    0.000 
#
# Total GULP energy -178385.943230 kJ/mol
# GULP energy per Si atom -5574.560726 kJ/mol
# Density = 1.975538 g / cm^3
# Si number density = 19.800447 Si / 1000 Ang^3
#
#
#
# Elastic Constant Matrix: (Units=GPa)
#
#
# Indices 1 2 3 4 5 6 
#
# 1 58.8275 18.2502 8.7791 -0.0006 -0.0014 -0.0002
# 2 18.2502 124.2786 33.1600 -0.0006 -0.0006 -0.0009
# 3 8.7791 33.1600 80.7127 0.0055 -0.0052 -0.0015
# 4 -0.0006 -0.0006 0.0055 17.7246 0.0006 0.0002
# 5 -0.0014 -0.0006 -0.0052 0.0006 9.7597 -0.0001
# 6 -0.0002 -0.0009 -0.0015 0.0002 -0.0001 -2.1236
#
#
#
# Elastic Compliance Matrix: (Units=1/GPa)
#
#
# Indices 1 2 3 4 5 6 
#
# 1 0.017878 -0.002366 -0.000973 0.000001 0.000002 0.000000
# 2 -0.002366 0.009350 -0.003584 0.000001 -0.000002 -0.000001
# 3 -0.000973 -0.003584 0.013968 -0.000004 0.000007 -0.000009
# 4 0.000001 0.000001 -0.000004 0.056419 -0.000003 0.000006
# 5 0.000002 -0.000002 0.000007 -0.000003 0.102462 -0.000003
# 6 0.000000 -0.000001 -0.000009 0.000006 -0.000003 -0.470901
#
#
# Mechanical properties :
#
#
# Convention : Reuss Voigt Hill
#
# Bulk Modulus (GPa) = 36.56178 42.68857 39.62517
# Shear Modulus (GPa) = -20.17247 18.64746 -0.76251
#
# Velocity S-wave (km/s) = -3.19531 3.07216 -0.62123
# Velocity P-wave (km/s) = 2.21176 5.84725 4.42054
#
# Compressibility (1/GPa) = 0.02735097
#
# Stress axis : x y z
#
# Youngs Moduli (GPa) = 55.93480 106.94994 71.59269
#
# Poissons Ratio (x) = 0.25303 0.06963
# Poissons Ratio (y) = 0.13233 0.25659
# Poissons Ratio (z) = 0.05440 0.38332
#
# Static dielectric constant tensor:
#      x y z
#    x 1.677970 0.000000 0.000000 
#    y 0.000000 1.759360 0.000000 
#    z 0.000000 0.000000 1.755150 
# 
# From -- ./inp_files/2181.got.cif
#   From: 2010.05.17/outbox.cif.g08.bks.cpg/sg44_2_cif.got.tgz:2181.got - 2010.06.03 19:37:08.
