data_PCOD9374467
_publ_section_title
;
Structure prediction by ZEFSAII (Michael W. Deem and Ramdas Pophale) SiO2 
 PCOD9374467
Probable space group: I M M 2
;
_chemical_formula_sum "Si O2"
_cell_formula_units_Z 48
_cell_length_a 9.085885
_cell_length_b 7.524267
_cell_length_c 35.810419
_cell_angle_alpha 90.000000
_cell_angle_beta 90.000000
_cell_angle_gamma 90.000000
_cell_volume 2448.165854
_symmetry_space_group_name_H-M "I M M 2"
_symmetry_group_IT_number 44
_symmetry_cell_setting 'orthorhombic'
loop_
_space_group_symop_operation_xyz
x,y,z
-x,-y,z
-x,y,z
x,-y,z
1/2+x,1/2+y,1/2+z
1/2-x,1/2-y,1/2+z
1/2-x,1/2+y,1/2+z
1/2+x,1/2-y,1/2+z
loop_
_atom_site_type_symbol
_atom_site_label
_atom_site_fract_x
_atom_site_fract_y
_atom_site_fract_z
Si Si1 0.166102 0.287271 0.014760
Si Si2 0.176268 0.000000 0.886978
Si Si3 0.321685 0.000000 0.806077
Si Si4 0.830140 0.782778 0.164518
Si Si5 0.320912 0.703090 0.746826
Si Si6 0.174420 0.786985 0.439074
Si Si7 0.665049 0.212771 0.090854
O O1 0.158279 0.500000 0.012165
O O2 0.237047 0.246569 0.054580
O O3 0.000000 0.216354 0.011909
O O4 0.265820 0.230669 0.979873
O O5 0.239140 0.828108 0.908751
O O6 0.240614 0.000000 0.845304
O O7 0.000000 0.000000 0.887309
O O8 0.281225 0.169693 0.780686
O O9 0.500000 0.000000 0.811497
O O10 0.774038 0.731148 0.205662
O O11 0.737412 0.720504 0.129163
O O12 0.000000 0.726959 0.160151
O O13 0.830334 0.000000 0.164873
O O14 0.500000 0.701444 0.744956
O O15 0.271943 0.500000 0.752321
O O16 0.000000 0.753740 0.436418
O O17 0.197779 0.000000 0.434586
O O18 0.500000 0.281924 0.085353
O O19 0.656663 0.000000 0.094788
#
# Coordination Sequence:
#
# PCOD9374467 Si02
#       7
#     8   4   4   8   8   8   8
#     4  10  21  37  56  80 111 147 188 234 287 347
#     4  12  26  42  62  90 126 162 196 242 296 362
#     4  10  20  36  58  86 114 144 192 246 290 350
#     4   8  14  28  49  72 102 141 185 232 283 338
#     4   8  15  30  54  81 109 144 185 235 294 347
#     4  10  22  42  67  91 117 153 197 247 300 356
#     4  10  20  32  49  76 110 149 191 235 280 335
#
# _framework density 19.606514000000001
#
# number of rings (size 3 to 8) (size 9 to 14) (size 15 to 20)
#    0.000    2.500    0.000    3.250    1.167    3.667 
#    1.500    2.500    0.000    1.000    0.000    0.000 
#    0.000    0.000    0.000    0.000    0.000    0.000 
#
# Total GULP energy -133977.899328 kJ/mol
# GULP energy per Si atom -5582.412472 kJ/mol
# Density = 1.956189 g / cm^3
# Si number density = 19.606514 Si / 1000 Ang^3
#
#
#
# Elastic Constant Matrix: (Units=GPa)
#
#
# Indices 1 2 3 4 5 6 
#
# 1 119.2717 39.4591 83.0699 0.0000 0.0000 0.0000
# 2 39.4591 76.0126 56.1525 0.0000 0.0000 0.0000
# 3 83.0699 56.1525 198.4763 0.0000 0.0000 0.0000
# 4 0.0000 0.0000 0.0000 38.4867 0.0000 0.0000
# 5 0.0000 0.0000 0.0000 0.0000 35.2680 0.0000
# 6 0.0000 0.0000 0.0000 0.0000 0.0000 15.2863
#
#
#
# Elastic Compliance Matrix: (Units=1/GPa)
#
#
# Indices 1 2 3 4 5 6 
#
# 1 0.012458 -0.003306 -0.004279 0.000000 0.000000 0.000000
# 2 -0.003306 0.017509 -0.003570 0.000000 0.000000 0.000000
# 3 -0.004279 -0.003570 0.007839 0.000000 0.000000 0.000000
# 4 0.000000 0.000000 0.000000 0.025983 0.000000 0.000000
# 5 0.000000 0.000000 0.000000 0.000000 0.028354 0.000000
# 6 0.000000 0.000000 0.000000 0.000000 0.000000 0.065418
#
#
# Mechanical properties :
#
#
# Convention : Reuss Voigt Hill
#
# Bulk Modulus (GPa) = 64.53020 83.45818 73.99419
# Shear Modulus (GPa) = 27.02159 32.14682 29.58420
#
# Velocity S-wave (km/s) = 3.71643 4.05359 3.88867
# Velocity P-wave (km/s) = 7.16937 8.03541 7.61471
#
# Compressibility (1/GPa) = 0.01549662
#
# Stress axis : x y z
#
# Youngs Moduli (GPa) = 80.26883 57.11280 127.56418
#
# Poissons Ratio (x) = 0.18883 0.54582
# Poissons Ratio (y) = 0.26540 0.45538
# Poissons Ratio (z) = 0.34345 0.20388
#
# Static dielectric constant tensor:
#      x y z
#    x 1.680290 0.000000 0.000000 
#    y 0.000000 1.725870 0.000000 
#    z 0.000000 0.000000 1.659600 
# 
# From -- ./inp_files/26924.got.cif
#   From: 2010.05.17/outbox.cif.g08.bks.cpg/sg44_14_cif.got.tgz:26924.got - 2010.06.03 19:37:08.
