data_PCOD9374087
_publ_section_title
;
Structure prediction by ZEFSAII (Michael W. Deem and Ramdas Pophale) SiO2 
 PCOD9374087
Probable space group: I M M 2
;
_chemical_formula_sum "Si O2"
_cell_formula_units_Z 64
_cell_length_a 9.071188
_cell_length_b 17.729325
_cell_length_c 21.278368
_cell_angle_alpha 90.000000
_cell_angle_beta 90.000000
_cell_angle_gamma 90.000000
_cell_volume 3422.115667
_symmetry_space_group_name_H-M "I M M 2"
_symmetry_group_IT_number 44
_symmetry_cell_setting 'orthorhombic'
loop_
_space_group_symop_operation_xyz
x,y,z
-x,-y,z
-x,y,z
x,-y,z
1/2+x,1/2+y,1/2+z
1/2-x,1/2-y,1/2+z
1/2-x,1/2+y,1/2+z
1/2+x,1/2-y,1/2+z
loop_
_atom_site_type_symbol
_atom_site_label
_atom_site_fract_x
_atom_site_fract_y
_atom_site_fract_z
Si Si1 0.825990 0.413831 0.086480
Si Si2 0.676381 0.301413 0.989300
Si Si3 0.324757 0.807324 0.223614
Si Si4 0.674937 0.699604 0.849542
Si Si5 0.323240 0.636214 0.351441
Si Si6 0.824129 0.863897 0.989466
Si Si7 0.174532 0.415670 0.613002
Si Si8 0.325601 0.373382 0.214138
O O1 0.802104 0.500000 0.065453
O O2 0.767870 0.406433 0.157634
O O3 0.000000 0.397414 0.084166
O O4 0.739026 0.355871 0.042459
O O5 0.500000 0.292403 0.995905
O O6 0.707318 0.332772 0.918836
O O7 0.752802 0.219579 0.993157
O O8 0.500000 0.818389 0.229733
O O9 0.248942 0.834591 0.287752
O O10 0.273379 0.853528 0.162914
O O11 0.301467 0.717557 0.214904
O O12 0.500000 0.701191 0.841481
O O13 0.738027 0.784615 0.851811
O O14 0.500000 0.651275 0.348796
O O15 0.292619 0.601924 0.419970
O O16 0.288049 0.598178 0.284650
O O17 0.000000 0.857975 0.995350
O O18 0.757435 0.908778 0.047312
O O19 0.192765 0.500000 0.638988
O O20 0.000000 0.403153 0.601860
O O21 0.500000 0.386944 0.203117
#
# Coordination Sequence:
#
# PCOD9374087 Si02
#       8
#     8   8   8   8   8   8   8   8
#     4  11  24  38  51  73 105 138 175 218 259 301
#     4  10  20  35  56  80 105 135 171 209 255 313
#     4   9  18  33  53  76 103 135 171 210 253 305
#     4   9  17  29  50  80 105 126 161 210 258 303
#     4   8  16  31  51  77 105 131 163 205 254 308
#     4  10  19  33  56  82 106 134 171 216 261 303
#     4  10  21  36  52  73 105 144 182 216 253 303
#     4   9  17  32  55  78 100 131 170 211 257 310
#
# _framework density 18.701879999999999
#
# number of rings (size 3 to 8) (size 9 to 14) (size 15 to 20)
#    0.000    2.500    0.000    3.000    0.000    6.750 
#    0.000    1.250    0.000    6.000    0.000    0.000 
#    0.000    0.000    0.000    0.000    0.000    0.000 
#
# Total GULP energy -178416.436267 kJ/mol
# GULP energy per Si atom -5575.513633 kJ/mol
# Density = 1.865931 g / cm^3
# Si number density = 18.701880 Si / 1000 Ang^3
#
#
#
# Elastic Constant Matrix: (Units=GPa)
#
#
# Indices 1 2 3 4 5 6 
#
# 1 32.9465 17.7787 30.3117 0.0000 0.0000 0.0000
# 2 17.7787 36.0850 25.6192 0.0000 0.0000 0.0000
# 3 30.3117 25.6192 106.5966 0.0000 0.0000 0.0000
# 4 0.0000 0.0000 0.0000 -16.5379 0.0000 0.0000
# 5 0.0000 0.0000 0.0000 0.0000 35.3946 0.0000
# 6 0.0000 0.0000 0.0000 0.0000 0.0000 15.0183
#
#
#
# Elastic Compliance Matrix: (Units=1/GPa)
#
#
# Indices 1 2 3 4 5 6 
#
# 1 0.048431 -0.016982 -0.009691 0.000000 0.000000 0.000000
# 2 -0.016982 0.039368 -0.004633 0.000000 0.000000 0.000000
# 3 -0.009691 -0.004633 0.013250 0.000000 0.000000 0.000000
# 4 0.000000 0.000000 0.000000 -0.060467 0.000000 0.000000
# 5 0.000000 0.000000 0.000000 0.000000 0.028253 0.000000
# 6 0.000000 0.000000 0.000000 0.000000 0.000000 0.066585
#
#
# Mechanical properties :
#
#
# Convention : Reuss Voigt Hill
#
# Bulk Modulus (GPa) = 26.01469 35.89415 30.95442
# Shear Modulus (GPa) = 23.71418 13.56957 18.64188
#
# Velocity S-wave (km/s) = 3.56478 2.69657 3.16063
# Velocity P-wave (km/s) = 5.55733 5.37864 5.46871
#
# Compressibility (1/GPa) = 0.03843982
#
# Stress axis : x y z
#
# Youngs Moduli (GPa) = 20.64773 25.40127 75.47053
#
# Poissons Ratio (x) = 0.43135 0.73136
# Poissons Ratio (y) = 0.35063 0.34964
# Poissons Ratio (z) = 0.20009 0.11768
#
# Static dielectric constant tensor:
#      x y z
#    x 1.618890 0.000000 0.000000 
#    y 0.000000 1.624500 0.000000 
#    z 0.000000 0.000000 1.685530 
# 
# From -- ./inp_files/23274.got.cif
#   From: 2010.05.17/outbox.cif.g08.bks.cpg/sg44_12_cif.got.tgz:23274.got - 2010.06.03 19:37:08.
