data_PCOD9374876
_publ_section_title
;
Structure prediction by ZEFSAII (Michael W. Deem and Ramdas Pophale) SiO2 
 PCOD9374876
Probable space group: I M M 2
;
_chemical_formula_sum "Si O2"
_cell_formula_units_Z 64
_cell_length_a 19.603003
_cell_length_b 14.460506
_cell_length_c 12.465388
_cell_angle_alpha 90.000000
_cell_angle_beta 90.000000
_cell_angle_gamma 90.000000
_cell_volume 3533.555340
_symmetry_space_group_name_H-M "I M M 2"
_symmetry_group_IT_number 44
_symmetry_cell_setting 'orthorhombic'
loop_
_space_group_symop_operation_xyz
x,y,z
-x,-y,z
-x,y,z
x,-y,z
1/2+x,1/2+y,1/2+z
1/2-x,1/2-y,1/2+z
1/2-x,1/2+y,1/2+z
1/2+x,1/2-y,1/2+z
loop_
_atom_site_type_symbol
_atom_site_label
_atom_site_fract_x
_atom_site_fract_y
_atom_site_fract_z
Si Si1 0.779915 0.609968 0.893620
Si Si2 0.075756 0.299516 0.916837
Si Si3 0.579187 0.730613 0.186045
Si Si4 0.354090 0.389444 0.011728
Si Si5 0.924244 0.200487 0.145695
Si Si6 0.854091 0.389444 0.550805
Si Si7 0.720085 0.609968 0.668911
Si Si8 0.920813 0.269387 0.376489
O O1 0.779396 0.500000 0.883858
O O2 0.856936 0.638928 0.913873
O O3 0.724922 0.632291 0.985545
O O4 0.750000 0.648891 0.781266
O O5 0.084423 0.232258 0.814189
O O6 0.000000 0.343544 0.902256
O O7 0.075024 0.250002 0.031266
O O8 0.500000 0.716910 0.157804
O O9 0.603512 0.830002 0.138788
O O10 0.622789 0.653283 0.124717
O O11 0.364940 0.500000 0.003965
O O12 0.396488 0.330002 0.923745
O O13 0.856936 0.138930 0.148657
O O14 0.915577 0.267742 0.248345
O O15 0.000000 0.156459 0.160274
O O16 0.864941 0.500000 0.558569
O O17 0.775078 0.367710 0.576988
O O18 0.877212 0.346717 0.437816
O O19 0.720602 0.500000 0.678674
O O20 0.000000 0.283088 0.404729
#
# Coordination Sequence:
#
# PCOD9374876 Si02
#       8
#     8   8   8   8   8   8   8   8
#     4  10  20  35  56  84 112 144 188 234 284 336
#     4  10  22  38  56  80 112 152 193 230 276 338
#     4  10  21  36  56  87 116 148 193 231 285 349
#     4  10  20  35  57  87 115 142 183 236 291 339
#     4  10  22  38  56  80 112 152 193 230 276 338
#     4  10  20  35  57  87 115 142 183 236 291 339
#     4  10  20  35  56  84 112 144 188 234 284 336
#     4  10  21  36  56  87 116 148 193 231 285 349
#
# _framework density 18.112069999999999
#
# number of rings (size 3 to 8) (size 9 to 14) (size 15 to 20)
#    0.000    2.000    2.500    1.500    3.500    2.500 
#    0.000    3.750    0.000    7.500    0.000    0.000 
#    0.000    0.000    0.000    0.000    0.000    0.000 
#
# Total GULP energy -178267.916505 kJ/mol
# GULP energy per Si atom -5570.872391 kJ/mol
# Density = 1.807085 g / cm^3
# Si number density = 18.112070 Si / 1000 Ang^3
#
#
#
# Elastic Constant Matrix: (Units=GPa)
#
#
# Indices 1 2 3 4 5 6 
#
# 1 177.7187 41.8988 52.2587 0.0000 0.0000 0.0000
# 2 41.8988 70.7521 30.4216 0.0000 0.0000 0.0000
# 3 52.2587 30.4216 127.3267 0.0000 0.0000 0.0000
# 4 0.0000 0.0000 0.0000 11.3394 0.0000 0.0000
# 5 0.0000 0.0000 0.0000 0.0000 30.5173 0.0000
# 6 0.0000 0.0000 0.0000 0.0000 0.0000 -57.1590
#
#
#
# Elastic Compliance Matrix: (Units=1/GPa)
#
#
# Indices 1 2 3 4 5 6 
#
# 1 0.007011 -0.003248 -0.002101 0.000000 0.000000 0.000000
# 2 -0.003248 0.017257 -0.002790 0.000000 0.000000 0.000000
# 3 -0.002101 -0.002790 0.009383 0.000000 0.000000 0.000000
# 4 0.000000 0.000000 0.000000 0.088188 0.000000 0.000000
# 5 0.000000 0.000000 0.000000 0.000000 0.032768 0.000000
# 6 0.000000 0.000000 0.000000 0.000000 0.000000 -0.017495
#
#
# Mechanical properties :
#
#
# Convention : Reuss Voigt Hill
#
# Bulk Modulus (GPa) = 57.56528 69.43953 63.50240
# Shear Modulus (GPa) = 31.41082 13.68744 22.54913
#
# Velocity S-wave (km/s) = 4.16895 2.75200 3.53225
# Velocity P-wave (km/s) = 7.41791 6.96563 7.19532
#
# Compressibility (1/GPa) = 0.01737158
#
# Stress axis : x y z
#
# Youngs Moduli (GPa) = 142.64284 57.94761 106.57742
#
# Poissons Ratio (x) = 0.18822 0.22395
# Poissons Ratio (y) = 0.46331 0.29735
# Poissons Ratio (z) = 0.29973 0.16168
#
# Static dielectric constant tensor:
#      x y z
#    x 1.650370 0.000000 0.000000 
#    y 0.000000 1.599480 0.000000 
#    z 0.000000 0.000000 1.654450 
# 
# From -- ./inp_files/13977.got.cif
#   From: 2010.05.17/outbox.cif.g08.bks.cpg/sg44_7_cif.got.tgz:13977.got - 2010.06.03 19:37:08.
