data_PCOD9374503
_publ_section_title
;
Structure prediction by ZEFSAII (Michael W. Deem and Ramdas Pophale) SiO2 
 PCOD9374503
Probable space group: I M M 2
;
_chemical_formula_sum "Si O2"
_cell_formula_units_Z 64
_cell_length_a 8.952613
_cell_length_b 18.936139
_cell_length_c 26.650001
_cell_angle_alpha 90.000000
_cell_angle_beta 90.000000
_cell_angle_gamma 90.000000
_cell_volume 4517.919349
_symmetry_space_group_name_H-M "I M M 2"
_symmetry_group_IT_number 44
_symmetry_cell_setting 'orthorhombic'
loop_
_space_group_symop_operation_xyz
x,y,z
-x,-y,z
-x,y,z
x,-y,z
1/2+x,1/2+y,1/2+z
1/2-x,1/2-y,1/2+z
1/2-x,1/2+y,1/2+z
1/2+x,1/2-y,1/2+z
loop_
_atom_site_type_symbol
_atom_site_label
_atom_site_fract_x
_atom_site_fract_y
_atom_site_fract_z
Si Si1 0.178010 0.583361 0.911830
Si Si2 0.180096 0.082017 0.710469
Si Si3 0.677597 0.658321 0.817164
Si Si4 0.319904 0.082017 0.221143
Si Si5 0.328307 0.287599 0.270605
Si Si6 0.671693 0.787599 0.161008
Si Si7 0.321990 0.416639 0.019782
Si Si8 0.822403 0.341679 0.114448
O O1 0.205552 0.500000 0.901395
O O2 0.250554 0.629068 0.867948
O O3 0.000000 0.593904 0.913422
O O4 0.250000 0.599234 0.965806
O O5 0.220446 0.132974 0.757087
O O6 0.258725 0.111534 0.660614
O O7 0.000000 0.089308 0.703612
O O8 0.214329 0.000000 0.718278
O O9 0.500000 0.653014 0.818727
O O10 0.741275 0.611534 0.770998
O O11 0.728477 0.738556 0.805587
O O12 0.500000 0.089307 0.228000
O O13 0.279554 0.132974 0.174525
O O14 0.285671 0.000000 0.213334
O O15 0.500000 0.287306 0.288505
O O16 0.327613 0.250000 0.215806
O O17 0.500000 0.787306 0.143107
O O18 0.771523 0.738556 0.126025
O O19 0.500000 0.406097 0.018190
O O20 0.294448 0.500000 0.030217
O O21 0.249446 0.370932 0.063664
O O22 0.000000 0.346986 0.112885
#
# Coordination Sequence:
#
# PCOD9374503 Si02
#       8
#     8   8   8   8   8   8   8   8
#     4  10  20  33  47  62  82 108 139 175 211 245
#     4   9  17  29  44  61  82 110 143 176 210 248
#     4  11  20  28  41  61  85 113 143 172 205 246
#     4   9  17  29  44  61  82 110 143 176 210 248
#     4   8  15  28  43  58  79 108 140 173 208 245
#     4   8  15  28  43  58  79 108 140 173 208 245
#     4  10  20  33  47  62  82 108 139 175 211 245
#     4  11  20  28  41  61  85 113 143 172 205 246
#
# _framework density 14.165813
#
# number of rings (size 3 to 8) (size 9 to 14) (size 15 to 20)
#    0.000    2.500    0.000    5.250    0.000    9.500 
#    0.000    0.000    0.000    0.000    0.000    0.000 
#    0.000    1.000    0.000    2.750    0.000    4.000 
#
# Total GULP energy -178356.313345 kJ/mol
# GULP energy per Si atom -5573.634792 kJ/mol
# Density = 1.413357 g / cm^3
# Si number density = 14.165813 Si / 1000 Ang^3
#
#
#
# Elastic Constant Matrix: (Units=GPa)
#
#
# Indices 1 2 3 4 5 6 
#
# 1 75.0629 53.5358 56.3666 0.0000 0.0000 0.0000
# 2 53.5358 119.4481 61.5909 0.0000 0.0000 0.0000
# 3 56.3666 61.5909 86.5358 0.0000 0.0000 0.0000
# 4 0.0000 0.0000 0.0000 25.0903 0.0000 0.0000
# 5 0.0000 0.0000 0.0000 0.0000 21.9871 0.0000
# 6 0.0000 0.0000 0.0000 0.0000 0.0000 14.3027
#
#
#
# Elastic Compliance Matrix: (Units=1/GPa)
#
#
# Indices 1 2 3 4 5 6 
#
# 1 0.027804 -0.004934 -0.014599 0.000000 0.000000 0.000000
# 2 -0.004934 0.014101 -0.006823 0.000000 0.000000 0.000000
# 3 -0.014599 -0.006823 0.025921 0.000000 0.000000 0.000000
# 4 0.000000 0.000000 0.000000 0.039856 0.000000 0.000000
# 5 0.000000 0.000000 0.000000 0.000000 0.045481 0.000000
# 6 0.000000 0.000000 0.000000 0.000000 0.000000 0.069917
#
#
# Mechanical properties :
#
#
# Convention : Reuss Voigt Hill
#
# Bulk Modulus (GPa) = 66.15796 69.33703 67.74750
# Shear Modulus (GPa) = 17.80446 19.57958 18.69202
#
# Velocity S-wave (km/s) = 3.54907 3.72179 3.63646
# Velocity P-wave (km/s) = 7.97486 8.21717 8.09693
#
# Compressibility (1/GPa) = 0.01511534
#
# Stress axis : x y z
#
# Youngs Moduli (GPa) = 35.96661 70.91684 38.57891
#
# Poissons Ratio (x) = 0.34989 0.56320
# Poissons Ratio (y) = 0.17745 0.26321
# Poissons Ratio (z) = 0.52507 0.48383
#
# Static dielectric constant tensor:
#      x y z
#    x 1.470190 0.000000 0.000000 
#    y 0.000000 1.493070 0.000000 
#    z 0.000000 0.000000 1.434930 
# 
# From -- ./inp_files/23411.got.cif
#   From: 2010.05.17/outbox.cif.g08.bks.cpg/sg44_12_cif.got.tgz:23411.got - 2010.06.03 19:37:08.
