data_PCOD9374237
_publ_section_title
;
Structure prediction by ZEFSAII (Michael W. Deem and Ramdas Pophale) SiO2 
 PCOD9374237
Probable space group: I M M 2
;
_chemical_formula_sum "Si O2"
_cell_formula_units_Z 64
_cell_length_a 27.285403
_cell_length_b 7.625816
_cell_length_c 13.544789
_cell_angle_alpha 90.000000
_cell_angle_beta 90.000000
_cell_angle_gamma 90.000000
_cell_volume 2818.311150
_symmetry_space_group_name_H-M "I M M 2"
_symmetry_group_IT_number 44
_symmetry_cell_setting 'orthorhombic'
loop_
_space_group_symop_operation_xyz
x,y,z
-x,-y,z
-x,y,z
x,-y,z
1/2+x,1/2+y,1/2+z
1/2-x,1/2-y,1/2+z
1/2-x,1/2+y,1/2+z
1/2+x,1/2-y,1/2+z
loop_
_atom_site_type_symbol
_atom_site_label
_atom_site_fract_x
_atom_site_fract_y
_atom_site_fract_z
Si Si1 0.056504 0.285830 0.856980
Si Si2 0.373309 0.788908 0.179011
Si Si3 0.686650 0.697975 0.637775
Si Si4 0.757318 0.212389 0.469422
Si Si5 0.631368 0.706383 0.957757
Si Si6 0.917373 0.700583 0.075337
Si Si7 0.946494 0.289991 0.289099
Si Si8 0.770657 0.712902 0.758774
O O1 0.060059 0.500000 0.858111
O O2 0.091542 0.226376 0.767598
O O3 0.000000 0.239875 0.838278
O O4 0.071021 0.223061 0.967405
O O5 0.317790 0.722575 0.199070
O O6 0.371465 0.000000 0.185984
O O7 0.389037 0.746336 0.067448
O O8 0.670031 0.500000 0.660310
O O9 0.730447 0.697985 0.559415
O O10 0.640813 0.798024 0.594093
O O11 0.716447 0.777353 0.728991
O O12 0.812941 0.276481 0.455948
O O13 0.724553 0.249883 0.373698
O O14 0.757393 0.000000 0.484115
O O15 0.636810 0.500000 0.949232
O O16 0.596251 0.756768 0.867697
O O17 0.935591 0.500000 0.070547
O O18 0.937919 0.779500 0.177575
O O19 0.947721 0.500000 0.279437
O O20 0.000000 0.229416 0.324835
O O21 0.768247 0.500000 0.748536
#
# Coordination Sequence:
#
# PCOD9374237 Si02
#       8
#     8   8   8   8   8   8   8   8
#     4   9  18  34  60  89 112 144 192 244 296 347
#     4  10  19  35  58  82 115 154 197 242 285 341
#     4  11  21  34  54  82 115 150 187 226 278 341
#     4  10  20  36  56  79 111 152 194 233 278 338
#     4  11  23  38  58  85 122 160 195 241 295 351
#     4  10  20  37  61  88 119 149 188 243 299 355
#     4  10  22  40  63  89 116 152 200 251 298 350
#     4   9  18  33  53  76 107 148 188 230 279 329
#
# _framework density 22.708634
#
# number of rings (size 3 to 8) (size 9 to 14) (size 15 to 20)
#    0.000    2.000    1.250    2.625    0.000    6.250 
#    0.000    5.000    0.000    1.875    0.000    0.000 
#    0.000    0.000    0.000    0.000    0.000    0.000 
#
# Total GULP energy -178641.974675 kJ/mol
# GULP energy per Si atom -5582.561709 kJ/mol
# Density = 2.265695 g / cm^3
# Si number density = 22.708634 Si / 1000 Ang^3
#
#
#
# Elastic Constant Matrix: (Units=GPa)
#
#
# Indices 1 2 3 4 5 6 
#
# 1 105.0493 -0.9990 26.5715 0.0000 0.0000 0.0000
# 2 -0.9990 46.8249 -3.3252 0.0000 0.0000 0.0000
# 3 26.5715 -3.3252 115.0190 0.0000 0.0000 0.0000
# 4 0.0000 0.0000 0.0000 -0.0149 0.0000 0.0000
# 5 0.0000 0.0000 0.0000 0.0000 31.1787 0.0000
# 6 0.0000 0.0000 0.0000 0.0000 0.0000 5.6329
#
#
#
# Elastic Compliance Matrix: (Units=1/GPa)
#
#
# Indices 1 2 3 4 5 6 
#
# 1 0.010110 0.000050 -0.002334 0.000000 0.000000 0.000000
# 2 0.000050 0.021400 0.000607 0.000000 0.000000 0.000000
# 3 -0.002334 0.000607 0.009251 0.000000 0.000000 0.000000
# 4 0.000000 0.000000 0.000000-67.167333 0.000000 0.000000
# 5 0.000000 0.000000 0.000000 0.000000 0.032073 0.000000
# 6 0.000000 0.000000 0.000000 0.000000 0.000000 0.177528
#
#
# Mechanical properties :
#
#
# Convention : Reuss Voigt Hill
#
# Bulk Modulus (GPa) = 26.73273 34.59866 30.66569
# Shear Modulus (GPa) = -0.07474 23.66907 11.79716
#
# Velocity S-wave (km/s) = -0.18161 3.23196 2.28173
# Velocity P-wave (km/s) = 3.42836 5.40337 4.52493
#
# Compressibility (1/GPa) = 0.03740733
#
# Stress axis : x y z
#
# Youngs Moduli (GPa) = 98.90969 46.72826 108.09627
#
# Poissons Ratio (x) = -0.00233 0.25232
# Poissons Ratio (y) = -0.00494 -0.06563
# Poissons Ratio (z) = 0.23088 -0.02837
#
# Static dielectric constant tensor:
#      x y z
#    x 1.849860 0.000000 0.000000 
#    y 0.000000 1.850180 0.000000 
#    z 0.000000 0.000000 1.858630 
# 
# From -- ./inp_files/15031.got.cif
#   From: 2010.05.17/outbox.cif.g08.bks.cpg/sg44_8_cif.got.tgz:15031.got - 2010.06.03 19:37:08.
