data_PCOD9374448
_publ_section_title
;
Structure prediction by ZEFSAII (Michael W. Deem and Ramdas Pophale) SiO2 
 PCOD9374448
Probable space group: I M M 2
;
_chemical_formula_sum "Si O2"
_cell_formula_units_Z 64
_cell_length_a 29.722166
_cell_length_b 7.549432
_cell_length_c 13.501596
_cell_angle_alpha 90.000000
_cell_angle_beta 90.000000
_cell_angle_gamma 90.000000
_cell_volume 3029.561979
_symmetry_space_group_name_H-M "I M M 2"
_symmetry_group_IT_number 44
_symmetry_cell_setting 'orthorhombic'
loop_
_space_group_symop_operation_xyz
x,y,z
-x,-y,z
-x,y,z
x,-y,z
1/2+x,1/2+y,1/2+z
1/2-x,1/2-y,1/2+z
1/2-x,1/2+y,1/2+z
1/2+x,1/2-y,1/2+z
loop_
_atom_site_type_symbol
_atom_site_label
_atom_site_fract_x
_atom_site_fract_y
_atom_site_fract_z
Si Si1 0.287860 0.712711 0.549440
Si Si2 0.447983 0.786508 0.279558
Si Si3 0.262174 0.786406 0.866985
Si Si4 0.875119 0.210769 0.165957
Si Si5 0.619212 0.710553 0.104198
Si Si6 0.365665 0.704861 0.887126
Si Si7 0.211162 0.202386 0.683549
Si Si8 0.551925 0.213486 0.499788
O O1 0.286041 0.500000 0.561267
O O2 0.281973 0.748987 0.433790
O O3 0.331032 0.781281 0.607969
O O4 0.241502 0.795117 0.586891
O O5 0.500000 0.730842 0.271680
O O6 0.420601 0.730549 0.182813
O O7 0.431740 0.726933 0.389673
O O8 0.446918 0.000000 0.280752
O O9 0.311220 0.712218 0.892685
O O10 0.245720 0.716772 0.761587
O O11 0.269377 0.000000 0.866857
O O12 0.878564 0.282097 0.278620
O O13 0.868293 0.000000 0.176273
O O14 0.916897 0.235329 0.091849
O O15 0.627594 0.500000 0.091806
O O16 0.663726 0.786305 0.157629
O O17 0.615477 0.780754 0.991336
O O18 0.380491 0.500000 0.884184
O O19 0.202959 0.000000 0.717333
O O20 0.500000 0.272386 0.511760
O O21 0.551456 0.000000 0.497414
#
# Coordination Sequence:
#
# PCOD9374448 Si02
#       8
#     8   8   8   8   8   8   8   8
#     4  10  20  33  50  74 106 143 182 222 261 309
#     4   9  20  40  62  83 108 136 170 218 274 329
#     4  10  20  32  48  73 106 143 184 228 268 307
#     4  10  21  35  55  81 110 144 183 223 266 318
#     4  10  21  35  55  81 110 144 183 223 266 318
#     4  10  20  36  53  75 110 150 185 220 264 314
#     4  10  20  33  50  74 106 143 182 222 261 309
#     4   9  20  40  62  83 108 136 170 218 274 329
#
# _framework density 21.125164999999999
#
# number of rings (size 3 to 8) (size 9 to 14) (size 15 to 20)
#    0.000    2.250    2.500    0.750    1.750    3.000 
#    0.000    1.875    0.000    3.750    0.000    0.000 
#    0.000    0.000    0.000    0.000    0.000    0.000 
#
# Total GULP energy -178261.318025 kJ/mol
# GULP energy per Si atom -5570.666188 kJ/mol
# Density = 2.107708 g / cm^3
# Si number density = 21.125165 Si / 1000 Ang^3
#
#
#
# Elastic Constant Matrix: (Units=GPa)
#
#
# Indices 1 2 3 4 5 6 
#
# 1 82.1306 -10.6299 63.9734 0.0000 0.0000 0.0000
# 2 -10.6299 41.1979 -8.1481 0.0000 0.0000 0.0000
# 3 63.9734 -8.1481 150.9240 0.0000 0.0000 0.0000
# 4 0.0000 0.0000 0.0000 10.6172 0.0000 0.0000
# 5 0.0000 0.0000 0.0000 0.0000 40.4652 0.0000
# 6 0.0000 0.0000 0.0000 0.0000 0.0000 22.5243
#
#
#
# Elastic Compliance Matrix: (Units=1/GPa)
#
#
# Indices 1 2 3 4 5 6 
#
# 1 0.018605 0.003276 -0.007709 0.000000 0.000000 0.000000
# 2 0.003276 0.025112 -0.000033 0.000000 0.000000 0.000000
# 3 -0.007709 -0.000033 0.009892 0.000000 0.000000 0.000000
# 4 0.000000 0.000000 0.000000 0.094187 0.000000 0.000000
# 5 0.000000 0.000000 0.000000 0.000000 0.024713 0.000000
# 6 0.000000 0.000000 0.000000 0.000000 0.000000 0.044396
#
#
# Mechanical properties :
#
#
# Convention : Reuss Voigt Hill
#
# Bulk Modulus (GPa) = 22.38360 40.51592 31.44976
# Shear Modulus (GPa) = 20.77024 29.99180 25.38102
#
# Velocity S-wave (km/s) = 3.13900 3.77200 3.46997
# Velocity P-wave (km/s) = 4.87406 6.17991 5.56542
#
# Compressibility (1/GPa) = 0.04467556
#
# Stress axis : x y z
#
# Youngs Moduli (GPa) = 53.75020 39.82194 101.09317
#
# Poissons Ratio (x) = -0.13044 0.77935
# Poissons Ratio (y) = -0.17607 0.00331
# Poissons Ratio (z) = 0.41437 0.00130
#
# Static dielectric constant tensor:
#      x y z
#    x 1.713650 0.000000 0.000000 
#    y 0.000000 1.813440 0.000000 
#    z 0.000000 0.000000 1.804830 
# 
# From -- ./inp_files/15112.got.cif
#   From: 2010.05.17/outbox.cif.g08.bks.cpg/sg44_8_cif.got.tgz:15112.got - 2010.06.03 19:37:08.
