data_PCOD9374969
_publ_section_title
;
Structure prediction by ZEFSAII (Michael W. Deem and Ramdas Pophale) SiO2 
 PCOD9374969
Probable space group: I M M 2
;
_chemical_formula_sum "Si O2"
_cell_formula_units_Z 40
_cell_length_a 9.073339
_cell_length_b 26.091732
_cell_length_c 9.634169
_cell_angle_alpha 90.000000
_cell_angle_beta 90.000000
_cell_angle_gamma 90.000000
_cell_volume 2280.784783
_symmetry_space_group_name_H-M "I M M 2"
_symmetry_group_IT_number 44
_symmetry_cell_setting 'orthorhombic'
loop_
_space_group_symop_operation_xyz
x,y,z
-x,-y,z
-x,y,z
x,-y,z
1/2+x,1/2+y,1/2+z
1/2-x,1/2-y,1/2+z
1/2-x,1/2+y,1/2+z
1/2+x,1/2-y,1/2+z
loop_
_atom_site_type_symbol
_atom_site_label
_atom_site_fract_x
_atom_site_fract_y
_atom_site_fract_z
Si Si1 0.822560 0.092497 0.855880
Si Si2 0.322893 0.000000 0.352219
Si Si3 0.176775 0.405445 0.654672
Si Si4 0.673494 0.709330 0.342678
Si Si5 0.673439 0.297894 0.671815
Si Si6 0.322828 0.500000 0.152573
O O1 0.786504 0.150397 0.808441
O O2 0.782349 0.049968 0.743129
O O3 0.000000 0.090815 0.877909
O O4 0.744783 0.083064 0.003182
O O5 0.282188 0.949894 0.262688
O O6 0.250095 0.000000 0.502558
O O7 0.500000 0.000000 0.367492
O O8 0.239968 0.350475 0.700568
O O9 0.000000 0.403318 0.644100
O O10 0.500000 0.716560 0.311751
O O11 0.693676 0.714068 0.508387
O O12 0.766664 0.751126 0.261739
O O13 0.500000 0.306096 0.695361
O O14 0.500000 0.500000 0.137242
#
# Coordination Sequence:
#
# PCOD9374969 Si02
#       6
#     8   4   8   8   8   4
#     4   9  19  36  56  80 108 138 177 220 260 311
#     4  10  23  38  52  78 112 140 173 218 264 314
#     4  10  20  36  57  79 105 140 179 217 261 314
#     4   9  19  35  53  77 109 140 174 217 261 310
#     4  10  21  36  55  80 107 138 178 220 263 312
#     4  10  21  36  56  82 110 140 175 218 266 312
#
# _framework density 17.537822999999999
#
# number of rings (size 3 to 8) (size 9 to 14) (size 15 to 20)
#    0.000    2.400    0.000    3.000    0.000    8.000 
#    0.000    4.000    0.000    0.000    0.000    0.000 
#    0.000    0.000    0.000    0.000    0.000    0.000 
#
# Total GULP energy -111633.493861 kJ/mol
# GULP energy per Si atom -5581.674693 kJ/mol
# Density = 1.749791 g / cm^3
# Si number density = 17.537823 Si / 1000 Ang^3
#
#
#
# Elastic Constant Matrix: (Units=GPa)
#
#
# Indices 1 2 3 4 5 6 
#
# 1 53.4650 70.8823 57.5255 -0.0002 -0.0001 0.0000
# 2 70.8823 164.9977 110.2176 0.0000 0.0000 0.0000
# 3 57.5255 110.2176 103.8683 0.0010 0.0003 -0.0001
# 4 -0.0002 0.0000 0.0010 31.7286 0.0001 0.0000
# 5 -0.0001 0.0000 0.0003 0.0001 37.2469 0.0000
# 6 0.0000 0.0000 -0.0001 0.0000 0.0000 24.6679
#
#
#
# Elastic Compliance Matrix: (Units=1/GPa)
#
#
# Indices 1 2 3 4 5 6 
#
# 1 0.051046 -0.010456 -0.017176 0.000001 0.000000 0.000000
# 2 -0.010456 0.022956 -0.018569 0.000001 0.000000 0.000000
# 3 -0.017176 -0.018569 0.038845 -0.000001 0.000000 0.000000
# 4 0.000001 0.000001 -0.000001 0.031517 0.000000 0.000000
# 5 0.000000 0.000000 0.000000 0.000000 0.026848 0.000000
# 6 0.000000 0.000000 0.000000 0.000000 0.000000 0.040538
#
#
# Mechanical properties :
#
#
# Convention : Reuss Voigt Hill
#
# Bulk Modulus (GPa) = 48.91094 88.84241 68.87668
# Shear Modulus (GPa) = 16.07881 24.30906 20.19394
#
# Velocity S-wave (km/s) = 3.03117 3.72707 3.39698
# Velocity P-wave (km/s) = 6.34035 8.32400 7.39895
#
# Compressibility (1/GPa) = 0.02044532
#
# Stress axis : x y z
#
# Youngs Moduli (GPa) = 19.59004 43.56070 25.74360
#
# Poissons Ratio (x) = 0.45545 0.44218
# Poissons Ratio (y) = 0.20483 0.47804
# Poissons Ratio (z) = 0.33648 0.80888
#
# Static dielectric constant tensor:
#      x y z
#    x 1.584760 0.000000 0.000000 
#    y 0.000000 1.590040 0.000000 
#    z 0.000000 0.000000 1.561170 
# 
# From -- ./inp_files/4628.got.cif
#   From: 2010.05.17/outbox.cif.g08.bks.cpg/sg44_3_cif.got.tgz:4628.got - 2010.06.03 19:37:08.
