data_PCOD9374872
_publ_section_title
;
Structure prediction by ZEFSAII (Michael W. Deem and Ramdas Pophale) SiO2 
 PCOD9374872
Probable space group: I M M 2
;
_chemical_formula_sum "Si O2"
_cell_formula_units_Z 64
_cell_length_a 27.138875
_cell_length_b 14.367967
_cell_length_c 7.276631
_cell_angle_alpha 90.000000
_cell_angle_beta 90.000000
_cell_angle_gamma 90.000000
_cell_volume 2837.380076
_symmetry_space_group_name_H-M "I M M 2"
_symmetry_group_IT_number 44
_symmetry_cell_setting 'orthorhombic'
loop_
_space_group_symop_operation_xyz
x,y,z
-x,-y,z
-x,y,z
x,-y,z
1/2+x,1/2+y,1/2+z
1/2-x,1/2-y,1/2+z
1/2-x,1/2+y,1/2+z
1/2+x,1/2-y,1/2+z
loop_
_atom_site_type_symbol
_atom_site_label
_atom_site_fract_x
_atom_site_fract_y
_atom_site_fract_z
Si Si1 0.776381 0.250000 0.382110
Si Si2 0.393436 0.249998 0.382113
Si Si3 0.946087 0.167760 0.239059
Si Si4 0.188396 0.107486 0.952909
Si Si5 0.344722 0.100751 0.884673
Si Si6 0.655279 0.399249 0.879547
Si Si7 0.553913 0.167759 0.025165
Si Si8 0.811603 0.607486 0.811310
O O1 0.736854 0.330127 0.430659
O O2 0.817143 0.315324 0.279001
O O3 0.817143 0.184675 0.485220
O O4 0.736854 0.169875 0.333558
O O5 0.426376 0.283950 0.552599
O O6 0.357048 0.338819 0.357076
O O7 0.426376 0.216046 0.211629
O O8 0.357047 0.161178 0.407148
O O9 0.902629 0.109271 0.335996
O O10 0.951958 0.249999 0.382116
O O11 0.000000 0.123039 0.209597
O O12 0.194671 0.000000 0.897534
O O13 0.176409 0.107070 0.170991
O O14 0.402630 0.109272 0.928223
O O15 0.323591 0.107070 0.093228
O O16 0.333183 0.000000 0.805343
O O17 0.666817 0.500000 0.958877
O O18 0.500000 0.123038 0.054623
O O19 0.805327 0.500000 0.866683
#
# Coordination Sequence:
#
# PCOD9374872 Si02
#       8
#     8   8   8   8   8   8   8   8
#     4  11  18  30  54  82 116 150 198 243 286 348
#     4   9  19  36  63  88 117 150 195 241 294 350
#     4  10  20  37  61  86 116 153 193 241 293 346
#     4   9  19  35  57  83 115 154 196 241 292 356
#     4  10  20  35  56  82 114 154 198 244 295 353
#     4  10  20  35  56  82 114 154 198 244 295 353
#     4  10  20  37  61  86 116 153 193 241 293 346
#     4   9  19  35  57  83 115 154 196 241 292 356
#
# _framework density 22.55602
#
# number of rings (size 3 to 8) (size 9 to 14) (size 15 to 20)
#    0.000    2.250    1.250    1.875    0.000    2.500 
#    0.000    1.250    0.000   12.750    0.000    0.000 
#    0.000    0.000    0.000    0.000    0.000    0.000 
#
# Total GULP energy -178157.919701 kJ/mol
# GULP energy per Si atom -5567.434991 kJ/mol
# Density = 2.250468 g / cm^3
# Si number density = 22.556020 Si / 1000 Ang^3
#
#
#
# Elastic Constant Matrix: (Units=GPa)
#
#
# Indices 1 2 3 4 5 6 
#
# 1 186.5740 64.0056 22.2273 0.0000 0.0000 0.0000
# 2 64.0056 187.9346 5.1614 0.0000 0.0000 0.0000
# 3 22.2273 5.1614 66.0642 0.0000 0.0000 0.0000
# 4 0.0000 0.0000 0.0000 6.6858 0.0000 0.0000
# 5 0.0000 0.0000 0.0000 0.0000 24.5613 0.0000
# 6 0.0000 0.0000 0.0000 0.0000 0.0000 4.1292
#
#
#
# Elastic Compliance Matrix: (Units=1/GPa)
#
#
# Indices 1 2 3 4 5 6 
#
# 1 0.006312 -0.002096 -0.001960 0.000000 0.000000 0.000000
# 2 -0.002096 0.006028 0.000234 0.000000 0.000000 0.000000
# 3 -0.001960 0.000234 0.015778 0.000000 0.000000 0.000000
# 4 0.000000 0.000000 0.000000 0.149572 0.000000 0.000000
# 5 0.000000 0.000000 0.000000 0.000000 0.040714 0.000000
# 6 0.000000 0.000000 0.000000 0.000000 0.000000 0.242175
#
#
# Mechanical properties :
#
#
# Convention : Reuss Voigt Hill
#
# Bulk Modulus (GPa) = 48.83983 69.26236 59.05109
# Shear Modulus (GPa) = 10.52524 30.35382 20.43953
#
# Velocity S-wave (km/s) = 2.16250 3.67237 3.01353
# Velocity P-wave (km/s) = 5.28535 6.98249 6.19234
#
# Compressibility (1/GPa) = 0.02047509
#
# Stress axis : x y z
#
# Youngs Moduli (GPa) = 158.41942 165.88125 63.37956
#
# Poissons Ratio (x) = 0.34769 0.12423
# Poissons Ratio (y) = 0.33205 -0.01484
# Poissons Ratio (z) = 0.31051 -0.03885
#
# Static dielectric constant tensor:
#      x y z
#    x 1.936420 0.000000 0.000000 
#    y 0.000000 1.888860 0.000000 
#    z 0.000000 0.000000 1.964090 
# 
# From -- ./inp_files/9486.got.cif
#   From: 2010.05.17/outbox.cif.g08.bks.cpg/sg44_5_cif.got.tgz:9486.got - 2010.06.03 19:37:08.
