data_PCOD9374165
_publ_section_title
;
Structure prediction by ZEFSAII (Michael W. Deem and Ramdas Pophale) SiO2 
 PCOD9374165
Probable space group: I M M 2
;
_chemical_formula_sum "Si O2"
_cell_formula_units_Z 64
_cell_length_a 8.149353
_cell_length_b 27.654019
_cell_length_c 13.464435
_cell_angle_alpha 90.000000
_cell_angle_beta 90.000000
_cell_angle_gamma 90.000000
_cell_volume 3034.376884
_symmetry_space_group_name_H-M "I M M 2"
_symmetry_group_IT_number 44
_symmetry_cell_setting 'orthorhombic'
loop_
_space_group_symop_operation_xyz
x,y,z
-x,-y,z
-x,y,z
x,-y,z
1/2+x,1/2+y,1/2+z
1/2-x,1/2-y,1/2+z
1/2-x,1/2+y,1/2+z
1/2+x,1/2-y,1/2+z
loop_
_atom_site_type_symbol
_atom_site_label
_atom_site_fract_x
_atom_site_fract_y
_atom_site_fract_z
Si Si1 0.197776 0.445703 0.171610
Si Si2 0.804608 0.123082 0.850798
Si Si3 0.192454 0.290489 0.042879
Si Si4 0.803898 0.944260 0.261780
Si Si5 0.195434 0.616838 0.572439
Si Si6 0.801455 0.603979 0.968008
Si Si7 0.695741 0.731371 0.348195
Si Si8 0.189812 0.287307 0.676480
O O1 0.257330 0.500000 0.190954
O O2 0.245243 0.410503 0.261327
O O3 0.000000 0.446213 0.167710
O O4 0.252993 0.428208 0.062338
O O5 0.734754 0.177655 0.838029
O O6 0.000000 0.125830 0.844140
O O7 0.763811 0.105943 0.962814
O O8 0.296534 0.266123 0.129121
O O9 0.000000 0.294951 0.072510
O O10 0.246367 0.341526 0.998728
O O11 0.206589 0.249890 0.959126
O O12 0.734183 0.920238 0.161377
O O13 0.758639 0.914769 0.361581
O O14 0.000000 0.944219 0.252840
O O15 0.747135 0.000000 0.272170
O O16 0.261917 0.668909 0.612653
O O17 0.000000 0.619569 0.559386
O O18 0.000000 0.603314 0.962958
O O19 0.500000 0.729079 0.325937
O O20 0.767469 0.775137 0.282366
O O21 0.000000 0.301516 0.689715
#
# Coordination Sequence:
#
# PCOD9374165 Si02
#       8
#     8   8   8   8   8   8   8   8
#     4  10  22  40  61  87 120 158 203 255 309 364
#     4  11  22  38  61  87 122 163 205 253 305 361
#     4  10  19  34  56  84 118 154 190 230 285 348
#     4  11  25  43  64  91 122 158 205 262 319 374
#     4  11  23  40  63  89 123 163 207 256 306 369
#     4  10  21  39  65  94 125 161 202 251 307 372
#     4   9  18  33  53  79 116 154 185 228 286 342
#     4  10  20  35  56  84 117 155 198 240 285 348
#
# _framework density 21.091646000000001
#
# number of rings (size 3 to 8) (size 9 to 14) (size 15 to 20)
#    0.000    1.750    1.250    3.000    0.000    5.750 
#    0.000    1.250    0.000    0.000    0.000    0.000 
#    0.000    0.000    0.000    0.000    0.000    0.000 
#
# Total GULP energy -178530.831046 kJ/mol
# GULP energy per Si atom -5579.088470 kJ/mol
# Density = 2.104364 g / cm^3
# Si number density = 21.091646 Si / 1000 Ang^3
#
#
#
# Elastic Constant Matrix: (Units=GPa)
#
#
# Indices 1 2 3 4 5 6 
#
# 1 11.4757 0.0466 -1.1227 -0.0001 0.0000 0.0000
# 2 0.0466 84.0844 4.8603 -0.0001 0.0000 0.0000
# 3 -1.1227 4.8603 85.3483 -0.0004 0.0000 -0.0001
# 4 -0.0001 -0.0001 -0.0004 32.5438 0.0000 0.0000
# 5 0.0000 0.0000 0.0000 0.0000 24.7359 0.0000
# 6 0.0000 0.0000 -0.0001 0.0000 0.0000 17.2709
#
#
#
# Elastic Compliance Matrix: (Units=1/GPa)
#
#
# Indices 1 2 3 4 5 6 
#
# 1 0.087254 -0.000115 0.001154 0.000000 0.000000 0.000000
# 2 -0.000115 0.011932 -0.000681 0.000000 0.000000 0.000000
# 3 0.001154 -0.000681 0.011771 0.000000 0.000000 0.000000
# 4 0.000000 0.000000 0.000000 0.030728 0.000000 0.000000
# 5 0.000000 0.000000 0.000000 0.000000 0.040427 0.000000
# 6 0.000000 0.000000 0.000000 0.000000 0.000000 0.057901
#
#
# Mechanical properties :
#
#
# Convention : Reuss Voigt Hill
#
# Bulk Modulus (GPa) = 8.95469 20.94188 14.94829
# Shear Modulus (GPa) = 18.08182 26.71839 22.40010
#
# Velocity S-wave (km/s) = 2.93114 3.56304 3.26243
# Velocity P-wave (km/s) = 3.96362 5.18436 4.61453
#
# Compressibility (1/GPa) = 0.11167331
#
# Stress axis : x y z
#
# Youngs Moduli (GPa) = 11.46079 83.80658 84.95696
#
# Poissons Ratio (x) = 0.00965 -0.09807
# Poissons Ratio (y) = 0.00132 0.05786
# Poissons Ratio (z) = -0.01323 0.05707
#
# Static dielectric constant tensor:
#      x y z
#    x 1.764360 0.000000 0.000000 
#    y 0.000000 1.800790 0.000000 
#    z 0.000000 0.000000 1.915960 
# 
# From -- ./inp_files/11506.got.cif
#   From: 2010.05.17/outbox.cif.g08.bks.cpg/sg44_6_cif.got.tgz:11506.got - 2010.06.03 19:37:08.
