data_PCOD9374743
_publ_section_title
;
Structure prediction by ZEFSAII (Michael W. Deem and Ramdas Pophale) SiO2 
 PCOD9374743
Probable space group: I M M 2
;
_chemical_formula_sum "Si O2"
_cell_formula_units_Z 64
_cell_length_a 25.317087
_cell_length_b 9.178469
_cell_length_c 15.175590
_cell_angle_alpha 90.000000
_cell_angle_beta 90.000000
_cell_angle_gamma 90.000000
_cell_volume 3526.383690
_symmetry_space_group_name_H-M "I M M 2"
_symmetry_group_IT_number 44
_symmetry_cell_setting 'orthorhombic'
loop_
_space_group_symop_operation_xyz
x,y,z
-x,-y,z
-x,y,z
x,-y,z
1/2+x,1/2+y,1/2+z
1/2-x,1/2-y,1/2+z
1/2-x,1/2+y,1/2+z
1/2+x,1/2-y,1/2+z
loop_
_atom_site_type_symbol
_atom_site_label
_atom_site_fract_x
_atom_site_fract_y
_atom_site_fract_z
Si Si1 0.276831 0.826821 0.425920
Si Si2 0.853431 0.327528 0.599857
Si Si3 0.937129 0.172366 0.064066
Si Si4 0.831197 0.672727 0.395051
Si Si5 0.866852 0.827700 0.230671
Si Si6 0.233686 0.827537 0.111086
Si Si7 0.104355 0.326362 0.889245
Si Si8 0.560562 0.326490 0.217881
O O1 0.226230 0.746915 0.385876
O O2 0.280736 0.766886 0.525747
O O3 0.332855 0.797774 0.380057
O O4 0.267892 0.000000 0.425747
O O5 0.863265 0.500000 0.613011
O O6 0.850251 0.298378 0.495031
O O7 0.794309 0.295860 0.635850
O O8 0.897942 0.236411 0.648172
O O9 0.909059 0.213356 0.155714
O O10 0.000000 0.189991 0.069163
O O11 0.925454 0.000000 0.049391
O O12 0.914385 0.263155 0.982755
O O13 0.826179 0.500000 0.385146
O O14 0.868670 0.738818 0.320572
O O15 0.809426 0.804164 0.186050
O O16 0.872393 0.000000 0.248681
O O17 0.231974 0.000000 0.086377
O O18 0.096347 0.500000 0.886368
O O19 0.073310 0.248236 0.811165
O O20 0.500000 0.294570 0.192664
O O21 0.566372 0.500000 0.226208
#
# Coordination Sequence:
#
# PCOD9374743 Si02
#       8
#     8   8   8   8   8   8   8   8
#     4  10  20  34  54  83 117 152 190 229 278 339
#     4   9  20  39  60  83 113 148 190 238 289 344
#     4  10  21  38  60  85 116 156 198 237 282 336
#     4  10  22  38  58  85 118 153 191 237 288 344
#     4  10  20  35  57  85 120 157 191 236 286 335
#     4   9  18  34  56  83 115 151 186 227 283 339
#     4  11  23  37  57  86 118 154 192 232 283 343
#     4  11  25  42  60  84 112 146 193 242 289 344
#
# _framework density 18.148904999999999
#
# number of rings (size 3 to 8) (size 9 to 14) (size 15 to 20)
#    0.000    2.000    1.250    2.625    1.750    7.750 
#    0.000    0.625    0.000    2.250    0.000    0.000 
#    0.000    0.000    0.000    0.000    0.000    0.000 
#
# Total GULP energy -178719.969834 kJ/mol
# GULP energy per Si atom -5584.999057 kJ/mol
# Density = 1.810760 g / cm^3
# Si number density = 18.148905 Si / 1000 Ang^3
#
#
#
# Elastic Constant Matrix: (Units=GPa)
#
#
# Indices 1 2 3 4 5 6 
#
# 1 94.3620 49.0534 36.3680 0.0000 0.0000 0.0000
# 2 49.0534 51.5422 35.3264 0.0000 0.0000 0.0000
# 3 36.3680 35.3264 54.0288 0.0000 0.0000 0.0000
# 4 0.0000 0.0000 0.0000 34.1454 0.0000 0.0000
# 5 0.0000 0.0000 0.0000 0.0000 25.6951 0.0000
# 6 0.0000 0.0000 0.0000 0.0000 0.0000 25.3053
#
#
#
# Elastic Compliance Matrix: (Units=1/GPa)
#
#
# Indices 1 2 3 4 5 6 
#
# 1 0.021086 -0.018736 -0.001943 0.000000 0.000000 0.000000
# 2 -0.018736 0.051805 -0.021260 0.000000 0.000000 0.000000
# 3 -0.001943 -0.021260 0.033717 0.000000 0.000000 0.000000
# 4 0.000000 0.000000 0.000000 0.029287 0.000000 0.000000
# 5 0.000000 0.000000 0.000000 0.000000 0.038918 0.000000
# 6 0.000000 0.000000 0.000000 0.000000 0.000000 0.039517
#
#
# Mechanical properties :
#
#
# Convention : Reuss Voigt Hill
#
# Bulk Modulus (GPa) = 43.99651 49.04764 46.52207
# Shear Modulus (GPa) = 16.35126 22.30818 19.32972
#
# Velocity S-wave (km/s) = 3.00484 3.50976 3.26707
# Velocity P-wave (km/s) = 6.02771 6.59609 6.31830
#
# Compressibility (1/GPa) = 0.02272908
#
# Stress axis : x y z
#
# Youngs Moduli (GPa) = 47.42406 19.30315 29.65821
#
# Poissons Ratio (x) = 0.36167 0.05762
# Poissons Ratio (y) = 0.88856 0.63055
# Poissons Ratio (z) = 0.09214 0.41039
#
# Static dielectric constant tensor:
#      x y z
#    x 1.617880 0.000000 0.000000 
#    y 0.000000 1.602040 0.000000 
#    z 0.000000 0.000000 1.616820 
# 
# From -- ./inp_files/16820.got.cif
#   From: 2010.05.17/outbox.cif.g08.bks.cpg/sg44_9_cif.got.tgz:16820.got - 2010.06.03 19:37:08.
