data_PCOD9374998
_publ_section_title
;
Structure prediction by ZEFSAII (Michael W. Deem and Ramdas Pophale) SiO2 
 PCOD9374998
Probable space group: I M M 2
;
_chemical_formula_sum "Si O2"
_cell_formula_units_Z 64
_cell_length_a 25.260768
_cell_length_b 9.067903
_cell_length_c 15.288591
_cell_angle_alpha 90.000000
_cell_angle_beta 90.000000
_cell_angle_gamma 90.000000
_cell_volume 3502.038197
_symmetry_space_group_name_H-M "I M M 2"
_symmetry_group_IT_number 44
_symmetry_cell_setting 'orthorhombic'
loop_
_space_group_symop_operation_xyz
x,y,z
-x,-y,z
-x,y,z
x,-y,z
1/2+x,1/2+y,1/2+z
1/2-x,1/2-y,1/2+z
1/2-x,1/2+y,1/2+z
1/2+x,1/2-y,1/2+z
loop_
_atom_site_type_symbol
_atom_site_label
_atom_site_fract_x
_atom_site_fract_y
_atom_site_fract_z
Si Si1 0.610325 0.325132 0.095630
Si Si2 0.717109 0.171849 0.119401
Si Si3 0.438213 0.822726 0.267534
Si Si4 0.850823 0.324268 0.290032
Si Si5 0.863408 0.322893 0.928246
Si Si6 0.757655 0.673201 0.823906
Si Si7 0.161286 0.823867 0.102281
Si Si8 0.561381 0.676524 0.909502
O O1 0.609447 0.500000 0.108015
O O2 0.670388 0.270642 0.082524
O O3 0.587285 0.248232 0.181723
O O4 0.576235 0.288912 0.009903
O O5 0.720363 0.189421 0.224796
O O6 0.776082 0.207306 0.087308
O O7 0.705793 0.000000 0.101089
O O8 0.500000 0.784094 0.273955
O O9 0.406019 0.780298 0.354559
O O10 0.433599 0.000000 0.259587
O O11 0.851214 0.500000 0.284850
O O12 0.795208 0.268578 0.331146
O O13 0.853392 0.253496 0.193239
O O14 0.899013 0.263387 0.347119
O O15 0.866318 0.500000 0.940953
O O16 0.805427 0.289133 0.888293
O O17 0.869599 0.240217 0.019656
O O18 0.743851 0.500000 0.834653
O O19 0.155577 0.000000 0.110923
O O20 0.500000 0.710472 0.892770
O O21 0.569107 0.500000 0.897691
#
# Coordination Sequence:
#
# PCOD9374998 Si02
#       8
#     8   8   8   8   8   8   8   8
#     4  11  22  35  57  88 120 153 192 237 288 347
#     4   9  18  35  55  80 116 155 193 230 281 345
#     4  10  21  39  61  84 117 160 199 238 288 342
#     4  11  23  39  61  88 116 149 197 247 296 351
#     4  10  20  36  58  86 118 154 198 244 291 345
#     4   9  18  35  57  82 117 156 191 234 290 347
#     4  10  22  39  59  84 119 158 195 241 297 351
#     4  10  23  43  62  82 114 156 199 243 298 355
#
# _framework density 18.275072999999999
#
# number of rings (size 3 to 8) (size 9 to 14) (size 15 to 20)
#    0.000    2.000    1.250    3.000    1.750    5.500 
#    0.000    0.625    0.000    2.250    0.000    0.000 
#    0.000    0.000    0.000    0.000    0.000    0.000 
#
# Total GULP energy -178756.696722 kJ/mol
# GULP energy per Si atom -5586.146773 kJ/mol
# Density = 1.823348 g / cm^3
# Si number density = 18.275073 Si / 1000 Ang^3
#
#
#
# Elastic Constant Matrix: (Units=GPa)
#
#
# Indices 1 2 3 4 5 6 
#
# 1 105.4406 61.9403 57.6653 0.0000 0.0000 0.0000
# 2 61.9403 54.6485 48.9938 0.0000 0.0000 0.0000
# 3 57.6653 48.9938 85.2223 0.0000 0.0000 0.0000
# 4 0.0000 0.0000 0.0000 30.4713 0.0000 0.0000
# 5 0.0000 0.0000 0.0000 0.0000 24.5547 0.0000
# 6 0.0000 0.0000 0.0000 0.0000 0.0000 19.6369
#
#
#
# Elastic Compliance Matrix: (Units=1/GPa)
#
#
# Indices 1 2 3 4 5 6 
#
# 1 0.028470 -0.030949 -0.001471 0.000000 0.000000 0.000000
# 2 -0.030949 0.071406 -0.020109 0.000000 0.000000 0.000000
# 3 -0.001471 -0.020109 0.024290 0.000000 0.000000 0.000000
# 4 0.000000 0.000000 0.000000 0.032818 0.000000 0.000000
# 5 0.000000 0.000000 0.000000 0.000000 0.040725 0.000000
# 6 0.000000 0.000000 0.000000 0.000000 0.000000 0.050925
#
#
# Mechanical properties :
#
#
# Convention : Reuss Voigt Hill
#
# Bulk Modulus (GPa) = 52.33864 64.72333 58.53099
# Shear Modulus (GPa) = 13.88648 20.04671 16.96659
#
# Velocity S-wave (km/s) = 2.75954 3.31561 3.05027
# Velocity P-wave (km/s) = 6.23338 7.08172 6.67105
#
# Compressibility (1/GPa) = 0.01910634
#
# Stress axis : x y z
#
# Youngs Moduli (GPa) = 35.12523 14.00437 41.16875
#
# Poissons Ratio (x) = 0.43343 0.06057
# Poissons Ratio (y) = 1.08710 0.82788
# Poissons Ratio (z) = 0.05168 0.28162
#
# Static dielectric constant tensor:
#      x y z
#    x 1.615170 0.000000 0.000000 
#    y 0.000000 1.607970 0.000000 
#    z 0.000000 0.000000 1.623250 
# 
# From -- ./inp_files/16884.got.cif
#   From: 2010.05.17/outbox.cif.g08.bks.cpg/sg44_9_cif.got.tgz:16884.got - 2010.06.03 19:37:08.
