data_PCOD9374910
_publ_section_title
;
Structure prediction by ZEFSAII (Michael W. Deem and Ramdas Pophale) SiO2 
 PCOD9374910
Probable space group: I M M 2
;
_chemical_formula_sum "Si O2"
_cell_formula_units_Z 64
_cell_length_a 9.001338
_cell_length_b 25.388778
_cell_length_c 14.818665
_cell_angle_alpha 90.000000
_cell_angle_beta 90.000000
_cell_angle_gamma 90.000000
_cell_volume 3386.553556
_symmetry_space_group_name_H-M "I M M 2"
_symmetry_group_IT_number 44
_symmetry_cell_setting 'orthorhombic'
loop_
_space_group_symop_operation_xyz
x,y,z
-x,-y,z
-x,y,z
x,-y,z
1/2+x,1/2+y,1/2+z
1/2-x,1/2-y,1/2+z
1/2-x,1/2+y,1/2+z
1/2+x,1/2-y,1/2+z
loop_
_atom_site_type_symbol
_atom_site_label
_atom_site_fract_x
_atom_site_fract_y
_atom_site_fract_z
Si Si1 0.173045 0.719385 0.343110
Si Si2 0.673308 0.062969 0.679666
Si Si3 0.172903 0.267294 0.126126
Si Si4 0.824682 0.329639 0.861776
Si Si5 0.323248 0.559879 0.550180
Si Si6 0.323268 0.366563 0.032012
Si Si7 0.824072 0.109643 0.858045
Si Si8 0.675530 0.842577 0.148727
O O1 0.181000 0.720342 0.233526
O O2 0.260364 0.770889 0.375017
O O3 0.248096 0.665879 0.376067
O O4 0.000000 0.722221 0.369047
O O5 0.500000 0.079007 0.679762
O O6 0.753485 0.088058 0.593672
O O7 0.750666 0.085130 0.769327
O O8 0.682125 0.000000 0.678696
O O9 0.265540 0.311826 0.075435
O O10 0.239353 0.209123 0.112785
O O11 0.000000 0.269143 0.099317
O O12 0.800939 0.343660 0.756936
O O13 0.000000 0.330517 0.880121
O O14 0.739335 0.367130 0.930750
O O15 0.500000 0.564687 0.568187
O O16 0.277218 0.500000 0.570378
O O17 0.302150 0.572356 0.444237
O O18 0.237137 0.604421 0.604901
O O19 0.500000 0.368588 0.033523
O O20 0.000000 0.116993 0.843601
O O21 0.500000 0.836660 0.132000
#
# Coordination Sequence:
#
# PCOD9374910 Si02
#       8
#     8   8   8   8   8   8   8   8
#     4  10  20  35  57  87 123 161 201 243 295 358
#     4  11  24  42  63  88 122 163 205 252 307 365
#     4  10  20  36  59  86 122 160 195 240 297 360
#     4  10  22  40  61  86 123 162 200 250 309 365
#     4  10  23  42  62  86 119 160 205 251 303 362
#     4  12  24  38  61  91 123 159 204 252 301 363
#     4  11  22  37  60  89 123 162 203 248 301 363
#     4  10  22  40  63  90 119 154 202 255 305 359
#
# _framework density 18.898268999999999
#
# number of rings (size 3 to 8) (size 9 to 14) (size 15 to 20)
#    0.000    1.500    1.250    3.750    1.750    5.250 
#    0.000    0.625    0.000    0.750    0.000    0.000 
#    0.000    0.000    0.000    0.000    0.000    0.000 
#
# Total GULP energy -178981.073532 kJ/mol
# GULP energy per Si atom -5593.158548 kJ/mol
# Density = 1.885526 g / cm^3
# Si number density = 18.898269 Si / 1000 Ang^3
#
#
#
# Elastic Constant Matrix: (Units=GPa)
#
#
# Indices 1 2 3 4 5 6 
#
# 1 121.8696 41.6522 37.1816 0.0000 0.0000 0.0000
# 2 41.6522 82.0394 16.0041 0.0000 0.0000 0.0000
# 3 37.1816 16.0041 37.9393 0.0000 0.0000 0.0000
# 4 0.0000 0.0000 0.0000 24.1481 0.0000 0.0000
# 5 0.0000 0.0000 0.0000 0.0000 32.5767 0.0000
# 6 0.0000 0.0000 0.0000 0.0000 0.0000 27.1671
#
#
#
# Elastic Compliance Matrix: (Units=1/GPa)
#
#
# Indices 1 2 3 4 5 6 
#
# 1 0.013076 -0.004510 -0.010913 0.000000 0.000000 0.000000
# 2 -0.004510 0.014838 -0.001839 0.000000 0.000000 0.000000
# 3 -0.010913 -0.001839 0.037828 0.000000 0.000000 0.000000
# 4 0.000000 0.000000 0.000000 0.041411 0.000000 0.000000
# 5 0.000000 0.000000 0.000000 0.000000 0.030697 0.000000
# 6 0.000000 0.000000 0.000000 0.000000 0.000000 0.036809
#
#
# Mechanical properties :
#
#
# Convention : Reuss Voigt Hill
#
# Bulk Modulus (GPa) = 32.03190 47.94713 39.98951
# Shear Modulus (GPa) = 22.76975 26.57909 24.67442
#
# Velocity S-wave (km/s) = 3.47487 3.75431 3.61729
# Velocity P-wave (km/s) = 5.75205 6.64976 6.21713
#
# Compressibility (1/GPa) = 0.03121888
#
# Stress axis : x y z
#
# Youngs Moduli (GPa) = 76.47402 67.39514 26.43519
#
# Poissons Ratio (x) = 0.30396 0.28848
# Poissons Ratio (y) = 0.34491 0.04862
# Poissons Ratio (z) = 0.83453 0.12394
#
# Static dielectric constant tensor:
#      x y z
#    x 1.629410 0.000000 0.000000 
#    y 0.000000 1.620250 0.000000 
#    z 0.000000 0.000000 1.670430 
# 
# From -- ./inp_files/16776.got.cif
#   From: 2010.05.17/outbox.cif.g08.bks.cpg/sg44_9_cif.got.tgz:16776.got - 2010.06.03 19:37:08.
