data_PCOD9374612
_publ_section_title
;
Structure prediction by ZEFSAII (Michael W. Deem and Ramdas Pophale) SiO2 
 PCOD9374612
Probable space group: I M M 2
;
_chemical_formula_sum "Si O2"
_cell_formula_units_Z 34
_cell_length_a 12.871886
_cell_length_b 14.475423
_cell_length_c 7.025510
_cell_angle_alpha 90.000000
_cell_angle_beta 90.000000
_cell_angle_gamma 90.000000
_cell_volume 1309.035139
_symmetry_space_group_name_H-M "I M M 2"
_symmetry_group_IT_number 44
_symmetry_cell_setting 'orthorhombic'
loop_
_space_group_symop_operation_xyz
x,y,z
-x,-y,z
-x,y,z
x,-y,z
1/2+x,1/2+y,1/2+z
1/2-x,1/2-y,1/2+z
1/2-x,1/2+y,1/2+z
1/2+x,1/2-y,1/2+z
loop_
_atom_site_type_symbol
_atom_site_label
_atom_site_fract_x
_atom_site_fract_y
_atom_site_fract_z
Si Si1 0.000000 0.500000 0.766330
Si Si2 0.661231 0.858198 0.092601
Si Si3 0.888439 0.191504 0.085631
Si Si4 0.161038 0.402160 0.149000
Si Si5 0.888400 0.147989 0.638913
O O1 0.909698 0.581186 0.727527
O O2 0.887582 0.841926 0.868055
O O3 0.656890 0.899155 0.879640
O O4 0.621183 0.753514 0.069141
O O5 0.882545 0.303059 0.087461
O O6 0.780117 0.152636 0.165110
O O7 0.000000 0.164005 0.169953
O O8 0.110167 0.500000 0.089574
O O9 0.281626 0.401512 0.090617
O O10 0.000000 0.108414 0.585052
#
# Coordination Sequence:
#
# PCOD9374612 Si02
#       5
#     2   8   8   8   8
#     4  12  20  32  58  82 106 124 184 224 256 296
#     4  10  20  34  54  81 104 136 178 215 260 311
#     4   9  20  36  53  74 111 142 171 210 270 314
#     4  10  20  33  52  82 107 134 178 222 257 307
#     4   9  18  36  53  73 105 145 175 210 265 315
#
# _framework density 25.973331000000002
#
# number of rings (size 3 to 8) (size 9 to 14) (size 15 to 20)
#    0.000    2.353    2.353    0.000    1.647    0.941 
#    2.118    0.588    0.000    0.000    0.000    0.000 
#    0.000    0.000    0.000    0.000    0.000    0.000 
#
# Total GULP energy -94873.907157 kJ/mol
# GULP energy per Si atom -5580.818068 kJ/mol
# Density = 2.591421 g / cm^3
# Si number density = 25.973331 Si / 1000 Ang^3
#
#
#
# Elastic Constant Matrix: (Units=GPa)
#
#
# Indices 1 2 3 4 5 6 
#
# 1 240.0360 35.1370 -8.9345 0.0000 0.0000 0.0000
# 2 35.1370 114.3988 1.8225 0.0000 0.0000 0.0000
# 3 -8.9345 1.8225 90.9292 0.0000 0.0000 0.0000
# 4 0.0000 0.0000 0.0000 23.7693 0.0000 0.0000
# 5 0.0000 0.0000 0.0000 0.0000 -17.8166 0.0000
# 6 0.0000 0.0000 0.0000 0.0000 0.0000 -58.7443
#
#
#
# Elastic Compliance Matrix: (Units=1/GPa)
#
#
# Indices 1 2 3 4 5 6 
#
# 1 0.004381 -0.001353 0.000458 0.000000 0.000000 0.000000
# 2 -0.001353 0.009162 -0.000317 0.000000 0.000000 0.000000
# 3 0.000458 -0.000317 0.011049 0.000000 0.000000 0.000000
# 4 0.000000 0.000000 0.000000 0.042071 0.000000 0.000000
# 5 0.000000 0.000000 0.000000 0.000000 -0.056128 0.000000
# 6 0.000000 0.000000 0.000000 0.000000 0.000000 -0.017023
#
#
# Mechanical properties :
#
#
# Convention : Reuss Voigt Hill
#
# Bulk Modulus (GPa) = 45.10978 55.71264 50.41121
# Shear Modulus (GPa) = 1503.43338 17.26429 760.34884
#
# Velocity S-wave (km/s) = 24.08514 2.58096 17.12827
# Velocity P-wave (km/s) = 28.12230 5.51165 20.26379
#
# Compressibility (1/GPa) = 0.02216814
#
# Stress axis : x y z
#
# Youngs Moduli (GPa) = 228.25220 109.14721 90.50693
#
# Poissons Ratio (x) = 0.14767 -0.04142
# Poissons Ratio (y) = 0.30881 0.02865
# Poissons Ratio (z) = -0.10445 0.03455
#
# Static dielectric constant tensor:
#      x y z
#    x 2.073800 0.000000 0.000000 
#    y 0.000000 1.961750 0.000000 
#    z 0.000000 0.000000 2.113330 
# 
# From -- ./inp_files/11973.got.cif
#   From: 2010.05.17/outbox.cif.g08.bks.cpg/sg44_6_cif.got.tgz:11973.got - 2010.06.03 19:37:08.
