data_PCOD9374444
_publ_section_title
;
Structure prediction by ZEFSAII (Michael W. Deem and Ramdas Pophale) SiO2 
 PCOD9374444
Probable space group: I M M 2
;
_chemical_formula_sum "Si O2"
_cell_formula_units_Z 48
_cell_length_a 14.347657
_cell_length_b 8.734996
_cell_length_c 18.283658
_cell_angle_alpha 90.000000
_cell_angle_beta 90.000000
_cell_angle_gamma 90.000000
_cell_volume 2291.431006
_symmetry_space_group_name_H-M "I M M 2"
_symmetry_group_IT_number 44
_symmetry_cell_setting 'orthorhombic'
loop_
_space_group_symop_operation_xyz
x,y,z
-x,-y,z
-x,y,z
x,-y,z
1/2+x,1/2+y,1/2+z
1/2-x,1/2-y,1/2+z
1/2-x,1/2+y,1/2+z
1/2+x,1/2-y,1/2+z
loop_
_atom_site_type_symbol
_atom_site_label
_atom_site_fract_x
_atom_site_fract_y
_atom_site_fract_z
Si Si1 0.640403 0.325113 0.980840
Si Si2 0.101466 0.818607 0.868529
Si Si3 0.300543 0.816675 0.673429
Si Si4 0.601466 0.818607 0.130896
Si Si5 0.300543 0.683325 0.825996
Si Si6 0.140403 0.325113 0.018585
O O1 0.604783 0.500000 0.985899
O O2 0.639440 0.269137 0.897236
O O3 0.600774 0.219604 0.044267
O O4 0.750000 0.333879 0.999713
O O5 0.193228 0.737543 0.837003
O O6 0.000000 0.767816 0.839433
O O7 0.110786 0.000000 0.857153
O O8 0.100774 0.780396 0.955158
O O9 0.193228 0.762457 0.662422
O O10 0.335034 0.750000 0.749713
O O11 0.360560 0.769137 0.602189
O O12 0.300915 0.000000 0.674413
O O13 0.500000 0.767816 0.159992
O O14 0.610786 0.000000 0.142272
O O15 0.300915 0.500000 0.825012
O O16 0.104783 0.500000 0.013527
#
# Coordination Sequence:
#
# PCOD9374444 Si02
#       6
#     8   8   8   8   8   8
#     4   8  16  31  49  69  92 121 159 197 234 278
#     4  10  20  32  48  72  99 127 159 194 234 280
#     4  10  20  33  50  72  97 126 159 195 237 283
#     4  10  20  32  48  72  99 127 159 194 234 280
#     4  10  20  33  50  72  97 126 159 195 237 283
#     4   8  16  31  49  69  92 121 159 197 234 278
#
# _framework density 20.947607999999999
#
# number of rings (size 3 to 8) (size 9 to 14) (size 15 to 20)
#    0.000    2.667    0.000    4.000    0.000   10.667 
#    0.000    0.000    0.000    1.000    0.000    0.000 
#    0.000    0.000    0.000    0.000    0.000    0.000 
#
# Total GULP energy -133856.125664 kJ/mol
# GULP energy per Si atom -5577.338569 kJ/mol
# Density = 2.089993 g / cm^3
# Si number density = 20.947608 Si / 1000 Ang^3
#
#
#
# Elastic Constant Matrix: (Units=GPa)
#
#
# Indices 1 2 3 4 5 6 
#
# 1 36.4229 -2.8211 -18.3518 0.0000 0.0000 0.0000
# 2 -2.8211 29.0521 6.3410 0.0000 0.0000 0.0000
# 3 -18.3518 6.3410 129.5299 0.0000 0.0000 0.0000
# 4 0.0000 0.0000 0.0000 34.4589 0.0000 0.0000
# 5 0.0000 0.0000 0.0000 0.0000 0.8316 0.0000
# 6 0.0000 0.0000 0.0000 0.0000 0.0000 40.1583
#
#
#
# Elastic Compliance Matrix: (Units=1/GPa)
#
#
# Indices 1 2 3 4 5 6 
#
# 1 0.029679 0.001985 0.004108 0.000000 0.000000 0.000000
# 2 0.001985 0.034925 -0.001428 0.000000 0.000000 0.000000
# 3 0.004108 -0.001428 0.008372 0.000000 0.000000 0.000000
# 4 0.000000 0.000000 0.000000 0.029020 0.000000 0.000000
# 5 0.000000 0.000000 0.000000 0.000000 1.202508 0.000000
# 6 0.000000 0.000000 0.000000 0.000000 0.000000 0.024901
#
#
# Mechanical properties :
#
#
# Convention : Reuss Voigt Hill
#
# Bulk Modulus (GPa) = 12.14986 18.37124 15.26055
# Shear Modulus (GPa) = 3.71054 29.07887 16.39471
#
# Velocity S-wave (km/s) = 1.33236 3.72986 2.80063
# Velocity P-wave (km/s) = 2.86001 5.22860 4.21414
#
# Compressibility (1/GPa) = 0.08230548
#
# Stress axis : x y z
#
# Youngs Moduli (GPa) = 33.69421 28.63242 119.44390
#
# Poissons Ratio (x) = -0.05685 -0.49064
# Poissons Ratio (y) = -0.06690 0.17062
# Poissons Ratio (z) = -0.13841 0.04090
#
# Static dielectric constant tensor:
#      x y z
#    x 1.793050 0.000000 0.000000 
#    y 0.000000 1.697290 0.000000 
#    z 0.000000 0.000000 1.807520 
# 
# From -- ./inp_files/20321.got.cif
#   From: 2010.05.17/outbox.cif.g08.bks.cpg/sg44_11_cif.got.tgz:20321.got - 2010.06.03 19:37:08.
