data_PCOD9374034
_publ_section_title
;
Structure prediction by ZEFSAII (Michael W. Deem and Ramdas Pophale) SiO2 
 PCOD9374034
Probable space group: I M M 2
;
_chemical_formula_sum "Si O2"
_cell_formula_units_Z 64
_cell_length_a 23.699070
_cell_length_b 15.430386
_cell_length_c 8.970354
_cell_angle_alpha 90.000000
_cell_angle_beta 90.000000
_cell_angle_gamma 90.000000
_cell_volume 3280.331060
_symmetry_space_group_name_H-M "I M M 2"
_symmetry_group_IT_number 44
_symmetry_cell_setting 'orthorhombic'
loop_
_space_group_symop_operation_xyz
x,y,z
-x,-y,z
-x,y,z
x,-y,z
1/2+x,1/2+y,1/2+z
1/2-x,1/2-y,1/2+z
1/2-x,1/2+y,1/2+z
1/2+x,1/2-y,1/2+z
loop_
_atom_site_type_symbol
_atom_site_label
_atom_site_fract_x
_atom_site_fract_y
_atom_site_fract_z
Si Si1 0.223928 0.092440 0.788910
Si Si2 0.908708 0.899744 0.849075
Si Si3 0.371748 0.746687 0.880612
Si Si4 0.566112 0.397523 0.700190
Si Si5 0.266114 0.818404 0.051524
Si Si6 0.185569 0.683442 0.111318
Si Si7 0.660752 0.897588 0.304511
Si Si8 0.936328 0.724263 0.677708
O O1 0.158017 0.101952 0.815352
O O2 0.254449 0.161593 0.687035
O O3 0.234012 0.000000 0.716228
O O4 0.257770 0.099896 0.942968
O O5 0.932268 0.820640 0.750496
O O6 0.927822 0.000000 0.817274
O O7 0.921574 0.883282 0.023855
O O8 0.392357 0.657414 0.805645
O O9 0.361502 0.809180 0.738337
O O10 0.312263 0.755986 0.970054
O O11 0.416979 0.771293 0.005609
O O12 0.500000 0.374863 0.727571
O O13 0.573105 0.500000 0.727521
O O14 0.203642 0.777273 0.050958
O O15 0.289452 0.852904 0.207512
O O16 0.171258 0.620490 0.978096
O O17 0.605941 0.842157 0.258089
O O18 0.656470 0.000000 0.273880
O O19 0.000000 0.693983 0.691212
#
# Coordination Sequence:
#
# PCOD9374034 Si02
#       8
#     8   8   8   8   8   8   8   8
#     4  10  19  33  53  79 114 148 178 218 273 336
#     4  10  21  36  58  89 121 156 199 244 294 355
#     4  10  21  36  56  81 111 150 194 237 291 353
#     4  10  20  35  55  81 116 155 195 241 291 346
#     4  10  20  35  56  83 116 153 187 228 280 339
#     4  11  21  37  58  83 116 149 185 233 286 345
#     4  11  23  39  61  89 118 154 201 245 290 347
#     4  11  23  40  61  83 113 153 198 253 307 353
#
# _framework density 19.510224999999998
#
# number of rings (size 3 to 8) (size 9 to 14) (size 15 to 20)
#    0.000    1.625    0.000    6.750    0.000    1.500 
#    0.000    5.625    0.000    0.000    0.000    0.000 
#    0.000    0.000    0.000    0.000    0.000    0.000 
#
# Total GULP energy -178381.596844 kJ/mol
# GULP energy per Si atom -5574.424901 kJ/mol
# Density = 1.946582 g / cm^3
# Si number density = 19.510225 Si / 1000 Ang^3
#
#
#
# Elastic Constant Matrix: (Units=GPa)
#
#
# Indices 1 2 3 4 5 6 
#
# 1 64.7306 25.8832 15.1186 0.0000 0.0000 0.0000
# 2 25.8832 85.3395 26.6864 0.0000 0.0000 0.0000
# 3 15.1186 26.6864 84.7060 0.0000 0.0000 0.0000
# 4 0.0000 0.0000 0.0000 20.9962 0.0000 0.0000
# 5 0.0000 0.0000 0.0000 0.0000 17.7784 0.0000
# 6 0.0000 0.0000 0.0000 0.0000 0.0000 5.6657
#
#
#
# Elastic Compliance Matrix: (Units=1/GPa)
#
#
# Indices 1 2 3 4 5 6 
#
# 1 0.017783 -0.004882 -0.001636 0.000000 0.000000 0.000000
# 2 -0.004882 0.014339 -0.003646 0.000000 0.000000 0.000000
# 3 -0.001636 -0.003646 0.013246 0.000000 0.000000 0.000000
# 4 0.000000 0.000000 0.000000 0.047628 0.000000 0.000000
# 5 0.000000 0.000000 0.000000 0.000000 0.056248 0.000000
# 6 0.000000 0.000000 0.000000 0.000000 0.000000 0.176500
#
#
# Mechanical properties :
#
#
# Convention : Reuss Voigt Hill
#
# Bulk Modulus (GPa) = 39.93603 41.12803 40.53203
# Shear Modulus (GPa) = 14.10764 20.02726 17.06745
#
# Velocity S-wave (km/s) = 2.69195 3.20738 2.96090
# Velocity P-wave (km/s) = 5.49325 5.90274 5.70168
#
# Compressibility (1/GPa) = 0.02504005
#
# Stress axis : x y z
#
# Youngs Moduli (GPa) = 56.23410 69.74131 75.49338
#
# Poissons Ratio (x) = 0.34047 0.12350
# Poissons Ratio (y) = 0.27453 0.27525
# Poissons Ratio (z) = 0.09199 0.25428
#
# Static dielectric constant tensor:
#      x y z
#    x 1.671120 0.000000 0.000000 
#    y 0.000000 1.691510 0.000000 
#    z 0.000000 0.000000 1.685090 
# 
# From -- ./inp_files/9482.got.cif
#   From: 2010.05.17/outbox.cif.g08.bks.cpg/sg44_5_cif.got.tgz:9482.got - 2010.06.03 19:37:08.
