data_PCOD9374127
_publ_section_title
;
Structure prediction by ZEFSAII (Michael W. Deem and Ramdas Pophale) SiO2 
 PCOD9374127
Probable space group: I M M 2
;
_chemical_formula_sum "Si O2"
_cell_formula_units_Z 64
_cell_length_a 20.191782
_cell_length_b 8.556025
_cell_length_c 21.364545
_cell_angle_alpha 90.000000
_cell_angle_beta 90.000000
_cell_angle_gamma 90.000000
_cell_volume 3690.968525
_symmetry_space_group_name_H-M "I M M 2"
_symmetry_group_IT_number 44
_symmetry_cell_setting 'orthorhombic'
loop_
_space_group_symop_operation_xyz
x,y,z
-x,-y,z
-x,y,z
x,-y,z
1/2+x,1/2+y,1/2+z
1/2-x,1/2-y,1/2+z
1/2-x,1/2+y,1/2+z
1/2+x,1/2-y,1/2+z
loop_
_atom_site_type_symbol
_atom_site_label
_atom_site_fract_x
_atom_site_fract_y
_atom_site_fract_z
Si Si1 0.425336 0.811502 0.277350
Si Si2 0.791133 0.188437 0.583290
Si Si3 0.574317 0.686992 0.512402
Si Si4 0.288783 0.190452 0.707067
Si Si5 0.209490 0.313358 0.962221
Si Si6 0.073948 0.688726 0.153612
Si Si7 0.209515 0.186677 0.828887
Si Si8 0.425636 0.188233 0.130670
O O1 0.500000 0.764313 0.296090
O O2 0.365905 0.738734 0.316111
O O3 0.416459 0.768005 0.203964
O O4 0.421792 0.000000 0.281284
O O5 0.751777 0.241716 0.645516
O O6 0.753784 0.243222 0.520787
O O7 0.866392 0.242913 0.590340
O O8 0.789310 0.000000 0.583243
O O9 0.500000 0.736629 0.492799
O O10 0.577896 0.500000 0.508644
O O11 0.634136 0.759921 0.473957
O O12 0.582575 0.739612 0.584606
O O13 0.365058 0.237129 0.697175
O O14 0.253623 0.244722 0.770404
O O15 0.286852 0.000000 0.707813
O O16 0.211281 0.500000 0.961877
O O17 0.232485 0.250636 0.895468
O O18 0.076982 0.500000 0.146810
O O19 0.000000 0.729783 0.176056
O O20 0.212090 0.000000 0.829905
O O21 0.500000 0.237417 0.112226
O O22 0.423104 0.000000 0.128011
#
# Coordination Sequence:
#
# PCOD9374127 Si02
#       8
#     8   8   8   8   8   8   8   8
#     4   9  18  33  51  73 104 139 173 207 248 305
#     4  10  19  34  55  78 103 134 175 219 258 304
#     4  10  20  33  50  76 108 138 172 212 255 305
#     4   9  17  32  52  78 105 131 170 216 257 300
#     4  11  23  38  54  73 103 140 179 216 255 311
#     4   9  16  30  54  79 104 136 172 210 254 304
#     4  11  22  35  52  74 105 138 171 216 262 305
#     4   9  18  32  52  80 110 136 168 213 260 307
#
# _framework density 17.339621999999999
#
# number of rings (size 3 to 8) (size 9 to 14) (size 15 to 20)
#    0.000    2.250    2.500    1.875    0.000    2.750 
#    0.000    2.500    0.000    0.750    0.000    1.750 
#    0.000    0.000    0.000    0.000    0.000    0.000 
#
# Total GULP energy -178527.815006 kJ/mol
# GULP energy per Si atom -5578.994219 kJ/mol
# Density = 1.730016 g / cm^3
# Si number density = 17.339622 Si / 1000 Ang^3
#
#
#
# Elastic Constant Matrix: (Units=GPa)
#
#
# Indices 1 2 3 4 5 6 
#
# 1 115.9207 17.8460 70.4129 0.0000 0.0000 0.0000
# 2 17.8460 17.1911 22.2027 0.0000 0.0000 0.0000
# 3 70.4129 22.2027 122.1538 0.0000 0.0000 0.0000
# 4 0.0000 0.0000 0.0000 23.5266 0.0000 0.0000
# 5 0.0000 0.0000 0.0000 0.0000 20.8835 0.0000
# 6 0.0000 0.0000 0.0000 0.0000 0.0000 20.7872
#
#
#
# Elastic Compliance Matrix: (Units=1/GPa)
#
#
# Indices 1 2 3 4 5 6 
#
# 1 0.013625 -0.005228 -0.006903 0.000000 0.000000 0.000000
# 2 -0.005228 0.078020 -0.011167 0.000000 0.000000 0.000000
# 3 -0.006903 -0.011167 0.014196 0.000000 0.000000 0.000000
# 4 0.000000 0.000000 0.000000 0.042505 0.000000 0.000000
# 5 0.000000 0.000000 0.000000 0.000000 0.047885 0.000000
# 6 0.000000 0.000000 0.000000 0.000000 0.000000 0.048107
#
#
# Mechanical properties :
#
#
# Convention : Reuss Voigt Hill
#
# Bulk Modulus (GPa) = 16.87977 52.90988 34.89483
# Shear Modulus (GPa) = 16.09367 22.69305 19.39336
#
# Velocity S-wave (km/s) = 3.04985 3.62158 3.34794
# Velocity P-wave (km/s) = 4.70723 6.93310 5.92562
#
# Compressibility (1/GPa) = 0.05924252
#
# Stress axis : x y z
#
# Youngs Moduli (GPa) = 73.39589 12.81729 70.44455
#
# Poissons Ratio (x) = 0.06701 0.48631
# Poissons Ratio (y) = 0.38370 0.78669
# Poissons Ratio (z) = 0.50669 0.14314
#
# Static dielectric constant tensor:
#      x y z
#    x 1.599120 0.000000 0.000000 
#    y 0.000000 1.589690 0.000000 
#    z 0.000000 0.000000 1.581500 
# 
# From -- ./inp_files/20740.got.cif
#   From: 2010.05.17/outbox.cif.g08.bks.cpg/sg44_11_cif.got.tgz:20740.got - 2010.06.03 19:37:08.
