data_PCOD9374739
_publ_section_title
;
Structure prediction by ZEFSAII (Michael W. Deem and Ramdas Pophale) SiO2 
 PCOD9374739
Probable space group: I M M 2
;
_chemical_formula_sum "Si O2"
_cell_formula_units_Z 64
_cell_length_a 8.834871
_cell_length_b 19.802173
_cell_length_c 20.996678
_cell_angle_alpha 90.000000
_cell_angle_beta 90.000000
_cell_angle_gamma 90.000000
_cell_volume 3673.361341
_symmetry_space_group_name_H-M "I M M 2"
_symmetry_group_IT_number 44
_symmetry_cell_setting 'orthorhombic'
loop_
_space_group_symop_operation_xyz
x,y,z
-x,-y,z
-x,y,z
x,-y,z
1/2+x,1/2+y,1/2+z
1/2-x,1/2-y,1/2+z
1/2-x,1/2+y,1/2+z
1/2+x,1/2-y,1/2+z
loop_
_atom_site_type_symbol
_atom_site_label
_atom_site_fract_x
_atom_site_fract_y
_atom_site_fract_z
Si Si1 0.320681 0.422358 0.016580
Si Si2 0.680188 0.423204 0.492391
Si Si3 0.179282 0.713396 0.688720
Si Si4 0.680475 0.290060 0.820954
Si Si5 0.818967 0.422971 0.875470
Si Si6 0.319539 0.792834 0.570245
Si Si7 0.819878 0.076941 0.144967
Si Si8 0.180031 0.287366 0.451299
O O1 0.500000 0.409440 0.008843
O O2 0.300766 0.500000 0.037355
O O3 0.248441 0.367631 0.062978
O O4 0.241107 0.415450 0.947779
O O5 0.500000 0.414874 0.481995
O O6 0.721760 0.500000 0.474813
O O7 0.704378 0.416341 0.568673
O O8 0.770149 0.364997 0.456684
O O9 0.240107 0.735836 0.757317
O O10 0.256733 0.755045 0.632066
O O11 0.227820 0.635338 0.679100
O O12 0.000000 0.719889 0.684568
O O13 0.500000 0.290229 0.812668
O O14 0.738384 0.365775 0.834617
O O15 0.717711 0.246055 0.883501
O O16 0.784570 0.500000 0.855275
O O17 0.000000 0.413736 0.874217
O O18 0.500000 0.794246 0.571553
O O19 0.264114 0.752229 0.507827
O O20 0.000000 0.086186 0.156200
O O21 0.779959 0.000000 0.163018
O O22 0.000000 0.280830 0.461100
#
# Coordination Sequence:
#
# PCOD9374739 Si02
#       8
#     8   8   8   8   8   8   8   8
#     4  10  20  35  57  86 118 149 186 234 285 335
#     4   9  18  33  56  85 115 148 185 226 277 336
#     4  12  25  39  57  82 114 149 194 241 287 341
#     4  11  24  40  57  79 114 154 193 236 287 342
#     4  10  20  34  54  82 115 152 194 234 277 334
#     4  12  23  37  60  85 115 151 190 234 284 340
#     4   9  18  34  55  80 113 152 190 226 274 337
#     4  11  22  36  58  87 114 146 190 237 283 333
#
# _framework density 17.422734999999999
#
# number of rings (size 3 to 8) (size 9 to 14) (size 15 to 20)
#    0.000    1.500    2.500    4.500    0.000    4.000 
#    0.000    1.250    0.000    0.750    0.000    3.500 
#    0.000    0.000    0.000    0.000    0.000    0.000 
#
# Total GULP energy -178825.748407 kJ/mol
# GULP energy per Si atom -5588.304638 kJ/mol
# Density = 1.738308 g / cm^3
# Si number density = 17.422735 Si / 1000 Ang^3
#
#
#
# Elastic Constant Matrix: (Units=GPa)
#
#
# Indices 1 2 3 4 5 6 
#
# 1 75.9487 41.6498 39.6540 0.0000 0.0000 0.0000
# 2 41.6498 87.3219 41.8395 0.0000 0.0000 0.0000
# 3 39.6540 41.8395 80.4750 0.0000 0.0000 0.0000
# 4 0.0000 0.0000 0.0000 18.1455 0.0000 0.0000
# 5 0.0000 0.0000 0.0000 0.0000 27.6829 0.0000
# 6 0.0000 0.0000 0.0000 0.0000 0.0000 15.4086
#
#
#
# Elastic Compliance Matrix: (Units=1/GPa)
#
#
# Indices 1 2 3 4 5 6 
#
# 1 0.020136 -0.006459 -0.006564 0.000000 0.000000 0.000000
# 2 -0.006459 0.017323 -0.005824 0.000000 0.000000 0.000000
# 3 -0.006564 -0.005824 0.018688 0.000000 0.000000 0.000000
# 4 0.000000 0.000000 0.000000 0.055110 0.000000 0.000000
# 5 0.000000 0.000000 0.000000 0.000000 0.036123 0.000000
# 6 0.000000 0.000000 0.000000 0.000000 0.000000 0.064899
#
#
# Mechanical properties :
#
#
# Convention : Reuss Voigt Hill
#
# Bulk Modulus (GPa) = 54.18862 54.44801 54.31831
# Shear Modulus (GPa) = 19.52176 20.28755 19.90465
#
# Velocity S-wave (km/s) = 3.35098 3.41608 3.38369
# Velocity P-wave (km/s) = 6.79278 6.84678 6.81983
#
# Compressibility (1/GPa) = 0.01845406
#
# Stress axis : x y z
#
# Youngs Moduli (GPa) = 49.66213 57.72648 53.50958
#
# Poissons Ratio (x) = 0.37287 0.35123
# Poissons Ratio (y) = 0.32078 0.31162
# Poissons Ratio (z) = 0.32597 0.33617
#
# Static dielectric constant tensor:
#      x y z
#    x 1.576890 0.000000 0.000000 
#    y 0.000000 1.603370 0.000000 
#    z 0.000000 0.000000 1.577760 
# 
# From -- ./inp_files/23312.got.cif
#   From: 2010.05.17/outbox.cif.g08.bks.cpg/sg44_12_cif.got.tgz:23312.got - 2010.06.03 19:37:08.
