data_PCOD9374224
_publ_section_title
;
Structure prediction by ZEFSAII (Michael W. Deem and Ramdas Pophale) SiO2 
 PCOD9374224
Probable space group: I M M 2
;
_chemical_formula_sum "Si O2"
_cell_formula_units_Z 48
_cell_length_a 7.597837
_cell_length_b 15.038154
_cell_length_c 20.995319
_cell_angle_alpha 90.000000
_cell_angle_beta 90.000000
_cell_angle_gamma 90.000000
_cell_volume 2398.871461
_symmetry_space_group_name_H-M "I M M 2"
_symmetry_group_IT_number 44
_symmetry_cell_setting 'orthorhombic'
loop_
_space_group_symop_operation_xyz
x,y,z
-x,-y,z
-x,y,z
x,-y,z
1/2+x,1/2+y,1/2+z
1/2-x,1/2-y,1/2+z
1/2-x,1/2+y,1/2+z
1/2+x,1/2-y,1/2+z
loop_
_atom_site_type_symbol
_atom_site_label
_atom_site_fract_x
_atom_site_fract_y
_atom_site_fract_z
Si Si1 0.298273 0.500000 0.674070
Si Si2 0.797793 0.500000 0.818702
Si Si3 0.285220 0.500000 0.200181
Si Si4 0.710646 0.809322 0.359538
Si Si5 0.784596 0.191766 0.743128
Si Si6 0.285066 0.500000 0.051781
Si Si7 0.211605 0.191803 0.504262
Si Si8 0.712269 0.190712 0.121902
O O1 0.500000 0.500000 0.693510
O O2 0.199087 0.500000 0.741779
O O3 0.262271 0.588912 0.634115
O O4 0.717578 0.591964 0.843922
O O5 0.000000 0.500000 0.841404
O O6 0.500000 0.500000 0.200648
O O7 0.226460 0.590728 0.233238
O O8 0.234206 0.500000 0.125958
O O9 0.500000 0.813532 0.350248
O O10 0.776139 0.739091 0.307534
O O11 0.744840 0.784294 0.432114
O O12 0.729906 0.250993 0.682617
O O13 0.000000 0.190803 0.742871
O O14 0.500000 0.500000 0.049697
O O15 0.224587 0.408414 0.019535
O O16 0.275599 0.261556 0.557434
O O17 0.000000 0.189226 0.509963
O O18 0.500000 0.193470 0.121188
#
# Coordination Sequence:
#
# PCOD9374224 Si02
#       8
#     4   4   4   8   8   4   8   8
#     4  12  24  35  54  85 111 135 176 241 292 314
#     4  10  19  35  57  78 108 150 189 221 265 336
#     4   9  14  25  50  83 105 121 169 228 260 293
#     4  10  20  33  51  76 109 148 181 217 266 322
#     4   9  16  29  52  78 104 138 178 219 260 310
#     4   9  15  27  50  82 110 128 160 218 273 307
#     4  10  20  33  54  82 111 143 177 221 269 318
#     4  10  19  36  58  77 104 146 188 219 261 332
#
# _framework density 20.009409000000002
#
# number of rings (size 3 to 8) (size 9 to 14) (size 15 to 20)
#    0.000    2.167    3.333    1.250    0.000    1.333 
#    0.000    0.833    0.000    1.000    0.000    1.750 
#    0.000    0.000    0.000    0.000    0.000    0.000 
#
# Total GULP energy -134024.415849 kJ/mol
# GULP energy per Si atom -5584.350660 kJ/mol
# Density = 1.996387 g / cm^3
# Si number density = 20.009409 Si / 1000 Ang^3
#
#
#
# Elastic Constant Matrix: (Units=GPa)
#
#
# Indices 1 2 3 4 5 6 
#
# 1 42.7335 2.5693 -4.9084 0.0000 0.0000 0.0000
# 2 2.5693 182.7199 103.5732 0.0000 0.0000 0.0000
# 3 -4.9084 103.5732 175.9266 0.0000 0.0000 0.0000
# 4 0.0000 0.0000 0.0000 25.2064 0.0000 0.0000
# 5 0.0000 0.0000 0.0000 0.0000 15.4364 0.0000
# 6 0.0000 0.0000 0.0000 0.0000 0.0000 18.9829
#
#
#
# Elastic Compliance Matrix: (Units=1/GPa)
#
#
# Indices 1 2 3 4 5 6 
#
# 1 0.023612 -0.001059 0.001282 0.000000 0.000000 0.000000
# 2 -0.001059 0.008261 -0.004893 0.000000 0.000000 0.000000
# 3 0.001282 -0.004893 0.008601 0.000000 0.000000 0.000000
# 4 0.000000 0.000000 0.000000 0.039672 0.000000 0.000000
# 5 0.000000 0.000000 0.000000 0.000000 0.064782 0.000000
# 6 0.000000 0.000000 0.000000 0.000000 0.000000 0.052679
#
#
# Mechanical properties :
#
#
# Convention : Reuss Voigt Hill
#
# Bulk Modulus (GPa) = 32.11912 67.09423 49.60667
# Shear Modulus (GPa) = 23.00697 31.93486 27.47092
#
# Velocity S-wave (km/s) = 3.39456 3.99932 3.70929
# Velocity P-wave (km/s) = 5.60811 7.41149 6.57195
#
# Compressibility (1/GPa) = 0.03113410
#
# Stress axis : x y z
#
# Youngs Moduli (GPa) = 42.35175 121.04365 116.26821
#
# Poissons Ratio (x) = 0.12816 -0.14907
# Poissons Ratio (y) = 0.04484 0.56894
# Poissons Ratio (z) = -0.05430 0.59231
#
# Static dielectric constant tensor:
#      x y z
#    x 1.757590 0.000000 0.000000 
#    y 0.000000 1.695750 0.000000 
#    z 0.000000 0.000000 1.677340 
# 
# From -- ./inp_files/20406.got.cif
#   From: 2010.05.17/outbox.cif.g08.bks.cpg/sg44_11_cif.got.tgz:20406.got - 2010.06.03 19:37:08.
