data_PCOD9374875
_publ_section_title
;
Structure prediction by ZEFSAII (Michael W. Deem and Ramdas Pophale) SiO2 
 PCOD9374875
Probable space group: I M M 2
;
_chemical_formula_sum "Si O2"
_cell_formula_units_Z 48
_cell_length_a 16.131458
_cell_length_b 26.231440
_cell_length_c 5.202200
_cell_angle_alpha 90.000000
_cell_angle_beta 90.000000
_cell_angle_gamma 90.000000
_cell_volume 2201.318071
_symmetry_space_group_name_H-M "I M M 2"
_symmetry_group_IT_number 44
_symmetry_cell_setting 'orthorhombic'
loop_
_space_group_symop_operation_xyz
x,y,z
-x,-y,z
-x,y,z
x,-y,z
1/2+x,1/2+y,1/2+z
1/2-x,1/2-y,1/2+z
1/2-x,1/2+y,1/2+z
1/2+x,1/2-y,1/2+z
loop_
_atom_site_type_symbol
_atom_site_label
_atom_site_fract_x
_atom_site_fract_y
_atom_site_fract_z
Si Si1 0.736196 0.363525 0.889770
Si Si2 0.903789 0.844000 0.790181
Si Si3 0.588695 0.883955 0.444311
Si Si4 0.630986 0.942584 0.925930
Si Si5 0.680797 0.441584 0.535108
Si Si6 0.717041 0.277816 0.529585
O O1 0.826004 0.355327 0.012699
O O2 0.710296 0.420995 0.815203
O O3 0.746962 0.333540 0.621088
O O4 0.659534 0.342494 0.050670
O O5 0.881792 0.898339 0.929245
O O6 0.000000 0.843016 0.723732
O O7 0.876621 0.793787 0.952976
O O8 0.500000 0.856880 0.454922
O O9 0.589724 0.927672 0.659054
O O10 0.602833 0.906528 0.159799
O O11 0.730857 0.940218 0.889083
O O12 0.610730 0.000000 0.002275
O O13 0.650593 0.500000 0.537552
O O14 0.764090 0.255206 0.283491
#
# Coordination Sequence:
#
# PCOD9374875 Si02
#       6
#     8   8   8   8   8   8
#     4  10  22  41  67  97 137 184 224 289 345 415
#     4  11  23  42  71 104 140 184 236 286 345 419
#     4  11  22  36  56  86 124 168 216 269 332 397
#     4  10  20  35  56  83 119 169 225 278 327 381
#     4   9  20  38  61  93 138 191 240 285 343 400
#     4  11  23  46  75  98 129 174 218 283 357 416
#
# _framework density 21.805119999999999
#
# number of rings (size 3 to 8) (size 9 to 14) (size 15 to 20)
#    0.000    1.667    3.333    1.000    0.000    6.333 
#    0.000    1.667    0.000    1.000    0.000    0.000 
#    0.000    0.000    0.000    0.000    0.000    0.000 
#
# Total GULP energy -133668.409952 kJ/mol
# GULP energy per Si atom -5569.517081 kJ/mol
# Density = 2.175549 g / cm^3
# Si number density = 21.805120 Si / 1000 Ang^3
#
#
#
# Elastic Constant Matrix: (Units=GPa)
#
#
# Indices 1 2 3 4 5 6 
#
# 1 182.4054 34.6438 40.8837 0.0000 -0.0002 -0.0005
# 2 34.6438 85.5408 32.8973 -0.0001 0.0003 0.0004
# 3 40.8837 32.8973 103.5941 -0.0003 -0.0043 -0.0032
# 4 0.0000 -0.0001 -0.0003 35.0617 -0.0004 -0.0008
# 5 -0.0002 0.0003 -0.0043 -0.0004 7.1600 -0.0007
# 6 -0.0005 0.0004 -0.0032 -0.0008 -0.0007 32.6130
#
#
#
# Elastic Compliance Matrix: (Units=1/GPa)
#
#
# Indices 1 2 3 4 5 6 
#
# 1 0.006249 -0.001803 -0.001894 0.000000 -0.000001 0.000000
# 2 -0.001803 0.013837 -0.003683 0.000000 -0.000003 -0.000001
# 3 -0.001894 -0.003683 0.011570 0.000000 0.000007 0.000001
# 4 0.000000 0.000000 0.000000 0.028521 0.000002 0.000001
# 5 -0.000001 -0.000003 0.000007 0.000002 0.139665 0.000003
# 6 0.000000 -0.000001 0.000001 0.000001 0.000003 0.030663
#
#
# Mechanical properties :
#
#
# Convention : Reuss Voigt Hill
#
# Bulk Modulus (GPa) = 59.17946 65.37665 62.27806
# Shear Modulus (GPa) = 19.92869 32.50797 26.21833
#
# Velocity S-wave (km/s) = 3.02643 3.86533 3.47132
# Velocity P-wave (km/s) = 6.27786 7.06883 6.68505
#
# Compressibility (1/GPa) = 0.01689775
#
# Stress axis : x y z
#
# Youngs Moduli (GPa) = 160.02245 72.27211 86.43123
#
# Poissons Ratio (x) = 0.13027 0.16369
# Poissons Ratio (y) = 0.28845 0.31829
# Poissons Ratio (z) = 0.30305 0.26615
#
# Static dielectric constant tensor:
#      x y z
#    x 1.855150 0.000000 0.000000 
#    y 0.000000 1.870560 0.000000 
#    z 0.000000 0.000000 1.882930 
# 
# From -- ./inp_files/1575.got.cif
#   From: 2010.05.17/outbox.cif.g08.bks.cpg/sg44_1_cif.got.tgz:1575.got - 2010.06.03 19:37:08.
