data_PCOD9374023
_publ_section_title
;
Structure prediction by ZEFSAII (Michael W. Deem and Ramdas Pophale) SiO2 
 PCOD9374023
Probable space group: I M M 2
;
_chemical_formula_sum "Si O2"
_cell_formula_units_Z 64
_cell_length_a 27.031698
_cell_length_b 7.423045
_cell_length_c 13.642869
_cell_angle_alpha 90.000000
_cell_angle_beta 90.000000
_cell_angle_gamma 90.000000
_cell_volume 2737.544132
_symmetry_space_group_name_H-M "I M M 2"
_symmetry_group_IT_number 44
_symmetry_cell_setting 'orthorhombic'
loop_
_space_group_symop_operation_xyz
x,y,z
-x,-y,z
-x,y,z
x,-y,z
1/2+x,1/2+y,1/2+z
1/2-x,1/2-y,1/2+z
1/2-x,1/2+y,1/2+z
1/2+x,1/2-y,1/2+z
loop_
_atom_site_type_symbol
_atom_site_label
_atom_site_fract_x
_atom_site_fract_y
_atom_site_fract_z
Si Si1 0.688197 0.700393 0.721680
Si Si2 0.555441 0.219789 0.869753
Si Si3 0.228643 0.280055 0.845343
Si Si4 0.629218 0.783317 0.039285
Si Si5 0.942811 0.719358 0.939491
Si Si6 0.916601 0.704368 0.155769
Si Si7 0.125434 0.720093 0.758386
Si Si8 0.745054 0.710873 0.052492
O O1 0.717358 0.786395 0.811761
O O2 0.642152 0.798376 0.674474
O O3 0.733017 0.689694 0.644959
O O4 0.829243 0.000000 0.247263
O O5 0.500000 0.264843 0.902816
O O6 0.562707 0.283413 0.757523
O O7 0.559255 0.000000 0.865876
O O8 0.596599 0.282132 0.947590
O O9 0.230975 0.500000 0.841331
O O10 0.181555 0.221684 0.783117
O O11 0.223607 0.231184 0.958198
O O12 0.611647 0.723254 0.148072
O O13 0.687112 0.736585 0.033991
O O14 0.625734 0.000000 0.038343
O O15 0.938392 0.500000 0.940847
O O16 0.927460 0.783753 0.048616
O O17 0.000000 0.764862 0.923131
O O18 0.909243 0.779449 0.848166
O O19 0.936220 0.500000 0.151225
O O20 0.125376 0.500000 0.758764
O O21 0.753722 0.500000 0.069505
#
# Coordination Sequence:
#
# PCOD9374023 Si02
#       8
#     8   8   8   8   8   8   8   8
#     4  11  21  35  54  77 107 141 178 215 265 325
#     4   9  18  32  53  82 111 141 180 230 282 322
#     4   9  18  32  50  72 102 139 173 212 261 311
#     4  10  19  33  53  76 109 144 176 220 272 323
#     4   9  17  29  50  78 103 134 177 221 263 310
#     4  10  19  33  53  78 110 139 175 225 273 320
#     4   9  16  29  48  70 101 136 172 214 259 308
#     4  11  21  34  54  78 106 140 180 222 265 319
#
# _framework density 23.378619
#
# number of rings (size 3 to 8) (size 9 to 14) (size 15 to 20)
#    0.000    2.250    1.250    2.625    0.000    4.000 
#    0.000    4.375    0.000    2.625    0.000    0.000 
#    0.000    0.000    0.000    0.000    0.000    0.000 
#
# Total GULP energy -178720.826726 kJ/mol
# GULP energy per Si atom -5585.025835 kJ/mol
# Density = 2.332541 g / cm^3
# Si number density = 23.378619 Si / 1000 Ang^3
#
#
#
# Elastic Constant Matrix: (Units=GPa)
#
#
# Indices 1 2 3 4 5 6 
#
# 1 103.9339 -3.2240 28.2222 0.0000 0.0000 0.0000
# 2 -3.2240 77.7401 7.3006 0.0000 0.0000 0.0000
# 3 28.2222 7.3006 125.1416 0.0000 0.0000 0.0000
# 4 0.0000 0.0000 0.0000 -4.4612 0.0000 0.0000
# 5 0.0000 0.0000 0.0000 0.0000 37.6020 0.0000
# 6 0.0000 0.0000 0.0000 0.0000 0.0000 -8.6288
#
#
#
# Elastic Compliance Matrix: (Units=1/GPa)
#
#
# Indices 1 2 3 4 5 6 
#
# 1 0.010281 0.000648 -0.002356 0.000000 0.000000 0.000000
# 2 0.000648 0.012975 -0.000903 0.000000 0.000000 0.000000
# 3 -0.002356 -0.000903 0.008575 0.000000 0.000000 0.000000
# 4 0.000000 0.000000 0.000000 -0.224153 0.000000 0.000000
# 5 0.000000 0.000000 0.000000 0.000000 0.026594 0.000000
# 6 0.000000 0.000000 0.000000 0.000000 0.000000 -0.115891
#
#
# Mechanical properties :
#
#
# Convention : Reuss Voigt Hill
#
# Bulk Modulus (GPa) = 37.58275 41.26814 39.42545
# Shear Modulus (GPa) = -18.68982 23.20352 2.25685
#
# Velocity S-wave (km/s) = -2.83051 3.15383 0.98359
# Velocity P-wave (km/s) = 2.32986 5.56351 4.26502
#
# Compressibility (1/GPa) = 0.02660795
#
# Stress axis : x y z
#
# Youngs Moduli (GPa) = 97.26237 77.07105 116.61714
#
# Poissons Ratio (x) = -0.04992 0.27481
# Poissons Ratio (y) = -0.06300 0.10531
# Poissons Ratio (z) = 0.22920 0.06960
#
# Static dielectric constant tensor:
#      x y z
#    x 1.840530 0.000000 0.000000 
#    y 0.000000 1.900280 0.000000 
#    z 0.000000 0.000000 1.884280 
# 
# From -- ./inp_files/11512.got.cif
#   From: 2010.05.17/outbox.cif.g08.bks.cpg/sg44_6_cif.got.tgz:11512.got - 2010.06.03 19:37:08.
