data_PCOD9374634
_publ_section_title
;
Structure prediction by ZEFSAII (Michael W. Deem and Ramdas Pophale) SiO2 
 PCOD9374634
Probable space group: I M M 2
;
_chemical_formula_sum "Si O2"
_cell_formula_units_Z 58
_cell_length_a 15.872678
_cell_length_b 7.846741
_cell_length_c 19.962002
_cell_angle_alpha 90.000000
_cell_angle_beta 90.000000
_cell_angle_gamma 90.000000
_cell_volume 2486.243260
_symmetry_space_group_name_H-M "I M M 2"
_symmetry_group_IT_number 44
_symmetry_cell_setting 'orthorhombic'
loop_
_space_group_symop_operation_xyz
x,y,z
-x,-y,z
-x,y,z
x,-y,z
1/2+x,1/2+y,1/2+z
1/2-x,1/2-y,1/2+z
1/2-x,1/2+y,1/2+z
1/2+x,1/2-y,1/2+z
loop_
_atom_site_type_symbol
_atom_site_label
_atom_site_fract_x
_atom_site_fract_y
_atom_site_fract_z
Si Si1 0.500000 0.000000 0.411750
Si Si2 0.591920 0.691412 0.721531
Si Si3 0.093327 0.796603 0.702719
Si Si4 0.405862 0.209197 0.975236
Si Si5 0.407888 0.808812 0.576614
Si Si6 0.880211 0.796277 0.860549
Si Si7 0.718797 0.201142 0.087239
Si Si8 0.685552 0.201247 0.844984
O O1 0.571862 0.844935 0.403598
O O2 0.500000 0.712566 0.754913
O O3 0.596454 0.500000 0.693266
O O4 0.593703 0.811443 0.657772
O O5 0.664642 0.715158 0.774518
O O6 0.102126 0.755211 0.781713
O O7 0.174920 0.749495 0.658143
O O8 0.000000 0.729689 0.679881
O O9 0.089705 0.000000 0.699399
O O10 0.500000 0.261200 0.990820
O O11 0.342334 0.274840 0.030839
O O12 0.402660 0.000000 0.974831
O O13 0.376828 0.264928 0.902086
O O14 0.500000 0.728290 0.558889
O O15 0.314776 0.738483 0.565292
O O16 0.411874 0.000000 0.549238
O O17 0.780395 0.778384 0.869260
O O18 0.900803 0.000000 0.871615
O O19 0.712433 0.000000 0.086353
O O20 0.671025 0.000000 0.834504
#
# Coordination Sequence:
#
# PCOD9374634 Si02
#       8
#     2   8   8   8   8   8   8   8
#     4  12  22  36  64  82 122 164 190 244 320 348
#     4  10  20  33  53  86 120 147 183 233 287 347
#     4  10  20  35  54  81 120 155 191 239 287 349
#     4   9  19  37  59  87 117 151 192 236 285 347
#     4  10  21  38  59  80 110 150 192 234 288 349
#     4  10  22  37  57  89 120 157 202 245 296 368
#     4  11  22  34  57  87 116 149 194 243 289 348
#     4  10  20  36  60  82 113 153 195 240 286 345
#
# _framework density 23.328368000000001
#
# number of rings (size 3 to 8) (size 9 to 14) (size 15 to 20)
#    0.000    1.931    0.690    3.103    1.931    4.138 
#    0.000    1.379    1.517    3.310    0.000    0.000 
#    0.000    0.000    0.000    0.000    0.000    0.000 
#
# Total GULP energy -161608.262608 kJ/mol
# GULP energy per Si atom -5572.698711 kJ/mol
# Density = 2.327527 g / cm^3
# Si number density = 23.328368 Si / 1000 Ang^3
#
#
#
# Elastic Constant Matrix: (Units=GPa)
#
#
# Indices 1 2 3 4 5 6 
#
# 1 145.6427 18.1131 30.2849 0.0000 0.0000 0.0000
# 2 18.1131 67.6612 4.0762 0.0000 0.0000 0.0000
# 3 30.2849 4.0762 48.1001 0.0000 0.0000 0.0000
# 4 0.0000 0.0000 0.0000 7.9274 0.0000 0.0000
# 5 0.0000 0.0000 0.0000 0.0000 -12.4464 0.0000
# 6 0.0000 0.0000 0.0000 0.0000 0.0000 18.1694
#
#
#
# Elastic Compliance Matrix: (Units=1/GPa)
#
#
# Indices 1 2 3 4 5 6 
#
# 1 0.008131 -0.001878 -0.004960 0.000000 0.000000 0.000000
# 2 -0.001878 0.015289 -0.000113 0.000000 0.000000 0.000000
# 3 -0.004960 -0.000113 0.023923 0.000000 0.000000 0.000000
# 4 0.000000 0.000000 0.000000 0.126144 0.000000 0.000000
# 5 0.000000 0.000000 0.000000 0.000000 -0.080344 0.000000
# 6 0.000000 0.000000 0.000000 0.000000 0.000000 0.055038
#
#
# Mechanical properties :
#
#
# Convention : Reuss Voigt Hill
#
# Bulk Modulus (GPa) = 29.90451 40.70582 35.30517
# Shear Modulus (GPa) = 28.86332 16.65873 22.76102
#
# Velocity S-wave (km/s) = 3.52129 2.67516 3.12698
# Velocity P-wave (km/s) = 5.42028 5.19893 5.31076
#
# Compressibility (1/GPa) = 0.03343977
#
# Stress axis : x y z
#
# Youngs Moduli (GPa) = 122.98425 65.40621 41.80120
#
# Poissons Ratio (x) = 0.12283 0.20735
# Poissons Ratio (y) = 0.23095 0.00474
# Poissons Ratio (z) = 0.61005 0.00741
#
# Static dielectric constant tensor:
#      x y z
#    x 1.943850 0.000000 0.000000 
#    y 0.000000 1.873010 0.000000 
#    z 0.000000 0.000000 1.900110 
# 
# From -- ./inp_files/25056.got.cif
#   From: 2010.05.17/outbox.cif.g08.bks.cpg/sg44_13_cif.got.tgz:25056.got - 2010.06.03 19:37:08.
