data_PCOD9374799
_publ_section_title
;
Structure prediction by ZEFSAII (Michael W. Deem and Ramdas Pophale) SiO2 
 PCOD9374799
Probable space group: I M M 2
;
_chemical_formula_sum "Si O2"
_cell_formula_units_Z 64
_cell_length_a 29.261067
_cell_length_b 8.036848
_cell_length_c 13.519793
_cell_angle_alpha 90.000000
_cell_angle_beta 90.000000
_cell_angle_gamma 90.000000
_cell_volume 3179.405751
_symmetry_space_group_name_H-M "I M M 2"
_symmetry_group_IT_number 44
_symmetry_cell_setting 'orthorhombic'
loop_
_space_group_symop_operation_xyz
x,y,z
-x,-y,z
-x,y,z
x,-y,z
1/2+x,1/2+y,1/2+z
1/2-x,1/2-y,1/2+z
1/2-x,1/2+y,1/2+z
1/2+x,1/2-y,1/2+z
loop_
_atom_site_type_symbol
_atom_site_label
_atom_site_fract_x
_atom_site_fract_y
_atom_site_fract_z
Si Si1 0.623433 0.303778 0.780870
Si Si2 0.245453 0.308856 0.087954
Si Si3 0.298495 0.308988 0.270528
Si Si4 0.946103 0.701899 0.669555
Si Si5 0.709710 0.184943 0.904564
Si Si6 0.053349 0.298766 0.449891
Si Si7 0.858050 0.300707 0.063385
Si Si8 0.109242 0.692587 0.856874
O O1 0.627097 0.500000 0.770501
O O2 0.669655 0.236379 0.831310
O O3 0.583260 0.262307 0.858190
O O4 0.619725 0.231554 0.670141
O O5 0.237265 0.500000 0.119990
O O6 0.274656 0.229310 0.175184
O O7 0.194858 0.237469 0.067162
O O8 0.278690 0.304102 0.994588
O O9 0.314766 0.500000 0.250880
O O10 0.257157 0.320798 0.346652
O O11 0.339658 0.204612 0.314083
O O12 0.940644 0.500000 0.669523
O O13 0.930006 0.757823 0.559729
O O14 0.921545 0.766847 0.768474
O O15 0.000000 0.736898 0.674704
O O16 0.699099 0.000000 0.943225
O O17 0.055092 0.500000 0.449644
O O18 0.000000 0.250499 0.440155
O O19 0.855060 0.500000 0.048331
O O20 0.885726 0.234061 0.967837
O O21 0.094576 0.500000 0.867892
#
# Coordination Sequence:
#
# PCOD9374799 Si02
#       8
#     8   8   8   8   8   8   8   8
#     4  12  25  38  57  84 115 152 195 240 286 340
#     4  10  20  36  52  74 112 151 188 237 284 330
#     4  10  21  35  51  74 110 150 187 231 280 332
#     4   8  16  34  60  89 115 139 176 227 280 336
#     4  11  22  37  55  78 110 151 194 235 281 339
#     4   9  19  39  65  88 114 147 183 231 291 349
#     4  10  20  37  56  78 115 154 192 236 280 335
#     4  10  20  34  57  85 111 145 188 235 282 335
#
# _framework density 20.129546999999999
#
# number of rings (size 3 to 8) (size 9 to 14) (size 15 to 20)
#    0.000    2.000    2.500    2.250    1.750    2.250 
#    0.000    0.625    0.000    3.375    0.000    0.000 
#    0.000    0.000    0.000    0.000    0.000    0.000 
#
# Total GULP energy -178382.841510 kJ/mol
# GULP energy per Si atom -5574.463797 kJ/mol
# Density = 2.008373 g / cm^3
# Si number density = 20.129547 Si / 1000 Ang^3
#
#
#
# Elastic Constant Matrix: (Units=GPa)
#
#
# Indices 1 2 3 4 5 6 
#
# 1 53.3072 -5.3184 50.0180 0.0000 0.0000 0.0000
# 2 -5.3184 17.6728 -0.5173 0.0000 0.0000 0.0000
# 3 50.0180 -0.5173 163.3224 0.0000 0.0000 0.0000
# 4 0.0000 0.0000 0.0000 8.9709 0.0000 0.0000
# 5 0.0000 0.0000 0.0000 0.0000 34.3046 0.0000
# 6 0.0000 0.0000 0.0000 0.0000 0.0000 25.1583
#
#
#
# Elastic Compliance Matrix: (Units=1/GPa)
#
#
# Indices 1 2 3 4 5 6 
#
# 1 0.027411 0.008004 -0.008369 0.000000 0.000000 0.000000
# 2 0.008004 0.058927 -0.002265 0.000000 0.000000 0.000000
# 3 -0.008369 -0.002265 0.008679 0.000000 0.000000 0.000000
# 4 0.000000 0.000000 0.000000 0.111471 0.000000 0.000000
# 5 0.000000 0.000000 0.000000 0.000000 0.029151 0.000000
# 6 0.000000 0.000000 0.000000 0.000000 0.000000 0.039748
#
#
# Mechanical properties :
#
#
# Convention : Reuss Voigt Hill
#
# Bulk Modulus (GPa) = 11.14132 35.85188 23.49660
# Shear Modulus (GPa) = 16.09972 26.36145 21.23059
#
# Velocity S-wave (km/s) = 2.83115 3.62275 3.25113
# Velocity P-wave (km/s) = 4.02915 5.94545 5.07850
#
# Compressibility (1/GPa) = 0.08975594
#
# Stress axis : x y z
#
# Youngs Moduli (GPa) = 36.48234 16.97029 115.22356
#
# Poissons Ratio (x) = -0.13583 0.96433
# Poissons Ratio (y) = -0.29200 0.26093
# Poissons Ratio (z) = 0.30533 0.03843
#
# Static dielectric constant tensor:
#      x y z
#    x 1.686340 0.000000 0.000000 
#    y 0.000000 1.749410 0.000000 
#    z 0.000000 0.000000 1.782600 
# 
# From -- ./inp_files/15033.got.cif
#   From: 2010.05.17/outbox.cif.g08.bks.cpg/sg44_8_cif.got.tgz:15033.got - 2010.06.03 19:37:08.
