data_PCOD9374254
_publ_section_title
;
Structure prediction by ZEFSAII (Michael W. Deem and Ramdas Pophale) SiO2 
 PCOD9374254
Probable space group: I M M 2
;
_chemical_formula_sum "Si O2"
_cell_formula_units_Z 58
_cell_length_a 7.333496
_cell_length_b 20.744711
_cell_length_c 15.961785
_cell_angle_alpha 90.000000
_cell_angle_beta 90.000000
_cell_angle_gamma 90.000000
_cell_volume 2428.286386
_symmetry_space_group_name_H-M "I M M 2"
_symmetry_group_IT_number 44
_symmetry_cell_setting 'orthorhombic'
loop_
_space_group_symop_operation_xyz
x,y,z
-x,-y,z
-x,y,z
x,-y,z
1/2+x,1/2+y,1/2+z
1/2-x,1/2-y,1/2+z
1/2-x,1/2+y,1/2+z
1/2+x,1/2-y,1/2+z
loop_
_atom_site_type_symbol
_atom_site_label
_atom_site_fract_x
_atom_site_fract_y
_atom_site_fract_z
Si Si1 0.716617 0.607284 0.144110
Si Si2 0.777410 0.427946 0.462769
Si Si3 0.711045 0.875533 0.141050
Si Si4 0.000000 0.500000 0.195820
Si Si5 0.219699 0.070538 0.319126
Si Si6 0.217552 0.246450 0.724069
Si Si7 0.277221 0.659317 0.967897
Si Si8 0.291320 0.790814 0.910659
O O1 0.500000 0.592628 0.149665
O O2 0.746926 0.678834 0.179287
O O3 0.840832 0.556161 0.190385
O O4 0.770550 0.614782 0.046400
O O5 0.714973 0.500000 0.438320
O O6 0.719936 0.411249 0.558376
O O7 0.716214 0.363611 0.412901
O O8 0.000000 0.431399 0.457136
O O9 0.500000 0.863130 0.120962
O O10 0.721826 0.918344 0.224135
O O11 0.790145 0.806947 0.171111
O O12 0.284028 0.125057 0.382658
O O13 0.000000 0.072873 0.319524
O O14 0.276710 0.000000 0.348553
O O15 0.290184 0.238284 0.817721
O O16 0.000000 0.255966 0.732655
O O17 0.500000 0.662021 0.968134
O O18 0.212671 0.733586 0.968398
O O19 0.500000 0.798183 0.938501
#
# Coordination Sequence:
#
# PCOD9374254 Si02
#       8
#     8   8   8   2   8   8   8   8
#     4  10  23  44  65  89 130 169 210 267 321 379
#     4   9  18  33  55  86 117 150 193 243 303 364
#     4  10  19  35  59  84 115 154 200 249 305 373
#     4  12  26  44  64 102 120 168 222 264 316 394
#     4  10  20  33  52  82 117 156 199 243 306 378
#     4  10  21  38  60  88 119 158 201 255 318 368
#     4   9  18  36  60  83 114 165 206 248 315 376
#     4  10  19  35  62  87 116 158 208 255 302 374
#
# _framework density 23.885159000000002
#
# number of rings (size 3 to 8) (size 9 to 14) (size 15 to 20)
#    0.000    2.207    1.379    1.448    1.931    4.138 
#    3.724    0.690    0.000    0.828    0.000    0.000 
#    0.000    0.000    0.000    0.000    0.000    0.000 
#
# Total GULP energy -161755.392514 kJ/mol
# GULP energy per Si atom -5577.772156 kJ/mol
# Density = 2.383080 g / cm^3
# Si number density = 23.885159 Si / 1000 Ang^3
#
#
#
# Elastic Constant Matrix: (Units=GPa)
#
#
# Indices 1 2 3 4 5 6 
#
# 1 97.0438 24.9951 -8.8752 0.0000 0.0000 0.0000
# 2 24.9951 153.5279 -13.8323 0.0000 0.0000 0.0000
# 3 -8.8752 -13.8323 11.6525 0.0000 0.0000 0.0000
# 4 0.0000 0.0000 0.0000 18.9086 0.0000 0.0000
# 5 0.0000 0.0000 0.0000 0.0000 8.0780 0.0000
# 6 0.0000 0.0000 0.0000 0.0000 0.0000 59.5580
#
#
#
# Elastic Compliance Matrix: (Units=1/GPa)
#
#
# Indices 1 2 3 4 5 6 
#
# 1 0.011266 -0.001188 0.007171 0.000000 0.000000 0.000000
# 2 -0.001188 0.007419 0.007902 0.000000 0.000000 0.000000
# 3 0.007171 0.007902 0.100660 0.000000 0.000000 0.000000
# 4 0.000000 0.000000 0.000000 0.052886 0.000000 0.000000
# 5 0.000000 0.000000 0.000000 0.000000 0.123792 0.000000
# 6 0.000000 0.000000 0.000000 0.000000 0.000000 0.016790
#
#
# Mechanical properties :
#
#
# Convention : Reuss Voigt Hill
#
# Bulk Modulus (GPa) = 6.79745 29.64439 18.22092
# Shear Modulus (GPa) = 14.96630 34.63803 24.80217
#
# Velocity S-wave (km/s) = 2.50590 3.81227 3.22591
# Velocity P-wave (km/s) = 3.35034 5.64057 4.63901
#
# Compressibility (1/GPa) = 0.14711403
#
# Stress axis : x y z
#
# Youngs Moduli (GPa) = 88.75908 134.79210 9.93441
#
# Poissons Ratio (x) = 0.16016 -0.07124
# Poissons Ratio (y) = 0.10546 -0.07850
# Poissons Ratio (z) = -0.63646 -1.06509
#
# Static dielectric constant tensor:
#      x y z
#    x 1.958200 0.000000 0.000000 
#    y 0.000000 1.899930 0.000000 
#    z 0.000000 0.000000 1.913730 
# 
# From -- ./inp_files/20599.got.cif
#   From: 2010.05.17/outbox.cif.g08.bks.cpg/sg44_11_cif.got.tgz:20599.got - 2010.06.03 19:37:08.
