data_PCOD9374559
_publ_section_title
;
Structure prediction by ZEFSAII (Michael W. Deem and Ramdas Pophale) SiO2 
 PCOD9374559
Probable space group: I M M 2
;
_chemical_formula_sum "Si O2"
_cell_formula_units_Z 56
_cell_length_a 8.152374
_cell_length_b 24.530515
_cell_length_c 14.250422
_cell_angle_alpha 90.000000
_cell_angle_beta 90.000000
_cell_angle_gamma 90.000000
_cell_volume 2849.826933
_symmetry_space_group_name_H-M "I M M 2"
_symmetry_group_IT_number 44
_symmetry_cell_setting 'orthorhombic'
loop_
_space_group_symop_operation_xyz
x,y,z
-x,-y,z
-x,y,z
x,-y,z
1/2+x,1/2+y,1/2+z
1/2-x,1/2-y,1/2+z
1/2-x,1/2+y,1/2+z
1/2+x,1/2-y,1/2+z
loop_
_atom_site_type_symbol
_atom_site_label
_atom_site_fract_x
_atom_site_fract_y
_atom_site_fract_z
Si Si1 0.199615 0.563196 0.428440
Si Si2 0.194315 0.669835 0.951039
Si Si3 0.303141 0.938679 0.139059
Si Si4 0.303945 0.438496 0.052988
Si Si5 0.200537 0.271901 0.137527
Si Si6 0.306702 0.666064 0.742060
Si Si7 0.698858 0.118587 0.740369
O O1 0.243411 0.500000 0.410444
O O2 0.255624 0.577004 0.533867
O O3 0.256998 0.600695 0.343088
O O4 0.000000 0.565677 0.428747
O O5 0.272508 0.678765 0.850276
O O6 0.000000 0.676859 0.941874
O O7 0.228277 0.608650 0.988338
O O8 0.254704 0.710104 0.033656
O O9 0.500000 0.941546 0.134452
O O10 0.259238 0.892730 0.212904
O O11 0.242899 0.000000 0.160497
O O12 0.500000 0.436487 0.042048
O O13 0.247344 0.500000 0.032167
O O14 0.259797 0.422451 0.159816
O O15 0.261078 0.214283 0.175900
O O16 0.248714 0.321031 0.207448
O O17 0.000000 0.271222 0.136249
O O18 0.500000 0.664521 0.727454
O O19 0.500000 0.116797 0.739193
#
# Coordination Sequence:
#
# PCOD9374559 Si02
#       7
#     8   8   8   8   8   8   8
#     4   8  14  26  48  77 104 132 172 219 258 297
#     4  10  21  39  59  78 103 138 182 221 255 308
#     4   9  19  36  55  77 106 140 182 225 260 307
#     4  10  20  33  50  77 112 144 176 220 273 320
#     4   8  18  35  53  76 106 136 167 209 256 308
#     4  11  22  37  57  81 109 138 170 214 271 321
#     4   9  16  30  53  78 106 142 181 217 259 313
#
# _framework density 19.650316
#
# number of rings (size 3 to 8) (size 9 to 14) (size 15 to 20)
#    0.000    2.714    0.000    3.429    0.000    3.714 
#    0.000    9.286    0.000    0.857    0.000    0.000 
#    0.000    0.000    0.000    0.000    0.000    0.000 
#
# Total GULP energy -156190.376593 kJ/mol
# GULP energy per Si atom -5578.227735 kJ/mol
# Density = 1.960559 g / cm^3
# Si number density = 19.650316 Si / 1000 Ang^3
#
#
#
# Elastic Constant Matrix: (Units=GPa)
#
#
# Indices 1 2 3 4 5 6 
#
# 1 9.4937 0.2896 -3.3298 0.0000 0.0000 0.0000
# 2 0.2896 95.2359 57.4737 0.0000 0.0000 0.0000
# 3 -3.3298 57.4737 100.8835 -0.0001 0.0000 0.0000
# 4 0.0000 0.0000 -0.0001 16.1931 0.0000 0.0000
# 5 0.0000 0.0000 0.0000 0.0000 15.2208 0.0000
# 6 0.0000 0.0000 0.0000 0.0000 0.0000 9.0372
#
#
#
# Elastic Compliance Matrix: (Units=1/GPa)
#
#
# Indices 1 2 3 4 5 6 
#
# 1 0.107443 -0.003759 0.005688 0.000000 0.000000 0.000000
# 2 -0.003759 0.016133 -0.009315 0.000000 0.000000 0.000000
# 3 0.005688 -0.009315 0.015407 0.000000 0.000000 0.000000
# 4 0.000000 0.000000 0.000000 0.061755 0.000000 0.000000
# 5 0.000000 0.000000 0.000000 0.000000 0.065700 0.000000
# 6 0.000000 0.000000 0.000000 0.000000 0.000000 0.110654
#
#
# Mechanical properties :
#
#
# Convention : Reuss Voigt Hill
#
# Bulk Modulus (GPa) = 8.05087 34.94223 21.49655
# Shear Modulus (GPa) = 11.54018 18.16884 14.85451
#
# Velocity S-wave (km/s) = 2.42601 3.04404 2.75242
# Velocity P-wave (km/s) = 3.45736 5.49322 4.58960
#
# Compressibility (1/GPa) = 0.12421013
#
# Stress axis : x y z
#
# Youngs Moduli (GPa) = 9.30727 61.98332 64.90495
#
# Poissons Ratio (x) = 0.23302 -0.36918
# Poissons Ratio (y) = 0.03499 0.60461
# Poissons Ratio (z) = -0.05294 0.57740
#
# Static dielectric constant tensor:
#      x y z
#    x 1.685450 0.000000 0.000000 
#    y 0.000000 1.696240 0.000000 
#    z 0.000000 0.000000 1.679080 
# 
# From -- ./inp_files/16485.got.cif
#   From: 2010.05.17/outbox.cif.g08.bks.cpg/sg44_9_cif.got.tgz:16485.got - 2010.06.03 19:37:08.
