data_PCOD9374665
_publ_section_title
;
Structure prediction by ZEFSAII (Michael W. Deem and Ramdas Pophale) SiO2 
 PCOD9374665
Probable space group: I M M 2
;
_chemical_formula_sum "Si O2"
_cell_formula_units_Z 64
_cell_length_a 8.246816
_cell_length_b 14.646813
_cell_length_c 29.199338
_cell_angle_alpha 90.000000
_cell_angle_beta 90.000000
_cell_angle_gamma 90.000000
_cell_volume 3526.975534
_symmetry_space_group_name_H-M "I M M 2"
_symmetry_group_IT_number 44
_symmetry_cell_setting 'orthorhombic'
loop_
_space_group_symop_operation_xyz
x,y,z
-x,-y,z
-x,y,z
x,-y,z
1/2+x,1/2+y,1/2+z
1/2-x,1/2-y,1/2+z
1/2-x,1/2+y,1/2+z
1/2+x,1/2-y,1/2+z
loop_
_atom_site_type_symbol
_atom_site_label
_atom_site_fract_x
_atom_site_fract_y
_atom_site_fract_z
Si Si1 0.195652 0.896176 0.870650
Si Si2 0.195896 0.103996 0.120243
Si Si3 0.306093 0.754608 0.943759
Si Si4 0.695652 0.396176 0.120975
Si Si5 0.196059 0.254165 0.693520
Si Si6 0.693907 0.245392 0.547866
Si Si7 0.695896 0.396004 0.871382
Si Si8 0.303941 0.245835 0.298105
O O1 0.245066 0.843825 0.916822
O O2 0.251928 0.832482 0.828460
O O3 0.000000 0.898461 0.868907
O O4 0.255396 0.000000 0.868507
O O5 0.249509 0.156133 0.166104
O O6 0.251548 0.167464 0.077889
O O7 0.000000 0.102490 0.119314
O O8 0.254429 0.000000 0.117733
O O9 0.500000 0.754831 0.942696
O O10 0.248452 0.667464 0.913736
O O11 0.249999 0.750000 0.995813
O O12 0.500000 0.398461 0.122719
O O13 0.755396 0.500000 0.123118
O O14 0.751928 0.332481 0.163165
O O15 0.745065 0.343825 0.074803
O O16 0.253383 0.251517 0.745813
O O17 0.000000 0.252538 0.693986
O O18 0.500000 0.245168 0.548930
O O19 0.500000 0.397510 0.872311
O O20 0.754429 0.500000 0.873892
O O21 0.749509 0.343867 0.825521
O O22 0.500000 0.247462 0.297639
#
# Coordination Sequence:
#
# PCOD9374665 Si02
#       8
#     8   8   8   8   8   8   8   8
#     4   9  18  33  52  73  99 132 167 202 242 290
#     4   9  19  35  52  70  95 129 166 201 239 288
#     4  10  20  34  52  74 100 129 163 204 249 295
#     4   9  18  33  52  73  99 132 167 202 242 290
#     4   9  18  32  50  74 102 129 160 201 246 289
#     4  10  20  34  52  74 100 129 163 204 249 295
#     4   9  19  35  52  70  95 129 166 201 239 288
#     4   9  18  32  50  74 102 129 160 201 246 289
#
# _framework density 18.145859000000002
#
# number of rings (size 3 to 8) (size 9 to 14) (size 15 to 20)
#    0.000    2.750    0.000    0.750    0.000    4.500 
#    0.000    7.500    0.000    0.000    0.000    7.000 
#    0.000    0.000    0.000    0.000    0.000    0.000 
#
# Total GULP energy -178455.169028 kJ/mol
# GULP energy per Si atom -5576.724032 kJ/mol
# Density = 1.810456 g / cm^3
# Si number density = 18.145859 Si / 1000 Ang^3
#
#
#
# Elastic Constant Matrix: (Units=GPa)
#
#
# Indices 1 2 3 4 5 6 
#
# 1 6.2183 12.8980 7.0638 0.0000 0.0000 0.0000
# 2 12.8980 177.9992 83.5181 0.0000 0.0000 0.0000
# 3 7.0638 83.5181 169.8891 0.0000 0.0000 0.0000
# 4 0.0000 0.0000 0.0000 6.6461 0.0000 0.0000
# 5 0.0000 0.0000 0.0000 0.0000 26.1408 0.0000
# 6 0.0000 0.0000 0.0000 0.0000 0.0000 24.6029
#
#
#
# Elastic Compliance Matrix: (Units=1/GPa)
#
#
# Indices 1 2 3 4 5 6 
#
# 1 0.189542 -0.013046 -0.001468 0.000000 0.000000 0.000000
# 2 -0.013046 0.008200 -0.003489 0.000000 0.000000 0.000000
# 3 -0.001468 -0.003489 0.007662 0.000000 0.000000 0.000000
# 4 0.000000 0.000000 0.000000 0.150464 0.000000 0.000000
# 5 0.000000 0.000000 0.000000 0.000000 0.038254 0.000000
# 6 0.000000 0.000000 0.000000 0.000000 0.000000 0.040646
#
#
# Mechanical properties :
#
#
# Convention : Reuss Voigt Hill
#
# Bulk Modulus (GPa) = 5.90320 62.34071 34.12195
# Shear Modulus (GPa) = 9.48335 28.18639 18.83487
#
# Velocity S-wave (km/s) = 2.28856 3.94550 3.22525
# Velocity P-wave (km/s) = 3.20057 7.42872 5.71968
#
# Compressibility (1/GPa) = 0.16939976
#
# Stress axis : x y z
#
# Youngs Moduli (GPa) = 5.27589 121.94652 130.50817
#
# Poissons Ratio (x) = 1.59089 0.19153
# Poissons Ratio (y) = 0.06883 0.45533
# Poissons Ratio (z) = 0.00774 0.42546
#
# Static dielectric constant tensor:
#      x y z
#    x 1.637890 0.000000 0.000000 
#    y 0.000000 1.619060 0.000000 
#    z 0.000000 0.000000 1.600210 
# 
# From -- ./inp_files/27357.got.cif
#   From: 2010.05.17/outbox.cif.g08.bks.cpg/sg44_14_cif.got.tgz:27357.got - 2010.06.03 19:37:08.
