data_PCOD9374441
_publ_section_title
;
Structure prediction by ZEFSAII (Michael W. Deem and Ramdas Pophale) SiO2 
 PCOD9374441
Probable space group: I M M 2
;
_chemical_formula_sum "Si O2"
_cell_formula_units_Z 56
_cell_length_a 7.839014
_cell_length_b 21.682897
_cell_length_c 14.540534
_cell_angle_alpha 90.000000
_cell_angle_beta 90.000000
_cell_angle_gamma 90.000000
_cell_volume 2471.491397
_symmetry_space_group_name_H-M "I M M 2"
_symmetry_group_IT_number 44
_symmetry_cell_setting 'orthorhombic'
loop_
_space_group_symop_operation_xyz
x,y,z
-x,-y,z
-x,y,z
x,-y,z
1/2+x,1/2+y,1/2+z
1/2-x,1/2-y,1/2+z
1/2-x,1/2+y,1/2+z
1/2+x,1/2-y,1/2+z
loop_
_atom_site_type_symbol
_atom_site_label
_atom_site_fract_x
_atom_site_fract_y
_atom_site_fract_z
Si Si1 0.208769 0.394422 0.364750
Si Si2 0.195915 0.570278 0.846253
Si Si3 0.194227 0.339688 0.015321
Si Si4 0.203807 0.746249 0.359189
Si Si5 0.311057 0.335096 0.705632
Si Si6 0.709238 0.068328 0.662311
Si Si7 0.703808 0.933324 0.062534
O O1 0.265356 0.323287 0.365786
O O2 0.258025 0.424893 0.268713
O O3 0.267099 0.426435 0.458227
O O4 0.000000 0.395304 0.366422
O O5 0.245938 0.500000 0.853284
O O6 0.193283 0.603039 0.944267
O O7 0.312353 0.609506 0.779661
O O8 0.000000 0.573539 0.809658
O O9 0.267234 0.284465 0.953357
O O10 0.000000 0.321480 0.037016
O O11 0.271802 0.371778 0.105529
O O12 0.274944 0.781906 0.268459
O O13 0.000000 0.744776 0.346262
O O14 0.500000 0.313860 0.680715
O O15 0.239522 0.370416 0.617613
O O16 0.500000 0.070029 0.656461
O O17 0.761094 0.000000 0.628321
O O18 0.500000 0.937117 0.060355
O O19 0.765155 0.000000 0.101708
#
# Coordination Sequence:
#
# PCOD9374441 Si02
#       7
#     8   8   8   8   8   8   8
#     4   9  18  33  52  72  98 132 167 205 245 288
#     4   9  16  27  44  68  99 131 162 199 243 291
#     4   9  17  29  49  76 102 127 158 200 248 294
#     4   9  19  35  51  71 101 135 168 198 237 293
#     4  10  20  32  48  71 100 132 164 200 243 292
#     4   9  16  28  50  79 103 123 157 207 255 293
#     4  10  20  34  53  76  99 127 166 208 249 291
#
# _framework density 22.658383000000001
#
# number of rings (size 3 to 8) (size 9 to 14) (size 15 to 20)
#    0.000    2.714    0.000    1.714    0.000    7.429 
#    0.000    2.143    0.000    3.000    0.000    0.000 
#    0.000    0.000    0.000    0.000    0.000    0.000 
#
# Total GULP energy -156075.546457 kJ/mol
# GULP energy per Si atom -5574.126659 kJ/mol
# Density = 2.260681 g / cm^3
# Si number density = 22.658383 Si / 1000 Ang^3
#
#
#
# Elastic Constant Matrix: (Units=GPa)
#
#
# Indices 1 2 3 4 5 6 
#
# 1 21.6837 2.8670 5.8232 0.0000 0.0000 0.0000
# 2 2.8670 107.2361 14.1116 0.0000 0.0000 0.0000
# 3 5.8232 14.1116 92.9826 -0.0001 0.0000 0.0000
# 4 0.0000 0.0000 -0.0001 28.3306 0.0000 0.0000
# 5 0.0000 0.0000 0.0000 0.0000 49.6138 0.0000
# 6 0.0000 0.0000 0.0000 0.0000 0.0000 8.9205
#
#
#
# Elastic Compliance Matrix: (Units=1/GPa)
#
#
# Indices 1 2 3 4 5 6 
#
# 1 0.046989 -0.000887 -0.002808 0.000000 0.000000 0.000000
# 2 -0.000887 0.009532 -0.001391 0.000000 0.000000 0.000000
# 3 -0.002808 -0.001391 0.011142 0.000000 0.000000 0.000000
# 4 0.000000 0.000000 0.000000 0.035298 0.000000 0.000000
# 5 0.000000 0.000000 0.000000 0.000000 0.020156 0.000000
# 6 0.000000 0.000000 0.000000 0.000000 0.000000 0.112102
#
#
# Mechanical properties :
#
#
# Convention : Reuss Voigt Hill
#
# Bulk Modulus (GPa) = 17.39415 29.72290 23.55852
# Shear Modulus (GPa) = 18.89978 30.64633 24.77306
#
# Velocity S-wave (km/s) = 2.89124 3.68168 3.31014
# Velocity P-wave (km/s) = 4.34040 5.58742 5.00292
#
# Compressibility (1/GPa) = 0.05749060
#
# Stress axis : x y z
#
# Youngs Moduli (GPa) = 21.28159 104.90992 89.75300
#
# Poissons Ratio (x) = 0.09303 0.25204
# Poissons Ratio (y) = 0.01887 0.12486
# Poissons Ratio (z) = 0.05976 0.14594
#
# Static dielectric constant tensor:
#      x y z
#    x 1.825640 0.000000 0.000000 
#    y 0.000000 1.839800 0.000000 
#    z 0.000000 0.000000 1.875320 
# 
# From -- ./inp_files/16435.got.cif
#   From: 2010.05.17/outbox.cif.g08.bks.cpg/sg44_9_cif.got.tgz:16435.got - 2010.06.03 19:37:08.
