data_PCOD9374840
_publ_section_title
;
Structure prediction by ZEFSAII (Michael W. Deem and Ramdas Pophale) SiO2 
 PCOD9374840
Probable space group: I M M 2
;
_chemical_formula_sum "Si O2"
_cell_formula_units_Z 64
_cell_length_a 13.483081
_cell_length_b 18.169024
_cell_length_c 13.101282
_cell_angle_alpha 90.000000
_cell_angle_beta 90.000000
_cell_angle_gamma 90.000000
_cell_volume 3209.478989
_symmetry_space_group_name_H-M "I M M 2"
_symmetry_group_IT_number 44
_symmetry_cell_setting 'orthorhombic'
loop_
_space_group_symop_operation_xyz
x,y,z
-x,-y,z
-x,y,z
x,-y,z
1/2+x,1/2+y,1/2+z
1/2-x,1/2-y,1/2+z
1/2-x,1/2+y,1/2+z
1/2+x,1/2-y,1/2+z
loop_
_atom_site_type_symbol
_atom_site_label
_atom_site_fract_x
_atom_site_fract_y
_atom_site_fract_z
Si Si1 0.311499 0.416188 0.331400
Si Si2 0.891800 0.415627 0.236931
Si Si3 0.616696 0.086401 0.119220
Si Si4 0.250108 0.807704 0.981164
Si Si5 0.382980 0.825132 0.532054
Si Si6 0.882147 0.917341 0.605194
Si Si7 0.118646 0.819514 0.405858
Si Si8 0.210110 0.412959 0.841425
O O1 0.343862 0.500000 0.353323
O O2 0.192354 0.413993 0.321053
O O3 0.328253 0.355683 0.415894
O O4 0.348573 0.396352 0.218474
O O5 0.894576 0.500000 0.200825
O O6 0.000000 0.395457 0.277671
O O7 0.868901 0.368206 0.137829
O O8 0.500000 0.103099 0.105795
O O9 0.685918 0.139554 0.053212
O O10 0.647611 0.095194 0.237721
O O11 0.632302 0.000000 0.092184
O O12 0.183176 0.747545 0.037598
O O13 0.327153 0.759171 0.913006
O O14 0.500000 0.810410 0.520447
O O15 0.346058 0.873881 0.435858
O O16 0.863375 0.859360 0.516065
O O17 0.000000 0.923744 0.608770
O O18 0.841163 0.000000 0.583669
O O19 0.183528 0.871666 0.331892
O O20 0.000000 0.816236 0.387213
O O21 0.223417 0.500000 0.860257
#
# Coordination Sequence:
#
# PCOD9374840 Si02
#       8
#     8   8   8   8   8   8   8   8
#     4  10  20  35  55  77 103 136 176 224 270 314
#     4   9  18  33  54  79 104 132 170 215 265 319
#     4  10  22  41  62  80 102 140 192 244 284 323
#     4  11  23  37  53  78 111 147 189 229 271 328
#     4  10  21  35  54  82 115 146 173 215 277 338
#     4   9  18  34  57  83 108 137 175 218 268 326
#     4  10  21  35  55  85 118 149 179 222 284 346
#     4  10  20  35  58  85 111 143 187 233 277 330
#
# _framework density 19.940930999999999
#
# number of rings (size 3 to 8) (size 9 to 14) (size 15 to 20)
#    0.000    2.125    0.000    3.375    0.000    8.500 
#    0.000    4.375    0.000    1.875    0.000    0.000 
#    0.000    0.000    0.000    0.000    0.000    0.000 
#
# Total GULP energy -178568.179288 kJ/mol
# GULP energy per Si atom -5580.255603 kJ/mol
# Density = 1.989554 g / cm^3
# Si number density = 19.940931 Si / 1000 Ang^3
#
#
#
# Elastic Constant Matrix: (Units=GPa)
#
#
# Indices 1 2 3 4 5 6 
#
# 1 60.4231 29.6507 4.7006 0.0000 0.0000 0.0000
# 2 29.6507 88.8413 22.0355 0.0000 0.0000 0.0000
# 3 4.7006 22.0355 21.0956 0.0001 0.0000 0.0000
# 4 0.0000 0.0000 0.0001 38.9009 0.0000 0.0000
# 5 0.0000 0.0000 0.0000 0.0000 18.0024 0.0000
# 6 0.0000 0.0000 0.0000 0.0000 0.0000 24.2956
#
#
#
# Elastic Compliance Matrix: (Units=1/GPa)
#
#
# Indices 1 2 3 4 5 6 
#
# 1 0.019969 -0.007506 0.003390 0.000000 0.000000 0.000000
# 2 -0.007506 0.018013 -0.017143 0.000000 0.000000 0.000000
# 3 0.003390 -0.017143 0.064555 0.000000 0.000000 0.000000
# 4 0.000000 0.000000 0.000000 0.025706 0.000000 0.000000
# 5 0.000000 0.000000 0.000000 0.000000 0.055548 0.000000
# 6 0.000000 0.000000 0.000000 0.000000 0.000000 0.041160
#
#
# Mechanical properties :
#
#
# Convention : Reuss Voigt Hill
#
# Bulk Modulus (GPa) = 16.66098 31.45926 24.06012
# Shear Modulus (GPa) = 17.39278 23.83797 20.61538
#
# Velocity S-wave (km/s) = 2.95653 3.46125 3.21880
# Velocity P-wave (km/s) = 4.47528 5.63774 5.08980
#
# Compressibility (1/GPa) = 0.06002048
#
# Stress axis : x y z
#
# Youngs Moduli (GPa) = 50.07662 55.51507 15.49070
#
# Poissons Ratio (x) = 0.41668 -0.05252
# Poissons Ratio (y) = 0.37586 0.26556
# Poissons Ratio (z) = -0.16978 0.95171
#
# Static dielectric constant tensor:
#      x y z
#    x 1.739210 0.000000 0.000000 
#    y 0.000000 1.722880 0.000000 
#    z 0.000000 0.000000 1.691780 
# 
# From -- ./inp_files/13464.got.cif
#   From: 2010.05.17/outbox.cif.g08.bks.cpg/sg44_7_cif.got.tgz:13464.got - 2010.06.03 19:37:08.
