data_PCOD9374173
_publ_section_title
;
Structure prediction by ZEFSAII (Michael W. Deem and Ramdas Pophale) SiO2 
 PCOD9374173
Probable space group: I M M 2
;
_chemical_formula_sum "Si O2"
_cell_formula_units_Z 58
_cell_length_a 15.553221
_cell_length_b 7.401497
_cell_length_c 24.425966
_cell_angle_alpha 90.000000
_cell_angle_beta 90.000000
_cell_angle_gamma 90.000000
_cell_volume 2811.846824
_symmetry_space_group_name_H-M "I M M 2"
_symmetry_group_IT_number 44
_symmetry_cell_setting 'orthorhombic'
loop_
_space_group_symop_operation_xyz
x,y,z
-x,-y,z
-x,y,z
x,-y,z
1/2+x,1/2+y,1/2+z
1/2-x,1/2-y,1/2+z
1/2-x,1/2+y,1/2+z
1/2+x,1/2-y,1/2+z
loop_
_atom_site_type_symbol
_atom_site_label
_atom_site_fract_x
_atom_site_fract_y
_atom_site_fract_z
Si Si1 0.597551 0.280165 0.530550
Si Si2 0.000000 0.000000 0.212427
Si Si3 0.901803 0.220693 0.905389
Si Si4 0.152894 0.709409 0.227838
Si Si5 0.742529 0.793891 0.837415
Si Si6 0.402114 0.287550 0.923120
Si Si7 0.403294 0.217515 0.049653
Si Si8 0.258806 0.719677 0.617144
O O1 0.500000 0.224583 0.544097
O O2 0.598077 0.500000 0.530837
O O3 0.617051 0.224251 0.468196
O O4 0.666694 0.221825 0.574818
O O5 0.925035 0.841507 0.213539
O O6 0.828496 0.286571 0.864205
O O7 0.000000 0.273217 0.892411
O O8 0.899497 0.000000 0.905506
O O9 0.125464 0.500000 0.237181
O O10 0.200012 0.780870 0.282588
O O11 0.218282 0.713548 0.177059
O O12 0.669233 0.794566 0.884035
O O13 0.764973 0.000000 0.823073
O O14 0.500000 0.218149 0.914944
O O15 0.403555 0.500000 0.910809
O O16 0.380212 0.263221 0.986951
O O17 0.500000 0.284427 0.059734
O O18 0.331697 0.279938 0.091961
O O19 0.405131 0.000000 0.052388
O O20 0.259307 0.500000 0.618374
#
# Coordination Sequence:
#
# PCOD9374173 Si02
#       8
#     8   2   8   8   8   8   8   8
#     4   8  14  23  45  79 109 143 193 238 294 361
#     4  12  26  48  68  82 126 160 202 252 308 352
#     4   8  14  29  53  82 113 148 190 240 292 355
#     4  11  26  42  63  93 120 159 207 249 301 365
#     4  10  21  36  55  82 116 150 197 251 295 355
#     4  10  21  33  52  81 114 153 196 240 303 366
#     4   9  18  34  56  84 117 156 200 246 300 361
#     4  10  19  34  57  81 117 162 200 248 304 356
#
# _framework density 20.627013000000002
#
# number of rings (size 3 to 8) (size 9 to 14) (size 15 to 20)
#    0.000    2.483    0.690    2.276    2.897    3.586 
#    0.000    0.690    0.000    1.241    0.000    0.000 
#    0.000    0.000    0.000    0.000    0.000    0.000 
#
# Total GULP energy -161667.186819 kJ/mol
# GULP energy per Si atom -5574.730580 kJ/mol
# Density = 2.058006 g / cm^3
# Si number density = 20.627013 Si / 1000 Ang^3
#
#
#
# Elastic Constant Matrix: (Units=GPa)
#
#
# Indices 1 2 3 4 5 6 
#
# 1 115.1672 8.3320 88.6504 0.0000 0.0000 0.0000
# 2 8.3320 88.5518 4.6555 0.0000 0.0000 0.0000
# 3 88.6504 4.6555 104.7132 0.0000 0.0000 0.0000
# 4 0.0000 0.0000 0.0000 8.2063 0.0000 0.0000
# 5 0.0000 0.0000 0.0000 0.0000 -14.7110 0.0000
# 6 0.0000 0.0000 0.0000 0.0000 0.0000 6.9207
#
#
#
# Elastic Compliance Matrix: (Units=1/GPa)
#
#
# Indices 1 2 3 4 5 6 
#
# 1 0.025064 -0.001246 -0.021164 0.000000 0.000000 0.000000
# 2 -0.001246 0.011381 0.000549 0.000000 0.000000 0.000000
# 3 -0.021164 0.000549 0.027443 0.000000 0.000000 0.000000
# 4 0.000000 0.000000 0.000000 0.121858 0.000000 0.000000
# 5 0.000000 0.000000 0.000000 0.000000 -0.067976 0.000000
# 6 0.000000 0.000000 0.000000 0.000000 0.000000 0.144495
#
#
# Mechanical properties :
#
#
# Convention : Reuss Voigt Hill
#
# Bulk Modulus (GPa) = 49.58794 56.85643 53.22219
# Shear Modulus (GPa) = 15.98929 13.86948 14.92939
#
# Velocity S-wave (km/s) = 2.78719 2.59587 2.69323
# Velocity P-wave (km/s) = 5.86945 6.05051 5.96066
#
# Compressibility (1/GPa) = 0.02016619
#
# Stress axis : x y z
#
# Youngs Moduli (GPa) = 39.89735 87.86429 36.43904
#
# Poissons Ratio (x) = 0.10945 0.77120
# Poissons Ratio (y) = 0.04970 -0.01999
# Poissons Ratio (z) = 0.84439 -0.04820
#
# Static dielectric constant tensor:
#      x y z
#    x 1.725020 0.000000 0.000000 
#    y 0.000000 1.822310 0.000000 
#    z 0.000000 0.000000 1.705480 
# 
# From -- ./inp_files/25707.got.cif
#   From: 2010.05.17/outbox.cif.g08.bks.cpg/sg44_13_cif.got.tgz:25707.got - 2010.06.03 19:37:08.
