data_PCOD9374014
_publ_section_title
;
Structure prediction by ZEFSAII (Michael W. Deem and Ramdas Pophale) SiO2 
 PCOD9374014
Probable space group: I M M 2
;
_chemical_formula_sum "Si O2"
_cell_formula_units_Z 48
_cell_length_a 7.788481
_cell_length_b 15.878981
_cell_length_c 19.381619
_cell_angle_alpha 90.000000
_cell_angle_beta 90.000000
_cell_angle_gamma 90.000000
_cell_volume 2396.985715
_symmetry_space_group_name_H-M "I M M 2"
_symmetry_group_IT_number 44
_symmetry_cell_setting 'orthorhombic'
loop_
_space_group_symop_operation_xyz
x,y,z
-x,-y,z
-x,y,z
x,-y,z
1/2+x,1/2+y,1/2+z
1/2-x,1/2-y,1/2+z
1/2-x,1/2+y,1/2+z
1/2+x,1/2-y,1/2+z
loop_
_atom_site_type_symbol
_atom_site_label
_atom_site_fract_x
_atom_site_fract_y
_atom_site_fract_z
Si Si1 0.296126 0.158806 0.486050
Si Si2 0.289734 0.000000 0.075521
Si Si3 0.711916 0.500000 0.237385
Si Si4 0.210406 0.653208 0.829011
Si Si5 0.298993 0.340499 0.322603
Si Si6 0.204460 0.000000 0.579348
Si Si7 0.701409 0.152565 0.979836
Si Si8 0.289646 0.000000 0.233529
O O1 0.500000 0.169470 0.482381
O O2 0.236513 0.136208 0.408210
O O3 0.257486 0.083659 0.538106
O O4 0.224095 0.251006 0.504121
O O5 0.232101 0.000000 0.154564
O O6 0.500000 0.000000 0.077067
O O7 0.234680 0.083218 0.033830
O O8 0.500000 0.500000 0.239003
O O9 0.772406 0.582974 0.278072
O O10 0.767995 0.500000 0.158050
O O11 0.272465 0.746948 0.810349
O O12 0.265926 0.582090 0.776026
O O13 0.000000 0.653486 0.828681
O O14 0.500000 0.335622 0.305166
O O15 0.284616 0.356608 0.404468
O O16 0.000000 0.000000 0.582433
O O17 0.500000 0.137164 0.969570
O O18 0.500000 0.000000 0.233244
#
# Coordination Sequence:
#
# PCOD9374014 Si02
#       8
#     8   4   4   8   8   4   8   4
#     4  10  20  36  55  77 103 137 178 219 262 316
#     4   9  19  30  45  73 108 137 164 202 258 313
#     4   9  19  33  51  75 104 135 174 218 262 315
#     4   8  15  27  48  72  93 121 166 212 248 290
#     4   9  17  32  52  74  97 130 172 213 255 307
#     4  11  22  35  53  81 110 139 174 220 272 321
#     4  10  19  33  52  78 107 136 172 218 263 309
#     4   9  15  26  44  69  96 125 158 200 250 299
#
# _framework density 20.025151999999999
#
# number of rings (size 3 to 8) (size 9 to 14) (size 15 to 20)
#    0.000    2.667    0.000    3.250    0.000    2.667 
#    0.000    7.917    0.000    0.000    0.000   19.833 
#    0.000    0.000    0.000    0.000    0.000    0.000 
#
# Total GULP energy -133925.606251 kJ/mol
# GULP energy per Si atom -5580.233594 kJ/mol
# Density = 1.997957 g / cm^3
# Si number density = 20.025152 Si / 1000 Ang^3
#
#
#
# Elastic Constant Matrix: (Units=GPa)
#
#
# Indices 1 2 3 4 5 6 
#
# 1 23.3441 -5.6281 -8.7480 0.0000 0.0000 0.0000
# 2 -5.6281 190.4645 139.1126 0.0000 0.0000 0.0000
# 3 -8.7480 139.1126 142.1215 0.0000 0.0000 0.0000
# 4 0.0000 0.0000 0.0000 -3.7392 0.0000 0.0000
# 5 0.0000 0.0000 0.0000 0.0000 19.5027 0.0000
# 6 0.0000 0.0000 0.0000 0.0000 0.0000 11.2218
#
#
#
# Elastic Compliance Matrix: (Units=1/GPa)
#
#
# Indices 1 2 3 4 5 6 
#
# 1 0.044156 -0.002387 0.005054 0.000000 0.000000 0.000000
# 2 -0.002387 0.018546 -0.018300 0.000000 0.000000 0.000000
# 3 0.005054 -0.018300 0.025260 0.000000 0.000000 0.000000
# 4 0.000000 0.000000 0.000000 -0.267438 0.000000 0.000000
# 5 0.000000 0.000000 0.000000 0.000000 0.051275 0.000000
# 6 0.000000 0.000000 0.000000 0.000000 0.000000 0.089112
#
#
# Mechanical properties :
#
#
# Convention : Reuss Voigt Hill
#
# Bulk Modulus (GPa) = 17.63779 67.26701 42.45240
# Shear Modulus (GPa) = 451.38885 20.80995 236.09940
#
# Velocity S-wave (km/s) = 15.02998 3.22715 10.87002
# Velocity P-wave (km/s) = 17.60759 6.89566 13.37119
#
# Compressibility (1/GPa) = 0.05669645
#
# Stress axis : x y z
#
# Youngs Moduli (GPa) = 22.64697 53.91932 39.58769
#
# Poissons Ratio (x) = 0.12868 -0.20008
# Poissons Ratio (y) = 0.05405 0.72447
# Poissons Ratio (z) = -0.11446 0.98675
#
# Static dielectric constant tensor:
#      x y z
#    x 1.747740 0.000000 0.000000 
#    y 0.000000 1.692390 0.000000 
#    z 0.000000 0.000000 1.674890 
# 
# From -- ./inp_files/16231.got.cif
#   From: 2010.05.17/outbox.cif.g08.bks.cpg/sg44_9_cif.got.tgz:16231.got - 2010.06.03 19:37:08.
