data_PCOD9374231
_publ_section_title
;
Structure prediction by ZEFSAII (Michael W. Deem and Ramdas Pophale) SiO2 
 PCOD9374231
Probable space group: I M M 2
;
_chemical_formula_sum "Si O2"
_cell_formula_units_Z 56
_cell_length_a 7.636831
_cell_length_b 19.274307
_cell_length_c 17.312701
_cell_angle_alpha 90.000000
_cell_angle_beta 90.000000
_cell_angle_gamma 90.000000
_cell_volume 2548.336535
_symmetry_space_group_name_H-M "I M M 2"
_symmetry_group_IT_number 44
_symmetry_cell_setting 'orthorhombic'
loop_
_space_group_symop_operation_xyz
x,y,z
-x,-y,z
-x,y,z
x,-y,z
1/2+x,1/2+y,1/2+z
1/2-x,1/2-y,1/2+z
1/2-x,1/2+y,1/2+z
1/2+x,1/2-y,1/2+z
loop_
_atom_site_type_symbol
_atom_site_label
_atom_site_fract_x
_atom_site_fract_y
_atom_site_fract_z
Si Si1 0.713461 0.920567 0.299350
Si Si2 0.704369 0.809459 0.723898
Si Si3 0.212219 0.332719 0.649657
Si Si4 0.705321 0.078047 0.005444
Si Si5 0.298162 0.307297 0.398225
Si Si6 0.285497 0.161303 0.452711
Si Si7 0.785515 0.420304 0.105767
O O1 0.500000 0.921264 0.299562
O O2 0.766618 0.878332 0.223688
O O3 0.768585 0.881836 0.377173
O O4 0.772363 0.000000 0.297262
O O5 0.500000 0.819229 0.740089
O O6 0.724343 0.744975 0.665542
O O7 0.788011 0.794530 0.806708
O O8 0.772638 0.877767 0.680891
O O9 0.276366 0.371746 0.572935
O O10 0.000000 0.329387 0.648253
O O11 0.500000 0.070997 0.023461
O O12 0.779286 0.000000 0.003507
O O13 0.718256 0.120485 0.925994
O O14 0.500000 0.312107 0.420000
O O15 0.222329 0.240186 0.442223
O O16 0.500000 0.163044 0.452669
O O17 0.230045 0.122040 0.529830
O O18 0.729379 0.500000 0.103804
O O19 0.000000 0.419916 0.105711
#
# Coordination Sequence:
#
# PCOD9374231 Si02
#       7
#     8   8   8   8   8   8   8
#     4   9  15  25  48  81 112 142 178 222 271 327
#     4  11  22  36  56  83 115 153 193 235 284 340
#     4  10  19  35  57  84 116 150 188 232 282 342
#     4  10  22  39  59  85 117 153 195 243 295 351
#     4  11  22  38  59  84 113 147 193 242 290 348
#     4   9  16  29  51  80 110 138 176 228 280 331
#     4   9  18  32  51  78 109 139 177 227 278 326
#
# _framework density 21.975117999999998
#
# number of rings (size 3 to 8) (size 9 to 14) (size 15 to 20)
#    0.000    2.143    1.429    2.571    0.000    6.000 
#    0.000    1.429    0.000    2.571    0.000    0.000 
#    0.000    0.000    0.000    0.000    0.000    0.000 
#
# Total GULP energy -156452.604699 kJ/mol
# GULP energy per Si atom -5587.593025 kJ/mol
# Density = 2.192510 g / cm^3
# Si number density = 21.975118 Si / 1000 Ang^3
#
#
#
# Elastic Constant Matrix: (Units=GPa)
#
#
# Indices 1 2 3 4 5 6 
#
# 1 43.6672 0.1700 1.0385 0.0000 0.0000 0.0000
# 2 0.1700 160.7885 62.2953 0.0000 0.0000 0.0000
# 3 1.0385 62.2953 51.1543 0.0000 0.0000 0.0000
# 4 0.0000 0.0000 0.0000 22.4053 0.0000 0.0000
# 5 0.0000 0.0000 0.0000 0.0000 13.5403 0.0000
# 6 0.0000 0.0000 0.0000 0.0000 0.0000 13.0720
#
#
#
# Elastic Compliance Matrix: (Units=1/GPa)
#
#
# Indices 1 2 3 4 5 6 
#
# 1 0.022919 0.000295 -0.000825 0.000000 0.000000 0.000000
# 2 0.000295 0.011779 -0.014350 0.000000 0.000000 0.000000
# 3 -0.000825 -0.014350 0.037041 0.000000 0.000000 0.000000
# 4 0.000000 0.000000 0.000000 0.044632 0.000000 0.000000
# 5 0.000000 0.000000 0.000000 0.000000 0.073854 0.000000
# 6 0.000000 0.000000 0.000000 0.000000 0.000000 0.076500
#
#
# Mechanical properties :
#
#
# Convention : Reuss Voigt Hill
#
# Bulk Modulus (GPa) = 23.82137 42.51308 33.16723
# Shear Modulus (GPa) = 16.10426 22.61058 19.35742
#
# Velocity S-wave (km/s) = 2.71004 3.21115 2.97118
# Velocity P-wave (km/s) = 4.54490 5.75645 5.18617
#
# Compressibility (1/GPa) = 0.04197912
#
# Stress axis : x y z
#
# Youngs Moduli (GPa) = 43.63201 84.89826 26.99718
#
# Poissons Ratio (x) = -0.02508 0.02227
# Poissons Ratio (y) = -0.01289 0.38741
# Poissons Ratio (z) = 0.03600 1.21830
#
# Static dielectric constant tensor:
#      x y z
#    x 1.840300 0.000000 0.000000 
#    y 0.000000 1.788380 0.000000 
#    z 0.000000 0.000000 1.763520 
# 
# From -- ./inp_files/16478.got.cif
#   From: 2010.05.17/outbox.cif.g08.bks.cpg/sg44_9_cif.got.tgz:16478.got - 2010.06.03 19:37:08.
