data_PCOD9374901
_publ_section_title
;
Structure prediction by ZEFSAII (Michael W. Deem and Ramdas Pophale) SiO2 
 PCOD9374901
Probable space group: I M M 2
;
_chemical_formula_sum "Si O2"
_cell_formula_units_Z 40
_cell_length_a 11.379578
_cell_length_b 21.567913
_cell_length_c 8.198217
_cell_angle_alpha 90.000000
_cell_angle_beta 90.000000
_cell_angle_gamma 90.000000
_cell_volume 2012.119128
_symmetry_space_group_name_H-M "I M M 2"
_symmetry_group_IT_number 44
_symmetry_cell_setting 'orthorhombic'
loop_
_space_group_symop_operation_xyz
x,y,z
-x,-y,z
-x,y,z
x,-y,z
1/2+x,1/2+y,1/2+z
1/2-x,1/2-y,1/2+z
1/2-x,1/2+y,1/2+z
1/2+x,1/2-y,1/2+z
loop_
_atom_site_type_symbol
_atom_site_label
_atom_site_fract_x
_atom_site_fract_y
_atom_site_fract_z
Si Si1 0.872119 0.069205 0.795850
Si Si2 0.708528 0.331567 0.051222
Si Si3 0.370519 0.231859 0.804119
Si Si4 0.362960 0.070242 0.362983
Si Si5 0.366717 0.898141 0.981649
O O1 0.868858 0.124510 0.665738
O O2 0.750443 0.074819 0.896926
O O3 0.000000 0.073988 0.884534
O O4 0.869868 0.000000 0.722071
O O5 0.774343 0.282314 0.167498
O O6 0.648472 0.293920 0.906451
O O7 0.800229 0.379548 0.973575
O O8 0.500000 0.232025 0.727782
O O9 0.365639 0.173862 0.929377
O O10 0.500000 0.069363 0.406308
O O11 0.316829 0.000000 0.381854
O O12 0.354905 0.089664 0.173485
O O13 0.500000 0.921131 0.934303
#
# Coordination Sequence:
#
# PCOD9374901 Si02
#       5
#     8   8   8   8   8
#     4  10  21  37  57  84 117 150 185 227 278 335
#     4  11  21  37  56  80 110 148 186 229 279 332
#     4  10  21  37  57  81 109 143 186 232 276 327
#     4  10  20  35  57  85 114 144 184 234 282 330
#     4   9  19  37  61  87 113 145 186 230 278 333
#
# _framework density 19.879538
#
# number of rings (size 3 to 8) (size 9 to 14) (size 15 to 20)
#    0.000    2.000    0.000    3.600    0.000    2.000 
#    0.000   15.000    0.000    4.800    0.000    0.000 
#    0.000    0.000    0.000    0.000    0.000    0.000 
#
# Total GULP energy -111492.504262 kJ/mol
# GULP energy per Si atom -5574.625213 kJ/mol
# Density = 1.983429 g / cm^3
# Si number density = 19.879538 Si / 1000 Ang^3
#
#
#
# Elastic Constant Matrix: (Units=GPa)
#
#
# Indices 1 2 3 4 5 6 
#
# 1 130.9567 23.8770 38.3238 0.0003 0.0001 0.0000
# 2 23.8770 33.3397 7.4997 0.0017 -0.0010 -0.0005
# 3 38.3238 7.4997 40.8974 0.0035 -0.0023 -0.0015
# 4 0.0003 0.0017 0.0035 15.1115 -0.0002 -0.0009
# 5 0.0001 -0.0010 -0.0023 -0.0002 23.8488 0.0002
# 6 0.0000 -0.0005 -0.0015 -0.0009 0.0002 22.6728
#
#
#
# Elastic Compliance Matrix: (Units=1/GPa)
#
#
# Indices 1 2 3 4 5 6 
#
# 1 0.011606 -0.006118 -0.009754 0.000003 -0.000001 -0.000001
# 2 -0.006118 0.034510 -0.000596 -0.000004 0.000001 0.000001
# 3 -0.009754 -0.000596 0.033701 -0.000008 0.000003 0.000002
# 4 0.000003 -0.000004 -0.000008 0.066175 0.000001 0.000003
# 5 -0.000001 0.000001 0.000003 0.000001 0.041931 0.000000
# 6 -0.000001 0.000001 0.000002 0.000003 0.000000 0.044106
#
#
# Mechanical properties :
#
#
# Convention : Reuss Voigt Hill
#
# Bulk Modulus (GPa) = 21.33010 38.28832 29.80921
# Shear Modulus (GPa) = 17.81964 21.35948 19.58956
#
# Velocity S-wave (km/s) = 2.99721 3.28143 3.14253
# Velocity P-wave (km/s) = 4.76767 5.80164 5.30988
#
# Compressibility (1/GPa) = 0.04688211
#
# Stress axis : x y z
#
# Youngs Moduli (GPa) = 86.16279 28.97741 29.67304
#
# Poissons Ratio (x) = 0.17728 0.28942
# Poissons Ratio (y) = 0.52713 0.01767
# Poissons Ratio (z) = 0.84041 0.01726
#
# Static dielectric constant tensor:
#      x y z
#    x 1.739020 0.000000 0.000000 
#    y 0.000000 1.691900 0.000000 
#    z 0.000000 0.000000 1.668790 
# 
# From -- ./inp_files/4455.got.cif
#   From: 2010.05.17/outbox.cif.g08.bks.cpg/sg44_3_cif.got.tgz:4455.got - 2010.06.03 19:37:08.
