data_PCOD9374414
_publ_section_title
;
Structure prediction by ZEFSAII (Michael W. Deem and Ramdas Pophale) SiO2 
 PCOD9374414
Probable space group: I M M 2
;
_chemical_formula_sum "Si O2"
_cell_formula_units_Z 64
_cell_length_a 8.895107
_cell_length_b 14.749746
_cell_length_c 23.470036
_cell_angle_alpha 90.000000
_cell_angle_beta 90.000000
_cell_angle_gamma 90.000000
_cell_volume 3079.282075
_symmetry_space_group_name_H-M "I M M 2"
_symmetry_group_IT_number 44
_symmetry_cell_setting 'orthorhombic'
loop_
_space_group_symop_operation_xyz
x,y,z
-x,-y,z
-x,y,z
x,-y,z
1/2+x,1/2+y,1/2+z
1/2-x,1/2-y,1/2+z
1/2-x,1/2+y,1/2+z
1/2+x,1/2-y,1/2+z
loop_
_atom_site_type_symbol
_atom_site_label
_atom_site_fract_x
_atom_site_fract_y
_atom_site_fract_z
Si Si1 0.321891 0.899406 0.859760
Si Si2 0.672490 0.155952 0.628885
Si Si3 0.828766 0.867993 0.742782
Si Si4 0.829753 0.130505 0.160748
Si Si5 0.169109 0.346577 0.772399
Si Si6 0.317476 0.400715 0.535549
Si Si7 0.318564 0.209275 0.393953
Si Si8 0.320249 0.293041 0.011137
O O1 0.500000 0.884552 0.867494
O O2 0.280199 0.900533 0.792759
O O3 0.232218 0.814254 0.885336
O O4 0.282932 0.000000 0.881824
O O5 0.500000 0.123787 0.625321
O O6 0.766055 0.110986 0.680051
O O7 0.667566 0.261201 0.649156
O O8 0.750423 0.158545 0.567004
O O9 0.835563 0.759421 0.753554
O O10 0.000000 0.899881 0.750063
O O11 0.752118 0.108151 0.219865
O O12 0.766312 0.094782 0.101537
O O13 0.000000 0.100073 0.164667
O O14 0.232023 0.343352 0.836507
O O15 0.000000 0.381280 0.775725
O O16 0.500000 0.385517 0.534176
O O17 0.288132 0.500000 0.510010
O O18 0.235523 0.312089 0.512344
O O19 0.500000 0.206979 0.396662
O O20 0.245667 0.171597 0.451455
O O21 0.500000 0.297086 0.012939
#
# Coordination Sequence:
#
# PCOD9374414 Si02
#       8
#     8   8   8   8   8   8   8   8
#     4  10  20  32  45  63  88 118 152 187 221 259
#     4   9  16  28  45  63  84 110 140 175 218 263
#     4   9  16  27  44  65  86 109 140 178 221 263
#     4   8  14  24  41  62  80 102 133 170 211 251
#     4   8  15  26  41  60  80 103 132 170 214 258
#     4   9  18  32  46  60  83 117 152 180 209 251
#     4  10  20  33  46  60  82 115 152 184 218 261
#     4  11  21  31  44  63  87 114 147 185 222 260
#
# _framework density 20.784065999999999
#
# number of rings (size 3 to 8) (size 9 to 14) (size 15 to 20)
#    0.000    2.750    0.000    4.125    0.000    8.250 
#    0.000    0.000    0.000    0.000    0.000    0.000 
#    0.000    1.000    0.000    6.500    0.000    5.250 
#
# Total GULP energy -178382.887826 kJ/mol
# GULP energy per Si atom -5574.465245 kJ/mol
# Density = 2.073676 g / cm^3
# Si number density = 20.784066 Si / 1000 Ang^3
#
#
#
# Elastic Constant Matrix: (Units=GPa)
#
#
# Indices 1 2 3 4 5 6 
#
# 1 68.7884 -6.4443 46.6148 0.0000 0.0000 0.0000
# 2 -6.4443 23.1066 -6.5776 0.0000 0.0000 0.0000
# 3 46.6148 -6.5776 184.3774 0.0000 0.0000 0.0000
# 4 0.0000 0.0000 0.0000 -10.3602 0.0000 0.0000
# 5 0.0000 0.0000 0.0000 0.0000 34.9997 0.0000
# 6 0.0000 0.0000 0.0000 0.0000 0.0000 36.0404
#
#
#
# Elastic Compliance Matrix: (Units=1/GPa)
#
#
# Indices 1 2 3 4 5 6 
#
# 1 0.017856 0.003733 -0.004381 0.000000 0.000000 0.000000
# 2 0.003733 0.044502 0.000644 0.000000 0.000000 0.000000
# 3 -0.004381 0.000644 0.006554 0.000000 0.000000 0.000000
# 4 0.000000 0.000000 0.000000 -0.096523 0.000000 0.000000
# 5 0.000000 0.000000 0.000000 0.000000 0.028572 0.000000
# 6 0.000000 0.000000 0.000000 0.000000 0.000000 0.027747
#
#
# Mechanical properties :
#
#
# Convention : Reuss Voigt Hill
#
# Bulk Modulus (GPa) = 14.51318 38.16204 26.33761
# Shear Modulus (GPa) = 96.74117 28.31462 62.52789
#
# Velocity S-wave (km/s) = 6.82985 3.69497 5.49089
# Velocity P-wave (km/s) = 8.31828 6.05019 7.27319
#
# Compressibility (1/GPa) = 0.06890291
#
# Stress axis : x y z
#
# Youngs Moduli (GPa) = 56.00365 22.47095 152.57150
#
# Poissons Ratio (x) = -0.08388 0.66845
# Poissons Ratio (y) = -0.20905 -0.09824
# Poissons Ratio (z) = 0.24537 -0.01447
#
# Static dielectric constant tensor:
#      x y z
#    x 1.708330 0.000000 0.000000 
#    y 0.000000 1.816520 0.000000 
#    z 0.000000 0.000000 1.779180 
# 
# From -- ./inp_files/20879.got.cif
#   From: 2010.05.17/outbox.cif.g08.bks.cpg/sg44_11_cif.got.tgz:20879.got - 2010.06.03 19:37:08.
