data_PCOD9374116
_publ_section_title
;
Structure prediction by ZEFSAII (Michael W. Deem and Ramdas Pophale) SiO2 
 PCOD9374116
Probable space group: I M M 2
;
_chemical_formula_sum "Si O2"
_cell_formula_units_Z 56
_cell_length_a 22.184144
_cell_length_b 13.122947
_cell_length_c 10.681752
_cell_angle_alpha 90.000000
_cell_angle_beta 90.000000
_cell_angle_gamma 90.000000
_cell_volume 3109.686019
_symmetry_space_group_name_H-M "I M M 2"
_symmetry_group_IT_number 44
_symmetry_cell_setting 'orthorhombic'
loop_
_space_group_symop_operation_xyz
x,y,z
-x,-y,z
-x,y,z
x,-y,z
1/2+x,1/2+y,1/2+z
1/2-x,1/2-y,1/2+z
1/2-x,1/2+y,1/2+z
1/2+x,1/2-y,1/2+z
loop_
_atom_site_type_symbol
_atom_site_label
_atom_site_fract_x
_atom_site_fract_y
_atom_site_fract_z
Si Si1 0.335002 0.228582 0.820950
Si Si2 0.708605 0.184752 0.568460
Si Si3 0.359931 0.614642 0.484245
Si Si4 0.222957 0.613435 0.807490
Si Si5 0.837990 0.735018 0.596713
Si Si6 0.428970 0.612347 0.740637
Si Si7 0.571681 0.380601 0.220344
O O1 0.325692 0.160558 0.697453
O O2 0.278978 0.308248 0.810484
O O3 0.393867 0.297535 0.806496
O O4 0.336720 0.184140 0.959706
O O5 0.687312 0.297967 0.522260
O O6 0.696984 0.116363 0.447910
O O7 0.779837 0.189438 0.596082
O O8 0.333511 0.500000 0.480623
O O9 0.409050 0.615917 0.595294
O O10 0.392961 0.633562 0.352416
O O11 0.243231 0.500000 0.774759
O O12 0.175756 0.655713 0.706903
O O13 0.896399 0.802802 0.625465
O O14 0.500000 0.621785 0.752380
O O15 0.410651 0.500000 0.788737
O O16 0.500000 0.362696 0.233879
O O17 0.579382 0.500000 0.184413
#
# Coordination Sequence:
#
# PCOD9374116 Si02
#       7
#     8   8   8   8   8   8   8
#     4   9  19  32  49  71 106 134 170 214 268 316
#     4   9  18  33  53  74 101 136 179 224 265 311
#     4   9  16  30  52  78 106 137 177 222 264 308
#     4  10  19  34  54  73  98 136 179 222 268 312
#     4  10  20  33  50  75 108 141 175 217 266 325
#     4   9  16  26  44  72 104 136 168 200 245 313
#     4  10  20  33  52  80 114 148 178 214 267 330
#
# _framework density 18.008247999999998
#
# number of rings (size 3 to 8) (size 9 to 14) (size 15 to 20)
#    0.000    2.571    1.429    0.857    0.000    8.571 
#    0.000    2.143    0.000    0.429    0.000    0.000 
#    0.000    1.429    0.000    0.000    0.000    0.000 
#
# Total GULP energy -156004.557803 kJ/mol
# GULP energy per Si atom -5571.591350 kJ/mol
# Density = 1.796726 g / cm^3
# Si number density = 18.008248 Si / 1000 Ang^3
#
#
#
# Elastic Constant Matrix: (Units=GPa)
#
#
# Indices 1 2 3 4 5 6 
#
# 1 57.4080 10.2340 8.3857 0.0000 0.0000 0.0000
# 2 10.2340 27.2555 19.6274 0.0000 0.0000 0.0000
# 3 8.3857 19.6274 106.5488 0.0000 0.0000 0.0000
# 4 0.0000 0.0000 0.0000 1.3198 0.0000 0.0000
# 5 0.0000 0.0000 0.0000 0.0000 16.2850 0.0000
# 6 0.0000 0.0000 0.0000 0.0000 0.0000 18.0647
#
#
#
# Elastic Compliance Matrix: (Units=1/GPa)
#
#
# Indices 1 2 3 4 5 6 
#
# 1 0.018673 -0.006863 -0.000205 0.000000 0.000000 0.000000
# 2 -0.006863 0.044824 -0.007717 0.000000 0.000000 0.000000
# 3 -0.000205 -0.007717 0.010823 0.000000 0.000000 0.000000
# 4 0.000000 0.000000 0.000000 0.757699 0.000000 0.000000
# 5 0.000000 0.000000 0.000000 0.000000 0.061406 0.000000
# 6 0.000000 0.000000 0.000000 0.000000 0.000000 0.055357
#
#
# Mechanical properties :
#
#
# Convention : Reuss Voigt Hill
#
# Bulk Modulus (GPa) = 22.34709 29.74516 26.04612
# Shear Modulus (GPa) = 5.03388 17.33157 11.18272
#
# Velocity S-wave (km/s) = 1.67373 3.10566 2.49465
# Velocity P-wave (km/s) = 4.02138 5.42343 4.77415
#
# Compressibility (1/GPa) = 0.04474855
#
# Stress axis : x y z
#
# Youngs Moduli (GPa) = 53.55411 22.30947 92.39531
#
# Poissons Ratio (x) = 0.15312 0.01897
# Poissons Ratio (y) = 0.36757 0.71300
# Poissons Ratio (z) = 0.01099 0.17216
#
# Static dielectric constant tensor:
#      x y z
#    x 1.590660 0.000000 0.000000 
#    y 0.000000 1.602150 0.000000 
#    z 0.000000 0.000000 1.691110 
# 
# From -- ./inp_files/14328.got.cif
#   From: 2010.05.17/outbox.cif.g08.bks.cpg/sg44_8_cif.got.tgz:14328.got - 2010.06.03 19:37:08.
