data_PCOD9374709
_publ_section_title
;
Structure prediction by ZEFSAII (Michael W. Deem and Ramdas Pophale) SiO2 
 PCOD9374709
Probable space group: I M M 2
;
_chemical_formula_sum "Si O2"
_cell_formula_units_Z 56
_cell_length_a 8.716816
_cell_length_b 20.349321
_cell_length_c 15.706108
_cell_angle_alpha 90.000000
_cell_angle_beta 90.000000
_cell_angle_gamma 90.000000
_cell_volume 2785.969649
_symmetry_space_group_name_H-M "I M M 2"
_symmetry_group_IT_number 44
_symmetry_cell_setting 'orthorhombic'
loop_
_space_group_symop_operation_xyz
x,y,z
-x,-y,z
-x,y,z
x,-y,z
1/2+x,1/2+y,1/2+z
1/2-x,1/2-y,1/2+z
1/2-x,1/2+y,1/2+z
1/2+x,1/2-y,1/2+z
loop_
_atom_site_type_symbol
_atom_site_label
_atom_site_fract_x
_atom_site_fract_y
_atom_site_fract_z
Si Si1 0.166531 0.574995 0.217420
Si Si2 0.315772 0.075107 0.071917
Si Si3 0.180679 0.892278 0.887349
Si Si4 0.170560 0.078625 0.556077
Si Si5 0.678405 0.806297 0.476467
Si Si6 0.681607 0.757860 0.824953
Si Si7 0.815120 0.789516 0.134692
O O1 0.147387 0.500000 0.191027
O O2 0.222062 0.574054 0.313284
O O3 0.297780 0.598834 0.154371
O O4 0.000000 0.608598 0.207498
O O5 0.500000 0.078887 0.065542
O O6 0.256526 0.137693 0.125696
O O7 0.276812 0.000000 0.100193
O O8 0.241724 0.086757 0.979004
O O9 0.219152 0.816901 0.864978
O O10 0.000000 0.905314 0.881133
O O11 0.298057 0.119428 0.507476
O O12 0.000000 0.099951 0.531306
O O13 0.177955 0.000000 0.544964
O O14 0.500000 0.792705 0.459860
O O15 0.777694 0.798888 0.391402
O O16 0.728837 0.756992 0.553896
O O17 0.500000 0.772731 0.829451
O O18 0.721692 0.742010 0.726969
O O19 0.000000 0.795785 0.130886
#
# Coordination Sequence:
#
# PCOD9374709 Si02
#       7
#     8   8   8   8   8   8   8
#     4  10  20  34  53  80 116 156 197 243 300 365
#     4  11  24  41  63  91 125 168 216 267 325 386
#     4  12  23  36  57  88 122 159 205 255 315 381
#     4  10  21  37  58  86 120 160 205 252 309 374
#     4  11  22  39  63  92 124 160 206 257 313 378
#     4  11  23  40  63  91 123 160 206 260 317 378
#     4  10  23  42  64  92 126 165 210 261 321 384
#
# _framework density 20.100721
#
# number of rings (size 3 to 8) (size 9 to 14) (size 15 to 20)
#    0.000    1.286    1.429    4.714    0.000    7.429 
#    0.000    0.714    0.000    0.857    0.000    0.000 
#    0.000    0.000    0.000    0.000    0.000    0.000 
#
# Total GULP energy -156194.857482 kJ/mol
# GULP energy per Si atom -5578.387767 kJ/mol
# Density = 2.005497 g / cm^3
# Si number density = 20.100721 Si / 1000 Ang^3
#
#
#
# Elastic Constant Matrix: (Units=GPa)
#
#
# Indices 1 2 3 4 5 6 
#
# 1 68.6676 21.2259 16.1321 0.0000 0.0000 0.0000
# 2 21.2259 74.0019 10.5558 0.0000 0.0000 0.0000
# 3 16.1321 10.5558 66.4304 0.0000 0.0000 0.0000
# 4 0.0000 0.0000 0.0000 30.9724 0.0000 0.0000
# 5 0.0000 0.0000 0.0000 0.0000 27.7955 0.0000
# 6 0.0000 0.0000 0.0000 0.0000 0.0000 28.2057
#
#
#
# Elastic Compliance Matrix: (Units=1/GPa)
#
#
# Indices 1 2 3 4 5 6 
#
# 1 0.016685 -0.004305 -0.003368 0.000000 0.000000 0.000000
# 2 -0.004305 0.014938 -0.001328 0.000000 0.000000 0.000000
# 3 -0.003368 -0.001328 0.016082 0.000000 0.000000 0.000000
# 4 0.000000 0.000000 0.000000 0.032287 0.000000 0.000000
# 5 0.000000 0.000000 0.000000 0.000000 0.035977 0.000000
# 6 0.000000 0.000000 0.000000 0.000000 0.000000 0.035454
#
#
# Mechanical properties :
#
#
# Convention : Reuss Voigt Hill
#
# Bulk Modulus (GPa) = 33.66724 33.88082 33.77403
# Shear Modulus (GPa) = 27.88228 28.14044 28.01136
#
# Velocity S-wave (km/s) = 3.72846 3.74568 3.73708
# Velocity P-wave (km/s) = 5.94313 5.96648 5.95482
#
# Compressibility (1/GPa) = 0.02970246
#
# Stress axis : x y z
#
# Youngs Moduli (GPa) = 59.93440 66.94560 62.18056
#
# Poissons Ratio (x) = 0.28822 0.20940
# Poissons Ratio (y) = 0.25804 0.08258
# Poissons Ratio (z) = 0.20184 0.08891
#
# Static dielectric constant tensor:
#      x y z
#    x 1.713640 0.000000 0.000000 
#    y 0.000000 1.682540 0.000000 
#    z 0.000000 0.000000 1.710250 
# 
# From -- ./inp_files/16432.got.cif
#   From: 2010.05.17/outbox.cif.g08.bks.cpg/sg44_9_cif.got.tgz:16432.got - 2010.06.03 19:37:08.
