data_PCOD9374505
_publ_section_title
;
Structure prediction by ZEFSAII (Michael W. Deem and Ramdas Pophale) SiO2 
 PCOD9374505
Probable space group: I M M 2
;
_chemical_formula_sum "Si O2"
_cell_formula_units_Z 48
_cell_length_a 7.567695
_cell_length_b 17.165908
_cell_length_c 19.103070
_cell_angle_alpha 90.000000
_cell_angle_beta 90.000000
_cell_angle_gamma 90.000000
_cell_volume 2481.610215
_symmetry_space_group_name_H-M "I M M 2"
_symmetry_group_IT_number 44
_symmetry_cell_setting 'orthorhombic'
loop_
_space_group_symop_operation_xyz
x,y,z
-x,-y,z
-x,y,z
x,-y,z
1/2+x,1/2+y,1/2+z
1/2-x,1/2-y,1/2+z
1/2-x,1/2+y,1/2+z
1/2+x,1/2-y,1/2+z
loop_
_atom_site_type_symbol
_atom_site_label
_atom_site_fract_x
_atom_site_fract_y
_atom_site_fract_z
Si Si1 0.288753 0.500000 0.645300
Si Si2 0.790606 0.831742 0.954673
Si Si3 0.785605 0.322079 0.879476
Si Si4 0.290940 0.160652 0.222398
Si Si5 0.710024 0.413118 0.018859
Si Si6 0.785851 0.240727 0.594893
Si Si7 0.717291 0.500000 0.483613
O O1 0.500000 0.500000 0.643161
O O2 0.231256 0.422649 0.685728
O O3 0.226402 0.500000 0.564957
O O4 0.720645 0.762638 0.905770
O O5 0.721848 0.919430 0.948978
O O6 0.000000 0.835552 0.941666
O O7 0.763961 0.801616 0.033938
O O8 0.720679 0.339338 0.801402
O O9 0.734832 0.383790 0.939210
O O10 0.000000 0.321353 0.879439
O O11 0.500000 0.175747 0.228666
O O12 0.220469 0.226018 0.168787
O O13 0.500000 0.416794 0.031201
O O14 0.782799 0.500000 0.028956
O O15 0.779150 0.343785 0.068834
O O16 0.000000 0.238210 0.596751
O O17 0.500000 0.500000 0.483328
#
# Coordination Sequence:
#
# PCOD9374505 Si02
#       7
#     4   8   8   8   8   8   4
#     4  11  21  31  47  73  97 122 153 188 232 277
#     4   9  16  30  48  67  91 120 153 190 228 269
#     4   9  19  32  48  67  93 125 154 185 229 280
#     4  10  20  33  47  68  98 127 153 186 230 281
#     4   9  18  32  49  69  91 118 155 196 232 268
#     4   9  17  30  48  66  90 122 154 188 228 272
#     4   9  16  27  47  71  93 112 147 194 228 263
#
# _framework density 19.342279999999999
#
# number of rings (size 3 to 8) (size 9 to 14) (size 15 to 20)
#    0.000    2.667    1.667    0.250    1.167    1.000 
#    0.000    0.417    1.833    0.000    0.000    0.000 
#    0.000    0.000    0.000    0.000    0.000    0.000 
#
# Total GULP energy -133831.796477 kJ/mol
# GULP energy per Si atom -5576.324853 kJ/mol
# Density = 1.929826 g / cm^3
# Si number density = 19.342280 Si / 1000 Ang^3
#
#
#
# Elastic Constant Matrix: (Units=GPa)
#
#
# Indices 1 2 3 4 5 6 
#
# 1 39.9286 -5.3207 -8.5338 0.0000 0.0000 0.0000
# 2 -5.3207 154.0203 33.2154 0.0000 0.0000 0.0000
# 3 -8.5338 33.2154 70.1931 0.0000 0.0000 0.0000
# 4 0.0000 0.0000 0.0000 18.8876 0.0000 0.0000
# 5 0.0000 0.0000 0.0000 0.0000 13.9853 0.0000
# 6 0.0000 0.0000 0.0000 0.0000 0.0000 10.0980
#
#
#
# Elastic Compliance Matrix: (Units=1/GPa)
#
#
# Indices 1 2 3 4 5 6 
#
# 1 0.025721 0.000239 0.003014 0.000000 0.000000 0.000000
# 2 0.000239 0.007233 -0.003394 0.000000 0.000000 0.000000
# 3 0.003014 -0.003394 0.016219 0.000000 0.000000 0.000000
# 4 0.000000 0.000000 0.000000 0.052945 0.000000 0.000000
# 5 0.000000 0.000000 0.000000 0.000000 0.071504 0.000000
# 6 0.000000 0.000000 0.000000 0.000000 0.000000 0.099029
#
#
# Mechanical properties :
#
#
# Convention : Reuss Voigt Hill
#
# Bulk Modulus (GPa) = 20.45394 33.65155 27.05274
# Shear Modulus (GPa) = 17.28737 24.91291 21.10014
#
# Velocity S-wave (km/s) = 2.99283 3.59277 3.30643
# Velocity P-wave (km/s) = 4.74767 5.88611 5.34728
#
# Compressibility (1/GPa) = 0.04889034
#
# Stress axis : x y z
#
# Youngs Moduli (GPa) = 38.87921 138.26051 61.65731
#
# Poissons Ratio (x) = -0.03298 -0.18584
# Poissons Ratio (y) = -0.00927 0.20924
# Poissons Ratio (z) = -0.11719 0.46919
#
# Static dielectric constant tensor:
#      x y z
#    x 1.744800 0.000000 0.000000 
#    y 0.000000 1.687790 0.000000 
#    z 0.000000 0.000000 1.658940 
# 
# From -- ./inp_files/23187.got.cif
#   From: 2010.05.17/outbox.cif.g08.bks.cpg/sg44_12_cif.got.tgz:23187.got - 2010.06.03 19:37:08.
