data_PCOD9374973
_publ_section_title
;
Structure prediction by ZEFSAII (Michael W. Deem and Ramdas Pophale) SiO2 
 PCOD9374973
Probable space group: I M M 2
;
_chemical_formula_sum "Si O2"
_cell_formula_units_Z 44
_cell_length_a 25.902854
_cell_length_b 8.088922
_cell_length_c 11.267742
_cell_angle_alpha 90.000000
_cell_angle_beta 90.000000
_cell_angle_gamma 90.000000
_cell_volume 2360.886776
_symmetry_space_group_name_H-M "I M M 2"
_symmetry_group_IT_number 44
_symmetry_cell_setting 'orthorhombic'
loop_
_space_group_symop_operation_xyz
x,y,z
-x,-y,z
-x,y,z
x,-y,z
1/2+x,1/2+y,1/2+z
1/2-x,1/2-y,1/2+z
1/2-x,1/2+y,1/2+z
1/2+x,1/2-y,1/2+z
loop_
_atom_site_type_symbol
_atom_site_label
_atom_site_fract_x
_atom_site_fract_y
_atom_site_fract_z
Si Si1 0.782457 0.305978 0.200200
Si Si2 0.635746 0.500000 0.401903
Si Si3 0.264056 0.685073 0.438718
Si Si4 0.061196 0.685744 0.512033
Si Si5 0.938630 0.000000 0.677890
Si Si6 0.443448 0.500000 0.615106
Si Si7 0.097166 0.310722 0.248710
O O1 0.769943 0.500000 0.206941
O O2 0.760405 0.229261 0.322958
O O3 0.844141 0.285922 0.205787
O O4 0.761486 0.251675 0.072123
O O5 0.675619 0.346674 0.407599
O O6 0.598921 0.500000 0.289570
O O7 0.600582 0.500000 0.517098
O O8 0.240349 0.500000 0.447033
O O9 0.070308 0.500000 0.560657
O O10 0.092943 0.703004 0.390790
O O11 0.000000 0.695157 0.481050
O O12 0.071679 0.835392 0.600739
O O13 0.000000 0.000000 0.708522
O O14 0.500000 0.500000 0.559511
O O15 0.436359 0.334869 0.692694
O O16 0.081371 0.500000 0.218247
#
# Coordination Sequence:
#
# PCOD9374973 Si02
#       7
#     8   4   8   8   4   4   8
#     4  10  20  37  58  85 116 156 198 254 309 365
#     4  10  21  40  56  80 118 156 197 253 292 365
#     4   9  20  38  58  80 117 152 196 249 302 363
#     4   9  18  33  53  81 115 149 190 243 295 351
#     4  10  20  36  57  81 116 158 196 242 299 359
#     4  12  22  36  61  87 118 164 202 239 307 366
#     4  10  20  36  58  85 121 150 197 254 302 359
#
# _framework density 18.637063999999999
#
# number of rings (size 3 to 8) (size 9 to 14) (size 15 to 20)
#    0.545    1.636    1.818    1.364    0.000    4.000 
#    0.000    1.818    0.000    2.182    0.000    0.000 
#    0.000    0.000    0.000    0.000    0.000    0.000 
#
# Total GULP energy -122511.684196 kJ/mol
# GULP energy per Si atom -5568.712918 kJ/mol
# Density = 1.859465 g / cm^3
# Si number density = 18.637064 Si / 1000 Ang^3
#
#
#
# Elastic Constant Matrix: (Units=GPa)
#
#
# Indices 1 2 3 4 5 6 
#
# 1 26.1592 22.5760 22.8980 0.0000 0.0000 0.0000
# 2 22.5760 77.6993 44.4730 0.0000 0.0000 0.0000
# 3 22.8980 44.4730 116.5896 0.0000 0.0000 0.0000
# 4 0.0000 0.0000 0.0000 24.9831 0.0000 0.0000
# 5 0.0000 0.0000 0.0000 0.0000 43.1963 0.0000
# 6 0.0000 0.0000 0.0000 0.0000 0.0000 5.2013
#
#
#
# Elastic Compliance Matrix: (Units=1/GPa)
#
#
# Indices 1 2 3 4 5 6 
#
# 1 0.054032 -0.012314 -0.005915 0.000000 0.000000 0.000000
# 2 -0.012314 0.019271 -0.004933 0.000000 0.000000 0.000000
# 3 -0.005915 -0.004933 0.011620 0.000000 0.000000 0.000000
# 4 0.000000 0.000000 0.000000 0.040027 0.000000 0.000000
# 5 0.000000 0.000000 0.000000 0.000000 0.023150 0.000000
# 6 0.000000 0.000000 0.000000 0.000000 0.000000 0.192259
#
#
# Mechanical properties :
#
#
# Convention : Reuss Voigt Hill
#
# Bulk Modulus (GPa) = 25.90593 44.48245 35.19419
# Shear Modulus (GPa) = 12.51410 23.37623 17.94516
#
# Velocity S-wave (km/s) = 2.59407 3.54543 3.10639
# Velocity P-wave (km/s) = 4.78567 6.37806 5.63837
#
# Compressibility (1/GPa) = 0.03860120
#
# Stress axis : x y z
#
# Youngs Moduli (GPa) = 18.50756 51.89058 86.05662
#
# Poissons Ratio (x) = 0.63898 0.50899
# Poissons Ratio (y) = 0.22790 0.42448
# Poissons Ratio (z) = 0.10947 0.25596
#
# Static dielectric constant tensor:
#      x y z
#    x 1.602350 0.000000 0.000000 
#    y 0.000000 1.671020 0.000000 
#    z 0.000000 0.000000 1.646860 
# 
# From -- ./inp_files/9946.got.cif
#   From: 2010.05.17/outbox.cif.g08.bks.cpg/sg44_5_cif.got.tgz:9946.got - 2010.06.03 19:37:08.
