data_PCOD9374129
_publ_section_title
;
Structure prediction by ZEFSAII (Michael W. Deem and Ramdas Pophale) SiO2 
 PCOD9374129
Probable space group: I M M 2
;
_chemical_formula_sum "Si O2"
_cell_formula_units_Z 64
_cell_length_a 27.316709
_cell_length_b 7.505513
_cell_length_c 13.359759
_cell_angle_alpha 90.000000
_cell_angle_beta 90.000000
_cell_angle_gamma 90.000000
_cell_volume 2739.096807
_symmetry_space_group_name_H-M "I M M 2"
_symmetry_group_IT_number 44
_symmetry_cell_setting 'orthorhombic'
loop_
_space_group_symop_operation_xyz
x,y,z
-x,-y,z
-x,y,z
x,-y,z
1/2+x,1/2+y,1/2+z
1/2-x,1/2-y,1/2+z
1/2-x,1/2+y,1/2+z
1/2+x,1/2-y,1/2+z
loop_
_atom_site_type_symbol
_atom_site_label
_atom_site_fract_x
_atom_site_fract_y
_atom_site_fract_z
Si Si1 0.553142 0.791660 0.831600
Si Si2 0.685687 0.800591 0.678030
Si Si3 0.581904 0.298544 0.610375
Si Si4 0.755129 0.284409 0.505377
Si Si5 0.134137 0.290601 0.481862
Si Si6 0.056546 0.217180 0.888295
Si Si7 0.271882 0.283877 0.293249
Si Si8 0.126347 0.215773 0.705965
O O1 0.500000 0.712905 0.856625
O O2 0.560370 0.782367 0.712034
O O3 0.551424 0.000000 0.858370
O O4 0.598535 0.716140 0.895653
O O5 0.639904 0.702754 0.631408
O O6 0.728875 0.805321 0.597468
O O7 0.717125 0.718494 0.767509
O O8 0.668477 0.000000 0.704712
O O9 0.563109 0.500000 0.607587
O O10 0.571305 0.220472 0.500443
O O11 0.755497 0.500000 0.520513
O O12 0.810528 0.220151 0.489887
O O13 0.721667 0.245837 0.409435
O O14 0.140672 0.500000 0.459854
O O15 0.112115 0.271090 0.593718
O O16 0.091207 0.275534 0.796725
O O17 0.000000 0.264183 0.870286
O O18 0.060209 0.000000 0.889940
O O19 0.269368 0.500000 0.283934
O O20 0.318219 0.220471 0.230133
O O21 0.127075 0.000000 0.707566
#
# Coordination Sequence:
#
# PCOD9374129 Si02
#       8
#     8   8   8   8   8   8   8   8
#     4  10  22  41  63  86 116 157 200 244 300 357
#     4  11  21  35  55  81 114 150 187 227 281 345
#     4  11  22  38  61  88 119 151 193 247 298 354
#     4  10  19  34  55  78 109 150 193 234 278 337
#     4  10  21  37  57  83 120 159 195 238 291 350
#     4   9  19  36  59  85 112 147 190 240 298 351
#     4   9  18  33  53  76 108 150 187 226 281 338
#     4  10  19  35  58  82 113 151 196 241 285 342
#
# _framework density 23.365366000000002
#
# number of rings (size 3 to 8) (size 9 to 14) (size 15 to 20)
#    0.000    2.000    1.250    2.625    0.000    5.750 
#    0.000    5.625    0.000    1.500    0.000    0.000 
#    0.000    0.000    0.000    0.000    0.000    0.000 
#
# Total GULP energy -178691.962456 kJ/mol
# GULP energy per Si atom -5584.123827 kJ/mol
# Density = 2.331219 g / cm^3
# Si number density = 23.365366 Si / 1000 Ang^3
#
#
#
# Elastic Constant Matrix: (Units=GPa)
#
#
# Indices 1 2 3 4 5 6 
#
# 1 116.3574 -2.2143 24.4337 0.0000 0.0000 0.0000
# 2 -2.2143 62.8773 -8.6241 0.0000 0.0000 0.0000
# 3 24.4337 -8.6241 112.5886 0.0000 0.0000 0.0000
# 4 0.0000 0.0000 0.0000 18.6778 0.0000 0.0000
# 5 0.0000 0.0000 0.0000 0.0000 31.3158 0.0000
# 6 0.0000 0.0000 0.0000 0.0000 0.0000 7.5314
#
#
#
# Elastic Compliance Matrix: (Units=1/GPa)
#
#
# Indices 1 2 3 4 5 6 
#
# 1 0.009005 0.000050 -0.001950 0.000000 0.000000 0.000000
# 2 0.000050 0.016073 0.001220 0.000000 0.000000 0.000000
# 3 -0.001950 0.001220 0.009399 0.000000 0.000000 0.000000
# 4 0.000000 0.000000 0.000000 0.053539 0.000000 0.000000
# 5 0.000000 0.000000 0.000000 0.000000 0.031933 0.000000
# 6 0.000000 0.000000 0.000000 0.000000 0.000000 0.132778
#
#
# Mechanical properties :
#
#
# Convention : Reuss Voigt Hill
#
# Bulk Modulus (GPa) = 30.19710 35.44598 32.82154
# Shear Modulus (GPa) = 18.85896 30.05354 24.45625
#
# Velocity S-wave (km/s) = 2.84409 3.59031 3.23877
# Velocity P-wave (km/s) = 4.87207 5.69125 5.29752
#
# Compressibility (1/GPa) = 0.03311576
#
# Stress axis : x y z
#
# Youngs Moduli (GPa) = 111.05295 62.21560 106.39834
#
# Poissons Ratio (x) = -0.00309 0.20752
# Poissons Ratio (y) = -0.00551 -0.12985
# Poissons Ratio (z) = 0.21660 -0.07593
#
# Static dielectric constant tensor:
#      x y z
#    x 1.884420 0.000000 0.000000 
#    y 0.000000 1.882380 0.000000 
#    z 0.000000 0.000000 1.886820 
# 
# From -- ./inp_files/15059.got.cif
#   From: 2010.05.17/outbox.cif.g08.bks.cpg/sg44_8_cif.got.tgz:15059.got - 2010.06.03 19:37:08.
