data_PCOD9374373
_publ_section_title
;
Structure prediction by ZEFSAII (Michael W. Deem and Ramdas Pophale) SiO2 
 PCOD9374373
Probable space group: I M M 2
;
_chemical_formula_sum "Si O2"
_cell_formula_units_Z 58
_cell_length_a 7.555637
_cell_length_b 20.527809
_cell_length_c 17.406319
_cell_angle_alpha 90.000000
_cell_angle_beta 90.000000
_cell_angle_gamma 90.000000
_cell_volume 2699.731795
_symmetry_space_group_name_H-M "I M M 2"
_symmetry_group_IT_number 44
_symmetry_cell_setting 'orthorhombic'
loop_
_space_group_symop_operation_xyz
x,y,z
-x,-y,z
-x,y,z
x,-y,z
1/2+x,1/2+y,1/2+z
1/2-x,1/2-y,1/2+z
1/2-x,1/2+y,1/2+z
1/2+x,1/2-y,1/2+z
loop_
_atom_site_type_symbol
_atom_site_label
_atom_site_fract_x
_atom_site_fract_y
_atom_site_fract_z
Si Si1 0.212905 0.173888 0.608940
Si Si2 0.709484 0.611847 0.272868
Si Si3 0.795853 0.187464 0.054554
Si Si4 0.791029 0.426933 0.667026
Si Si5 0.709021 0.134061 0.323937
Si Si6 0.288569 0.730605 0.390067
Si Si7 0.213827 0.927934 0.481972
Si Si8 0.500000 0.000000 0.799147
O O1 0.254416 0.136590 0.687203
O O2 0.281398 0.247439 0.605797
O O3 0.277216 0.130211 0.537210
O O4 0.000000 0.178570 0.604445
O O5 0.500000 0.592723 0.273554
O O6 0.729667 0.672800 0.329808
O O7 0.843875 0.556264 0.296556
O O8 0.725022 0.124376 0.097970
O O9 0.000000 0.172127 0.040492
O O10 0.714800 0.208472 0.972593
O O11 0.720376 0.500000 0.652466
O O12 0.715489 0.394730 0.745022
O O13 0.000000 0.434214 0.680473
O O14 0.500000 0.145384 0.310025
O O15 0.784741 0.202498 0.354776
O O16 0.729597 0.084846 0.394847
O O17 0.500000 0.742037 0.402053
O O18 0.000000 0.926851 0.484563
O O19 0.271411 0.000000 0.507935
#
# Coordination Sequence:
#
# PCOD9374373 Si02
#       8
#     8   8   8   8   8   8   8   2
#     4  10  21  39  63  89 122 171 208 251 322 383
#     4  10  23  45  67  90 133 174 213 274 329 384
#     4  11  22  38  63  94 125 158 209 267 318 381
#     4  10  22  40  61  88 122 165 212 254 312 388
#     4  10  19  38  64  87 117 159 207 254 310 375
#     4   9  19  39  63  89 121 163 207 260 328 380
#     4  10  21  35  54  88 127 162 201 246 308 379
#     4  12  26  44  64 106 124 168 230 268 320 410
#
# _framework density 21.483616000000001
#
# number of rings (size 3 to 8) (size 9 to 14) (size 15 to 20)
#    0.000    1.931    1.379    1.862    1.931    3.862 
#    4.966    0.000    0.000    0.000    0.000    0.000 
#    0.000    0.000    0.000    0.000    0.000    0.000 
#
# Total GULP energy -161717.027219 kJ/mol
# GULP energy per Si atom -5576.449214 kJ/mol
# Density = 2.143472 g / cm^3
# Si number density = 21.483616 Si / 1000 Ang^3
#
#
#
# Elastic Constant Matrix: (Units=GPa)
#
#
# Indices 1 2 3 4 5 6 
#
# 1 61.7327 21.5643 8.4454 0.0000 0.0000 0.0000
# 2 21.5643 168.3178 51.8150 0.0000 0.0000 0.0000
# 3 8.4454 51.8150 36.6243 0.0000 0.0000 0.0000
# 4 0.0000 0.0000 0.0000 -44.3996 0.0000 0.0000
# 5 0.0000 0.0000 0.0000 0.0000 18.9534 0.0000
# 6 0.0000 0.0000 0.0000 0.0000 0.0000 20.8187
#
#
#
# Elastic Compliance Matrix: (Units=1/GPa)
#
#
# Indices 1 2 3 4 5 6 
#
# 1 0.017003 -0.001721 -0.001486 0.000000 0.000000 0.000000
# 2 -0.001721 0.010699 -0.014740 0.000000 0.000000 0.000000
# 3 -0.001486 -0.014740 0.048501 0.000000 0.000000 0.000000
# 4 0.000000 0.000000 0.000000 -0.022523 0.000000 0.000000
# 5 0.000000 0.000000 0.000000 0.000000 0.052761 0.000000
# 6 0.000000 0.000000 0.000000 0.000000 0.000000 0.048034
#
#
# Mechanical properties :
#
#
# Convention : Reuss Voigt Hill
#
# Bulk Modulus (GPa) = 24.80835 47.81378 36.31107
# Shear Modulus (GPa) = 24.53311 11.39784 17.96547
#
# Velocity S-wave (km/s) = 3.38293 2.30584 2.89492
# Velocity P-wave (km/s) = 5.17993 5.42157 5.30212
#
# Compressibility (1/GPa) = 0.04030900
#
# Stress axis : x y z
#
# Youngs Moduli (GPa) = 58.81202 93.46475 20.61818
#
# Poissons Ratio (x) = 0.16084 0.03064
# Poissons Ratio (y) = 0.10121 0.30391
# Poissons Ratio (z) = 0.08741 1.37768
#
# Static dielectric constant tensor:
#      x y z
#    x 1.797260 0.000000 0.000000 
#    y 0.000000 1.797730 0.000000 
#    z 0.000000 0.000000 1.774630 
# 
# From -- ./inp_files/20552.got.cif
#   From: 2010.05.17/outbox.cif.g08.bks.cpg/sg44_11_cif.got.tgz:20552.got - 2010.06.03 19:37:08.
