data_PCOD9374198
_publ_section_title
;
Structure prediction by ZEFSAII (Michael W. Deem and Ramdas Pophale) SiO2 
 PCOD9374198
Probable space group: I M M 2
;
_chemical_formula_sum "Si O2"
_cell_formula_units_Z 48
_cell_length_a 7.623133
_cell_length_b 28.551522
_cell_length_c 9.876909
_cell_angle_alpha 90.000000
_cell_angle_beta 90.000000
_cell_angle_gamma 90.000000
_cell_volume 2149.729487
_symmetry_space_group_name_H-M "I M M 2"
_symmetry_group_IT_number 44
_symmetry_cell_setting 'orthorhombic'
loop_
_space_group_symop_operation_xyz
x,y,z
-x,-y,z
-x,y,z
x,-y,z
1/2+x,1/2+y,1/2+z
1/2-x,1/2-y,1/2+z
1/2-x,1/2+y,1/2+z
1/2+x,1/2-y,1/2+z
loop_
_atom_site_type_symbol
_atom_site_label
_atom_site_fract_x
_atom_site_fract_y
_atom_site_fract_z
Si Si1 0.788942 0.777754 0.378730
Si Si2 0.296515 0.552303 0.544932
Si Si3 0.704857 0.091011 0.760113
Si Si4 0.785637 0.874525 0.260705
Si Si5 0.710839 0.805000 0.688812
Si Si6 0.211397 0.050630 0.479069
O O1 0.724571 0.822093 0.290101
O O2 0.749108 0.786545 0.536979
O O3 0.724830 0.730613 0.305255
O O4 0.000000 0.776860 0.370113
O O5 0.500000 0.548613 0.588061
O O6 0.219616 0.500000 0.562708
O O7 0.291303 0.567487 0.389469
O O8 0.223136 0.595656 0.631940
O O9 0.500000 0.095965 0.793478
O O10 0.776224 0.142297 0.717722
O O11 0.725203 0.058339 0.630245
O O12 0.731270 0.906377 0.387545
O O13 0.000000 0.871908 0.256019
O O14 0.500000 0.807109 0.697026
O O15 0.000000 0.051329 0.479643
O O16 0.267556 0.000000 0.424947
#
# Coordination Sequence:
#
# PCOD9374198 Si02
#       6
#     8   8   8   8   8   8
#     4  10  21  39  62  86 112 146 188 231 282 342
#     4  10  21  37  58  85 114 147 192 240 281 325
#     4  11  23  38  54  79 119 154 184 226 279 340
#     4   9  18  35  59  85 110 139 182 235 284 329
#     4  10  23  40  58  86 117 146 185 235 284 334
#     4  10  19  34  59  86 109 140 187 237 280 327
#
# _framework density 22.328389999999999
#
# number of rings (size 3 to 8) (size 9 to 14) (size 15 to 20)
#    0.000    2.000    1.667    1.500    2.333    6.000 
#    0.000    1.667    0.000    2.000    0.000    0.000 
#    0.000    0.000    0.000    0.000    0.000    0.000 
#
# Total GULP energy -134036.216214 kJ/mol
# GULP energy per Si atom -5584.842342 kJ/mol
# Density = 2.227757 g / cm^3
# Si number density = 22.328390 Si / 1000 Ang^3
#
#
#
# Elastic Constant Matrix: (Units=GPa)
#
#
# Indices 1 2 3 4 5 6 
#
# 1 44.5996 5.3992 -11.4030 0.0000 0.0000 0.0000
# 2 5.3992 108.0855 -4.7769 0.0000 0.0001 0.0000
# 3 -11.4030 -4.7769 59.3799 0.0001 0.0004 0.0001
# 4 0.0000 0.0000 0.0001 47.0793 0.0000 0.0000
# 5 0.0000 0.0001 0.0004 0.0000 -5.6154 0.0000
# 6 0.0000 0.0000 0.0001 0.0000 0.0000 11.8829
#
#
#
# Elastic Compliance Matrix: (Units=1/GPa)
#
#
# Indices 1 2 3 4 5 6 
#
# 1 0.023684 -0.000986 0.004469 0.000000 0.000000 0.000000
# 2 -0.000986 0.009326 0.000561 0.000000 0.000000 0.000000
# 3 0.004469 0.000561 0.017744 0.000000 0.000001 0.000000
# 4 0.000000 0.000000 0.000000 0.021241 0.000000 0.000000
# 5 0.000000 0.000000 0.000001 0.000000 -0.178083 0.000000
# 6 0.000000 0.000000 0.000000 0.000000 0.000000 0.084155
#
#
# Mechanical properties :
#
#
# Convention : Reuss Voigt Hill
#
# Bulk Modulus (GPa) = 16.99468 21.16707 19.08088
# Shear Modulus (GPa) = -480.38425 25.52574 -227.42926
#
# Velocity S-wave (km/s) = -14.68374 3.38479 -10.10335
# Velocity P-wave (km/s) = 16.72887 4.97757 11.29334
#
# Compressibility (1/GPa) = 0.05884193
#
# Stress axis : x y z
#
# Youngs Moduli (GPa) = 42.22333 107.22753 56.35710
#
# Poissons Ratio (x) = 0.10568 -0.25185
# Poissons Ratio (y) = 0.04161 -0.03162
# Poissons Ratio (z) = -0.18869 -0.06015
#
# Static dielectric constant tensor:
#      x y z
#    x 1.847410 0.000000 0.000000 
#    y 0.000000 1.777610 0.000000 
#    z 0.000000 0.000000 1.776920 
# 
# From -- ./inp_files/4884.got.cif
#   From: 2010.05.17/outbox.cif.g08.bks.cpg/sg44_3_cif.got.tgz:4884.got - 2010.06.03 19:37:08.
