data_PCOD9374054
_publ_section_title
;
Structure prediction by ZEFSAII (Michael W. Deem and Ramdas Pophale) SiO2 
 PCOD9374054
Probable space group: I M M 2
;
_chemical_formula_sum "Si O2"
_cell_formula_units_Z 48
_cell_length_a 19.013077
_cell_length_b 7.458935
_cell_length_c 15.632545
_cell_angle_alpha 90.000000
_cell_angle_beta 90.000000
_cell_angle_gamma 90.000000
_cell_volume 2216.965410
_symmetry_space_group_name_H-M "I M M 2"
_symmetry_group_IT_number 44
_symmetry_cell_setting 'orthorhombic'
loop_
_space_group_symop_operation_xyz
x,y,z
-x,-y,z
-x,y,z
x,-y,z
1/2+x,1/2+y,1/2+z
1/2-x,1/2-y,1/2+z
1/2-x,1/2+y,1/2+z
1/2+x,1/2-y,1/2+z
loop_
_atom_site_type_symbol
_atom_site_label
_atom_site_fract_x
_atom_site_fract_y
_atom_site_fract_z
Si Si1 0.075883 0.783383 0.857620
Si Si2 0.737075 0.784248 0.098854
Si Si3 0.000000 0.780336 0.378602
Si Si4 0.232070 0.710851 0.793001
Si Si5 0.388466 0.718407 0.546340
Si Si6 0.500000 0.718308 0.682764
Si Si7 0.653566 0.286792 0.933317
O O1 0.150307 0.726996 0.818838
O O2 0.000000 0.724087 0.820790
O O3 0.076064 0.000000 0.854947
O O4 0.079015 0.725987 0.956691
O O5 0.736654 0.715341 0.196214
O O6 0.808813 0.721542 0.054402
O O7 0.739099 0.000000 0.104124
O O8 0.676463 0.741160 0.031339
O O9 0.000000 0.724416 0.279664
O O10 0.074423 0.719155 0.417389
O O11 0.000000 0.000000 0.382538
O O12 0.248591 0.500000 0.786824
O O13 0.286834 0.782803 0.865301
O O14 0.389524 0.500000 0.546055
O O15 0.432777 0.775745 0.628147
O O16 0.500000 0.500000 0.683986
O O17 0.651250 0.500000 0.919566
#
# Coordination Sequence:
#
# PCOD9374054 Si02
#       7
#     8   8   4   8   8   4   8
#     4  10  19  33  54  81 108 137 176 220 267 319
#     4  10  20  35  55  78 104 142 183 218 262 321
#     4   9  18  32  51  76 107 138 172 221 273 312
#     4  10  21  36  55  80 109 142 182 222 269 326
#     4   9  15  26  48  77 105 129 164 213 262 312
#     4   9  14  24  48  80 105 128 164 217 271 314
#     4  10  20  36  56  80 109 140 177 224 271 317
#
# _framework density 21.651218
#
# number of rings (size 3 to 8) (size 9 to 14) (size 15 to 20)
#    0.000    2.333    2.500    1.000    0.000    5.000 
#    1.500    0.417    0.000    0.000    0.000    2.333 
#    0.000    0.000    0.000    0.000    0.000    0.000 
#
# Total GULP energy -133889.316094 kJ/mol
# GULP energy per Si atom -5578.721504 kJ/mol
# Density = 2.160194 g / cm^3
# Si number density = 21.651218 Si / 1000 Ang^3
#
#
#
# Elastic Constant Matrix: (Units=GPa)
#
#
# Indices 1 2 3 4 5 6 
#
# 1 134.4535 1.7454 49.5903 0.0000 0.0000 0.0000
# 2 1.7454 63.3604 2.8582 0.0000 0.0000 0.0000
# 3 49.5903 2.8582 95.9444 0.0000 0.0000 0.0000
# 4 0.0000 0.0000 0.0000 14.1592 0.0000 0.0000
# 5 0.0000 0.0000 0.0000 0.0000 -18.1310 0.0000
# 6 0.0000 0.0000 0.0000 0.0000 0.0000 11.8399
#
#
#
# Elastic Compliance Matrix: (Units=1/GPa)
#
#
# Indices 1 2 3 4 5 6 
#
# 1 0.009189 -0.000039 -0.004749 0.000000 0.000000 0.000000
# 2 -0.000039 0.015804 -0.000451 0.000000 0.000000 0.000000
# 3 -0.004749 -0.000451 0.012890 0.000000 0.000000 0.000000
# 4 0.000000 0.000000 0.000000 0.070625 0.000000 0.000000
# 5 0.000000 0.000000 0.000000 0.000000 -0.055154 0.000000
# 6 0.000000 0.000000 0.000000 0.000000 0.000000 0.084460
#
#
# Mechanical properties :
#
#
# Convention : Reuss Voigt Hill
#
# Bulk Modulus (GPa) = 36.48605 44.68290 40.58447
# Shear Modulus (GPa) = 31.76060 17.54458 24.65259
#
# Velocity S-wave (km/s) = 3.83419 2.84971 3.37801
# Velocity P-wave (km/s) = 6.04067 5.61340 5.83095
#
# Compressibility (1/GPa) = 0.02740773
#
# Stress axis : x y z
#
# Youngs Moduli (GPa) = 108.82097 63.27456 77.57671
#
# Poissons Ratio (x) = 0.00246 0.36837
# Poissons Ratio (y) = 0.00424 0.03496
# Poissons Ratio (z) = 0.51674 0.02852
#
# Static dielectric constant tensor:
#      x y z
#    x 1.848750 0.000000 0.000000 
#    y 0.000000 1.858880 0.000000 
#    z 0.000000 0.000000 1.758210 
# 
# From -- ./inp_files/16188.got.cif
#   From: 2010.05.17/outbox.cif.g08.bks.cpg/sg44_9_cif.got.tgz:16188.got - 2010.06.03 19:37:08.
