data_PCOD9374485
_publ_section_title
;
Structure prediction by ZEFSAII (Michael W. Deem and Ramdas Pophale) SiO2 
 PCOD9374485
Probable space group: I M M 2
;
_chemical_formula_sum "Si O2"
_cell_formula_units_Z 64
_cell_length_a 9.219274
_cell_length_b 15.258719
_cell_length_c 23.653902
_cell_angle_alpha 90.000000
_cell_angle_beta 90.000000
_cell_angle_gamma 90.000000
_cell_volume 3327.496375
_symmetry_space_group_name_H-M "I M M 2"
_symmetry_group_IT_number 44
_symmetry_cell_setting 'orthorhombic'
loop_
_space_group_symop_operation_xyz
x,y,z
-x,-y,z
-x,y,z
x,-y,z
1/2+x,1/2+y,1/2+z
1/2-x,1/2-y,1/2+z
1/2-x,1/2+y,1/2+z
1/2+x,1/2-y,1/2+z
loop_
_atom_site_type_symbol
_atom_site_label
_atom_site_fract_x
_atom_site_fract_y
_atom_site_fract_z
Si Si1 0.173839 0.102365 0.467150
Si Si2 0.327221 0.230683 0.555621
Si Si3 0.672722 0.904008 0.224895
Si Si4 0.159813 0.102603 0.902393
Si Si5 0.328079 0.104155 0.012828
Si Si6 0.335308 0.159736 0.799714
Si Si7 0.833775 0.137746 0.337415
Si Si8 0.672823 0.768062 0.682219
O O1 0.254842 0.167426 0.509566
O O2 0.213343 0.120385 0.401535
O O3 0.000000 0.116634 0.471582
O O4 0.203554 0.000000 0.479595
O O5 0.500000 0.235116 0.546953
O O6 0.259803 0.328226 0.551283
O O7 0.298376 0.198020 0.619494
O O8 0.500000 0.893205 0.224660
O O9 0.732194 0.901314 0.289073
O O10 0.746570 0.823403 0.193081
O O11 0.707741 0.000000 0.200429
O O12 0.223407 0.112434 0.840161
O O13 0.000000 0.144257 0.908554
O O14 0.144390 0.000000 0.913320
O O15 0.274866 0.131213 0.949690
O O16 0.500000 0.117109 0.018337
O O17 0.299430 0.000000 0.022358
O O18 0.500000 0.124591 0.803985
O O19 0.337281 0.258878 0.823942
O O20 0.290864 0.167822 0.734292
O O21 0.000000 0.105383 0.331312
O O22 0.500000 0.751673 0.687574
#
# Coordination Sequence:
#
# PCOD9374485 Si02
#       8
#     8   8   8   8   8   8   8   8
#     4  10  21  37  58  84 113 148 189 229 273 328
#     4  11  23  39  59  81 108 145 189 236 280 321
#     4  10  20  32  50  80 112 138 168 210 261 316
#     4  10  20  33  51  79 111 137 168 215 268 322
#     4  10  21  37  58  84 114 148 183 220 270 334
#     4   9  17  32  54  77 102 134 173 216 263 318
#     4   9  18  33  54  79 107 139 174 212 258 318
#     4   9  21  39  55  73  99 137 183 222 261 316
#
# _framework density 19.233678999999999
#
# number of rings (size 3 to 8) (size 9 to 14) (size 15 to 20)
#    0.000    2.250    0.000    3.375    0.000    8.250 
#    0.000    3.125    0.000    3.750    0.000    0.000 
#    0.000    0.000    0.000    0.000    0.000    0.000 
#
# Total GULP energy -178515.774945 kJ/mol
# GULP energy per Si atom -5578.617967 kJ/mol
# Density = 1.918990 g / cm^3
# Si number density = 19.233679 Si / 1000 Ang^3
#
#
#
# Elastic Constant Matrix: (Units=GPa)
#
#
# Indices 1 2 3 4 5 6 
#
# 1 37.5157 16.3495 18.6113 0.0000 0.0000 0.0000
# 2 16.3495 32.1295 18.5969 0.0000 0.0000 0.0000
# 3 18.6113 18.5969 88.3651 0.0000 0.0000 0.0000
# 4 0.0000 0.0000 0.0000 13.7942 0.0000 0.0000
# 5 0.0000 0.0000 0.0000 0.0000 25.7219 0.0000
# 6 0.0000 0.0000 0.0000 0.0000 0.0000 20.3615
#
#
#
# Elastic Compliance Matrix: (Units=1/GPa)
#
#
# Indices 1 2 3 4 5 6 
#
# 1 0.035565 -0.015671 -0.004193 0.000000 0.000000 0.000000
# 2 -0.015671 0.042346 -0.005611 0.000000 0.000000 0.000000
# 3 -0.004193 -0.005611 0.013381 0.000000 0.000000 0.000000
# 4 0.000000 0.000000 0.000000 0.072494 0.000000 0.000000
# 5 0.000000 0.000000 0.000000 0.000000 0.038877 0.000000
# 6 0.000000 0.000000 0.000000 0.000000 0.000000 0.049112
#
#
# Mechanical properties :
#
#
# Convention : Reuss Voigt Hill
#
# Bulk Modulus (GPa) = 24.78805 29.45842 27.12323
# Shear Modulus (GPa) = 15.81414 18.93903 17.37658
#
# Velocity S-wave (km/s) = 2.87053 3.14137 3.00900
# Velocity P-wave (km/s) = 4.88901 5.33918 5.11905
#
# Compressibility (1/GPa) = 0.04034202
#
# Stress axis : x y z
#
# Youngs Moduli (GPa) = 28.11767 23.61479 74.73466
#
# Poissons Ratio (x) = 0.37007 0.31333
# Poissons Ratio (y) = 0.44063 0.41937
# Poissons Ratio (z) = 0.11789 0.13251
#
# Static dielectric constant tensor:
#      x y z
#    x 1.660320 0.000000 0.000000 
#    y 0.000000 1.690410 0.000000 
#    z 0.000000 0.000000 1.684790 
# 
# From -- ./inp_files/25189.got.cif
#   From: 2010.05.17/outbox.cif.g08.bks.cpg/sg44_13_cif.got.tgz:25189.got - 2010.06.03 19:37:08.
