data_PCOD9374500
_publ_section_title
;
Structure prediction by ZEFSAII (Michael W. Deem and Ramdas Pophale) SiO2 
 PCOD9374500
Probable space group: I M M 2
;
_chemical_formula_sum "Si O2"
_cell_formula_units_Z 40
_cell_length_a 7.705057
_cell_length_b 7.572822
_cell_length_c 34.377154
_cell_angle_alpha 90.000000
_cell_angle_beta 90.000000
_cell_angle_gamma 90.000000
_cell_volume 2005.873424
_symmetry_space_group_name_H-M "I M M 2"
_symmetry_group_IT_number 44
_symmetry_cell_setting 'orthorhombic'
loop_
_space_group_symop_operation_xyz
x,y,z
-x,-y,z
-x,y,z
x,-y,z
1/2+x,1/2+y,1/2+z
1/2-x,1/2-y,1/2+z
1/2-x,1/2+y,1/2+z
1/2+x,1/2-y,1/2+z
loop_
_atom_site_type_symbol
_atom_site_label
_atom_site_fract_x
_atom_site_fract_y
_atom_site_fract_z
Si Si1 0.500000 0.788388 0.534350
Si Si2 0.698756 0.708353 0.092260
Si Si3 0.209099 0.000000 0.153616
Si Si4 0.698160 0.215930 0.888510
Si Si5 0.288132 0.201420 0.801791
Si Si6 0.212345 0.000000 0.242747
Si Si7 0.500000 0.709791 0.443696
O O1 0.668402 0.731497 0.558822
O O2 0.500000 0.736010 0.489622
O O3 0.500000 0.000000 0.534675
O O4 0.500000 0.727498 0.079432
O O5 0.730132 0.500000 0.100485
O O6 0.729024 0.828541 0.129913
O O7 0.269381 0.000000 0.198179
O O8 0.000000 0.000000 0.153219
O O9 0.500000 0.275319 0.894317
O O10 0.760422 0.264826 0.845105
O O11 0.828974 0.277808 0.921683
O O12 0.693838 0.000000 0.888318
O O13 0.500000 0.199757 0.802173
O O14 0.232059 0.329922 0.767525
O O15 0.229863 0.000000 0.796324
O O16 0.000000 0.000000 0.242309
O O17 0.500000 0.500000 0.437071
#
# Coordination Sequence:
#
# PCOD9374500 Si02
#       7
#     4   8   4   8   8   4   4
#     4  10  22  40  58  84 118 148 194 245 303 364
#     4  10  22  41  64  85 113 159 201 243 301 367
#     4  11  21  35  61  92 125 155 198 249 311 364
#     4   8  15  30  51  75 106 148 191 230 281 340
#     4   8  14  28  49  72 107 152 193 234 282 335
#     4   9  18  29  49  87 116 145 193 244 283 353
#     4  10  20  32  54  82 112 144 188 246 286 349
#
# _framework density 19.941435999999999
#
# number of rings (size 3 to 8) (size 9 to 14) (size 15 to 20)
#    0.000    2.800    1.000    1.500    1.400    1.600 
#    1.800    2.000    4.400    0.000    0.000    0.000 
#    0.000    0.000    0.000    0.000    0.000    0.000 
#
# Total GULP energy -111625.309888 kJ/mol
# GULP energy per Si atom -5581.265494 kJ/mol
# Density = 1.989605 g / cm^3
# Si number density = 19.941436 Si / 1000 Ang^3
#
#
#
# Elastic Constant Matrix: (Units=GPa)
#
#
# Indices 1 2 3 4 5 6 
#
# 1 99.4287 34.7898 78.4311 0.0000 0.0000 0.0000
# 2 34.7898 76.5219 63.0080 0.0000 0.0000 0.0000
# 3 78.4311 63.0080 208.9031 0.0000 0.0000 0.0000
# 4 0.0000 0.0000 0.0000 52.8632 0.0000 0.0000
# 5 0.0000 0.0000 0.0000 0.0000 -10.9698 0.0000
# 6 0.0000 0.0000 0.0000 0.0000 0.0000 8.6653
#
#
#
# Elastic Compliance Matrix: (Units=1/GPa)
#
#
# Indices 1 2 3 4 5 6 
#
# 1 0.014743 -0.002854 -0.004675 0.000000 0.000000 0.000000
# 2 -0.002854 0.017938 -0.004339 0.000000 0.000000 0.000000
# 3 -0.004675 -0.004339 0.007851 0.000000 0.000000 0.000000
# 4 0.000000 0.000000 0.000000 0.018917 0.000000 0.000000
# 5 0.000000 0.000000 0.000000 0.000000 -0.091160 0.000000
# 6 0.000000 0.000000 0.000000 0.000000 0.000000 0.115402
#
#
# Mechanical properties :
#
#
# Convention : Reuss Voigt Hill
#
# Bulk Modulus (GPa) = 59.53253 81.92349 70.72801
# Shear Modulus (GPa) = 44.23780 24.02007 34.12893
#
# Velocity S-wave (km/s) = 4.71508 3.47440 4.14147
# Velocity P-wave (km/s) = 7.71759 7.56746 7.64289
#
# Compressibility (1/GPa) = 0.01679754
#
# Stress axis : x y z
#
# Youngs Moduli (GPa) = 67.82708 55.74646 127.37869
#
# Poissons Ratio (x) = 0.15910 0.59543
# Poissons Ratio (y) = 0.19357 0.55269
# Poissons Ratio (z) = 0.31706 0.24188
#
# Static dielectric constant tensor:
#      x y z
#    x 1.732920 0.000000 0.000000 
#    y 0.000000 1.718650 0.000000 
#    z 0.000000 0.000000 1.663030 
# 
# From -- ./inp_files/25988.got.cif
#   From: 2010.05.17/outbox.cif.g08.bks.cpg/sg44_13_cif.got.tgz:25988.got - 2010.06.03 19:37:08.
