data_PCOD9374077
_publ_section_title
;
Structure prediction by ZEFSAII (Michael W. Deem and Ramdas Pophale) SiO2 
 PCOD9374077
Probable space group: I M M 2
;
_chemical_formula_sum "Si O2"
_cell_formula_units_Z 64
_cell_length_a 8.862587
_cell_length_b 25.391438
_cell_length_c 15.402609
_cell_angle_alpha 90.000000
_cell_angle_beta 90.000000
_cell_angle_gamma 90.000000
_cell_volume 3466.108070
_symmetry_space_group_name_H-M "I M M 2"
_symmetry_group_IT_number 44
_symmetry_cell_setting 'orthorhombic'
loop_
_space_group_symop_operation_xyz
x,y,z
-x,-y,z
-x,y,z
x,-y,z
1/2+x,1/2+y,1/2+z
1/2-x,1/2-y,1/2+z
1/2-x,1/2+y,1/2+z
1/2+x,1/2-y,1/2+z
loop_
_atom_site_type_symbol
_atom_site_label
_atom_site_fract_x
_atom_site_fract_y
_atom_site_fract_z
Si Si1 0.179189 0.108179 0.855020
Si Si2 0.320701 0.268732 0.140857
Si Si3 0.180406 0.870105 0.528271
Si Si4 0.319038 0.850643 0.156138
Si Si5 0.679131 0.216296 0.826875
Si Si6 0.681896 0.663552 0.843819
Si Si7 0.681674 0.940390 0.023250
Si Si8 0.679441 0.062278 0.679549
O O1 0.237156 0.167624 0.870498
O O2 0.241269 0.088971 0.762180
O O3 0.000000 0.106770 0.854025
O O4 0.245006 0.071921 0.930787
O O5 0.500000 0.271243 0.163086
O O6 0.294282 0.311367 0.066515
O O7 0.285143 0.207986 0.119656
O O8 0.225383 0.284168 0.225452
O O9 0.228861 0.869594 0.427960
O O10 0.262404 0.910391 0.591857
O O11 0.000000 0.879629 0.532114
O O12 0.500000 0.854465 0.163322
O O13 0.250461 0.853699 0.252331
O O14 0.266783 0.896812 0.092597
O O15 0.500000 0.209596 0.837219
O O16 0.722026 0.274808 0.858049
O O17 0.500000 0.661700 0.837808
O O18 0.500000 0.935857 0.014228
O O19 0.716272 0.000000 0.050871
O O20 0.500000 0.069696 0.687811
O O21 0.711842 0.000000 0.678983
#
# Coordination Sequence:
#
# PCOD9374077 Si02
#       8
#     8   8   8   8   8   8   8   8
#     4  12  24  37  56  85 117 151 188 229 283 344
#     4   9  17  31  53  81 113 148 185 227 278 335
#     4  10  20  35  57  85 117 153 191 232 280 338
#     4   9  19  36  59  83 113 151 190 237 288 334
#     4  10  19  33  55  82 115 152 187 226 276 331
#     4   9  20  36  57  85 118 153 190 233 282 338
#     4  10  22  40  61  84 110 147 196 241 283 335
#     4  11  24  41  60  83 113 150 192 237 283 335
#
# _framework density 18.464513
#
# number of rings (size 3 to 8) (size 9 to 14) (size 15 to 20)
#    0.000    2.000    1.250    2.250    1.750    4.250 
#    0.000    0.625    0.000    2.250    0.000    0.000 
#    0.000    0.000    0.000    0.000    0.000    0.000 
#
# Total GULP energy -178682.764266 kJ/mol
# GULP energy per Si atom -5583.836383 kJ/mol
# Density = 1.842249 g / cm^3
# Si number density = 18.464513 Si / 1000 Ang^3
#
#
#
# Elastic Constant Matrix: (Units=GPa)
#
#
# Indices 1 2 3 4 5 6 
#
# 1 31.5353 38.8633 21.5709 0.0000 0.0000 0.0000
# 2 38.8633 96.0195 37.9395 0.0000 0.0000 0.0000
# 3 21.5709 37.9395 61.1839 0.0001 0.0000 0.0000
# 4 0.0000 0.0000 0.0001 30.4675 0.0000 0.0000
# 5 0.0000 0.0000 0.0000 0.0000 27.2340 0.0000
# 6 0.0000 0.0000 0.0000 0.0000 0.0000 19.9741
#
#
#
# Elastic Compliance Matrix: (Units=1/GPa)
#
#
# Indices 1 2 3 4 5 6 
#
# 1 0.066803 -0.023487 -0.008988 0.000000 0.000000 0.000000
# 2 -0.023487 0.022052 -0.005394 0.000000 0.000000 0.000000
# 3 -0.008988 -0.005394 0.022858 0.000000 0.000000 0.000000
# 4 0.000000 0.000000 0.000000 0.032822 0.000000 0.000000
# 5 0.000000 0.000000 0.000000 0.000000 0.036719 0.000000
# 6 0.000000 0.000000 0.000000 0.000000 0.000000 0.050065
#
#
# Mechanical properties :
#
#
# Convention : Reuss Voigt Hill
#
# Bulk Modulus (GPa) = 27.79676 42.83179 35.31428
# Shear Modulus (GPa) = 15.67169 21.55946 18.61558
#
# Velocity S-wave (km/s) = 2.91649 3.42075 3.17863
# Velocity P-wave (km/s) = 5.14082 6.23291 5.71302
#
# Compressibility (1/GPa) = 0.03597542
#
# Stress axis : x y z
#
# Youngs Moduli (GPa) = 14.96937 45.34774 43.74915
#
# Poissons Ratio (x) = 1.06507 0.39322
# Poissons Ratio (y) = 0.35158 0.23597
# Poissons Ratio (z) = 0.13455 0.24459
#
# Static dielectric constant tensor:
#      x y z
#    x 1.618630 0.000000 0.000000 
#    y 0.000000 1.642560 0.000000 
#    z 0.000000 0.000000 1.617720 
# 
# From -- ./inp_files/16778.got.cif
#   From: 2010.05.17/outbox.cif.g08.bks.cpg/sg44_9_cif.got.tgz:16778.got - 2010.06.03 19:37:08.
