data_PCOD9374785
_publ_section_title
;
Structure prediction by ZEFSAII (Michael W. Deem and Ramdas Pophale) SiO2 
 PCOD9374785
Probable space group: I M M 2
;
_chemical_formula_sum "Si O2"
_cell_formula_units_Z 64
_cell_length_a 32.365332
_cell_length_b 9.079919
_cell_length_c 12.015880
_cell_angle_alpha 90.000000
_cell_angle_beta 90.000000
_cell_angle_gamma 90.000000
_cell_volume 3531.161844
_symmetry_space_group_name_H-M "I M M 2"
_symmetry_group_IT_number 44
_symmetry_cell_setting 'orthorhombic'
loop_
_space_group_symop_operation_xyz
x,y,z
-x,-y,z
-x,y,z
x,-y,z
1/2+x,1/2+y,1/2+z
1/2-x,1/2-y,1/2+z
1/2-x,1/2+y,1/2+z
1/2+x,1/2-y,1/2+z
loop_
_atom_site_type_symbol
_atom_site_label
_atom_site_fract_x
_atom_site_fract_y
_atom_site_fract_z
Si Si1 0.951385 0.175858 0.831040
Si Si2 0.689329 0.176576 0.278763
Si Si3 0.549562 0.167002 0.101039
Si Si4 0.879762 0.676638 0.963119
Si Si5 0.859360 0.323709 0.216101
Si Si6 0.681482 0.669027 0.047043
Si Si7 0.595756 0.332318 0.911247
Si Si8 0.275194 0.823457 0.846986
O O1 0.938500 0.241818 0.710979
O O2 0.921422 0.244540 0.922983
O O3 0.000000 0.212077 0.848866
O O4 0.947461 0.000000 0.828320
O O5 0.656410 0.212007 0.375270
O O6 0.675834 0.247974 0.162664
O O7 0.733592 0.246047 0.307483
O O8 0.692263 0.000000 0.269568
O O9 0.500000 0.162909 0.100230
O O10 0.565639 0.000000 0.110044
O O11 0.564850 0.241251 0.988155
O O12 0.886047 0.500000 0.960205
O O13 0.865868 0.717207 0.087745
O O14 0.864516 0.500000 0.226733
O O15 0.892221 0.243741 0.295563
O O16 0.813519 0.289896 0.263490
O O17 0.695474 0.500000 0.064257
O O18 0.638228 0.665243 0.981932
O O19 0.712352 0.757549 0.966784
O O20 0.581700 0.500000 0.895324
O O21 0.270560 0.000000 0.852201
#
# Coordination Sequence:
#
# PCOD9374785 Si02
#       8
#     8   8   8   8   8   8   8   8
#     4  10  21  37  58  86 119 151 187 238 294 344
#     4  11  23  36  55  84 115 146 186 235 284 338
#     4  10  20  34  56  85 115 148 185 228 280 341
#     4  10  22  39  59  84 114 153 196 239 284 342
#     4   9  20  39  59  79 110 152 194 235 281 337
#     4  10  21  37  55  77 108 143 183 228 276 332
#     4  10  20  35  57  83 110 143 182 230 282 332
#     4  10  21  37  58  82 109 146 188 234 289 339
#
# _framework density 18.124347
#
# number of rings (size 3 to 8) (size 9 to 14) (size 15 to 20)
#    0.000    2.000    0.000    3.000    1.750    7.000 
#    0.000    0.625    0.000    0.750    0.000    0.000 
#    0.000    0.000    0.000    0.000    0.000    0.000 
#
# Total GULP energy -178702.345948 kJ/mol
# GULP energy per Si atom -5584.448311 kJ/mol
# Density = 1.808310 g / cm^3
# Si number density = 18.124347 Si / 1000 Ang^3
#
#
#
# Elastic Constant Matrix: (Units=GPa)
#
#
# Indices 1 2 3 4 5 6 
#
# 1 57.6756 45.1911 51.0171 0.0000 0.0000 0.0000
# 2 45.1911 85.1085 67.7257 0.0000 0.0000 0.0000
# 3 51.0171 67.7257 163.3747 0.0000 0.0000 0.0000
# 4 0.0000 0.0000 0.0000 29.3301 0.0000 0.0000
# 5 0.0000 0.0000 0.0000 0.0000 16.5424 0.0000
# 6 0.0000 0.0000 0.0000 0.0000 0.0000 28.9027
#
#
#
# Elastic Compliance Matrix: (Units=1/GPa)
#
#
# Indices 1 2 3 4 5 6 
#
# 1 0.031636 -0.013336 -0.004351 0.000000 0.000000 0.000000
# 2 -0.013336 0.023155 -0.005434 0.000000 0.000000 0.000000
# 3 -0.004351 -0.005434 0.009732 0.000000 0.000000 0.000000
# 4 0.000000 0.000000 0.000000 0.034095 0.000000 0.000000
# 5 0.000000 0.000000 0.000000 0.000000 0.060451 0.000000
# 6 0.000000 0.000000 0.000000 0.000000 0.000000 0.034599
#
#
# Mechanical properties :
#
#
# Convention : Reuss Voigt Hill
#
# Bulk Modulus (GPa) = 54.70038 70.44742 62.57390
# Shear Modulus (GPa) = 20.32486 24.43671 22.38078
#
# Velocity S-wave (km/s) = 3.35238 3.67588 3.51785
# Velocity P-wave (km/s) = 6.72538 7.54781 7.14843
#
# Compressibility (1/GPa) = 0.01828141
#
# Stress axis : x y z
#
# Youngs Moduli (GPa) = 31.60943 43.18636 102.75099
#
# Poissons Ratio (x) = 0.57594 0.44703
# Poissons Ratio (y) = 0.42155 0.55839
# Poissons Ratio (z) = 0.13752 0.23469
#
# Static dielectric constant tensor:
#      x y z
#    x 1.619790 0.000000 0.000000 
#    y 0.000000 1.616600 0.000000 
#    z 0.000000 0.000000 1.600190 
# 
# From -- ./inp_files/11572.got.cif
#   From: 2010.05.17/outbox.cif.g08.bks.cpg/sg44_6_cif.got.tgz:11572.got - 2010.06.03 19:37:08.
