data_PCOD9374770
_publ_section_title
;
Structure prediction by ZEFSAII (Michael W. Deem and Ramdas Pophale) SiO2 
 PCOD9374770
Probable space group: I M M 2
;
_chemical_formula_sum "Si O2"
_cell_formula_units_Z 48
_cell_length_a 8.774094
_cell_length_b 10.518757
_cell_length_c 28.878635
_cell_angle_alpha 90.000000
_cell_angle_beta 90.000000
_cell_angle_gamma 90.000000
_cell_volume 2665.283231
_symmetry_space_group_name_H-M "I M M 2"
_symmetry_group_IT_number 44
_symmetry_cell_setting 'orthorhombic'
loop_
_space_group_symop_operation_xyz
x,y,z
-x,-y,z
-x,y,z
x,-y,z
1/2+x,1/2+y,1/2+z
1/2-x,1/2-y,1/2+z
1/2-x,1/2+y,1/2+z
1/2+x,1/2-y,1/2+z
loop_
_atom_site_type_symbol
_atom_site_label
_atom_site_fract_x
_atom_site_fract_y
_atom_site_fract_z
Si Si1 0.817679 0.000000 0.690161
Si Si2 0.815528 0.247022 0.537818
Si Si3 0.182687 0.737821 0.246138
Si Si4 0.681243 0.650808 0.340218
Si Si5 0.318229 0.000000 0.586986
Si Si6 0.683489 0.000000 0.094426
Si Si7 0.182674 0.649642 0.438701
Si Si8 0.683517 0.500000 0.697071
O O1 0.757651 0.876157 0.717100
O O2 0.754595 0.000000 0.638093
O O3 0.000000 0.000000 0.689866
O O4 0.771992 0.373135 0.566629
O O5 0.774592 0.271761 0.484253
O O6 0.000000 0.234295 0.540339
O O7 0.738577 0.124407 0.559806
O O8 0.236059 0.723862 0.298979
O O9 0.000000 0.725837 0.243566
O O10 0.228857 0.872542 0.224217
O O11 0.500000 0.665136 0.336081
O O12 0.717551 0.500000 0.335107
O O13 0.736654 0.689016 0.391278
O O14 0.500000 0.000000 0.591049
O O15 0.749930 0.000000 0.145672
O O16 0.500000 0.000000 0.096895
O O17 0.217318 0.500000 0.447136
O O18 0.000000 0.658790 0.432707
O O19 0.500000 0.500000 0.693923
#
# Coordination Sequence:
#
# PCOD9374770 Si02
#       8
#     4   8   8   8   4   4   8   4
#     4  12  24  40  61  86 113 148 197 244 286 340
#     4  10  20  38  61  87 116 150 192 238 284 340
#     4  11  22  39  61  85 116 153 192 236 286 342
#     4  10  20  34  55  86 119 147 188 237 284 337
#     4  12  26  40  55  82 119 158 195 234 286 346
#     4  10  20  36  61  88 111 144 191 236 282 334
#     4   9  17  33  59  87 114 145 187 234 286 342
#     4  10  24  40  55  82 117 150 189 232 280 340
#
# _framework density 18.009343999999999
#
# number of rings (size 3 to 8) (size 9 to 14) (size 15 to 20)
#    0.000    1.667    1.667    3.500    0.000    6.000 
#    0.000    0.833    0.000    2.000    0.000    0.000 
#    0.000    0.000    0.000    0.000    0.000    0.000 
#
# Total GULP energy -134105.622719 kJ/mol
# GULP energy per Si atom -5587.734280 kJ/mol
# Density = 1.796835 g / cm^3
# Si number density = 18.009344 Si / 1000 Ang^3
#
#
#
# Elastic Constant Matrix: (Units=GPa)
#
#
# Indices 1 2 3 4 5 6 
#
# 1 59.3589 55.5108 62.2945 0.0000 0.0000 0.0000
# 2 55.5108 144.8921 91.3426 0.0000 0.0000 0.0000
# 3 62.2945 91.3426 179.1605 0.0000 0.0000 0.0000
# 4 0.0000 0.0000 0.0000 -25.2750 0.0000 0.0000
# 5 0.0000 0.0000 0.0000 0.0000 35.5337 0.0000
# 6 0.0000 0.0000 0.0000 0.0000 0.0000 10.1274
#
#
#
# Elastic Compliance Matrix: (Units=1/GPa)
#
#
# Indices 1 2 3 4 5 6 
#
# 1 0.031287 -0.007558 -0.007025 0.000000 0.000000 0.000000
# 2 -0.007558 0.011996 -0.003488 0.000000 0.000000 0.000000
# 3 -0.007025 -0.003488 0.009803 0.000000 0.000000 0.000000
# 4 0.000000 0.000000 0.000000 -0.039565 0.000000 0.000000
# 5 0.000000 0.000000 0.000000 0.000000 0.028142 0.000000
# 6 0.000000 0.000000 0.000000 0.000000 0.000000 0.098742
#
#
# Mechanical properties :
#
#
# Convention : Reuss Voigt Hill
#
# Bulk Modulus (GPa) = 59.01993 89.07857 74.04925
# Shear Modulus (GPa) = 27.44280 15.69480 21.56880
#
# Velocity S-wave (km/s) = 3.90783 2.95529 3.46446
# Velocity P-wave (km/s) = 7.29414 7.82399 7.56371
#
# Compressibility (1/GPa) = 0.01694343
#
# Stress axis : x y z
#
# Youngs Moduli (GPa) = 31.96174 83.35900 102.01159
#
# Poissons Ratio (x) = 0.63001 0.71668
# Poissons Ratio (y) = 0.24156 0.35585
# Poissons Ratio (z) = 0.22455 0.29078
#
# Static dielectric constant tensor:
#      x y z
#    x 1.603240 0.000000 0.000000 
#    y 0.000000 1.594120 0.000000 
#    z 0.000000 0.000000 1.596010 
# 
# From -- ./inp_files/27076.got.cif
#   From: 2010.05.17/outbox.cif.g08.bks.cpg/sg44_14_cif.got.tgz:27076.got - 2010.06.03 19:37:08.
