data_PCOD9374675
_publ_section_title
;
Structure prediction by ZEFSAII (Michael W. Deem and Ramdas Pophale) SiO2 
 PCOD9374675
Probable space group: I M M 2
;
_chemical_formula_sum "Si O2"
_cell_formula_units_Z 64
_cell_length_a 7.580293
_cell_length_b 28.043187
_cell_length_c 13.685199
_cell_angle_alpha 90.000000
_cell_angle_beta 90.000000
_cell_angle_gamma 90.000000
_cell_volume 2909.139034
_symmetry_space_group_name_H-M "I M M 2"
_symmetry_group_IT_number 44
_symmetry_cell_setting 'orthorhombic'
loop_
_space_group_symop_operation_xyz
x,y,z
-x,-y,z
-x,y,z
x,-y,z
1/2+x,1/2+y,1/2+z
1/2-x,1/2-y,1/2+z
1/2-x,1/2+y,1/2+z
1/2+x,1/2-y,1/2+z
loop_
_atom_site_type_symbol
_atom_site_label
_atom_site_fract_x
_atom_site_fract_y
_atom_site_fract_z
Si Si1 0.215016 0.554950 0.056190
Si Si2 0.801930 0.779496 0.699815
Si Si3 0.712398 0.126863 0.959198
Si Si4 0.715187 0.053857 0.128149
Si Si5 0.296529 0.114680 0.740952
Si Si6 0.698715 0.263843 0.509117
Si Si7 0.283771 0.089398 0.341635
Si Si8 0.703174 0.803310 0.323016
O O1 0.258662 0.500000 0.073399
O O2 0.280209 0.586414 0.147858
O O3 0.000000 0.559568 0.054158
O O4 0.274619 0.569385 0.946834
O O5 0.708576 0.829559 0.712994
O O6 0.814236 0.760903 0.590765
O O7 0.711202 0.734863 0.752084
O O8 0.000000 0.786530 0.741637
O O9 0.500000 0.122892 0.956793
O O10 0.778908 0.111282 0.851230
O O11 0.774325 0.093444 0.049001
O O12 0.751098 0.182823 0.976944
O O13 0.500000 0.055536 0.128397
O O14 0.769979 0.064232 0.240350
O O15 0.767292 0.000000 0.100608
O O16 0.500000 0.098795 0.748788
O O17 0.500000 0.266700 0.547285
O O18 0.698712 0.225928 0.422312
O O19 0.500000 0.087644 0.343804
O O20 0.224158 0.144205 0.333721
O O21 0.500000 0.810608 0.287366
#
# Coordination Sequence:
#
# PCOD9374675 Si02
#       8
#     8   8   8   8   8   8   8   8
#     4   9  17  29  48  75 105 139 180 228 279 327
#     4  11  21  35  54  78 108 143 181 222 269 326
#     4  10  20  34  52  76 109 145 182 226 273 328
#     4   9  17  29  48  75 105 139 180 228 279 327
#     4  10  20  34  52  76 109 145 182 226 273 328
#     4  11  21  35  54  78 108 143 181 222 269 326
#     4   9  15  26  45  71 104 135 171 220 272 327
#     4   9  18  31  49  74 105 139 172 209 264 325
#
# _framework density 21.999637
#
# number of rings (size 3 to 8) (size 9 to 14) (size 15 to 20)
#    0.000    2.250    1.250    2.625    0.000    6.000 
#    0.000    2.500    0.000    0.750    0.000    1.750 
#    0.000    4.000    0.000    0.000    0.000    0.000 
#
# Total GULP energy -178483.361537 kJ/mol
# GULP energy per Si atom -5577.605048 kJ/mol
# Density = 2.194957 g / cm^3
# Si number density = 21.999637 Si / 1000 Ang^3
#
#
#
# Elastic Constant Matrix: (Units=GPa)
#
#
# Indices 1 2 3 4 5 6 
#
# 1 53.6272 -3.6037 9.6336 0.0000 0.0000 0.0000
# 2 -3.6037 120.2482 49.8542 0.0000 0.0000 0.0000
# 3 9.6336 49.8542 140.5268 0.0000 0.0000 0.0000
# 4 0.0000 0.0000 0.0000 41.1017 0.0000 0.0000
# 5 0.0000 0.0000 0.0000 0.0000 2.9587 0.0000
# 6 0.0000 0.0000 0.0000 0.0000 0.0000 14.9239
#
#
#
# Elastic Compliance Matrix: (Units=1/GPa)
#
#
# Indices 1 2 3 4 5 6 
#
# 1 0.019053 0.001304 -0.001769 0.000000 0.000000 0.000000
# 2 0.001304 0.009840 -0.003580 0.000000 0.000000 0.000000
# 3 -0.001769 -0.003580 0.008507 0.000000 0.000000 0.000000
# 4 0.000000 0.000000 0.000000 0.024330 0.000000 0.000000
# 5 0.000000 0.000000 0.000000 0.000000 0.337986 0.000000
# 6 0.000000 0.000000 0.000000 0.000000 0.000000 0.067007
#
#
# Mechanical properties :
#
#
# Convention : Reuss Voigt Hill
#
# Bulk Modulus (GPa) = 34.11769 47.35227 40.73498
# Shear Modulus (GPa) = 10.31818 29.03138 19.67478
#
# Velocity S-wave (km/s) = 2.16803 3.63661 2.99377
# Velocity P-wave (km/s) = 4.67002 6.26132 5.52328
#
# Compressibility (1/GPa) = 0.02931031
#
# Stress axis : x y z
#
# Youngs Moduli (GPa) = 52.48610 101.63087 117.54387
#
# Poissons Ratio (x) = -0.13256 0.20792
# Poissons Ratio (y) = -0.06846 0.42083
# Poissons Ratio (z) = 0.09284 0.36385
#
# Static dielectric constant tensor:
#      x y z
#    x 1.814620 0.000000 0.000000 
#    y 0.000000 1.752720 0.000000 
#    z 0.000000 0.000000 1.760740 
# 
# From -- ./inp_files/11511.got.cif
#   From: 2010.05.17/outbox.cif.g08.bks.cpg/sg44_6_cif.got.tgz:11511.got - 2010.06.03 19:37:08.
