data_PCOD9374365
_publ_section_title
;
Structure prediction by ZEFSAII (Michael W. Deem and Ramdas Pophale) SiO2 
 PCOD9374365
Probable space group: I M M 2
;
_chemical_formula_sum "Si O2"
_cell_formula_units_Z 64
_cell_length_a 14.338317
_cell_length_b 18.467609
_cell_length_c 11.380010
_cell_angle_alpha 90.000000
_cell_angle_beta 90.000000
_cell_angle_gamma 90.000000
_cell_volume 3013.363285
_symmetry_space_group_name_H-M "I M M 2"
_symmetry_group_IT_number 44
_symmetry_cell_setting 'orthorhombic'
loop_
_space_group_symop_operation_xyz
x,y,z
-x,-y,z
-x,y,z
x,-y,z
1/2+x,1/2+y,1/2+z
1/2-x,1/2-y,1/2+z
1/2-x,1/2+y,1/2+z
1/2+x,1/2-y,1/2+z
loop_
_atom_site_type_symbol
_atom_site_label
_atom_site_fract_x
_atom_site_fract_y
_atom_site_fract_z
Si Si1 0.159463 0.670720 0.982510
Si Si2 0.103253 0.080805 0.975952
Si Si3 0.897172 0.205969 0.303793
Si Si4 0.185647 0.109550 0.737310
Si Si5 0.256974 0.687993 0.590579
Si Si6 0.395005 0.768154 0.236821
Si Si7 0.103147 0.365980 0.243986
Si Si8 0.333005 0.581054 0.968733
O O1 0.107506 0.694947 0.865061
O O2 0.224058 0.602207 0.952634
O O3 0.226095 0.738423 0.017687
O O4 0.105683 0.656307 0.104567
O O5 0.120456 0.078099 0.837220
O O6 0.000000 0.113364 0.997925
O O7 0.104097 0.000000 0.025665
O O8 0.191346 0.125414 0.020752
O O9 0.817013 0.190624 0.210431
O O10 0.891208 0.292572 0.322850
O O11 0.886431 0.147191 0.406441
O O12 0.000000 0.195236 0.250763
O O13 0.168005 0.196005 0.741582
O O14 0.296437 0.095024 0.758143
O O15 0.155867 0.084186 0.608808
O O16 0.151912 0.682990 0.635822
O O17 0.500000 0.747799 0.207426
O O18 0.000000 0.399119 0.265605
O O19 0.354998 0.500000 0.925507
#
# Coordination Sequence:
#
# PCOD9374365 Si02
#       8
#     8   8   8   8   8   8   8   8
#     4  10  19  38  60  88 119 162 211 252 301 357
#     4  11  25  43  66  93 122 163 209 254 313 382
#     4  10  20  35  56  87 120 155 197 247 308 368
#     4  11  21  39  59  93 127 162 208 257 313 364
#     4  11  21  40  64  89 123 156 202 263 308 361
#     4  12  22  36  64  95 122 159 208 263 314 366
#     4   9  18  34  62  92 121 157 204 259 309 363
#     4  11  22  37  57  84 130 173 198 243 308 370
#
# _framework density 21.238727000000001
#
# number of rings (size 3 to 8) (size 9 to 14) (size 15 to 20)
#    0.000    1.375    6.250    1.500    0.000    2.750 
#    0.000    0.625    0.000   14.625    0.000    0.000 
#    0.000    0.000    0.000    0.000    0.000    0.000 
#
# Total GULP energy -178448.364255 kJ/mol
# GULP energy per Si atom -5576.511383 kJ/mol
# Density = 2.119039 g / cm^3
# Si number density = 21.238727 Si / 1000 Ang^3
#
#
#
# Elastic Constant Matrix: (Units=GPa)
#
#
# Indices 1 2 3 4 5 6 
#
# 1 103.8919 5.5136 15.8551 0.0000 0.0000 0.0000
# 2 5.5136 55.4077 18.4452 0.0000 0.0000 0.0000
# 3 15.8551 18.4452 50.3698 0.0000 0.0000 0.0000
# 4 0.0000 0.0000 0.0000 2.9666 0.0000 0.0000
# 5 0.0000 0.0000 0.0000 0.0000 4.5854 0.0000
# 6 0.0000 0.0000 0.0000 0.0000 0.0000 -14.5483
#
#
#
# Elastic Compliance Matrix: (Units=1/GPa)
#
#
# Indices 1 2 3 4 5 6 
#
# 1 0.010111 0.000061 -0.003205 0.000000 0.000000 0.000000
# 2 0.000061 0.020554 -0.007546 0.000000 0.000000 0.000000
# 3 -0.003205 -0.007546 0.023625 0.000000 0.000000 0.000000
# 4 0.000000 0.000000 0.000000 0.337091 0.000000 0.000000
# 5 0.000000 0.000000 0.000000 0.000000 0.218081 0.000000
# 6 0.000000 0.000000 0.000000 0.000000 0.000000 -0.068737
#
#
# Mechanical properties :
#
#
# Convention : Reuss Voigt Hill
#
# Bulk Modulus (GPa) = 30.38565 32.14414 31.26489
# Shear Modulus (GPa) = 8.72483 9.92444 9.32464
#
# Velocity S-wave (km/s) = 2.02901 2.16401 2.09760
# Velocity P-wave (km/s) = 4.45275 4.62725 4.54084
#
# Compressibility (1/GPa) = 0.03291028
#
# Stress axis : x y z
#
# Youngs Moduli (GPa) = 98.89937 48.65235 42.32750
#
# Poissons Ratio (x) = -0.00296 0.13566
# Poissons Ratio (y) = -0.00601 0.31940
# Poissons Ratio (z) = 0.31698 0.36713
#
# Static dielectric constant tensor:
#      x y z
#    x 1.804920 0.000000 0.000000 
#    y 0.000000 1.818730 0.000000 
#    z 0.000000 0.000000 1.796570 
# 
# From -- ./inp_files/13467.got.cif
#   From: 2010.05.17/outbox.cif.g08.bks.cpg/sg44_7_cif.got.tgz:13467.got - 2010.06.03 19:37:08.
