data_PCOD9374320
_publ_section_title
;
Structure prediction by ZEFSAII (Michael W. Deem and Ramdas Pophale) SiO2 
 PCOD9374320
Probable space group: I M M 2
;
_chemical_formula_sum "Si O2"
_cell_formula_units_Z 40
_cell_length_a 7.703226
_cell_length_b 11.884571
_cell_length_c 20.996445
_cell_angle_alpha 90.000000
_cell_angle_beta 90.000000
_cell_angle_gamma 90.000000
_cell_volume 1922.214804
_symmetry_space_group_name_H-M "I M M 2"
_symmetry_group_IT_number 44
_symmetry_cell_setting 'orthorhombic'
loop_
_space_group_symop_operation_xyz
x,y,z
-x,-y,z
-x,y,z
x,-y,z
1/2+x,1/2+y,1/2+z
1/2-x,1/2-y,1/2+z
1/2-x,1/2+y,1/2+z
1/2+x,1/2-y,1/2+z
loop_
_atom_site_type_symbol
_atom_site_label
_atom_site_fract_x
_atom_site_fract_y
_atom_site_fract_z
Si Si1 0.704340 0.749429 0.368290
Si Si2 0.207059 0.500000 0.341388
Si Si3 0.297285 0.729551 0.123583
Si Si4 0.710420 0.000000 0.694222
Si Si5 0.287336 0.129677 0.240479
Si Si6 0.294391 0.372566 0.997076
O O1 0.500000 0.770430 0.368015
O O2 0.734860 0.616307 0.372780
O O3 0.773210 0.796079 0.300621
O O4 0.775441 0.816889 0.428376
O O5 0.267099 0.500000 0.267795
O O6 0.000000 0.500000 0.340783
O O7 0.500000 0.759966 0.115488
O O8 0.281019 0.610271 0.159535
O O9 0.223362 0.819532 0.173525
O O10 0.221136 0.705880 0.053640
O O11 0.500000 0.000000 0.691259
O O12 0.500000 0.135251 0.239543
O O13 0.238721 0.000000 0.249017
O O14 0.500000 0.381997 0.010031
O O15 0.222534 0.500000 0.998770
#
# Coordination Sequence:
#
# PCOD9374320 Si02
#       6
#     8   4   8   4   8   8
#     4  11  22  37  60  85 115 151 193 241 290 344
#     4  11  23  39  59  85 117 148 191 240 297 355
#     4  10  19  36  60  83 113 151 195 234 277 346
#     4  11  21  33  57  89 117 140 181 244 297 337
#     4   9  18  33  56  85 112 144 189 235 279 333
#     4  10  21  37  57  83 117 155 194 237 288 344
#
# _framework density 20.809329000000002
#
# number of rings (size 3 to 8) (size 9 to 14) (size 15 to 20)
#    0.000    1.800    3.000    1.800    0.000    2.800 
#    1.800    0.000    0.000    1.800    0.000    0.000 
#    0.000    0.000    0.000    0.000    0.000    0.000 
#
# Total GULP energy -111681.214767 kJ/mol
# GULP energy per Si atom -5584.060738 kJ/mol
# Density = 2.076197 g / cm^3
# Si number density = 20.809329 Si / 1000 Ang^3
#
#
#
# Elastic Constant Matrix: (Units=GPa)
#
#
# Indices 1 2 3 4 5 6 
#
# 1 35.3469 -11.0400 5.0914 0.0000 0.0000 0.0000
# 2 -11.0400 117.2414 57.2067 0.0000 0.0000 0.0000
# 3 5.0914 57.2067 146.7600 0.0000 0.0000 0.0000
# 4 0.0000 0.0000 0.0000 33.9501 0.0000 0.0000
# 5 0.0000 0.0000 0.0000 0.0000 16.6070 0.0000
# 6 0.0000 0.0000 0.0000 0.0000 0.0000 7.4332
#
#
#
# Elastic Compliance Matrix: (Units=1/GPa)
#
#
# Indices 1 2 3 4 5 6 
#
# 1 0.029955 0.004109 -0.002641 0.000000 0.000000 0.000000
# 2 0.004109 0.011096 -0.004468 0.000000 0.000000 0.000000
# 3 -0.002641 -0.004468 0.008647 0.000000 0.000000 0.000000
# 4 0.000000 0.000000 0.000000 0.029455 0.000000 0.000000
# 5 0.000000 0.000000 0.000000 0.000000 0.060216 0.000000
# 6 0.000000 0.000000 0.000000 0.000000 0.000000 0.134531
#
#
# Mechanical properties :
#
#
# Convention : Reuss Voigt Hill
#
# Bulk Modulus (GPa) = 22.88373 44.65162 33.76767
# Shear Modulus (GPa) = 16.97989 28.13742 22.55865
#
# Velocity S-wave (km/s) = 2.85963 3.68115 3.29609
# Velocity P-wave (km/s) = 4.68231 6.29062 5.54509
#
# Compressibility (1/GPa) = 0.04369918
#
# Stress axis : x y z
#
# Youngs Moduli (GPa) = 33.38355 90.11909 115.64642
#
# Poissons Ratio (x) = -0.37033 0.30542
# Poissons Ratio (y) = -0.13718 0.51670
# Poissons Ratio (z) = 0.08817 0.40264
#
# Static dielectric constant tensor:
#      x y z
#    x 1.775700 0.000000 0.000000 
#    y 0.000000 1.711650 0.000000 
#    z 0.000000 0.000000 1.752500 
# 
# From -- ./inp_files/20049.got.cif
#   From: 2010.05.17/outbox.cif.g08.bks.cpg/sg44_11_cif.got.tgz:20049.got - 2010.06.03 19:37:08.
