data_PCOD9374055
_publ_section_title
;
Structure prediction by ZEFSAII (Michael W. Deem and Ramdas Pophale) SiO2 
 PCOD9374055
Probable space group: I M M 2
;
_chemical_formula_sum "Si O2"
_cell_formula_units_Z 48
_cell_length_a 8.380220
_cell_length_b 14.213750
_cell_length_c 19.440469
_cell_angle_alpha 90.000000
_cell_angle_beta 90.000000
_cell_angle_gamma 90.000000
_cell_volume 2315.638868
_symmetry_space_group_name_H-M "I M M 2"
_symmetry_group_IT_number 44
_symmetry_cell_setting 'orthorhombic'
loop_
_space_group_symop_operation_xyz
x,y,z
-x,-y,z
-x,y,z
x,-y,z
1/2+x,1/2+y,1/2+z
1/2-x,1/2-y,1/2+z
1/2-x,1/2+y,1/2+z
1/2+x,1/2-y,1/2+z
loop_
_atom_site_type_symbol
_atom_site_label
_atom_site_fract_x
_atom_site_fract_y
_atom_site_fract_z
Si Si1 0.816460 0.895910 0.825570
Si Si2 0.304639 0.390651 0.670670
Si Si3 0.821703 0.602793 0.181148
Si Si4 0.190744 0.193446 0.316142
Si Si5 0.807937 0.896384 0.453319
Si Si6 0.815831 0.247198 0.060197
O O1 0.802743 0.893913 0.742467
O O2 0.731764 0.798256 0.842607
O O3 0.000000 0.891391 0.847360
O O4 0.752346 0.000000 0.846285
O O5 0.500000 0.384185 0.669135
O O6 0.262530 0.500000 0.677347
O O7 0.250929 0.333886 0.739367
O O8 0.248862 0.345818 0.597982
O O9 0.811515 0.500000 0.148300
O O10 0.810121 0.680966 0.124433
O O11 0.000000 0.611291 0.213363
O O12 0.247357 0.122530 0.375222
O O13 0.000000 0.186056 0.312300
O O14 0.761548 0.806814 0.499379
O O15 0.000000 0.899637 0.453342
O O16 0.750075 0.000000 0.476791
O O17 0.000000 0.229612 0.040628
#
# Coordination Sequence:
#
# PCOD9374055 Si02
#       6
#     8   8   8   8   8   8
#     4  10  20  32  49  78 112 142 175 221 276 324
#     4   9  17  32  57  84 105 134 184 237 275 315
#     4   9  16  28  48  74 103 137 179 221 261 312
#     4  10  19  36  59  81 108 144 186 229 273 327
#     4  10  22  38  57  83 113 146 182 224 277 332
#     4  10  19  33  54  81 110 143 182 225 273 324
#
# _framework density 20.728619999999999
#
# number of rings (size 3 to 8) (size 9 to 14) (size 15 to 20)
#    0.000    2.333    1.667    1.500    0.000    5.333 
#    0.000    2.500    0.000    6.000    0.000    0.000 
#    0.000    0.000    0.000    0.000    0.000    0.000 
#
# Total GULP energy -133626.689500 kJ/mol
# GULP energy per Si atom -5567.778729 kJ/mol
# Density = 2.068144 g / cm^3
# Si number density = 20.728620 Si / 1000 Ang^3
#
#
#
# Elastic Constant Matrix: (Units=GPa)
#
#
# Indices 1 2 3 4 5 6 
#
# 1 6.1659 6.9873 12.7873 0.0000 0.0000 0.0000
# 2 6.9873 123.9163 38.4200 0.0000 0.0000 0.0000
# 3 12.7873 38.4200 79.3513 0.0000 0.0000 0.0000
# 4 0.0000 0.0000 0.0000 22.8759 0.0000 0.0000
# 5 0.0000 0.0000 0.0000 0.0000 16.9331 0.0000
# 6 0.0000 0.0000 0.0000 0.0000 0.0000 17.6339
#
#
#
# Elastic Compliance Matrix: (Units=1/GPa)
#
#
# Indices 1 2 3 4 5 6 
#
# 1 0.243948 -0.001844 -0.038419 0.000000 0.000000 0.000000
# 2 -0.001844 0.009509 -0.004307 0.000000 0.000000 0.000000
# 3 -0.038419 -0.004307 0.020879 0.000000 0.000000 0.000000
# 4 0.000000 0.000000 0.000000 0.043714 0.000000 0.000000
# 5 0.000000 0.000000 0.000000 0.000000 0.059056 0.000000
# 6 0.000000 0.000000 0.000000 0.000000 0.000000 0.056709
#
#
# Mechanical properties :
#
#
# Convention : Reuss Voigt Hill
#
# Bulk Modulus (GPa) = 5.39967 36.20252 20.80109
# Shear Modulus (GPa) = 8.55158 21.57118 15.06138
#
# Velocity S-wave (km/s) = 2.03333 3.22941 2.69847
# Velocity P-wave (km/s) = 2.85012 5.60431 4.44587
#
# Compressibility (1/GPa) = 0.18519656
#
# Stress axis : x y z
#
# Youngs Moduli (GPa) = 4.09923 105.15996 47.89577
#
# Poissons Ratio (x) = 0.19391 1.84011
# Poissons Ratio (y) = 0.00756 0.20629
# Poissons Ratio (z) = 0.15749 0.45293
#
# Static dielectric constant tensor:
#      x y z
#    x 1.751690 0.000000 0.000000 
#    y 0.000000 1.817530 0.000000 
#    z 0.000000 0.000000 1.744400 
# 
# From -- ./inp_files/20324.got.cif
#   From: 2010.05.17/outbox.cif.g08.bks.cpg/sg44_11_cif.got.tgz:20324.got - 2010.06.03 19:37:08.
