data_PCOD9374264
_publ_section_title
;
Structure prediction by ZEFSAII (Michael W. Deem and Ramdas Pophale) SiO2 
 PCOD9374264
Probable space group: I M M 2
;
_chemical_formula_sum "Si O2"
_cell_formula_units_Z 64
_cell_length_a 31.664762
_cell_length_b 7.872209
_cell_length_c 12.337771
_cell_angle_alpha 90.000000
_cell_angle_beta 90.000000
_cell_angle_gamma 90.000000
_cell_volume 3075.456219
_symmetry_space_group_name_H-M "I M M 2"
_symmetry_group_IT_number 44
_symmetry_cell_setting 'orthorhombic'
loop_
_space_group_symop_operation_xyz
x,y,z
-x,-y,z
-x,y,z
x,-y,z
1/2+x,1/2+y,1/2+z
1/2-x,1/2-y,1/2+z
1/2-x,1/2+y,1/2+z
1/2+x,1/2-y,1/2+z
loop_
_atom_site_type_symbol
_atom_site_label
_atom_site_fract_x
_atom_site_fract_y
_atom_site_fract_z
Si Si1 0.629254 0.201777 0.117760
Si Si2 0.871935 0.703716 0.371248
Si Si3 0.795921 0.292464 0.218381
Si Si4 0.702536 0.300410 0.279038
Si Si5 0.046487 0.205471 0.230869
Si Si6 0.453352 0.705998 0.252968
Si Si7 0.339376 0.197001 0.498269
Si Si8 0.566384 0.695713 0.491790
O O1 0.667967 0.279150 0.184942
O O2 0.585504 0.233730 0.180667
O O3 0.636383 0.000000 0.115046
O O4 0.626850 0.267604 0.994573
O O5 0.868307 0.500000 0.376410
O O6 0.831102 0.765743 0.304534
O O7 0.914525 0.741557 0.305171
O O8 0.795256 0.500000 0.219636
O O9 0.748625 0.235823 0.244618
O O10 0.811613 0.241848 0.099232
O O11 0.706063 0.500000 0.304673
O O12 0.685454 0.211089 0.386431
O O13 0.052183 0.269708 0.107064
O O14 0.000000 0.257692 0.270869
O O15 0.047524 0.000000 0.226929
O O16 0.500000 0.753829 0.212328
O O17 0.450965 0.500000 0.255659
O O18 0.448500 0.769605 0.377138
O O19 0.382974 0.297261 0.490421
O O20 0.350806 0.000000 0.518159
O O21 0.551859 0.500000 0.491869
#
# Coordination Sequence:
#
# PCOD9374264 Si02
#       8
#     8   8   8   8   8   8   8   8
#     4  11  24  40  60  85 117 155 198 248 293 343
#     4  10  22  42  61  81 114 157 198 240 292 347
#     4   9  21  40  61  85 117 154 191 238 292 346
#     4  11  23  40  62  87 119 157 195 238 293 352
#     4  10  21  37  59  89 121 152 192 241 289 343
#     4  10  21  38  61  86 116 156 196 237 292 353
#     4  11  21  37  62  90 120 151 191 243 292 344
#     4  10  19  35  59  88 120 153 190 236 290 347
#
# _framework density 20.809920000000002
#
# number of rings (size 3 to 8) (size 9 to 14) (size 15 to 20)
#    0.000    1.750    2.500    1.500    1.750    3.500 
#    0.000    5.625    0.000    2.250    0.000    0.000 
#    0.000    0.000    0.000    0.000    0.000    0.000 
#
# Total GULP energy -178790.817157 kJ/mol
# GULP energy per Si atom -5587.213036 kJ/mol
# Density = 2.076256 g / cm^3
# Si number density = 20.809920 Si / 1000 Ang^3
#
#
#
# Elastic Constant Matrix: (Units=GPa)
#
#
# Indices 1 2 3 4 5 6 
#
# 1 178.3496 -4.3135 73.3393 0.0000 0.0000 0.0000
# 2 -4.3135 29.9373 -3.4747 0.0000 0.0000 0.0000
# 3 73.3393 -3.4747 150.6680 0.0000 0.0000 0.0000
# 4 0.0000 0.0000 0.0000 17.8334 0.0000 0.0000
# 5 0.0000 0.0000 0.0000 0.0000 44.9660 0.0000
# 6 0.0000 0.0000 0.0000 0.0000 0.0000 25.6992
#
#
#
# Elastic Compliance Matrix: (Units=1/GPa)
#
#
# Indices 1 2 3 4 5 6 
#
# 1 0.007021 0.000617 -0.003404 0.000000 0.000000 0.000000
# 2 0.000617 0.033547 0.000474 0.000000 0.000000 0.000000
# 3 -0.003404 0.000474 0.008305 0.000000 0.000000 0.000000
# 4 0.000000 0.000000 0.000000 0.056075 0.000000 0.000000
# 5 0.000000 0.000000 0.000000 0.000000 0.022239 0.000000
# 6 0.000000 0.000000 0.000000 0.000000 0.000000 0.038912
#
#
# Mechanical properties :
#
#
# Convention : Reuss Voigt Hill
#
# Bulk Modulus (GPa) = 22.60076 54.45078 38.52577
# Shear Modulus (GPa) = 26.95795 37.25996 32.10896
#
# Velocity S-wave (km/s) = 3.60312 4.23601 3.93232
# Velocity P-wave (km/s) = 5.30982 7.08150 6.25866
#
# Compressibility (1/GPa) = 0.04424631
#
# Stress axis : x y z
#
# Youngs Moduli (GPa) = 142.42057 29.80901 120.41311
#
# Poissons Ratio (x) = -0.01838 0.40983
# Poissons Ratio (y) = -0.08782 -0.05702
# Poissons Ratio (z) = 0.48474 -0.01411
#
# Static dielectric constant tensor:
#      x y z
#    x 1.711870 0.000000 0.000000 
#    y 0.000000 1.775620 0.000000 
#    z 0.000000 0.000000 1.730270 
# 
# From -- ./inp_files/11437.got.cif
#   From: 2010.05.17/outbox.cif.g08.bks.cpg/sg44_6_cif.got.tgz:11437.got - 2010.06.03 19:37:08.
