data_PCOD9374563
_publ_section_title
;
Structure prediction by ZEFSAII (Michael W. Deem and Ramdas Pophale) SiO2 
 PCOD9374563
Probable space group: I M M 2
;
_chemical_formula_sum "Si O2"
_cell_formula_units_Z 46
_cell_length_a 7.919117
_cell_length_b 12.284101
_cell_length_c 26.273437
_cell_angle_alpha 90.000000
_cell_angle_beta 90.000000
_cell_angle_gamma 90.000000
_cell_volume 2555.859801
_symmetry_space_group_name_H-M "I M M 2"
_symmetry_group_IT_number 44
_symmetry_cell_setting 'orthorhombic'
loop_
_space_group_symop_operation_xyz
x,y,z
-x,-y,z
-x,y,z
x,-y,z
1/2+x,1/2+y,1/2+z
1/2-x,1/2-y,1/2+z
1/2-x,1/2+y,1/2+z
1/2+x,1/2-y,1/2+z
loop_
_atom_site_type_symbol
_atom_site_label
_atom_site_fract_x
_atom_site_fract_y
_atom_site_fract_z
Si Si1 0.194530 0.166053 0.081460
Si Si2 0.806175 0.627045 0.914760
Si Si3 0.179367 0.628126 0.692755
Si Si4 0.204276 0.000000 0.992298
Si Si5 0.000000 0.742272 0.365705
Si Si6 0.500000 0.365810 0.758746
Si Si7 0.700300 0.376082 0.030686
Si Si8 0.000000 0.500000 0.408218
O O1 0.293962 0.138090 0.132299
O O2 0.219595 0.291607 0.069027
O O3 0.000000 0.137810 0.091547
O O4 0.241681 0.101637 0.029965
O O5 0.770699 0.500000 0.900910
O O6 0.667300 0.706264 0.891530
O O7 0.000000 0.651640 0.900527
O O8 0.786296 0.634427 0.975643
O O9 0.171663 0.500000 0.703521
O O10 0.337697 0.665830 0.725154
O O11 0.000000 0.679170 0.707071
O O12 0.332884 0.000000 0.945017
O O13 0.000000 0.000000 0.980157
O O14 0.000000 0.612162 0.375502
O O15 0.000000 0.794374 0.309530
O O16 0.500000 0.500000 0.767572
O O17 0.500000 0.353859 0.024755
O O18 0.719781 0.500000 0.047726
#
# Coordination Sequence:
#
# PCOD9374563 Si02
#       8
#     8   8   8   4   4   4   8   2
#     4  11  20  33  56  84 122 160 192 236 301 361
#     4  10  20  36  60  88 118 153 198 251 312 362
#     4  10  20  35  58  88 118 147 186 246 311 374
#     4  10  24  38  56  92 128 162 202 244 296 371
#     4  12  24  42  62  86 120 164 206 264 298 358
#     4  10  22  40  64  86 114 142 200 266 324 356
#     4  10  20  33  50  78 119 159 196 236 283 351
#     4  12  28  40  60  88 128 172 228 236 296 372
#
# _framework density 17.997858999999998
#
# number of rings (size 3 to 8) (size 9 to 14) (size 15 to 20)
#    0.000    1.565    2.609    2.870    2.435    3.826 
#    0.000    1.739    1.913    0.000    0.000    0.000 
#    0.000    0.000    0.000    0.000    0.000    0.000 
#
# Total GULP energy -128320.267969 kJ/mol
# GULP energy per Si atom -5579.142086 kJ/mol
# Density = 1.795689 g / cm^3
# Si number density = 17.997859 Si / 1000 Ang^3
#
#
#
# Elastic Constant Matrix: (Units=GPa)
#
#
# Indices 1 2 3 4 5 6 
#
# 1 118.7564 51.6984 38.5238 0.0000 0.0000 0.0000
# 2 51.6984 73.5266 29.8522 0.0000 0.0000 0.0000
# 3 38.5238 29.8522 55.5845 0.0000 0.0000 0.0000
# 4 0.0000 0.0000 0.0000 14.6332 0.0000 0.0000
# 5 0.0000 0.0000 0.0000 0.0000 -0.6263 0.0000
# 6 0.0000 0.0000 0.0000 0.0000 0.0000 27.1296
#
#
#
# Elastic Compliance Matrix: (Units=1/GPa)
#
#
# Indices 1 2 3 4 5 6 
#
# 1 0.013274 -0.007159 -0.005355 0.000000 0.000000 0.000000
# 2 -0.007159 0.021254 -0.006453 0.000000 0.000000 0.000000
# 3 -0.005355 -0.006453 0.025168 0.000000 0.000000 0.000000
# 4 0.000000 0.000000 0.000000 0.068338 0.000000 0.000000
# 5 0.000000 0.000000 0.000000 0.000000 -1.596789 0.000000
# 6 0.000000 0.000000 0.000000 0.000000 0.000000 0.036860
#
#
# Mechanical properties :
#
#
# Convention : Reuss Voigt Hill
#
# Bulk Modulus (GPa) = 45.95226 54.22402 50.08814
# Shear Modulus (GPa) = -3.60567 16.74686 6.57060
#
# Velocity S-wave (km/s) = -1.41695 3.05371 1.91277
# Velocity P-wave (km/s) = 4.78649 6.52893 5.72440
#
# Compressibility (1/GPa) = 0.02176171
#
# Stress axis : x y z
#
# Youngs Moduli (GPa) = 75.33263 47.04911 39.73359
#
# Poissons Ratio (x) = 0.33684 0.21278
# Poissons Ratio (y) = 0.53934 0.25640
# Poissons Ratio (z) = 0.40341 0.30360
#
# Static dielectric constant tensor:
#      x y z
#    x 1.666680 0.000000 0.000000 
#    y 0.000000 1.622290 0.000000 
#    z 0.000000 0.000000 1.588210 
# 
# From -- ./inp_files/24824.got.cif
#   From: 2010.05.17/outbox.cif.g08.bks.cpg/sg44_13_cif.got.tgz:24824.got - 2010.06.03 19:37:08.
