data_PCOD9374995
_publ_section_title
;
Structure prediction by ZEFSAII (Michael W. Deem and Ramdas Pophale) SiO2 
 PCOD9374995
Probable space group: I M M 2
;
_chemical_formula_sum "Si O2"
_cell_formula_units_Z 48
_cell_length_a 13.842718
_cell_length_b 20.467829
_cell_length_c 9.944443
_cell_angle_alpha 90.000000
_cell_angle_beta 90.000000
_cell_angle_gamma 90.000000
_cell_volume 2817.562863
_symmetry_space_group_name_H-M "I M M 2"
_symmetry_group_IT_number 44
_symmetry_cell_setting 'orthorhombic'
loop_
_space_group_symop_operation_xyz
x,y,z
-x,-y,z
-x,y,z
x,-y,z
1/2+x,1/2+y,1/2+z
1/2-x,1/2-y,1/2+z
1/2-x,1/2+y,1/2+z
1/2+x,1/2-y,1/2+z
loop_
_atom_site_type_symbol
_atom_site_label
_atom_site_fract_x
_atom_site_fract_y
_atom_site_fract_z
Si Si1 0.613315 0.361008 0.551280
Si Si2 0.890031 0.712035 0.136035
Si Si3 0.305121 0.673720 0.264964
Si Si4 0.613509 0.575856 0.042468
Si Si5 0.387063 0.815678 0.319159
Si Si6 0.734859 0.425641 0.770217
O O1 0.500000 0.373239 0.524204
O O2 0.619387 0.290634 0.626134
O O3 0.670466 0.353898 0.411937
O O4 0.662143 0.413392 0.647398
O O5 0.876114 0.688144 0.981847
O O6 0.000000 0.696414 0.176849
O O7 0.807595 0.682922 0.230444
O O8 0.352572 0.745877 0.262002
O O9 0.351372 0.626008 0.155017
O O10 0.500000 0.585495 0.014848
O O11 0.626670 0.500000 0.085265
O O12 0.674795 0.585577 0.907205
O O13 0.500000 0.824847 0.290332
O O14 0.320697 0.873446 0.264726
O O15 0.770352 0.500000 0.770572
#
# Coordination Sequence:
#
# PCOD9374995 Si02
#       6
#     8   8   8   8   8   8
#     4  10  21  36  54  82 118 151 182 227 289 343
#     4   9  18  34  58  84 113 144 182 234 283 332
#     4  11  19  36  62  84 113 147 185 236 288 330
#     4  10  21  36  56  85 115 144 188 237 278 330
#     4  10  20  36  58  86 113 145 189 233 281 336
#     4  11  22  37  56  80 115 158 191 228 280 335
#
# _framework density 17.036000000000001
#
# number of rings (size 3 to 8) (size 9 to 14) (size 15 to 20)
#    0.000    1.833    3.333    3.000    0.000    2.000 
#    0.000    0.833    0.000    0.500    0.000    0.000 
#    0.000    0.000    0.000    0.000    0.000    0.000 
#
# Total GULP energy -133947.530040 kJ/mol
# GULP energy per Si atom -5581.147085 kJ/mol
# Density = 1.699723 g / cm^3
# Si number density = 17.036000 Si / 1000 Ang^3
#
#
#
# Elastic Constant Matrix: (Units=GPa)
#
#
# Indices 1 2 3 4 5 6 
#
# 1 132.8065 50.9644 51.4324 0.0000 0.0000 0.0000
# 2 50.9644 88.3020 55.5566 0.0000 0.0000 0.0000
# 3 51.4324 55.5566 72.2998 0.0000 0.0000 0.0000
# 4 0.0000 0.0000 0.0000 27.2617 0.0000 0.0000
# 5 0.0000 0.0000 0.0000 0.0000 29.6969 0.0000
# 6 0.0000 0.0000 0.0000 0.0000 0.0000 21.2658
#
#
#
# Elastic Compliance Matrix: (Units=1/GPa)
#
#
# Indices 1 2 3 4 5 6 
#
# 1 0.010713 -0.002688 -0.005556 0.000000 0.000000 0.000000
# 2 -0.002688 0.022599 -0.015453 0.000000 0.000000 0.000000
# 3 -0.005556 -0.015453 0.029658 0.000000 0.000000 0.000000
# 4 0.000000 0.000000 0.000000 0.036681 0.000000 0.000000
# 5 0.000000 0.000000 0.000000 0.000000 0.033674 0.000000
# 6 0.000000 0.000000 0.000000 0.000000 0.000000 0.047024
#
#
# Mechanical properties :
#
#
# Convention : Reuss Voigt Hill
#
# Bulk Modulus (GPa) = 64.19977 67.70167 65.95072
# Shear Modulus (GPa) = 21.46536 24.67523 23.07029
#
# Velocity S-wave (km/s) = 3.55350 3.80994 3.68395
# Velocity P-wave (km/s) = 7.38939 7.69290 7.54267
#
# Compressibility (1/GPa) = 0.01557638
#
# Stress axis : x y z
#
# Youngs Moduli (GPa) = 93.34804 44.25033 33.71756
#
# Poissons Ratio (x) = 0.11892 0.18732
# Poissons Ratio (y) = 0.25087 0.52105
# Poissons Ratio (z) = 0.51860 0.68382
#
# Static dielectric constant tensor:
#      x y z
#    x 1.562830 0.000000 0.000000 
#    y 0.000000 1.567800 0.000000 
#    z 0.000000 0.000000 1.563000 
# 
# From -- ./inp_files/13271.got.cif
#   From: 2010.05.17/outbox.cif.g08.bks.cpg/sg44_7_cif.got.tgz:13271.got - 2010.06.03 19:37:08.
