data_PCOD9374568
_publ_section_title
;
Structure prediction by ZEFSAII (Michael W. Deem and Ramdas Pophale) SiO2 
 PCOD9374568
Probable space group: I M M 2
;
_chemical_formula_sum "Si O2"
_cell_formula_units_Z 46
_cell_length_a 11.833119
_cell_length_b 7.559495
_cell_length_c 30.287824
_cell_angle_alpha 90.000000
_cell_angle_beta 90.000000
_cell_angle_gamma 90.000000
_cell_volume 2709.318666
_symmetry_space_group_name_H-M "I M M 2"
_symmetry_group_IT_number 44
_symmetry_cell_setting 'orthorhombic'
loop_
_space_group_symop_operation_xyz
x,y,z
-x,-y,z
-x,y,z
x,-y,z
1/2+x,1/2+y,1/2+z
1/2-x,1/2-y,1/2+z
1/2-x,1/2+y,1/2+z
1/2+x,1/2-y,1/2+z
loop_
_atom_site_type_symbol
_atom_site_label
_atom_site_fract_x
_atom_site_fract_y
_atom_site_fract_z
Si Si1 0.500000 0.000000 0.063470
Si Si2 0.637030 0.297741 0.276833
Si Si3 0.364894 0.788323 0.553723
Si Si4 0.759648 0.500000 0.610712
Si Si5 0.500000 0.713243 0.989029
Si Si6 0.372946 0.289344 0.372275
Si Si7 0.137274 0.500000 0.705959
Si Si8 0.746411 0.288766 0.962289
O O1 0.384956 0.000000 0.090366
O O2 0.500000 0.823612 0.033851
O O3 0.500000 0.300968 0.280358
O O4 0.675294 0.500000 0.269729
O O5 0.675013 0.226984 0.325040
O O6 0.662835 0.169764 0.236489
O O7 0.500000 0.762511 0.553074
O O8 0.306852 0.670482 0.591544
O O9 0.312231 0.728516 0.506444
O O10 0.343330 0.000000 0.559143
O O11 0.785297 0.500000 0.662685
O O12 0.500000 0.500000 0.996132
O O13 0.384451 0.764302 0.964691
O O14 0.500000 0.217782 0.378894
O O15 0.381679 0.500000 0.366221
O O16 0.302813 0.260574 0.416312
O O17 0.000000 0.500000 0.696362
O O18 0.749941 0.500000 0.964605
#
# Coordination Sequence:
#
# PCOD9374568 Si02
#       8
#     2   8   8   4   4   8   4   8
#     4  12  22  36  58  74 114 154 184 222 280 322
#     4   8  16  32  49  71 106 140 172 219 273 323
#     4  10  22  39  56  79 113 147 182 227 275 325
#     4  12  23  36  57  86 110 143 192 227 275 337
#     4  10  22  38  50  72 110 152 184 222 266 320
#     4   9  18  30  48  77 109 139 174 216 269 325
#     4  10  20  33  53  80 108 140 179 225 274 327
#     4  10  20  33  51  75 106 143 182 218 262 321
#
# _framework density 16.978437
#
# number of rings (size 3 to 8) (size 9 to 14) (size 15 to 20)
#    0.000    2.261    2.174    1.826    3.652    1.739 
#    0.000    0.000    0.000    0.000    4.522    0.000 
#    0.000    0.000    0.000    0.000    0.000    0.000 
#
# Total GULP energy -128177.343400 kJ/mol
# GULP energy per Si atom -5572.927974 kJ/mol
# Density = 1.693979 g / cm^3
# Si number density = 16.978437 Si / 1000 Ang^3
#
#
#
# Elastic Constant Matrix: (Units=GPa)
#
#
# Indices 1 2 3 4 5 6 
#
# 1 96.1074 40.3146 69.8383 0.0000 0.0000 0.0000
# 2 40.3146 73.9347 57.3731 0.0000 0.0000 0.0000
# 3 69.8383 57.3731 173.6940 0.0000 0.0000 0.0000
# 4 0.0000 0.0000 0.0000 26.9795 0.0000 0.0000
# 5 0.0000 0.0000 0.0000 0.0000 15.1337 0.0000
# 6 0.0000 0.0000 0.0000 0.0000 0.0000 11.3172
#
#
#
# Elastic Compliance Matrix: (Units=1/GPa)
#
#
# Indices 1 2 3 4 5 6 
#
# 1 0.015970 -0.005009 -0.004767 0.000000 0.000000 0.000000
# 2 -0.005009 0.019758 -0.004512 0.000000 0.000000 0.000000
# 3 -0.004767 -0.004512 0.009164 0.000000 0.000000 0.000000
# 4 0.000000 0.000000 0.000000 0.037065 0.000000 0.000000
# 5 0.000000 0.000000 0.000000 0.000000 0.066078 0.000000
# 6 0.000000 0.000000 0.000000 0.000000 0.000000 0.088361
#
#
# Mechanical properties :
#
#
# Convention : Reuss Voigt Hill
#
# Bulk Modulus (GPa) = 61.28783 75.42090 68.35436
# Shear Modulus (GPa) = 18.49031 22.43341 20.46186
#
# Velocity S-wave (km/s) = 3.30365 3.63890 3.47532
# Velocity P-wave (km/s) = 7.12236 7.88501 7.51337
#
# Compressibility (1/GPa) = 0.01631645
#
# Stress axis : x y z
#
# Youngs Moduli (GPa) = 62.61753 50.61140 109.11959
#
# Poissons Ratio (x) = 0.25352 0.52013
# Poissons Ratio (y) = 0.31366 0.49239
# Poissons Ratio (z) = 0.29847 0.22838
#
# Static dielectric constant tensor:
#      x y z
#    x 1.586350 0.000000 0.000000 
#    y 0.000000 1.597940 0.000000 
#    z 0.000000 0.000000 1.587180 
# 
# From -- ./inp_files/24826.got.cif
#   From: 2010.05.17/outbox.cif.g08.bks.cpg/sg44_13_cif.got.tgz:24826.got - 2010.06.03 19:37:08.
