data_PCOD9374160
_publ_section_title
;
Structure prediction by ZEFSAII (Michael W. Deem and Ramdas Pophale) SiO2 
 PCOD9374160
Probable space group: I M M 2
;
_chemical_formula_sum "Si O2"
_cell_formula_units_Z 64
_cell_length_a 8.743884
_cell_length_b 25.683869
_cell_length_c 15.508998
_cell_angle_alpha 90.000000
_cell_angle_beta 90.000000
_cell_angle_gamma 90.000000
_cell_volume 3482.960695
_symmetry_space_group_name_H-M "I M M 2"
_symmetry_group_IT_number 44
_symmetry_cell_setting 'orthorhombic'
loop_
_space_group_symop_operation_xyz
x,y,z
-x,-y,z
-x,y,z
x,-y,z
1/2+x,1/2+y,1/2+z
1/2-x,1/2-y,1/2+z
1/2-x,1/2+y,1/2+z
1/2+x,1/2-y,1/2+z
loop_
_atom_site_type_symbol
_atom_site_label
_atom_site_fract_x
_atom_site_fract_y
_atom_site_fract_z
Si Si1 0.684577 0.558838 0.073860
Si Si2 0.184586 0.639732 0.573298
Si Si3 0.817805 0.391992 0.902973
Si Si4 0.186577 0.440119 0.719507
Si Si5 0.183272 0.150737 0.700317
Si Si6 0.184516 0.664811 0.387826
Si Si7 0.319496 0.738207 0.667372
Si Si8 0.819785 0.783047 0.370292
O O1 0.500000 0.559425 0.072630
O O2 0.735107 0.500000 0.093463
O O3 0.734734 0.601495 0.143932
O O4 0.743646 0.576450 0.980734
O O5 0.237806 0.595000 0.638975
O O6 0.229400 0.633608 0.473426
O O7 0.243412 0.694931 0.607999
O O8 0.000000 0.640711 0.575592
O O9 0.766028 0.414329 0.810064
O O10 0.771354 0.331515 0.907494
O O11 0.000000 0.397116 0.907553
O O12 0.236301 0.500000 0.714053
O O13 0.000000 0.439887 0.718848
O O14 0.241357 0.147341 0.798551
O O15 0.247194 0.204592 0.661189
O O16 0.000000 0.153146 0.699862
O O17 0.225021 0.725720 0.402677
O O18 0.000000 0.663291 0.377289
O O19 0.500000 0.741421 0.651148
O O20 0.297971 0.719969 0.766840
O O21 0.000000 0.790761 0.387832
#
# Coordination Sequence:
#
# PCOD9374160 Si02
#       8
#     8   8   8   8   8   8   8   8
#     4  10  23  42  60  79 107 147 192 234 283 342
#     4  10  19  34  56  81 112 151 189 225 272 332
#     4  11  21  33  54  84 115 145 185 232 276 327
#     4   9  18  33  53  79 112 146 181 224 271 321
#     4  10  21  38  60  81 106 144 189 234 283 337
#     4   9  20  36  55  81 115 149 183 230 281 329
#     4  10  20  34  54  82 115 146 180 227 277 328
#     4   9  18  33  50  74 112 150 182 218 269 329
#
# _framework density 18.375173
#
# number of rings (size 3 to 8) (size 9 to 14) (size 15 to 20)
#    0.000    2.250    1.250    2.250    1.750    4.250 
#    0.000    0.625    0.000    1.875    0.000    0.000 
#    0.000    0.000    0.000    0.000    0.000    0.000 
#
# Total GULP energy -178629.823603 kJ/mol
# GULP energy per Si atom -5582.181988 kJ/mol
# Density = 1.833335 g / cm^3
# Si number density = 18.375173 Si / 1000 Ang^3
#
#
#
# Elastic Constant Matrix: (Units=GPa)
#
#
# Indices 1 2 3 4 5 6 
#
# 1 5.5481 19.8500 14.9108 0.0000 0.0000 0.0000
# 2 19.8500 125.4616 69.1682 0.0001 0.0000 0.0000
# 3 14.9108 69.1682 100.3140 0.0002 0.0000 0.0000
# 4 0.0000 0.0001 0.0002 23.1962 0.0000 0.0000
# 5 0.0000 0.0000 0.0000 0.0000 25.7195 0.0000
# 6 0.0000 0.0000 0.0000 0.0000 0.0000 14.4586
#
#
#
# Elastic Compliance Matrix: (Units=1/GPa)
#
#
# Indices 1 2 3 4 5 6 
#
# 1 0.464170 -0.057112 -0.029615 0.000000 0.000000 0.000000
# 2 -0.057112 0.019886 -0.005222 0.000000 0.000000 0.000000
# 3 -0.029615 -0.005222 0.017972 0.000000 0.000000 0.000000
# 4 0.000000 0.000000 0.000000 0.043110 0.000000 0.000000
# 5 0.000000 0.000000 0.000000 0.000000 0.038881 0.000000
# 6 0.000000 0.000000 0.000000 0.000000 0.000000 0.069163
#
#
# Mechanical properties :
#
#
# Convention : Reuss Voigt Hill
#
# Bulk Modulus (GPa) = 3.14338 48.79797 25.97067
# Shear Modulus (GPa) = 5.30153 21.16785 13.23469
#
# Velocity S-wave (km/s) = 1.70042 3.39777 2.68666
# Velocity P-wave (km/s) = 2.36000 6.48130 4.87734
#
# Compressibility (1/GPa) = 0.31812902
#
# Stress axis : x y z
#
# Youngs Moduli (GPa) = 2.15438 50.28743 55.64330
#
# Poissons Ratio (x) = 2.87201 1.64788
# Poissons Ratio (y) = 0.12304 0.29059
# Poissons Ratio (z) = 0.06380 0.26262
#
# Static dielectric constant tensor:
#      x y z
#    x 1.617960 0.000000 0.000000 
#    y 0.000000 1.617020 0.000000 
#    z 0.000000 0.000000 1.636790 
# 
# From -- ./inp_files/16821.got.cif
#   From: 2010.05.17/outbox.cif.g08.bks.cpg/sg44_9_cif.got.tgz:16821.got - 2010.06.03 19:37:08.
