data_PCOD9374820
_publ_section_title
;
Structure prediction by ZEFSAII (Michael W. Deem and Ramdas Pophale) SiO2 
 PCOD9374820
Probable space group: I M M 2
;
_chemical_formula_sum "Si O2"
_cell_formula_units_Z 52
_cell_length_a 27.469477
_cell_length_b 12.136224
_cell_length_c 7.634832
_cell_angle_alpha 90.000000
_cell_angle_beta 90.000000
_cell_angle_gamma 90.000000
_cell_volume 2545.267661
_symmetry_space_group_name_H-M "I M M 2"
_symmetry_group_IT_number 44
_symmetry_cell_setting 'orthorhombic'
loop_
_space_group_symop_operation_xyz
x,y,z
-x,-y,z
-x,y,z
x,-y,z
1/2+x,1/2+y,1/2+z
1/2-x,1/2-y,1/2+z
1/2-x,1/2+y,1/2+z
1/2+x,1/2-y,1/2+z
loop_
_atom_site_type_symbol
_atom_site_label
_atom_site_fract_x
_atom_site_fract_y
_atom_site_fract_z
Si Si1 0.593417 0.500000 0.981640
Si Si2 0.197509 0.759660 0.201672
Si Si3 0.697345 0.726481 0.309691
Si Si4 0.944229 0.627173 0.021129
Si Si5 0.882569 0.369686 0.674521
Si Si6 0.175567 0.000000 0.213695
Si Si7 0.911388 0.759384 0.351806
Si Si8 0.139384 0.000000 0.838699
O O1 0.648243 0.500000 0.899297
O O2 0.573888 0.616061 0.906020
O O3 0.596444 0.500000 0.193572
O O4 0.245735 0.707421 0.279347
O O5 0.206907 0.891063 0.194304
O O6 0.146013 0.753061 0.298441
O O7 0.191578 0.722307 0.002566
O O8 0.669474 0.808289 0.179274
O O9 0.669216 0.610954 0.301007
O O10 0.934042 0.500000 0.076539
O O11 0.937699 0.709209 0.183466
O O12 0.000000 0.631451 0.960107
O O13 0.909050 0.653730 0.859454
O O14 0.877457 0.500000 0.652895
O O15 0.914958 0.317784 0.520911
O O16 0.135592 0.000000 0.052810
#
# Coordination Sequence:
#
# PCOD9374820 Si02
#       8
#     4   8   8   8   8   4   8   4
#     4  10  20  34  63  85 117 162 200 248 303 382
#     4  10  21  36  55  85 120 166 211 262 309 370
#     4  11  21  38  55  83 124 165 214 260 313 365
#     4  10  23  45  69  95 125 160 206 262 324 378
#     4  11  23  39  63  92 125 165 210 264 313 374
#     4   8  20  34  54  75 111 161 216 244 310 361
#     4  11  21  41  64  93 124 164 212 256 318 370
#     4  10  20  38  54  78 116 169 204 248 302 369
#
# _framework density 20.430071000000002
#
# number of rings (size 3 to 8) (size 9 to 14) (size 15 to 20)
#    0.000    1.692    3.077    1.385    3.231    0.615 
#    6.923    1.923    0.000    0.000    0.000    0.000 
#    0.000    0.000    0.000    0.000    0.000    0.000 
#
# Total GULP energy -145013.644517 kJ/mol
# GULP energy per Si atom -5577.447866 kJ/mol
# Density = 2.038357 g / cm^3
# Si number density = 20.430071 Si / 1000 Ang^3
#
#
#
# Elastic Constant Matrix: (Units=GPa)
#
#
# Indices 1 2 3 4 5 6 
#
# 1 47.6776 9.4195 0.2153 0.0000 0.0000 0.0000
# 2 9.4195 57.9085 20.6271 0.0000 0.0000 0.0000
# 3 0.2153 20.6271 80.7783 0.0000 0.0000 0.0000
# 4 0.0000 0.0000 0.0000 27.1635 0.0000 0.0000
# 5 0.0000 0.0000 0.0000 0.0000 16.3115 0.0000
# 6 0.0000 0.0000 0.0000 0.0000 0.0000 4.3300
#
#
#
# Elastic Compliance Matrix: (Units=1/GPa)
#
#
# Indices 1 2 3 4 5 6 
#
# 1 0.021734 -0.003866 0.000929 0.000000 0.000000 0.000000
# 2 -0.003866 0.019684 -0.005016 0.000000 0.000000 0.000000
# 3 0.000929 -0.005016 0.013658 0.000000 0.000000 0.000000
# 4 0.000000 0.000000 0.000000 0.036814 0.000000 0.000000
# 5 0.000000 0.000000 0.000000 0.000000 0.061306 0.000000
# 6 0.000000 0.000000 0.000000 0.000000 0.000000 0.230948
#
#
# Mechanical properties :
#
#
# Convention : Reuss Voigt Hill
#
# Bulk Modulus (GPa) = 25.52982 27.43203 26.48092
# Shear Modulus (GPa) = 12.10338 19.96784 16.03561
#
# Velocity S-wave (km/s) = 2.43663 3.12969 2.80465
# Velocity P-wave (km/s) = 4.52101 5.14941 4.84541
#
# Compressibility (1/GPa) = 0.03916988
#
# Stress axis : x y z
#
# Youngs Moduli (GPa) = 46.01113 50.80197 73.21732
#
# Poissons Ratio (x) = 0.19642 -0.06804
# Poissons Ratio (y) = 0.17789 0.36727
# Poissons Ratio (z) = -0.04276 0.25483
#
# Static dielectric constant tensor:
#      x y z
#    x 1.727990 0.000000 0.000000 
#    y 0.000000 1.728370 0.000000 
#    z 0.000000 0.000000 1.760050 
# 
# From -- ./inp_files/10075.got.cif
#   From: 2010.05.17/outbox.cif.g08.bks.cpg/sg44_6_cif.got.tgz:10075.got - 2010.06.03 19:37:08.
