data_PCOD9374474
_publ_section_title
;
Structure prediction by ZEFSAII (Michael W. Deem and Ramdas Pophale) SiO2 
 PCOD9374474
Probable space group: I M M 2
;
_chemical_formula_sum "Si O2"
_cell_formula_units_Z 56
_cell_length_a 8.896697
_cell_length_b 20.334563
_cell_length_c 15.648655
_cell_angle_alpha 90.000000
_cell_angle_beta 90.000000
_cell_angle_gamma 90.000000
_cell_volume 2831.005150
_symmetry_space_group_name_H-M "I M M 2"
_symmetry_group_IT_number 44
_symmetry_cell_setting 'orthorhombic'
loop_
_space_group_symop_operation_xyz
x,y,z
-x,-y,z
-x,y,z
x,-y,z
1/2+x,1/2+y,1/2+z
1/2-x,1/2-y,1/2+z
1/2-x,1/2+y,1/2+z
1/2+x,1/2-y,1/2+z
loop_
_atom_site_type_symbol
_atom_site_label
_atom_site_fract_x
_atom_site_fract_y
_atom_site_fract_z
Si Si1 0.820846 0.923220 0.622280
Si Si2 0.327820 0.113606 0.797496
Si Si3 0.176933 0.754503 0.389327
Si Si4 0.825558 0.701077 0.725568
Si Si5 0.671079 0.923915 0.114974
Si Si6 0.680595 0.213103 0.570419
Si Si7 0.662119 0.575454 0.454816
O O1 0.779060 0.907972 0.720977
O O2 0.736822 0.863188 0.574478
O O3 0.000000 0.917303 0.609438
O O4 0.778841 0.000000 0.603693
O O5 0.500000 0.105511 0.769900
O O6 0.307344 0.186162 0.836866
O O7 0.283142 0.074029 0.880905
O O8 0.249126 0.801043 0.318177
O O9 0.258731 0.757507 0.480661
O O10 0.000000 0.766029 0.403416
O O11 0.821435 0.626830 0.691262
O O12 0.747117 0.748077 0.653649
O O13 0.000000 0.722538 0.732487
O O14 0.500000 0.923073 0.080855
O O15 0.704526 0.000000 0.137194
O O16 0.776414 0.894267 0.041305
O O17 0.500000 0.215806 0.574370
O O18 0.500000 0.602664 0.426895
O O19 0.643121 0.500000 0.478869
#
# Coordination Sequence:
#
# PCOD9374474 Si02
#       7
#     8   8   8   8   8   8   8
#     4  11  24  42  65  92 126 168 214 269 330 391
#     4  11  22  36  57  87 120 158 204 254 313 378
#     4  11  24  41  62  90 123 162 211 264 318 382
#     4  11  22  39  64  92 123 161 206 261 320 380
#     4   9  19  36  57  83 117 157 200 248 307 371
#     4  12  25  42  65  94 128 170 215 266 324 388
#     4  10  20  32  49  78 115 154 195 239 294 360
#
# _framework density 19.78096
#
# number of rings (size 3 to 8) (size 9 to 14) (size 15 to 20)
#    0.000    1.286    1.429    4.714    0.000   10.000 
#    0.000    0.714    0.000    2.571    0.000    0.000 
#    0.000    0.000    0.000    0.000    0.000    0.000 
#
# Total GULP energy -156125.432708 kJ/mol
# GULP energy per Si atom -5575.908311 kJ/mol
# Density = 1.973594 g / cm^3
# Si number density = 19.780960 Si / 1000 Ang^3
#
#
#
# Elastic Constant Matrix: (Units=GPa)
#
#
# Indices 1 2 3 4 5 6 
#
# 1 64.2093 42.8262 20.6051 0.0000 0.0000 0.0000
# 2 42.8262 77.5180 16.0313 0.0000 0.0000 0.0000
# 3 20.6051 16.0313 77.0376 0.0000 0.0000 0.0000
# 4 0.0000 0.0000 0.0000 16.2466 0.0000 0.0000
# 5 0.0000 0.0000 0.0000 0.0000 28.5790 0.0000
# 6 0.0000 0.0000 0.0000 0.0000 0.0000 24.2699
#
#
#
# Elastic Compliance Matrix: (Units=1/GPa)
#
#
# Indices 1 2 3 4 5 6 
#
# 1 0.025855 -0.013432 -0.004120 0.000000 0.000000 0.000000
# 2 -0.013432 0.020458 -0.000665 0.000000 0.000000 0.000000
# 3 -0.004120 -0.000665 0.014221 0.000000 0.000000 0.000000
# 4 0.000000 0.000000 0.000000 0.061551 0.000000 0.000000
# 5 0.000000 0.000000 0.000000 0.000000 0.034991 0.000000
# 6 0.000000 0.000000 0.000000 0.000000 0.000000 0.041203
#
#
# Mechanical properties :
#
#
# Convention : Reuss Voigt Hill
#
# Bulk Modulus (GPa) = 41.49267 41.96557 41.72912
# Shear Modulus (GPa) = 20.59752 23.10592 21.85172
#
# Velocity S-wave (km/s) = 3.23039 3.42144 3.32729
# Velocity P-wave (km/s) = 5.91062 6.07203 5.99187
#
# Compressibility (1/GPa) = 0.02410064
#
# Stress axis : x y z
#
# Youngs Moduli (GPa) = 38.67697 48.87951 70.31831
#
# Poissons Ratio (x) = 0.65655 0.28973
# Poissons Ratio (y) = 0.51951 0.04674
# Poissons Ratio (z) = 0.15936 0.03249
#
# Static dielectric constant tensor:
#      x y z
#    x 1.749830 0.000000 0.000000 
#    y 0.000000 1.664530 0.000000 
#    z 0.000000 0.000000 1.667340 
# 
# From -- ./inp_files/16457.got.cif
#   From: 2010.05.17/outbox.cif.g08.bks.cpg/sg44_9_cif.got.tgz:16457.got - 2010.06.03 19:37:08.
