data_PCOD9374075
_publ_section_title
;
Structure prediction by ZEFSAII (Michael W. Deem and Ramdas Pophale) SiO2 
 PCOD9374075
Probable space group: I M M 2
;
_chemical_formula_sum "Si O2"
_cell_formula_units_Z 48
_cell_length_a 32.497854
_cell_length_b 8.689121
_cell_length_c 9.208511
_cell_angle_alpha 90.000000
_cell_angle_beta 90.000000
_cell_angle_gamma 90.000000
_cell_volume 2600.278945
_symmetry_space_group_name_H-M "I M M 2"
_symmetry_group_IT_number 44
_symmetry_cell_setting 'orthorhombic'
loop_
_space_group_symop_operation_xyz
x,y,z
-x,-y,z
-x,y,z
x,-y,z
1/2+x,1/2+y,1/2+z
1/2-x,1/2-y,1/2+z
1/2-x,1/2+y,1/2+z
1/2+x,1/2-y,1/2+z
loop_
_atom_site_type_symbol
_atom_site_label
_atom_site_fract_x
_atom_site_fract_y
_atom_site_fract_z
Si Si1 0.369005 0.182329 0.465890
Si Si2 0.288963 0.184511 0.966375
Si Si3 0.206706 0.184299 0.788436
Si Si4 0.366136 0.685856 0.790991
Si Si5 0.955844 0.182138 0.307829
Si Si6 0.545220 0.318677 0.455749
O O1 0.333292 0.241619 0.361416
O O2 0.363320 0.261186 0.623575
O O3 0.414240 0.229451 0.408064
O O4 0.366720 0.000000 0.483888
O O5 0.288084 0.256287 0.125643
O O6 0.291238 0.000000 0.975902
O O7 0.247301 0.225462 0.880514
O O8 0.328358 0.247188 0.880131
O O9 0.202410 0.000000 0.789373
O O10 0.365528 0.500000 0.794748
O O11 0.410821 0.741038 0.851811
O O12 0.000000 0.248277 0.358311
O O13 0.956428 0.000000 0.342696
O O14 0.955655 0.193291 0.131890
O O15 0.500000 0.266668 0.403531
O O16 0.549578 0.500000 0.421865
#
# Coordination Sequence:
#
# PCOD9374075 Si02
#       6
#     8   8   8   8   8   8
#     4  11  21  33  53  82 115 146 181 229 276 316
#     4  11  24  40  59  83 109 137 175 226 277 324
#     4  11  24  41  60  80 106 142 180 218 269 334
#     4  10  19  33  55  81 111 147 184 222 268 324
#     4   7  11  22  43  72 103 136 176 217 253 297
#     4   8  14  27  48  74 106 144 184 223 265 318
#
# _framework density 18.459557
#
# number of rings (size 3 to 8) (size 9 to 14) (size 15 to 20)
#    0.000    2.333    0.000    6.000    0.000    5.667 
#    0.000    0.000    0.000    2.500    0.000    2.333 
#    0.000    0.000    0.000    0.000    0.000    0.000 
#
# Total GULP energy -133841.016164 kJ/mol
# GULP energy per Si atom -5576.709007 kJ/mol
# Density = 1.841754 g / cm^3
# Si number density = 18.459557 Si / 1000 Ang^3
#
#
#
# Elastic Constant Matrix: (Units=GPa)
#
#
# Indices 1 2 3 4 5 6 
#
# 1 182.5566 41.9836 43.9779 0.0000 0.0000 0.0000
# 2 41.9836 37.9568 4.6088 0.0000 0.0000 0.0000
# 3 43.9779 4.6088 44.7311 0.0000 0.0000 0.0000
# 4 0.0000 0.0000 0.0000 24.2613 0.0000 0.0000
# 5 0.0000 0.0000 0.0000 0.0000 23.5252 0.0000
# 6 0.0000 0.0000 0.0000 0.0000 0.0000 -75.0929
#
#
#
# Elastic Compliance Matrix: (Units=1/GPa)
#
#
# Indices 1 2 3 4 5 6 
#
# 1 0.009814 -0.009806 -0.008638 0.000000 0.000000 0.000000
# 2 -0.009806 0.036478 0.005883 0.000000 0.000000 0.000000
# 3 -0.008638 0.005883 0.030243 0.000000 0.000000 0.000000
# 4 0.000000 0.000000 0.000000 0.041218 0.000000 0.000000
# 5 0.000000 0.000000 0.000000 0.000000 0.042508 0.000000
# 6 0.000000 0.000000 0.000000 0.000000 0.000000 -0.013317
#
#
# Mechanical properties :
#
#
# Convention : Reuss Voigt Hill
#
# Bulk Modulus (GPa) = 19.45119 49.59833 34.52476
# Shear Modulus (GPa) = 26.42653 6.18366 16.30509
#
# Velocity S-wave (km/s) = 3.78774 1.83224 2.97524
# Velocity P-wave (km/s) = 5.44880 5.60385 5.52687
#
# Compressibility (1/GPa) = 0.05141075
#
# Stress axis : x y z
#
# Youngs Moduli (GPa) = 101.89632 27.41380 33.06599
#
# Poissons Ratio (x) = 0.26882 0.28563
# Poissons Ratio (y) = 0.99921 -0.19451
# Poissons Ratio (z) = 0.88021 -0.16126
#
# Static dielectric constant tensor:
#      x y z
#    x 1.679030 0.000000 0.000000 
#    y 0.000000 1.619690 0.000000 
#    z 0.000000 0.000000 1.605100 
# 
# From -- ./inp_files/9971.got.cif
#   From: 2010.05.17/outbox.cif.g08.bks.cpg/sg44_5_cif.got.tgz:9971.got - 2010.06.03 19:37:08.
