data_PCOD9374694
_publ_section_title
;
Structure prediction by ZEFSAII (Michael W. Deem and Ramdas Pophale) SiO2 
 PCOD9374694
Probable space group: I M M 2
;
_chemical_formula_sum "Si O2"
_cell_formula_units_Z 64
_cell_length_a 16.203431
_cell_length_b 8.599364
_cell_length_c 23.520584
_cell_angle_alpha 90.000000
_cell_angle_beta 90.000000
_cell_angle_gamma 90.000000
_cell_volume 3277.339387
_symmetry_space_group_name_H-M "I M M 2"
_symmetry_group_IT_number 44
_symmetry_cell_setting 'orthorhombic'
loop_
_space_group_symop_operation_xyz
x,y,z
-x,-y,z
-x,y,z
x,-y,z
1/2+x,1/2+y,1/2+z
1/2-x,1/2-y,1/2+z
1/2-x,1/2+y,1/2+z
1/2+x,1/2-y,1/2+z
loop_
_atom_site_type_symbol
_atom_site_label
_atom_site_fract_x
_atom_site_fract_y
_atom_site_fract_z
Si Si1 0.594194 0.816540 0.755840
Si Si2 0.180487 0.681631 0.035333
Si Si3 0.731052 0.687988 0.417960
Si Si4 0.147965 0.314066 0.576174
Si Si5 0.087615 0.686691 0.451923
Si Si6 0.772337 0.811834 0.791841
Si Si7 0.097408 0.829947 0.138707
Si Si8 0.593277 0.812520 0.203319
O O1 0.500000 0.754530 0.766508
O O2 0.676720 0.756024 0.786554
O O3 0.616903 0.787351 0.689671
O O4 0.589396 0.000000 0.767695
O O5 0.164048 0.500000 0.036196
O O6 0.269292 0.720034 0.063201
O O7 0.119709 0.771033 0.076882
O O8 0.182460 0.743636 0.971223
O O9 0.731061 0.500000 0.423068
O O10 0.826540 0.742255 0.425449
O O11 0.699460 0.729851 0.355606
O O12 0.166580 0.500000 0.576935
O O13 0.093106 0.288844 0.519956
O O14 0.110425 0.272205 0.637079
O O15 0.086960 0.500000 0.442686
O O16 0.000000 0.748956 0.430020
O O17 0.834772 0.750541 0.744115
O O18 0.770342 0.000000 0.787546
O O19 0.000000 0.844836 0.141428
O O20 0.136012 0.000000 0.149750
O O21 0.500000 0.760343 0.218670
O O22 0.594735 0.000000 0.206546
#
# Coordination Sequence:
#
# PCOD9374694 Si02
#       8
#     8   8   8   8   8   8   8   8
#     4   9  18  33  54  83 117 145 171 210 259 311
#     4  11  21  33  52  77 104 133 167 210 262 314
#     4   9  19  35  52  71  99 136 178 217 253 304
#     4   9  17  31  52  77 105 134 164 203 254 315
#     4   8  13  24  47  76 100 124 159 204 249 295
#     4  10  21  36  54  77 106 143 183 220 262 310
#     4  10  20  34  53  77 104 134 169 208 254 312
#     4  10  21  36  55  79 105 137 180 226 269 313
#
# _framework density 19.528036
#
# number of rings (size 3 to 8) (size 9 to 14) (size 15 to 20)
#    0.000    2.500    0.000    3.375    0.000    6.500 
#    0.000    3.125    0.000    9.750    0.000    3.500 
#    0.000    0.000    0.000    0.000    0.000    0.000 
#
# Total GULP energy -178309.059489 kJ/mol
# GULP energy per Si atom -5572.158109 kJ/mol
# Density = 1.948359 g / cm^3
# Si number density = 19.528036 Si / 1000 Ang^3
#
#
#
# Elastic Constant Matrix: (Units=GPa)
#
#
# Indices 1 2 3 4 5 6 
#
# 1 37.4492 7.9557 22.9410 0.0000 0.0000 0.0000
# 2 7.9557 10.6521 -0.5212 0.0000 0.0000 0.0000
# 3 22.9410 -0.5212 69.3400 0.0000 0.0000 0.0000
# 4 0.0000 0.0000 0.0000 19.3805 0.0000 0.0000
# 5 0.0000 0.0000 0.0000 0.0000 63.0955 0.0000
# 6 0.0000 0.0000 0.0000 0.0000 0.0000 17.1433
#
#
#
# Elastic Compliance Matrix: (Units=1/GPa)
#
#
# Indices 1 2 3 4 5 6 
#
# 1 0.042275 -0.032270 -0.014229 0.000000 0.000000 0.000000
# 2 -0.032270 0.118546 0.011567 0.000000 0.000000 0.000000
# 3 -0.014229 0.011567 0.019216 0.000000 0.000000 0.000000
# 4 0.000000 0.000000 0.000000 0.051598 0.000000 0.000000
# 5 0.000000 0.000000 0.000000 0.000000 0.015849 0.000000
# 6 0.000000 0.000000 0.000000 0.000000 0.000000 0.058332
#
#
# Mechanical properties :
#
#
# Convention : Reuss Voigt Hill
#
# Bulk Modulus (GPa) = 9.07660 19.79916 14.43788
# Shear Modulus (GPa) = 12.12404 25.72823 18.92613
#
# Velocity S-wave (km/s) = 2.49440 3.63368 3.11654
# Velocity P-wave (km/s) = 3.59918 5.26932 4.51219
#
# Compressibility (1/GPa) = 0.11017341
#
# Stress axis : x y z
#
# Youngs Moduli (GPa) = 23.65464 8.43557 52.03911
#
# Poissons Ratio (x) = 0.27222 0.74047
# Poissons Ratio (y) = 0.76334 -0.60196
# Poissons Ratio (z) = 0.33659 -0.09758
#
# Static dielectric constant tensor:
#      x y z
#    x 1.567000 0.000000 0.000000 
#    y 0.000000 1.692180 0.000000 
#    z 0.000000 0.000000 1.680850 
# 
# From -- ./inp_files/24372.got.cif
#   From: 2010.05.17/outbox.cif.g08.bks.cpg/sg44_13_cif.got.tgz:24372.got - 2010.06.03 19:37:08.
