data_PCOD9374146
_publ_section_title
;
Structure prediction by ZEFSAII (Michael W. Deem and Ramdas Pophale) SiO2 
 PCOD9374146
Probable space group: I M M 2
;
_chemical_formula_sum "Si O2"
_cell_formula_units_Z 64
_cell_length_a 20.114381
_cell_length_b 8.463362
_cell_length_c 21.347680
_cell_angle_alpha 90.000000
_cell_angle_beta 90.000000
_cell_angle_gamma 90.000000
_cell_volume 3634.128449
_symmetry_space_group_name_H-M "I M M 2"
_symmetry_group_IT_number 44
_symmetry_cell_setting 'orthorhombic'
loop_
_space_group_symop_operation_xyz
x,y,z
-x,-y,z
-x,y,z
x,-y,z
1/2+x,1/2+y,1/2+z
1/2-x,1/2-y,1/2+z
1/2-x,1/2+y,1/2+z
1/2+x,1/2-y,1/2+z
loop_
_atom_site_type_symbol
_atom_site_label
_atom_site_fract_x
_atom_site_fract_y
_atom_site_fract_z
Si Si1 0.073465 0.809812 0.837450
Si Si2 0.206089 0.308830 0.268807
Si Si3 0.074549 0.311704 0.696254
Si Si4 0.575231 0.312467 0.711959
Si Si5 0.924821 0.312156 0.071398
Si Si6 0.787758 0.193120 0.890476
Si Si7 0.208151 0.188062 0.647849
Si Si8 0.712723 0.687425 0.528886
O O1 0.083943 0.765612 0.764722
O O2 0.136927 0.752488 0.876069
O O3 0.000000 0.750413 0.856279
O O4 0.072552 0.000000 0.841852
O O5 0.204087 0.500000 0.268142
O O6 0.132450 0.244018 0.258233
O O7 0.240881 0.257496 0.333179
O O8 0.250273 0.256984 0.209008
O O9 0.076796 0.500000 0.703860
O O10 0.134518 0.258610 0.652358
O O11 0.000000 0.267978 0.674473
O O12 0.500000 0.280489 0.734095
O O13 0.581475 0.500000 0.700763
O O14 0.583636 0.225609 0.645265
O O15 0.918960 0.500000 0.062223
O O16 0.865454 0.225069 0.036420
O O17 0.000000 0.262172 0.053986
O O18 0.788718 0.000000 0.890173
O O19 0.766163 0.242561 0.959691
O O20 0.247588 0.233663 0.585507
O O21 0.203118 0.000000 0.651980
O O22 0.722429 0.500000 0.533654
#
# Coordination Sequence:
#
# PCOD9374146 Si02
#       8
#     8   8   8   8   8   8   8   8
#     4   9  16  30  52  75 104 143 182 215 252 305
#     4  10  19  34  56  79 105 138 178 220 262 313
#     4  10  20  33  52  81 112 138 172 221 270 311
#     4  10  20  33  52  80 109 136 173 221 270 315
#     4  10  20  34  51  73 106 146 183 216 255 311
#     4   9  19  35  52  76 106 140 180 218 258 311
#     4  11  21  35  57  80 106 140 178 220 264 316
#     4  11  22  35  54  78 108 141 178 224 268 312
#
# _framework density 17.610824000000001
#
# number of rings (size 3 to 8) (size 9 to 14) (size 15 to 20)
#    0.000    2.000    2.500    1.875    0.000    3.250 
#    0.000    3.750    0.000    2.250    0.000    1.750 
#    0.000    0.000    0.000    0.000    0.000    0.000 
#
# Total GULP energy -178586.598502 kJ/mol
# GULP energy per Si atom -5580.831203 kJ/mol
# Density = 1.757074 g / cm^3
# Si number density = 17.610824 Si / 1000 Ang^3
#
#
#
# Elastic Constant Matrix: (Units=GPa)
#
#
# Indices 1 2 3 4 5 6 
#
# 1 92.3514 7.2852 43.0145 0.0000 0.0000 0.0000
# 2 7.2852 13.4456 1.5307 0.0000 0.0000 0.0000
# 3 43.0145 1.5307 90.4717 0.0000 0.0000 0.0000
# 4 0.0000 0.0000 0.0000 15.0176 0.0000 0.0000
# 5 0.0000 0.0000 0.0000 0.0000 21.8220 0.0000
# 6 0.0000 0.0000 0.0000 0.0000 0.0000 28.2283
#
#
#
# Elastic Compliance Matrix: (Units=1/GPa)
#
#
# Indices 1 2 3 4 5 6 
#
# 1 0.014557 -0.007113 -0.006801 0.000000 0.000000 0.000000
# 2 -0.007113 0.077993 0.002062 0.000000 0.000000 0.000000
# 3 -0.006801 0.002062 0.014252 0.000000 0.000000 0.000000
# 4 0.000000 0.000000 0.000000 0.066588 0.000000 0.000000
# 5 0.000000 0.000000 0.000000 0.000000 0.045825 0.000000
# 6 0.000000 0.000000 0.000000 0.000000 0.000000 0.035425
#
#
# Mechanical properties :
#
#
# Convention : Reuss Voigt Hill
#
# Bulk Modulus (GPa) = 12.03388 33.32550 22.67969
# Shear Modulus (GPa) = 16.33754 22.64279 19.49016
#
# Velocity S-wave (km/s) = 3.04912 3.58960 3.33034
# Velocity P-wave (km/s) = 4.38682 6.01205 5.26255
#
# Compressibility (1/GPa) = 0.08309874
#
# Stress axis : x y z
#
# Youngs Moduli (GPa) = 68.69600 12.82163 70.16732
#
# Poissons Ratio (x) = 0.09120 0.47719
# Poissons Ratio (y) = 0.48864 -0.14471
# Poissons Ratio (z) = 0.46718 -0.02644
#
# Static dielectric constant tensor:
#      x y z
#    x 1.613140 0.000000 0.000000 
#    y 0.000000 1.600520 0.000000 
#    z 0.000000 0.000000 1.585860 
# 
# From -- ./inp_files/24340.got.cif
#   From: 2010.05.17/outbox.cif.g08.bks.cpg/sg44_13_cif.got.tgz:24340.got - 2010.06.03 19:37:08.
