data_PCOD9374796
_publ_section_title
;
Structure prediction by ZEFSAII (Michael W. Deem and Ramdas Pophale) SiO2 
 PCOD9374796
Probable space group: I M M 2
;
_chemical_formula_sum "Si O2"
_cell_formula_units_Z 48
_cell_length_a 8.639324
_cell_length_b 10.521787
_cell_length_c 28.866489
_cell_angle_alpha 90.000000
_cell_angle_beta 90.000000
_cell_angle_gamma 90.000000
_cell_volume 2623.996381
_symmetry_space_group_name_H-M "I M M 2"
_symmetry_group_IT_number 44
_symmetry_cell_setting 'orthorhombic'
loop_
_space_group_symop_operation_xyz
x,y,z
-x,-y,z
-x,y,z
x,-y,z
1/2+x,1/2+y,1/2+z
1/2-x,1/2-y,1/2+z
1/2-x,1/2+y,1/2+z
1/2+x,1/2-y,1/2+z
loop_
_atom_site_type_symbol
_atom_site_label
_atom_site_fract_x
_atom_site_fract_y
_atom_site_fract_z
Si Si1 0.687951 0.000000 0.687021
Si Si2 0.186267 0.255733 0.534459
Si Si3 0.185490 0.752238 0.242257
Si Si4 0.684383 0.649447 0.335317
Si Si5 0.313724 0.000000 0.579792
Si Si6 0.815105 0.000000 0.088708
Si Si7 0.185435 0.649539 0.434541
Si Si8 0.816051 0.500000 0.692425
O O1 0.737448 0.873055 0.713742
O O2 0.736790 0.000000 0.633642
O O3 0.500000 0.000000 0.687680
O O4 0.251044 0.125852 0.555144
O O5 0.249762 0.375157 0.563359
O O6 0.230971 0.275310 0.480644
O O7 0.000000 0.256840 0.536911
O O8 0.233389 0.728511 0.295216
O O9 0.262442 0.875761 0.220323
O O10 0.000000 0.763047 0.238565
O O11 0.500000 0.658275 0.330170
O O12 0.729467 0.500000 0.330317
O O13 0.733740 0.689071 0.386946
O O14 0.500000 0.000000 0.578728
O O15 0.762368 0.000000 0.141981
O O16 0.000000 0.000000 0.086167
O O17 0.220949 0.500000 0.442474
O O18 0.000000 0.659850 0.428658
O O19 0.000000 0.500000 0.686717
#
# Coordination Sequence:
#
# PCOD9374796 Si02
#       8
#     4   8   8   8   4   4   8   4
#     4   9  20  37  60  85 112 149 198 241 279 337
#     4  11  22  40  62  89 121 159 202 249 301 356
#     4  11  21  39  63  88 117 157 200 242 293 353
#     4  10  20  34  56  89 122 151 192 245 298 349
#     4  11  23  39  58  87 124 161 199 245 298 357
#     4  12  24  40  63  90 119 158 205 249 296 358
#     4   9  18  35  59  85 114 151 198 247 295 353
#     4  12  26  42  59  86 123 160 198 247 301 354
#
# _framework density 18.292708999999999
#
# number of rings (size 3 to 8) (size 9 to 14) (size 15 to 20)
#    0.000    1.500    1.667    4.250    0.000    3.333 
#    0.000    3.333    0.000    3.000    0.000    0.000 
#    0.000    0.000    0.000    0.000    0.000    0.000 
#
# Total GULP energy -134144.972166 kJ/mol
# GULP energy per Si atom -5589.373840 kJ/mol
# Density = 1.825107 g / cm^3
# Si number density = 18.292709 Si / 1000 Ang^3
#
#
#
# Elastic Constant Matrix: (Units=GPa)
#
#
# Indices 1 2 3 4 5 6 
#
# 1 65.5430 38.6713 40.1558 0.0000 0.0000 0.0000
# 2 38.6713 138.1552 73.6233 0.0000 0.0000 0.0000
# 3 40.1558 73.6233 149.8903 0.0000 0.0000 0.0000
# 4 0.0000 0.0000 0.0000 50.1832 0.0000 0.0000
# 5 0.0000 0.0000 0.0000 0.0000 33.6891 0.0000
# 6 0.0000 0.0000 0.0000 0.0000 0.0000 29.2740
#
#
#
# Elastic Compliance Matrix: (Units=1/GPa)
#
#
# Indices 1 2 3 4 5 6 
#
# 1 0.019506 -0.003624 -0.003446 0.000000 0.000000 0.000000
# 2 -0.003624 0.010478 -0.004176 0.000000 0.000000 0.000000
# 3 -0.003446 -0.004176 0.009646 0.000000 0.000000 0.000000
# 4 0.000000 0.000000 0.000000 0.019927 0.000000 0.000000
# 5 0.000000 0.000000 0.000000 0.000000 0.029683 0.000000
# 6 0.000000 0.000000 0.000000 0.000000 0.000000 0.034160
#
#
# Mechanical properties :
#
#
# Convention : Reuss Voigt Hill
#
# Bulk Modulus (GPa) = 58.34552 73.16547 65.75550
# Shear Modulus (GPa) = 32.98071 36.03847 34.50959
#
# Velocity S-wave (km/s) = 4.25071 4.44340 4.34812
# Velocity P-wave (km/s) = 7.48707 8.14917 7.82512
#
# Compressibility (1/GPa) = 0.01713928
#
# Stress axis : x y z
#
# Youngs Moduli (GPa) = 51.26531 95.43984 103.67295
#
# Poissons Ratio (x) = 0.34585 0.35724
# Poissons Ratio (y) = 0.18577 0.43291
# Poissons Ratio (z) = 0.17665 0.39853
#
# Static dielectric constant tensor:
#      x y z
#    x 1.612890 0.000000 0.000000 
#    y 0.000000 1.594150 0.000000 
#    z 0.000000 0.000000 1.613750 
# 
# From -- ./inp_files/27075.got.cif
#   From: 2010.05.17/outbox.cif.g08.bks.cpg/sg44_14_cif.got.tgz:27075.got - 2010.06.03 19:37:08.
