data_PCOD9374767
_publ_section_title
;
Structure prediction by ZEFSAII (Michael W. Deem and Ramdas Pophale) SiO2 
 PCOD9374767
Probable space group: I M M 2
;
_chemical_formula_sum "Si O2"
_cell_formula_units_Z 48
_cell_length_a 8.588001
_cell_length_b 13.969611
_cell_length_c 19.006991
_cell_angle_alpha 90.000000
_cell_angle_beta 90.000000
_cell_angle_gamma 90.000000
_cell_volume 2280.288349
_symmetry_space_group_name_H-M "I M M 2"
_symmetry_group_IT_number 44
_symmetry_cell_setting 'orthorhombic'
loop_
_space_group_symop_operation_xyz
x,y,z
-x,-y,z
-x,y,z
x,-y,z
1/2+x,1/2+y,1/2+z
1/2-x,1/2-y,1/2+z
1/2-x,1/2+y,1/2+z
1/2+x,1/2-y,1/2+z
loop_
_atom_site_type_symbol
_atom_site_label
_atom_site_fract_x
_atom_site_fract_y
_atom_site_fract_z
Si Si1 0.317295 0.309683 0.590530
Si Si2 0.186654 0.605640 0.724721
Si Si3 0.320269 0.261720 0.331280
Si Si4 0.315052 0.888059 0.946065
Si Si5 0.171876 0.604981 0.952350
Si Si6 0.319802 0.607178 0.096749
O O1 0.500000 0.325886 0.596339
O O2 0.225920 0.379042 0.643207
O O3 0.265978 0.330534 0.510163
O O4 0.274723 0.201932 0.615378
O O5 0.244437 0.500000 0.746814
O O6 0.246782 0.699013 0.766982
O O7 0.000000 0.606258 0.735202
O O8 0.500000 0.289149 0.315811
O O9 0.233747 0.349046 0.369062
O O10 0.319594 0.183264 0.393407
O O11 0.500000 0.876562 0.954241
O O12 0.274499 0.000000 0.952648
O O13 0.176107 0.500000 0.919070
O O14 0.000000 0.614427 0.987745
O O15 0.301183 0.608079 0.011964
O O16 0.500000 0.618507 0.116976
O O17 0.267300 0.500000 0.119346
#
# Coordination Sequence:
#
# PCOD9374767 Si02
#       6
#     8   8   8   8   8   8
#     4  12  24  39  61  90 124 163 207 256 308 362
#     4  10  22  41  64  91 125 164 203 247 304 367
#     4  10  20  36  60  90 120 155 197 245 301 363
#     4  11  24  41  62  88 120 161 207 256 309 364
#     4   9  16  28  50  82 117 149 183 228 284 346
#     4  10  20  34  55  85 118 153 195 243 297 355
#
# _framework density 21.049970999999999
#
# number of rings (size 3 to 8) (size 9 to 14) (size 15 to 20)
#    0.000    1.667    1.667    3.500    0.000    7.333 
#    0.000    0.833    0.000    4.000    0.000    0.000 
#    0.000    0.000    0.000    0.000    0.000    0.000 
#
# Total GULP energy -133845.527975 kJ/mol
# GULP energy per Si atom -5576.896999 kJ/mol
# Density = 2.100206 g / cm^3
# Si number density = 21.049971 Si / 1000 Ang^3
#
#
#
# Elastic Constant Matrix: (Units=GPa)
#
#
# Indices 1 2 3 4 5 6 
#
# 1 27.9934 16.7804 -0.8312 0.0000 0.0000 0.0000
# 2 16.7804 99.0648 16.6605 0.0000 0.0000 0.0000
# 3 -0.8312 16.6605 67.2738 0.0000 0.0000 0.0000
# 4 0.0000 0.0000 0.0000 22.8992 0.0000 0.0000
# 5 0.0000 0.0000 0.0000 0.0000 20.9429 0.0000
# 6 0.0000 0.0000 0.0000 0.0000 0.0000 21.2903
#
#
#
# Elastic Compliance Matrix: (Units=1/GPa)
#
#
# Indices 1 2 3 4 5 6 
#
# 1 0.040090 -0.007173 0.002272 0.000000 0.000000 0.000000
# 2 -0.007173 0.011816 -0.003015 0.000000 0.000000 0.000000
# 3 0.002272 -0.003015 0.015639 0.000000 0.000000 0.000000
# 4 0.000000 0.000000 0.000000 0.043670 0.000000 0.000000
# 5 0.000000 0.000000 0.000000 0.000000 0.047749 0.000000
# 6 0.000000 0.000000 0.000000 0.000000 0.000000 0.046970
#
#
# Mechanical properties :
#
#
# Convention : Reuss Voigt Hill
#
# Bulk Modulus (GPa) = 19.33735 28.83904 24.08819
# Shear Modulus (GPa) = 20.92017 23.80797 22.36407
#
# Velocity S-wave (km/s) = 3.15593 3.36671 3.26303
# Velocity P-wave (km/s) = 4.74196 5.37057 5.06603
#
# Compressibility (1/GPa) = 0.05171341
#
# Stress axis : x y z
#
# Youngs Moduli (GPa) = 24.94403 84.62781 63.94122
#
# Poissons Ratio (x) = 0.60702 -0.14525
# Poissons Ratio (y) = 0.17892 0.19278
# Poissons Ratio (z) = -0.05667 0.25515
#
# Static dielectric constant tensor:
#      x y z
#    x 1.744360 0.000000 0.000000 
#    y 0.000000 1.815650 0.000000 
#    z 0.000000 0.000000 1.745040 
# 
# From -- ./inp_files/22911.got.cif
#   From: 2010.05.17/outbox.cif.g08.bks.cpg/sg44_12_cif.got.tgz:22911.got - 2010.06.03 19:37:08.
