data_PCOD9374630
_publ_section_title
;
Structure prediction by ZEFSAII (Michael W. Deem and Ramdas Pophale) SiO2 
 PCOD9374630
Probable space group: I M M 2
;
_chemical_formula_sum "Si O2"
_cell_formula_units_Z 64
_cell_length_a 32.412421
_cell_length_b 9.150835
_cell_length_c 12.044000
_cell_angle_alpha 90.000000
_cell_angle_beta 90.000000
_cell_angle_gamma 90.000000
_cell_volume 3572.259030
_symmetry_space_group_name_H-M "I M M 2"
_symmetry_group_IT_number 44
_symmetry_cell_setting 'orthorhombic'
loop_
_space_group_symop_operation_xyz
x,y,z
-x,-y,z
-x,y,z
x,-y,z
1/2+x,1/2+y,1/2+z
1/2-x,1/2-y,1/2+z
1/2-x,1/2+y,1/2+z
1/2+x,1/2-y,1/2+z
loop_
_atom_site_type_symbol
_atom_site_label
_atom_site_fract_x
_atom_site_fract_y
_atom_site_fract_z
Si Si1 0.186272 0.324614 0.925520
Si Si2 0.322838 0.666960 0.198233
Si Si3 0.359346 0.676554 0.843994
Si Si4 0.549228 0.673569 0.473602
Si Si5 0.278703 0.678041 0.982912
Si Si6 0.908030 0.165792 0.561048
Si Si7 0.450595 0.164269 0.248350
Si Si8 0.381004 0.175834 0.611600
O O1 0.186600 0.500000 0.919615
O O2 0.173172 0.260262 0.807977
O O3 0.233118 0.274907 0.949611
O O4 0.154751 0.283844 0.023024
O O5 0.311888 0.500000 0.228149
O O6 0.365510 0.662658 0.130840
O O7 0.290280 0.725871 0.107705
O O8 0.358714 0.500000 0.829106
O O9 0.315148 0.720669 0.897809
O O10 0.369214 0.757015 0.730195
O O11 0.394139 0.708276 0.937402
O O12 0.500000 0.699825 0.487658
O O13 0.556244 0.500000 0.478853
O O14 0.561838 0.734055 0.351909
O O15 0.576700 0.756518 0.564009
O O16 0.279794 0.500000 0.985874
O O17 0.936811 0.271810 0.630706
O O18 0.924746 0.000000 0.559262
O O19 0.500000 0.159178 0.250642
O O20 0.434276 0.000000 0.265100
O O21 0.383779 0.000000 0.617339
#
# Coordination Sequence:
#
# PCOD9374630 Si02
#       8
#     8   8   8   8   8   8   8   8
#     4  10  21  34  50  76 109 140 173 218 270 325
#     4   9  18  33  53  74  97 131 174 217 260 307
#     4   9  19  37  58  76 102 145 192 232 269 318
#     4  10  21  38  60  83 109 145 188 230 272 326
#     4   8  17  35  54  72 102 141 177 221 271 315
#     4   9  18  34  55  77 101 136 181 223 264 315
#     4  10  20  33  53  83 115 142 170 215 276 332
#     4  11  23  36  54  83 115 146 180 228 286 339
#
# _framework density 17.915835000000001
#
# number of rings (size 3 to 8) (size 9 to 14) (size 15 to 20)
#    0.000    2.500    0.000    3.375    1.750    5.500 
#    0.000    3.125    0.000    0.750    0.000    0.000 
#    0.000    0.000    0.000    0.000    0.000    0.000 
#
# Total GULP energy -178485.347410 kJ/mol
# GULP energy per Si atom -5577.667107 kJ/mol
# Density = 1.787506 g / cm^3
# Si number density = 17.915835 Si / 1000 Ang^3
#
#
#
# Elastic Constant Matrix: (Units=GPa)
#
#
# Indices 1 2 3 4 5 6 
#
# 1 53.7134 36.8556 48.1987 0.0000 0.0000 0.0000
# 2 36.8556 51.5987 56.9495 0.0000 0.0000 0.0000
# 3 48.1987 56.9495 158.0094 0.0000 0.0000 0.0000
# 4 0.0000 0.0000 0.0000 19.1371 0.0000 0.0000
# 5 0.0000 0.0000 0.0000 0.0000 16.8203 0.0000
# 6 0.0000 0.0000 0.0000 0.0000 0.0000 6.5181
#
#
#
# Elastic Compliance Matrix: (Units=1/GPa)
#
#
# Indices 1 2 3 4 5 6 
#
# 1 0.037322 -0.023402 -0.002950 0.000000 0.000000 0.000000
# 2 -0.023402 0.046856 -0.009749 0.000000 0.000000 0.000000
# 3 -0.002950 -0.009749 0.010742 0.000000 0.000000 0.000000
# 4 0.000000 0.000000 0.000000 0.052255 0.000000 0.000000
# 5 0.000000 0.000000 0.000000 0.000000 0.059452 0.000000
# 6 0.000000 0.000000 0.000000 0.000000 0.000000 0.153419
#
#
# Mechanical properties :
#
#
# Convention : Reuss Voigt Hill
#
# Bulk Modulus (GPa) = 44.01874 60.81434 52.41654
# Shear Modulus (GPa) = 11.36825 16.58294 13.97560
#
# Velocity S-wave (km/s) = 2.52173 3.04567 2.79600
# Velocity P-wave (km/s) = 5.75343 6.81075 6.30429
#
# Compressibility (1/GPa) = 0.02271760
#
# Stress axis : x y z
#
# Youngs Moduli (GPa) = 26.79385 21.34187 93.08897
#
# Poissons Ratio (x) = 0.49945 0.27461
# Poissons Ratio (y) = 0.62704 0.90755
# Poissons Ratio (z) = 0.07904 0.20807
#
# Static dielectric constant tensor:
#      x y z
#    x 1.635890 0.000000 0.000000 
#    y 0.000000 1.608000 0.000000 
#    z 0.000000 0.000000 1.592100 
# 
# From -- ./inp_files/11547.got.cif
#   From: 2010.05.17/outbox.cif.g08.bks.cpg/sg44_6_cif.got.tgz:11547.got - 2010.06.03 19:37:08.
