data_PCOD9374241
_publ_section_title
;
Structure prediction by ZEFSAII (Michael W. Deem and Ramdas Pophale) SiO2 
 PCOD9374241
Probable space group: I M M 2
;
_chemical_formula_sum "Si O2"
_cell_formula_units_Z 64
_cell_length_a 7.694290
_cell_length_b 32.121494
_cell_length_c 12.290314
_cell_angle_alpha 90.000000
_cell_angle_beta 90.000000
_cell_angle_gamma 90.000000
_cell_volume 3037.576793
_symmetry_space_group_name_H-M "I M M 2"
_symmetry_group_IT_number 44
_symmetry_cell_setting 'orthorhombic'
loop_
_space_group_symop_operation_xyz
x,y,z
-x,-y,z
-x,y,z
x,-y,z
1/2+x,1/2+y,1/2+z
1/2-x,1/2-y,1/2+z
1/2-x,1/2+y,1/2+z
1/2+x,1/2-y,1/2+z
loop_
_atom_site_type_symbol
_atom_site_label
_atom_site_fract_x
_atom_site_fract_y
_atom_site_fract_z
Si Si1 0.292212 0.627321 0.478820
Si Si2 0.209903 0.454618 0.616670
Si Si3 0.209922 0.666192 0.858001
Si Si4 0.793077 0.796738 0.125566
Si Si5 0.710205 0.929554 0.355958
Si Si6 0.790218 0.296197 0.085076
Si Si7 0.793337 0.045236 0.597841
Si Si8 0.291076 0.375034 0.231920
O O1 0.500000 0.632689 0.471266
O O2 0.262363 0.584904 0.545343
O O3 0.222553 0.667138 0.545910
O O4 0.224367 0.624569 0.355659
O O5 0.268421 0.500000 0.575616
O O6 0.268714 0.449155 0.741977
O O7 0.000000 0.454580 0.618263
O O8 0.264811 0.688906 0.748675
O O9 0.268605 0.618420 0.856541
O O10 0.000000 0.665629 0.860215
O O11 0.272215 0.688333 0.967340
O O12 0.723567 0.750167 0.108827
O O13 0.000000 0.794766 0.106348
O O14 0.500000 0.930753 0.355881
O O15 0.767466 0.949792 0.468588
O O16 0.745872 0.331420 0.172895
O O17 0.000000 0.294423 0.081476
O O18 0.723220 0.085853 0.660732
O O19 0.000000 0.044551 0.617441
O O20 0.722239 0.000000 0.632177
O O21 0.500000 0.379097 0.236010
#
# Coordination Sequence:
#
# PCOD9374241 Si02
#       8
#     8   8   8   8   8   8   8   8
#     4  10  22  39  58  81 111 149 189 231 277 329
#     4  10  21  37  57  83 114 146 184 231 279 330
#     4  10  20  36  61  86 112 147 184 226 279 333
#     4  10  22  38  57  83 115 147 185 232 278 327
#     4  10  19  35  58  84 113 146 182 224 278 334
#     4  10  22  39  58  84 116 148 185 232 279 328
#     4  10  21  36  55  82 114 146 184 231 278 328
#     4  10  22  39  59  82 111 149 190 231 277 330
#
# _framework density 21.069427000000001
#
# number of rings (size 3 to 8) (size 9 to 14) (size 15 to 20)
#    0.000    2.000    2.500    0.375    1.750    4.000 
#    0.000    1.250    0.000    0.000    0.000    0.000 
#    0.000    0.000    0.000    0.000    0.000    0.000 
#
# Total GULP energy -178743.463627 kJ/mol
# GULP energy per Si atom -5585.733238 kJ/mol
# Density = 2.102147 g / cm^3
# Si number density = 21.069427 Si / 1000 Ang^3
#
#
#
# Elastic Constant Matrix: (Units=GPa)
#
#
# Indices 1 2 3 4 5 6 
#
# 1 33.1810 5.1723 0.9732 0.0001 -0.0001 0.0000
# 2 5.1723 215.0554 99.9682 0.0001 -0.0003 -0.0001
# 3 0.9732 99.9682 163.8236 0.0003 -0.0008 -0.0002
# 4 0.0001 0.0001 0.0003 47.1950 0.0006 0.0002
# 5 -0.0001 -0.0003 -0.0008 0.0006 100.0755 -0.0003
# 6 0.0000 -0.0001 -0.0002 0.0002 -0.0003 19.4581
#
#
#
# Elastic Compliance Matrix: (Units=1/GPa)
#
#
# Indices 1 2 3 4 5 6 
#
# 1 0.030267 -0.000900 0.000369 0.000000 0.000000 0.000000
# 2 -0.000900 0.006518 -0.003972 0.000000 0.000000 0.000000
# 3 0.000369 -0.003972 0.008526 0.000000 0.000000 0.000000
# 4 0.000000 0.000000 0.000000 0.021189 0.000000 0.000000
# 5 0.000000 0.000000 0.000000 0.000000 0.009992 0.000000
# 6 0.000000 0.000000 0.000000 0.000000 0.000000 0.051393
#
#
# Mechanical properties :
#
#
# Convention : Reuss Voigt Hill
#
# Bulk Modulus (GPa) = 27.54373 69.36527 48.45450
# Shear Modulus (GPa) = 33.55895 53.74211 43.65053
#
# Velocity S-wave (km/s) = 3.99529 5.05594 4.55658
# Velocity P-wave (km/s) = 5.86382 8.19006 7.12255
#
# Compressibility (1/GPa) = 0.03630590
#
# Stress axis : x y z
#
# Youngs Moduli (GPa) = 33.03915 153.42105 117.29153
#
# Poissons Ratio (x) = 0.13801 -0.04329
# Poissons Ratio (y) = 0.02972 0.46589
# Poissons Ratio (z) = -0.01219 0.60940
#
# Static dielectric constant tensor:
#      x y z
#    x 1.788070 0.000000 0.000000 
#    y 0.000000 1.759100 0.000000 
#    z 0.000000 0.000000 1.719430 
# 
# From -- ./inp_files/11447.got.cif
#   From: 2010.05.17/outbox.cif.g08.bks.cpg/sg44_6_cif.got.tgz:11447.got - 2010.06.03 19:37:08.
