data_PCOD9374234
_publ_section_title
;
Structure prediction by ZEFSAII (Michael W. Deem and Ramdas Pophale) SiO2 
 PCOD9374234
Probable space group: I M M 2
;
_chemical_formula_sum "Si O2"
_cell_formula_units_Z 56
_cell_length_a 9.723119
_cell_length_b 20.179207
_cell_length_c 15.869429
_cell_angle_alpha 90.000000
_cell_angle_beta 90.000000
_cell_angle_gamma 90.000000
_cell_volume 3113.658635
_symmetry_space_group_name_H-M "I M M 2"
_symmetry_group_IT_number 44
_symmetry_cell_setting 'orthorhombic'
loop_
_space_group_symop_operation_xyz
x,y,z
-x,-y,z
-x,y,z
x,-y,z
1/2+x,1/2+y,1/2+z
1/2-x,1/2-y,1/2+z
1/2-x,1/2+y,1/2+z
1/2+x,1/2-y,1/2+z
loop_
_atom_site_type_symbol
_atom_site_label
_atom_site_fract_x
_atom_site_fract_y
_atom_site_fract_z
Si Si1 0.841321 0.107440 0.622400
Si Si2 0.840553 0.198417 0.207541
Si Si3 0.348401 0.076794 0.468967
Si Si4 0.845728 0.921782 0.324207
Si Si5 0.664295 0.785390 0.868034
Si Si6 0.837925 0.576733 0.286682
Si Si7 0.658733 0.241531 0.057318
O O1 0.747070 0.076799 0.550129
O O2 0.763359 0.092460 0.709247
O O3 0.842020 0.184318 0.594887
O O4 0.000000 0.084744 0.624077
O O5 0.838042 0.124023 0.243082
O O6 0.786970 0.245592 0.284501
O O7 0.752843 0.203287 0.123429
O O8 0.000000 0.217522 0.191306
O O9 0.500000 0.105977 0.483252
O O10 0.263448 0.105326 0.391149
O O11 0.365227 0.000000 0.446316
O O12 0.000000 0.913621 0.361034
O O13 0.827811 0.000000 0.307359
O O14 0.500000 0.772716 0.868288
O O15 0.686064 0.864006 0.853326
O O16 0.711690 0.762486 0.960768
O O17 0.817825 0.500000 0.313970
O O18 0.000000 0.582479 0.260718
O O19 0.500000 0.217768 0.057301
#
# Coordination Sequence:
#
# PCOD9374234 Si02
#       7
#     8   8   8   8   8   8   8
#     4  11  21  33  51  77 109 142 178 225 283 336
#     4  10  19  35  58  80 106 143 181 223 277 330
#     4  10  20  32  48  74 107 141 178 218 263 321
#     4   9  18  33  53  77 106 141 180 220 269 330
#     4   9  18  35  56  77 107 144 182 225 275 328
#     4  10  20  35  56  79 106 144 189 234 278 328
#     4  10  21  36  55  80 108 140 183 232 276 328
#
# _framework density 17.985272999999999
#
# number of rings (size 3 to 8) (size 9 to 14) (size 15 to 20)
#    0.000    2.143    1.429    2.143    0.000    6.286 
#    0.000    2.143    0.000    0.857    0.000    0.000 
#    0.000    0.000    0.000    0.000    0.000    0.000 
#
# Total GULP energy -155967.345281 kJ/mol
# GULP energy per Si atom -5570.262331 kJ/mol
# Density = 1.794434 g / cm^3
# Si number density = 17.985273 Si / 1000 Ang^3
#
#
#
# Elastic Constant Matrix: (Units=GPa)
#
#
# Indices 1 2 3 4 5 6 
#
# 1 85.9618 25.4652 38.7229 0.0000 0.0000 0.0000
# 2 25.4652 67.3894 20.6930 0.0000 0.0000 0.0000
# 3 38.7229 20.6930 85.8512 0.0000 0.0000 0.0000
# 4 0.0000 0.0000 0.0000 24.9968 0.0000 0.0000
# 5 0.0000 0.0000 0.0000 0.0000 24.6982 0.0000
# 6 0.0000 0.0000 0.0000 0.0000 0.0000 10.3626
#
#
#
# Elastic Compliance Matrix: (Units=1/GPa)
#
#
# Indices 1 2 3 4 5 6 
#
# 1 0.015546 -0.004019 -0.006043 0.000000 0.000000 0.000000
# 2 -0.004019 0.017064 -0.002300 0.000000 0.000000 0.000000
# 3 -0.006043 -0.002300 0.014928 0.000000 0.000000 0.000000
# 4 0.000000 0.000000 0.000000 0.040005 0.000000 0.000000
# 5 0.000000 0.000000 0.000000 0.000000 0.040489 0.000000
# 6 0.000000 0.000000 0.000000 0.000000 0.000000 0.096501
#
#
# Mechanical properties :
#
#
# Convention : Reuss Voigt Hill
#
# Bulk Modulus (GPa) = 43.83372 45.44050 44.63711
# Shear Modulus (GPa) = 19.46564 22.29959 20.88261
#
# Velocity S-wave (km/s) = 3.29342 3.52501 3.41118
# Velocity P-wave (km/s) = 6.23595 6.47208 6.35511
#
# Compressibility (1/GPa) = 0.02281349
#
# Stress axis : x y z
#
# Youngs Moduli (GPa) = 64.32571 58.60243 66.98677
#
# Poissons Ratio (x) = 0.23551 0.40482
# Poissons Ratio (y) = 0.25851 0.15409
# Poissons Ratio (z) = 0.38874 0.13481
#
# Static dielectric constant tensor:
#      x y z
#    x 1.653890 0.000000 0.000000 
#    y 0.000000 1.593410 0.000000 
#    z 0.000000 0.000000 1.596380 
# 
# From -- ./inp_files/16417.got.cif
#   From: 2010.05.17/outbox.cif.g08.bks.cpg/sg44_9_cif.got.tgz:16417.got - 2010.06.03 19:37:08.
