data_PCOD9374276
_publ_section_title
;
Structure prediction by ZEFSAII (Michael W. Deem and Ramdas Pophale) SiO2 
 PCOD9374276
Probable space group: I M M 2
;
_chemical_formula_sum "Si O2"
_cell_formula_units_Z 48
_cell_length_a 8.750928
_cell_length_b 18.536418
_cell_length_c 15.052913
_cell_angle_alpha 90.000000
_cell_angle_beta 90.000000
_cell_angle_gamma 90.000000
_cell_volume 2441.745953
_symmetry_space_group_name_H-M "I M M 2"
_symmetry_group_IT_number 44
_symmetry_cell_setting 'orthorhombic'
loop_
_space_group_symop_operation_xyz
x,y,z
-x,-y,z
-x,y,z
x,-y,z
1/2+x,1/2+y,1/2+z
1/2-x,1/2-y,1/2+z
1/2-x,1/2+y,1/2+z
1/2+x,1/2-y,1/2+z
loop_
_atom_site_type_symbol
_atom_site_label
_atom_site_fract_x
_atom_site_fract_y
_atom_site_fract_z
Si Si1 0.181419 0.500000 0.500000
Si Si2 0.818670 0.267766 0.917437
Si Si3 0.684127 0.843320 0.063378
Si Si4 0.176804 0.000000 0.811037
Si Si5 0.177950 0.237702 0.223759
Si Si6 0.679267 0.579815 0.966855
Si Si7 0.325118 0.623313 0.167386
O O1 0.238672 0.424128 0.539289
O O2 0.216918 0.500000 0.395711
O O3 0.000000 0.500000 0.514244
O O4 0.757605 0.251925 0.818709
O O5 0.000000 0.258956 0.921789
O O6 0.743784 0.214105 0.989975
O O7 0.771379 0.350769 0.934965
O O8 0.500000 0.840659 0.061987
O O9 0.744308 0.821091 0.160279
O O10 0.198907 0.930972 0.748359
O O11 0.000000 0.000000 0.841151
O O12 0.205683 0.312515 0.172047
O O13 0.000000 0.222441 0.235850
O O14 0.500000 0.588471 0.942105
O O15 0.730382 0.500000 0.937044
O O16 0.685525 0.582921 0.073943
O O17 0.500000 0.652451 0.173046
#
# Coordination Sequence:
#
# PCOD9374276 Si02
#       7
#     4   8   8   4   8   8   8
#     4  10  24  42  62  89 122 163 206 257 319 369
#     4  12  25  42  65  95 127 168 214 260 314 378
#     4  11  23  44  68  92 127 166 207 265 321 378
#     4  10  20  34  58  93 126 161 202 247 307 375
#     4  12  25  41  63  93 123 165 215 261 314 377
#     4  10  20  38  64  92 127 167 205 252 313 373
#     4  10  19  35  60  90 125 162 199 249 309 373
#
# _framework density 19.658064
#
# number of rings (size 3 to 8) (size 9 to 14) (size 15 to 20)
#    0.000    1.167    2.500    4.500    0.000    5.000 
#    1.500    0.000    0.000    0.000    0.000    0.000 
#    0.000    0.000    0.000    0.000    0.000    0.000 
#
# Total GULP energy -134109.366065 kJ/mol
# GULP energy per Si atom -5587.890253 kJ/mol
# Density = 1.961332 g / cm^3
# Si number density = 19.658064 Si / 1000 Ang^3
#
#
#
# Elastic Constant Matrix: (Units=GPa)
#
#
# Indices 1 2 3 4 5 6 
#
# 1 83.4410 32.3800 16.9823 0.0000 0.0000 0.0000
# 2 32.3800 99.9957 4.9424 0.0000 0.0000 0.0000
# 3 16.9823 4.9424 48.4878 0.0000 0.0000 0.0000
# 4 0.0000 0.0000 0.0000 22.3339 0.0000 0.0000
# 5 0.0000 0.0000 0.0000 0.0000 31.8635 0.0000
# 6 0.0000 0.0000 0.0000 0.0000 0.0000 6.2459
#
#
#
# Elastic Compliance Matrix: (Units=1/GPa)
#
#
# Indices 1 2 3 4 5 6 
#
# 1 0.014695 -0.004527 -0.004685 0.000000 0.000000 0.000000
# 2 -0.004527 0.011446 0.000419 0.000000 0.000000 0.000000
# 3 -0.004685 0.000419 0.022222 0.000000 0.000000 0.000000
# 4 0.000000 0.000000 0.000000 0.044775 0.000000 0.000000
# 5 0.000000 0.000000 0.000000 0.000000 0.031384 0.000000
# 6 0.000000 0.000000 0.000000 0.000000 0.000000 0.160105
#
#
# Mechanical properties :
#
#
# Convention : Reuss Voigt Hill
#
# Bulk Modulus (GPa) = 32.49301 37.83711 35.16506
# Shear Modulus (GPa) = 16.00145 23.92998 19.96571
#
# Velocity S-wave (km/s) = 2.85614 3.49278 3.19038
# Velocity P-wave (km/s) = 5.23849 5.96284 5.61236
#
# Compressibility (1/GPa) = 0.03077585
#
# Stress axis : x y z
#
# Youngs Moduli (GPa) = 68.05157 87.37006 45.00038
#
# Poissons Ratio (x) = 0.39551 0.21084
# Poissons Ratio (y) = 0.30805 -0.01885
# Poissons Ratio (z) = 0.31884 -0.03659
#
# Static dielectric constant tensor:
#      x y z
#    x 1.674350 0.000000 0.000000 
#    y 0.000000 1.713580 0.000000 
#    z 0.000000 0.000000 1.669640 
# 
# From -- ./inp_files/16135.got.cif
#   From: 2010.05.17/outbox.cif.g08.bks.cpg/sg44_9_cif.got.tgz:16135.got - 2010.06.03 19:37:08.
