data_PCOD9374548
_publ_section_title
;
Structure prediction by ZEFSAII (Michael W. Deem and Ramdas Pophale) SiO2 
 PCOD9374548
Probable space group: I M M 2
;
_chemical_formula_sum "Si O2"
_cell_formula_units_Z 56
_cell_length_a 16.699764
_cell_length_b 8.675172
_cell_length_c 23.686997
_cell_angle_alpha 90.000000
_cell_angle_beta 90.000000
_cell_angle_gamma 90.000000
_cell_volume 3431.614016
_symmetry_space_group_name_H-M "I M M 2"
_symmetry_group_IT_number 44
_symmetry_cell_setting 'orthorhombic'
loop_
_space_group_symop_operation_xyz
x,y,z
-x,-y,z
-x,y,z
x,-y,z
1/2+x,1/2+y,1/2+z
1/2-x,1/2-y,1/2+z
1/2-x,1/2+y,1/2+z
1/2+x,1/2-y,1/2+z
loop_
_atom_site_type_symbol
_atom_site_label
_atom_site_fract_x
_atom_site_fract_y
_atom_site_fract_z
Si Si1 0.654461 0.315123 0.767030
Si Si2 0.091613 0.315669 0.611979
Si Si3 0.743424 0.315624 0.171402
Si Si4 0.000000 0.186950 0.195424
Si Si5 0.593911 0.815049 0.883055
Si Si6 0.669678 0.814784 0.555657
Si Si7 0.000000 0.184551 0.065836
Si Si8 0.164716 0.185239 0.498696
O O1 0.655010 0.500000 0.770939
O O2 0.728634 0.257597 0.729954
O O3 0.577792 0.264230 0.729822
O O4 0.641685 0.245093 0.828600
O O5 0.102005 0.500000 0.613164
O O6 0.155423 0.237430 0.653201
O O7 0.112251 0.255125 0.549408
O O8 0.000000 0.278897 0.625959
O O9 0.747536 0.500000 0.174526
O O10 0.800833 0.265475 0.118676
O O11 0.000000 0.241179 0.131162
O O12 0.000000 0.000000 0.193804
O O13 0.500000 0.767067 0.878917
O O14 0.633223 0.748233 0.939619
O O15 0.595967 0.000000 0.884717
O O16 0.583822 0.744088 0.541041
O O17 0.742973 0.773903 0.513921
O O18 0.662798 0.000000 0.556310
O O19 0.000000 0.000000 0.065051
O O20 0.158612 0.000000 0.500188
#
# Coordination Sequence:
#
# PCOD9374548 Si02
#       8
#     8   8   8   4   8   8   4   8
#     4  11  20  34  52  74 105 139 174 210 249 299
#     4  10  20  34  53  77 104 135 171 213 259 306
#     4  10  20  33  50  75 105 137 171 209 256 305
#     4   9  18  29  45  73 105 135 169 204 241 290
#     4  11  23  36  51  75 105 138 174 211 253 303
#     4   9  19  33  48  71 102 134 167 206 253 302
#     4  11  19  29  49  77 103 133 169 204 247 298
#     4  10  21  36  53  74 101 136 175 214 257 304
#
# _framework density 16.318850999999999
#
# number of rings (size 3 to 8) (size 9 to 14) (size 15 to 20)
#    0.000    1.857    2.143    3.643    0.000    6.571 
#    0.000    0.000    0.000    0.000    1.857    0.000 
#    0.000    0.000    0.000    0.000    0.000    0.000 
#
# Total GULP energy -156276.422001 kJ/mol
# GULP energy per Si atom -5581.300786 kJ/mol
# Density = 1.628171 g / cm^3
# Si number density = 16.318851 Si / 1000 Ang^3
#
#
#
# Elastic Constant Matrix: (Units=GPa)
#
#
# Indices 1 2 3 4 5 6 
#
# 1 96.8386 26.8470 39.3499 0.0000 0.0000 0.0000
# 2 26.8470 38.9179 19.4558 0.0000 0.0000 0.0000
# 3 39.3499 19.4558 95.3617 0.0000 0.0000 0.0000
# 4 0.0000 0.0000 0.0000 27.4135 0.0000 0.0000
# 5 0.0000 0.0000 0.0000 0.0000 22.4344 0.0000
# 6 0.0000 0.0000 0.0000 0.0000 0.0000 27.1815
#
#
#
# Elastic Compliance Matrix: (Units=1/GPa)
#
#
# Indices 1 2 3 4 5 6 
#
# 1 0.014191 -0.007641 -0.004297 0.000000 0.000000 0.000000
# 2 -0.007641 0.032728 -0.003524 0.000000 0.000000 0.000000
# 3 -0.004297 -0.003524 0.012978 0.000000 0.000000 0.000000
# 4 0.000000 0.000000 0.000000 0.036478 0.000000 0.000000
# 5 0.000000 0.000000 0.000000 0.000000 0.044574 0.000000
# 6 0.000000 0.000000 0.000000 0.000000 0.000000 0.036790
#
#
# Mechanical properties :
#
#
# Convention : Reuss Voigt Hill
#
# Bulk Modulus (GPa) = 34.51485 44.71374 39.61429
# Shear Modulus (GPa) = 22.90196 25.10358 24.00277
#
# Velocity S-wave (km/s) = 3.75027 3.92639 3.83934
# Velocity P-wave (km/s) = 6.32051 6.92928 6.63189
#
# Compressibility (1/GPa) = 0.02897304
#
# Stress axis : x y z
#
# Youngs Moduli (GPa) = 70.46790 30.55473 77.05132
#
# Poissons Ratio (x) = 0.23348 0.33107
# Poissons Ratio (y) = 0.53847 0.27154
# Poissons Ratio (z) = 0.30278 0.10768
#
# Static dielectric constant tensor:
#      x y z
#    x 1.556120 0.000000 0.000000 
#    y 0.000000 1.546490 0.000000 
#    z 0.000000 0.000000 1.525370 
# 
# From -- ./inp_files/23115.got.cif
#   From: 2010.05.17/outbox.cif.g08.bks.cpg/sg44_12_cif.got.tgz:23115.got - 2010.06.03 19:37:08.
