data_PCOD9374121
_publ_section_title
;
Structure prediction by ZEFSAII (Michael W. Deem and Ramdas Pophale) SiO2 
 PCOD9374121
Probable space group: I M M 2
;
_chemical_formula_sum "Si O2"
_cell_formula_units_Z 64
_cell_length_a 7.967640
_cell_length_b 25.843011
_cell_length_c 15.411508
_cell_angle_alpha 90.000000
_cell_angle_beta 90.000000
_cell_angle_gamma 90.000000
_cell_volume 3173.349833
_symmetry_space_group_name_H-M "I M M 2"
_symmetry_group_IT_number 44
_symmetry_cell_setting 'orthorhombic'
loop_
_space_group_symop_operation_xyz
x,y,z
-x,-y,z
-x,y,z
x,-y,z
1/2+x,1/2+y,1/2+z
1/2-x,1/2-y,1/2+z
1/2-x,1/2+y,1/2+z
1/2+x,1/2-y,1/2+z
loop_
_atom_site_type_symbol
_atom_site_label
_atom_site_fract_x
_atom_site_fract_y
_atom_site_fract_z
Si Si1 0.701708 0.765619 0.595410
Si Si2 0.297054 0.940880 0.647316
Si Si3 0.299136 0.223657 0.795506
Si Si4 0.198722 0.442561 0.501597
Si Si5 0.698722 0.162687 0.312582
Si Si6 0.202654 0.348114 0.616534
Si Si7 0.293918 0.866657 0.494035
Si Si8 0.197338 0.890073 0.828640
O O1 0.500000 0.767074 0.595022
O O2 0.756790 0.777380 0.694353
O O3 0.754931 0.707312 0.574621
O O4 0.761199 0.811566 0.533882
O O5 0.500000 0.941607 0.645481
O O6 0.240255 0.911045 0.560729
O O7 0.246980 0.909605 0.733147
O O8 0.236933 0.000000 0.651527
O O9 0.500000 0.227538 0.797677
O O10 0.224916 0.276537 0.832894
O O11 0.246975 0.169962 0.838254
O O12 0.270305 0.500000 0.514942
O O13 0.267987 0.396819 0.562324
O O14 0.218677 0.424736 0.402468
O O15 0.000000 0.445347 0.519765
O O16 0.500000 0.153122 0.307159
O O17 0.768054 0.152600 0.216075
O O18 0.764220 0.130532 0.394578
O O19 0.000000 0.350719 0.619276
O O20 0.500000 0.866860 0.493332
O O21 0.000000 0.895130 0.839075
#
# Coordination Sequence:
#
# PCOD9374121 Si02
#       8
#     8   8   8   8   8   8   8   8
#     4   9  17  31  52  76 107 144 177 213 261 319
#     4  10  20  37  59  80 108 148 187 220 261 320
#     4  10  19  34  54  78 110 146 184 217 259 323
#     4  10  22  40  58  76 104 145 187 226 272 326
#     4   9  18  33  54  81 115 145 176 223 273 315
#     4   9  19  35  54  79 108 139 180 227 271 315
#     4   9  17  32  53  80 112 145 179 216 264 319
#     4  12  24  36  54  81 111 141 178 226 279 325
#
# _framework density 20.167961999999999
#
# number of rings (size 3 to 8) (size 9 to 14) (size 15 to 20)
#    0.000    2.250    1.250    1.875    1.750    3.000 
#    0.000    1.250    0.000    3.750    0.000    0.000 
#    0.000    3.000    0.000    0.000    0.000    0.000 
#
# Total GULP energy -178634.296865 kJ/mol
# GULP energy per Si atom -5582.321777 kJ/mol
# Density = 2.012206 g / cm^3
# Si number density = 20.167962 Si / 1000 Ang^3
#
#
#
# Elastic Constant Matrix: (Units=GPa)
#
#
# Indices 1 2 3 4 5 6 
#
# 1 12.0234 -11.7221 -7.0134 0.0000 0.0000 0.0000
# 2 -11.7221 86.6421 30.1859 0.0003 0.0000 0.0000
# 3 -7.0134 30.1859 59.6232 0.0000 0.0001 0.0000
# 4 0.0000 0.0003 0.0000 145.5171 -0.0001 0.0000
# 5 0.0000 0.0000 0.0001 -0.0001 4.9989 0.0000
# 6 0.0000 0.0000 0.0000 0.0000 0.0000 15.6226
#
#
#
# Elastic Compliance Matrix: (Units=1/GPa)
#
#
# Indices 1 2 3 4 5 6 
#
# 1 0.097440 0.011158 0.005813 0.000000 0.000000 0.000000
# 2 0.011158 0.015291 -0.006429 0.000000 0.000000 0.000000
# 3 0.005813 -0.006429 0.020711 0.000000 0.000000 0.000000
# 4 0.000000 0.000000 0.000000 0.006872 0.000000 0.000000
# 5 0.000000 0.000000 0.000000 0.000000 0.200043 0.000000
# 6 0.000000 0.000000 0.000000 0.000000 0.000000 0.064010
#
#
# Mechanical properties :
#
#
# Convention : Reuss Voigt Hill
#
# Bulk Modulus (GPa) = 6.47145 20.13217 13.30181
# Shear Modulus (GPa) = 11.49973 43.01694 27.25833
#
# Velocity S-wave (km/s) = 2.39047 4.62338 3.68035
# Velocity P-wave (km/s) = 3.29164 6.20522 4.96687
#
# Compressibility (1/GPa) = 0.15452497
#
# Stress axis : x y z
#
# Youngs Moduli (GPa) = 10.26271 65.39713 48.28428
#
# Poissons Ratio (x) = -0.72969 -0.28067
# Poissons Ratio (y) = -0.11451 0.31043
# Poissons Ratio (z) = -0.05966 0.42045
#
# Static dielectric constant tensor:
#      x y z
#    x 1.724000 0.000000 0.000000 
#    y 0.000000 1.700010 0.000000 
#    z 0.000000 0.000000 1.737030 
# 
# From -- ./inp_files/16822.got.cif
#   From: 2010.05.17/outbox.cif.g08.bks.cpg/sg44_9_cif.got.tgz:16822.got - 2010.06.03 19:37:08.
