data_PCOD9374935
_publ_section_title
;
Structure prediction by ZEFSAII (Michael W. Deem and Ramdas Pophale) SiO2 
 PCOD9374935
Probable space group: I M M 2
;
_chemical_formula_sum "Si O2"
_cell_formula_units_Z 64
_cell_length_a 29.170861
_cell_length_b 8.891510
_cell_length_c 12.800641
_cell_angle_alpha 90.000000
_cell_angle_beta 90.000000
_cell_angle_gamma 90.000000
_cell_volume 3320.140687
_symmetry_space_group_name_H-M "I M M 2"
_symmetry_group_IT_number 44
_symmetry_cell_setting 'orthorhombic'
loop_
_space_group_symop_operation_xyz
x,y,z
-x,-y,z
-x,y,z
x,-y,z
1/2+x,1/2+y,1/2+z
1/2-x,1/2-y,1/2+z
1/2-x,1/2+y,1/2+z
1/2+x,1/2-y,1/2+z
loop_
_atom_site_type_symbol
_atom_site_label
_atom_site_fract_x
_atom_site_fract_y
_atom_site_fract_z
Si Si1 0.048772 0.678467 0.103980
Si Si2 0.446533 0.680985 0.963391
Si Si3 0.409140 0.181010 0.177355
Si Si4 0.073717 0.175276 0.892413
Si Si5 0.696201 0.826602 0.223030
Si Si6 0.666321 0.825283 0.451473
Si Si7 0.208539 0.679376 0.175993
Si Si8 0.381808 0.182412 0.784794
O O1 0.052224 0.500000 0.085771
O O2 0.090152 0.721154 0.179241
O O3 0.000000 0.708374 0.158256
O O4 0.048713 0.759718 0.993380
O O5 0.500000 0.722228 0.941205
O O6 0.443742 0.500000 0.964382
O O7 0.431902 0.746536 0.075928
O O8 0.410262 0.745809 0.879356
O O9 0.433159 0.238275 0.283559
O O10 0.354815 0.224296 0.187444
O O11 0.411212 0.000000 0.173057
O O12 0.064930 0.000000 0.878158
O O13 0.125984 0.211212 0.925032
O O14 0.697675 0.821521 0.349183
O O15 0.740392 0.739955 0.184538
O O16 0.699818 0.000000 0.189995
O O17 0.689640 0.787660 0.560208
O O18 0.648710 0.000000 0.458025
O O19 0.209880 0.500000 0.185994
O O20 0.170611 0.731562 0.261512
O O21 0.382686 0.000000 0.796525
#
# Coordination Sequence:
#
# PCOD9374935 Si02
#       8
#     8   8   8   8   8   8   8   8
#     4  10  20  36  59  84 114 154 196 237 285 349
#     4  11  25  43  63  90 125 162 203 259 320 372
#     4  10  22  42  65  86 116 159 206 250 296 363
#     4  11  21  34  57  87 117 148 185 241 303 353
#     4   9  20  36  57  86 117 151 197 252 308 361
#     4   9  18  37  57  75 109 155 196 239 290 352
#     4  10  20  35  59  86 117 156 203 253 301 357
#     4  10  21  39  62  87 117 158 207 251 294 359
#
# _framework density 19.276291000000001
#
# number of rings (size 3 to 8) (size 9 to 14) (size 15 to 20)
#    0.000    2.000    1.250    3.000    0.000    7.250 
#    0.000    2.500    0.000    0.000    0.000    0.000 
#    0.000    0.000    0.000    0.000    0.000    0.000 
#
# Total GULP energy -178488.155222 kJ/mol
# GULP energy per Si atom -5577.754851 kJ/mol
# Density = 1.923242 g / cm^3
# Si number density = 19.276291 Si / 1000 Ang^3
#
#
#
# Elastic Constant Matrix: (Units=GPa)
#
#
# Indices 1 2 3 4 5 6 
#
# 1 50.3678 14.6882 14.0878 0.0000 0.0000 0.0000
# 2 14.6882 34.7167 24.0147 0.0000 0.0000 0.0000
# 3 14.0878 24.0147 84.3823 0.0000 0.0000 0.0000
# 4 0.0000 0.0000 0.0000 19.1682 0.0000 0.0000
# 5 0.0000 0.0000 0.0000 0.0000 20.2849 0.0000
# 6 0.0000 0.0000 0.0000 0.0000 0.0000-8881.0033
#
#
#
# Elastic Compliance Matrix: (Units=1/GPa)
#
#
# Indices 1 2 3 4 5 6 
#
# 1 0.022766 -0.008719 -0.001319 0.000000 0.000000 0.000000
# 2 -0.008719 0.039205 -0.009702 0.000000 0.000000 0.000000
# 3 -0.001319 -0.009702 0.014832 0.000000 0.000000 0.000000
# 4 0.000000 0.000000 0.000000 0.052170 0.000000 0.000000
# 5 0.000000 0.000000 0.000000 0.000000 0.049298 0.000000
# 6 0.000000 0.000000 0.000000 0.000000 0.000000 -0.000113
#
#
# Mechanical properties :
#
#
# Convention : Reuss Voigt Hill
#
# Bulk Modulus (GPa) = 26.79398 30.56094 28.67746
# Shear Modulus (GPa) = 21.73170 -1760.53163 -869.39997
#
# Velocity S-wave (km/s) = 3.36129 -30.25388 -21.26028
# Velocity P-wave (km/s) = 5.38465 34.70602 24.24369
#
# Compressibility (1/GPa) = 0.03732182
#
# Stress axis : x y z
#
# Youngs Moduli (GPa) = 43.92577 25.50716 67.42113
#
# Poissons Ratio (x) = 0.22240 0.08895
# Poissons Ratio (y) = 0.38300 0.65410
# Poissons Ratio (z) = 0.05795 0.24746
#
# Static dielectric constant tensor:
#      x y z
#    x 1.701330 0.000000 0.000000 
#    y 0.000000 1.655670 0.000000 
#    z 0.000000 0.000000 1.663960 
# 
# From -- ./inp_files/15103.got.cif
#   From: 2010.05.17/outbox.cif.g08.bks.cpg/sg44_8_cif.got.tgz:15103.got - 2010.06.03 19:37:08.
