data_PCOD9374149
_publ_section_title
;
Structure prediction by ZEFSAII (Michael W. Deem and Ramdas Pophale) SiO2 
 PCOD9374149
Probable space group: I M M 2
;
_chemical_formula_sum "Si O2"
_cell_formula_units_Z 56
_cell_length_a 7.543278
_cell_length_b 16.799164
_cell_length_c 19.487538
_cell_angle_alpha 90.000000
_cell_angle_beta 90.000000
_cell_angle_gamma 90.000000
_cell_volume 2469.475708
_symmetry_space_group_name_H-M "I M M 2"
_symmetry_group_IT_number 44
_symmetry_cell_setting 'orthorhombic'
loop_
_space_group_symop_operation_xyz
x,y,z
-x,-y,z
-x,y,z
x,-y,z
1/2+x,1/2+y,1/2+z
1/2-x,1/2-y,1/2+z
1/2-x,1/2+y,1/2+z
1/2+x,1/2-y,1/2+z
loop_
_atom_site_type_symbol
_atom_site_label
_atom_site_fract_x
_atom_site_fract_y
_atom_site_fract_z
Si Si1 0.791811 0.675188 0.326170
Si Si2 0.283010 0.091435 0.538758
Si Si3 0.785667 0.341105 0.897180
Si Si4 0.295527 0.500000 0.658330
Si Si5 0.285082 0.000000 0.317184
Si Si6 0.205578 0.322761 0.172676
Si Si7 0.296826 0.832893 0.095208
Si Si8 0.782493 0.590635 0.459935
O O1 0.777497 0.763119 0.358142
O O2 0.716297 0.672395 0.249146
O O3 0.719656 0.616947 0.384934
O O4 0.000000 0.656126 0.320712
O O5 0.500000 0.093478 0.539104
O O6 0.226485 0.147486 0.475815
O O7 0.218157 0.122726 0.612083
O O8 0.232474 0.000000 0.526076
O O9 0.730179 0.420541 0.856862
O O10 0.000000 0.338458 0.896970
O O11 0.500000 0.500000 0.636947
O O12 0.282456 0.500000 0.740113
O O13 0.209845 0.580543 0.630227
O O14 0.500000 0.000000 0.315200
O O15 0.209164 0.233156 0.142855
O O16 0.000000 0.346416 0.178687
O O17 0.500000 0.807288 0.088473
O O18 0.221361 0.848723 0.019168
O O19 0.730945 0.500000 0.475693
O O20 0.000000 0.592880 0.461400
#
# Coordination Sequence:
#
# PCOD9374149 Si02
#       8
#     8   8   8   4   4   8   8   8
#     4  10  21  35  53  80 112 143 177 223 278 328
#     4   9  17  33  57  83 111 144 186 232 275 325
#     4  10  19  34  56  79 106 143 186 226 265 320
#     4  12  24  36  54  82 115 144 176 228 283 328
#     4  10  20  34  54  80 109 148 188 218 263 328
#     4  10  21  35  54  84 117 146 181 231 283 326
#     4  11  21  37  59  80 107 148 190 225 270 331
#     4   9  18  35  58  80 104 139 186 230 267 318
#
# _framework density 22.676877999999999
#
# number of rings (size 3 to 8) (size 9 to 14) (size 15 to 20)
#    0.000    2.000    1.429    2.786    0.000    4.000 
#    0.000    3.571    0.000    1.286    0.000    2.000 
#    0.000    0.000    0.000    0.000    0.000    0.000 
#
# Total GULP energy -156492.919303 kJ/mol
# GULP energy per Si atom -5589.032832 kJ/mol
# Density = 2.262526 g / cm^3
# Si number density = 22.676878 Si / 1000 Ang^3
#
#
#
# Elastic Constant Matrix: (Units=GPa)
#
#
# Indices 1 2 3 4 5 6 
#
# 1 59.6825 -12.1505 3.5372 0.0000 0.0000 0.0000
# 2 -12.1505 30.1393 12.6047 0.0000 0.0000 0.0000
# 3 3.5372 12.6047 189.3002 0.0000 0.0000 0.0000
# 4 0.0000 0.0000 0.0000 24.4978 0.0000 0.0000
# 5 0.0000 0.0000 0.0000 0.0000 6.8014 0.0000
# 6 0.0000 0.0000 0.0000 0.0000 0.0000 5.7501
#
#
#
# Elastic Compliance Matrix: (Units=1/GPa)
#
#
# Indices 1 2 3 4 5 6 
#
# 1 0.018389 0.007774 -0.000861 0.000000 0.000000 0.000000
# 2 0.007774 0.037416 -0.002637 0.000000 0.000000 0.000000
# 3 -0.000861 -0.002637 0.005474 0.000000 0.000000 0.000000
# 4 0.000000 0.000000 0.000000 0.040820 0.000000 0.000000
# 5 0.000000 0.000000 0.000000 0.000000 0.147030 0.000000
# 6 0.000000 0.000000 0.000000 0.000000 0.000000 0.173909
#
#
# Mechanical properties :
#
#
# Convention : Reuss Voigt Hill
#
# Bulk Modulus (GPa) = 14.32041 31.90053 23.11047
# Shear Modulus (GPa) = 11.42170 25.75190 18.58680
#
# Velocity S-wave (km/s) = 2.24670 3.37352 2.86604
# Velocity P-wave (km/s) = 3.61371 5.41038 4.60060
#
# Compressibility (1/GPa) = 0.06983040
#
# Stress axis : x y z
#
# Youngs Moduli (GPa) = 54.38053 26.72671 182.67287
#
# Poissons Ratio (x) = -0.20776 0.15732
# Poissons Ratio (y) = -0.42273 0.48164
# Poissons Ratio (z) = 0.04683 0.07047
#
# Static dielectric constant tensor:
#      x y z
#    x 1.891350 0.000000 0.000000 
#    y 0.000000 1.788120 0.000000 
#    z 0.000000 0.000000 1.850920 
# 
# From -- ./inp_files/23137.got.cif
#   From: 2010.05.17/outbox.cif.g08.bks.cpg/sg44_12_cif.got.tgz:23137.got - 2010.06.03 19:37:08.
