data_PCOD9374981
_publ_section_title
;
Structure prediction by ZEFSAII (Michael W. Deem and Ramdas Pophale) SiO2 
 PCOD9374981
Probable space group: I M M 2
;
_chemical_formula_sum "Si O2"
_cell_formula_units_Z 64
_cell_length_a 27.527527
_cell_length_b 8.354521
_cell_length_c 13.463415
_cell_angle_alpha 90.000000
_cell_angle_beta 90.000000
_cell_angle_gamma 90.000000
_cell_volume 3096.306790
_symmetry_space_group_name_H-M "I M M 2"
_symmetry_group_IT_number 44
_symmetry_cell_setting 'orthorhombic'
loop_
_space_group_symop_operation_xyz
x,y,z
-x,-y,z
-x,y,z
x,-y,z
1/2+x,1/2+y,1/2+z
1/2-x,1/2-y,1/2+z
1/2-x,1/2+y,1/2+z
1/2+x,1/2-y,1/2+z
loop_
_atom_site_type_symbol
_atom_site_label
_atom_site_fract_x
_atom_site_fract_y
_atom_site_fract_z
Si Si1 0.443730 0.806433 0.935740
Si Si2 0.763792 0.306861 0.837114
Si Si3 0.373877 0.191633 0.333323
Si Si4 0.307297 0.690317 0.670556
Si Si5 0.053713 0.190788 0.002433
Si Si6 0.586828 0.188529 0.714438
Si Si7 0.770388 0.808585 0.543274
Si Si8 0.375136 0.691896 0.115362
O O1 0.500000 0.760577 0.952278
O O2 0.428141 0.751810 0.824361
O O3 0.440861 0.000000 0.935961
O O4 0.409414 0.745253 0.024410
O O5 0.767957 0.500000 0.829921
O O6 0.818517 0.245811 0.845563
O O7 0.736234 0.249067 0.740469
O O8 0.726653 0.276533 0.926258
O O9 0.406477 0.242842 0.426404
O O10 0.391207 0.249843 0.224479
O O11 0.373103 0.000000 0.331648
O O12 0.315027 0.500000 0.681352
O O13 0.356365 0.779057 0.696101
O O14 0.281704 0.730060 0.567452
O O15 0.062067 0.234844 0.117686
O O16 0.000000 0.248556 0.973015
O O17 0.055395 0.000000 0.994906
O O18 0.576167 0.000000 0.711914
O O19 0.819682 0.748586 0.594885
O O20 0.766411 0.000000 0.558627
O O21 0.373588 0.500000 0.115601
#
# Coordination Sequence:
#
# PCOD9374981 Si02
#       8
#     8   8   8   8   8   8   8   8
#     4  10  23  43  66  91 121 162 213 266 319 381
#     4   9  19  35  56  83 118 158 199 244 295 357
#     4  11  22  40  65  91 127 171 215 261 313 375
#     4  11  21  36  58  87 122 160 201 245 299 359
#     4  11  25  44  66  94 126 162 210 267 325 383
#     4  11  23  41  65  95 129 164 208 260 319 387
#     4  10  20  36  57  84 120 161 202 247 301 365
#     4  11  23  39  62  92 130 169 209 264 321 375
#
# _framework density 20.669785999999998
#
# number of rings (size 3 to 8) (size 9 to 14) (size 15 to 20)
#    0.000    1.500    1.250    3.750    0.000    5.750 
#    0.000    1.875    0.000    0.000    0.000    0.000 
#    0.000    0.000    0.000    0.000    0.000    0.000 
#
# Total GULP energy -178613.415700 kJ/mol
# GULP energy per Si atom -5581.669241 kJ/mol
# Density = 2.062274 g / cm^3
# Si number density = 20.669786 Si / 1000 Ang^3
#
#
#
# Elastic Constant Matrix: (Units=GPa)
#
#
# Indices 1 2 3 4 5 6 
#
# 1 91.2699 3.8699 24.7129 0.0000 0.0000 0.0000
# 2 3.8699 27.1004 12.1379 0.0000 0.0000 0.0000
# 3 24.7129 12.1379 99.3411 0.0000 0.0000 0.0000
# 4 0.0000 0.0000 0.0000 26.9092 0.0000 0.0000
# 5 0.0000 0.0000 0.0000 0.0000 25.1315 0.0000
# 6 0.0000 0.0000 0.0000 0.0000 0.0000 24.3424
#
#
#
# Elastic Compliance Matrix: (Units=1/GPa)
#
#
# Indices 1 2 3 4 5 6 
#
# 1 0.011752 -0.000390 -0.002876 0.000000 0.000000 0.000000
# 2 -0.000390 0.039049 -0.004674 0.000000 0.000000 0.000000
# 3 -0.002876 -0.004674 0.011353 0.000000 0.000000 0.000000
# 4 0.000000 0.000000 0.000000 0.037162 0.000000 0.000000
# 5 0.000000 0.000000 0.000000 0.000000 0.039791 0.000000
# 6 0.000000 0.000000 0.000000 0.000000 0.000000 0.041081
#
#
# Mechanical properties :
#
#
# Convention : Reuss Voigt Hill
#
# Bulk Modulus (GPa) = 21.61061 33.23920 27.42491
# Shear Modulus (GPa) = 23.64163 27.07601 25.35882
#
# Velocity S-wave (km/s) = 3.38565 3.62322 3.50645
# Velocity P-wave (km/s) = 5.07556 5.79824 5.44890
#
# Compressibility (1/GPa) = 0.04627356
#
# Stress axis : x y z
#
# Youngs Moduli (GPa) = 85.09394 25.60882 88.08374
#
# Poissons Ratio (x) = 0.00999 0.25331
# Poissons Ratio (y) = 0.03320 0.41171
# Poissons Ratio (z) = 0.24471 0.11970
#
# Static dielectric constant tensor:
#      x y z
#    x 1.769360 0.000000 0.000000 
#    y 0.000000 1.714320 0.000000 
#    z 0.000000 0.000000 1.737280 
# 
# From -- ./inp_files/15042.got.cif
#   From: 2010.05.17/outbox.cif.g08.bks.cpg/sg44_8_cif.got.tgz:15042.got - 2010.06.03 19:37:08.
