data_PCOD9374262
_publ_section_title
;
Structure prediction by ZEFSAII (Michael W. Deem and Ramdas Pophale) SiO2 
 PCOD9374262
Probable space group: I M M 2
;
_chemical_formula_sum "Si O2"
_cell_formula_units_Z 56
_cell_length_a 20.961991
_cell_length_b 8.292542
_cell_length_c 16.029505
_cell_angle_alpha 90.000000
_cell_angle_beta 90.000000
_cell_angle_gamma 90.000000
_cell_volume 2786.379853
_symmetry_space_group_name_H-M "I M M 2"
_symmetry_group_IT_number 44
_symmetry_cell_setting 'orthorhombic'
loop_
_space_group_symop_operation_xyz
x,y,z
-x,-y,z
-x,y,z
x,-y,z
1/2+x,1/2+y,1/2+z
1/2-x,1/2-y,1/2+z
1/2-x,1/2+y,1/2+z
1/2+x,1/2-y,1/2+z
loop_
_atom_site_type_symbol
_atom_site_label
_atom_site_fract_x
_atom_site_fract_y
_atom_site_fract_z
Si Si1 0.572889 0.181019 0.196870
Si Si2 0.289447 0.306267 0.575901
Si Si3 0.879821 0.818261 0.850340
Si Si4 0.426679 0.810347 0.522984
Si Si5 0.427556 0.803281 0.019857
Si Si6 0.195184 0.304863 0.424455
Si Si7 0.252462 0.807690 0.259628
O O1 0.500000 0.160757 0.171441
O O2 0.573488 0.301472 0.272728
O O3 0.602159 0.239912 0.110643
O O4 0.596450 0.000000 0.219843
O O5 0.283661 0.500000 0.575984
O O6 0.364715 0.263834 0.568938
O O7 0.249353 0.251023 0.493074
O O8 0.261732 0.247969 0.665507
O O9 0.816627 0.757117 0.803560
O O10 0.870417 0.000000 0.880583
O O11 0.907892 0.716535 0.925983
O O12 0.500000 0.748544 0.536782
O O13 0.427686 0.000000 0.541128
O O14 0.500000 0.744672 0.005475
O O15 0.429424 0.000000 0.019675
O O16 0.374354 0.752459 0.955156
O O17 0.198655 0.500000 0.423488
O O18 0.203044 0.243564 0.330664
O O19 0.255286 0.000000 0.255229
#
# Coordination Sequence:
#
# PCOD9374262 Si02
#       7
#     8   8   8   8   8   8   8
#     4   9  17  31  52  78 109 147 189 231 283 348
#     4  10  22  40  62  88 120 160 205 253 308 367
#     4  12  23  35  54  84 118 154 196 243 300 361
#     4  11  24  41  62  88 120 160 206 258 314 372
#     4   8  15  30  54  82 113 152 193 234 286 349
#     4  10  19  35  59  87 116 150 196 248 296 351
#     4  11  23  39  60  86 116 154 198 247 305 363
#
# _framework density 20.097763
#
# number of rings (size 3 to 8) (size 9 to 14) (size 15 to 20)
#    0.000    1.857    1.429    4.286    0.000    6.571 
#    0.000    2.857    0.000    3.857    0.000    0.000 
#    0.000    0.000    0.000    0.000    0.000    0.000 
#
# Total GULP energy -155950.333408 kJ/mol
# GULP energy per Si atom -5569.654765 kJ/mol
# Density = 2.005202 g / cm^3
# Si number density = 20.097763 Si / 1000 Ang^3
#
#
#
# Elastic Constant Matrix: (Units=GPa)
#
#
# Indices 1 2 3 4 5 6 
#
# 1 103.1980 1.0563 31.5338 0.0000 0.0000 0.0000
# 2 1.0563 20.9493 2.8902 0.0000 0.0000 0.0000
# 3 31.5338 2.8902 90.8146 0.0000 0.0000 0.0000
# 4 0.0000 0.0000 0.0000 25.8882 0.0000 0.0000
# 5 0.0000 0.0000 0.0000 0.0000 32.1066 0.0000
# 6 0.0000 0.0000 0.0000 0.0000 0.0000 20.1937
#
#
#
# Elastic Compliance Matrix: (Units=1/GPa)
#
#
# Indices 1 2 3 4 5 6 
#
# 1 0.010840 -0.000027 -0.003763 0.000000 0.000000 0.000000
# 2 -0.000027 0.047945 -0.001516 0.000000 0.000000 0.000000
# 3 -0.003763 -0.001516 0.012366 0.000000 0.000000 0.000000
# 4 0.000000 0.000000 0.000000 0.038628 0.000000 0.000000
# 5 0.000000 0.000000 0.000000 0.000000 0.031146 0.000000
# 6 0.000000 0.000000 0.000000 0.000000 0.000000 0.049521
#
#
# Mechanical properties :
#
#
# Convention : Reuss Voigt Hill
#
# Bulk Modulus (GPa) = 16.51863 31.76918 24.14391
# Shear Modulus (GPa) = 22.59995 27.60312 25.10154
#
# Velocity S-wave (km/s) = 3.35700 3.71002 3.53791
# Velocity P-wave (km/s) = 4.82316 5.84756 5.35989
#
# Compressibility (1/GPa) = 0.06053769
#
# Stress axis : x y z
#
# Youngs Moduli (GPa) = 92.24830 20.85724 80.86411
#
# Poissons Ratio (x) = 0.00057 0.30431
# Poissons Ratio (y) = 0.00253 0.12262
# Poissons Ratio (z) = 0.34715 0.03163
#
# Static dielectric constant tensor:
#      x y z
#    x 1.752110 0.000000 0.000000 
#    y 0.000000 1.739820 0.000000 
#    z 0.000000 0.000000 1.750140 
# 
# From -- ./inp_files/16506.got.cif
#   From: 2010.05.17/outbox.cif.g08.bks.cpg/sg44_9_cif.got.tgz:16506.got - 2010.06.03 19:37:08.
