data_PCOD9374495
_publ_section_title
;
Structure prediction by ZEFSAII (Michael W. Deem and Ramdas Pophale) SiO2 
 PCOD9374495
Probable space group: I M M 2
;
_chemical_formula_sum "Si O2"
_cell_formula_units_Z 48
_cell_length_a 7.592773
_cell_length_b 9.231421
_cell_length_c 36.403309
_cell_angle_alpha 90.000000
_cell_angle_beta 90.000000
_cell_angle_gamma 90.000000
_cell_volume 2551.583797
_symmetry_space_group_name_H-M "I M M 2"
_symmetry_group_IT_number 44
_symmetry_cell_setting 'orthorhombic'
loop_
_space_group_symop_operation_xyz
x,y,z
-x,-y,z
-x,y,z
x,-y,z
1/2+x,1/2+y,1/2+z
1/2-x,1/2-y,1/2+z
1/2-x,1/2+y,1/2+z
1/2+x,1/2-y,1/2+z
loop_
_atom_site_type_symbol
_atom_site_label
_atom_site_fract_x
_atom_site_fract_y
_atom_site_fract_z
Si Si1 0.211290 0.665481 0.375000
Si Si2 0.000000 0.326003 0.659644
Si Si3 0.705813 0.326795 0.600948
Si Si4 0.000000 0.175029 0.738038
Si Si5 0.297251 0.176828 0.795337
Si Si6 0.710773 0.334599 0.454725
Si Si7 0.284812 0.165877 0.526473
O O1 0.281361 0.500000 0.377066
O O2 0.267775 0.728204 0.335678
O O3 0.253491 0.732117 0.414507
O O4 0.000000 0.658010 0.372319
O O5 0.170228 0.287830 0.634989
O O6 0.000000 0.500000 0.664952
O O7 0.000000 0.247183 0.698442
O O8 0.500000 0.291713 0.607678
O O9 0.718631 0.500000 0.595433
O O10 0.764958 0.248993 0.563585
O O11 0.830529 0.217735 0.762404
O O12 0.000000 0.000000 0.734492
O O13 0.500000 0.221246 0.789525
O O14 0.296005 0.000000 0.797501
O O15 0.500000 0.342962 0.458263
O O16 0.780460 0.500000 0.455521
O O17 0.776919 0.245169 0.489504
O O18 0.500000 0.167387 0.525722
O O19 0.227635 0.000000 0.527407
#
# Coordination Sequence:
#
# PCOD9374495 Si02
#       7
#     8   4   8   4   8   8   8
#     4   8  14  25  41  64  94 125 160 203 245 282
#     4  10  22  38  54  78 106 128 160 206 252 302
#     4   9  18  35  57  75  95 128 166 204 246 291
#     4  10  20  32  52  78 102 130 164 204 250 302
#     4   8  15  28  46  71 102 131 162 205 251 290
#     4   9  16  25  42  68  94 123 163 207 243 283
#     4   9  17  30  48  70  98 131 164 199 245 297
#
# _framework density 18.811847
#
# number of rings (size 3 to 8) (size 9 to 14) (size 15 to 20)
#    0.000    3.167    0.000    1.500    1.167    3.333 
#    1.500    0.000    0.000    1.000    0.000    2.333 
#    0.000    0.000    0.000    0.000    0.000    0.000 
#
# Total GULP energy -133733.046918 kJ/mol
# GULP energy per Si atom -5572.210288 kJ/mol
# Density = 1.876903 g / cm^3
# Si number density = 18.811847 Si / 1000 Ang^3
#
#
#
# Elastic Constant Matrix: (Units=GPa)
#
#
# Indices 1 2 3 4 5 6 
#
# 1 75.8498 25.1603 70.8878 0.0000 0.0000 0.0000
# 2 25.1603 29.7668 62.7276 0.0000 0.0000 0.0000
# 3 70.8878 62.7276 235.8602 0.0000 0.0000 0.0000
# 4 0.0000 0.0000 0.0000 26.2242 0.0000 0.0000
# 5 0.0000 0.0000 0.0000 0.0000 42.7556 0.0000
# 6 0.0000 0.0000 0.0000 0.0000 0.0000 4.0035
#
#
#
# Elastic Compliance Matrix: (Units=1/GPa)
#
#
# Indices 1 2 3 4 5 6 
#
# 1 0.019416 -0.009360 -0.003346 0.000000 0.000000 0.000000
# 2 -0.009360 0.080940 -0.018713 0.000000 0.000000 0.000000
# 3 -0.003346 -0.018713 0.010222 0.000000 0.000000 0.000000
# 4 0.000000 0.000000 0.000000 0.038133 0.000000 0.000000
# 5 0.000000 0.000000 0.000000 0.000000 0.023389 0.000000
# 6 0.000000 0.000000 0.000000 0.000000 0.000000 0.249781
#
#
# Mechanical properties :
#
#
# Convention : Reuss Voigt Hill
#
# Bulk Modulus (GPa) = 20.94679 73.22537 47.08608
# Shear Modulus (GPa) = 9.98736 26.77673 18.38205
#
# Velocity S-wave (km/s) = 2.30664 3.77689 3.12934
# Velocity P-wave (km/s) = 4.27238 7.61771 6.17587
#
# Compressibility (1/GPa) = 0.04774002
#
# Stress axis : x y z
#
# Youngs Moduli (GPa) = 51.50380 12.35481 97.82542
#
# Poissons Ratio (x) = 0.11564 0.32734
# Poissons Ratio (y) = 0.48207 1.83062
# Poissons Ratio (z) = 0.17234 0.23120
#
# Static dielectric constant tensor:
#      x y z
#    x 1.682390 0.000000 0.000000 
#    y 0.000000 1.639160 0.000000 
#    z 0.000000 0.000000 1.651030 
# 
# From -- ./inp_files/26920.got.cif
#   From: 2010.05.17/outbox.cif.g08.bks.cpg/sg44_14_cif.got.tgz:26920.got - 2010.06.03 19:37:08.
