data_PCOD9374471
_publ_section_title
;
Structure prediction by ZEFSAII (Michael W. Deem and Ramdas Pophale) SiO2 
 PCOD9374471
Probable space group: I M M 2
;
_chemical_formula_sum "Si O2"
_cell_formula_units_Z 48
_cell_length_a 7.471648
_cell_length_b 9.479790
_cell_length_c 34.986836
_cell_angle_alpha 90.000000
_cell_angle_beta 90.000000
_cell_angle_gamma 90.000000
_cell_volume 2478.105488
_symmetry_space_group_name_H-M "I M M 2"
_symmetry_group_IT_number 44
_symmetry_cell_setting 'orthorhombic'
loop_
_space_group_symop_operation_xyz
x,y,z
-x,-y,z
-x,y,z
x,-y,z
1/2+x,1/2+y,1/2+z
1/2-x,1/2-y,1/2+z
1/2-x,1/2+y,1/2+z
1/2+x,1/2-y,1/2+z
loop_
_atom_site_type_symbol
_atom_site_label
_atom_site_fract_x
_atom_site_fract_y
_atom_site_fract_z
Si Si1 0.500000 0.169438 0.915680
Si Si2 0.212255 0.341930 0.205489
Si Si3 0.289084 0.165186 0.559080
Si Si4 0.285874 0.832921 0.366291
Si Si5 0.781327 0.161408 0.133798
Si Si6 0.714980 0.158273 0.278782
Si Si7 0.000000 0.166442 0.494508
O O1 0.671631 0.234552 0.893782
O O2 0.500000 0.000000 0.915222
O O3 0.500000 0.233180 0.958204
O O4 0.286481 0.500000 0.205283
O O5 0.282705 0.245713 0.171047
O O6 0.234788 0.267156 0.246169
O O7 0.000000 0.352603 0.198834
O O8 0.500000 0.189220 0.551874
O O9 0.230889 0.259601 0.594847
O O10 0.171282 0.191171 0.521687
O O11 0.266685 0.000000 0.569457
O O12 0.500000 0.810748 0.369869
O O13 0.230912 0.806291 0.322106
O O14 0.252342 0.000000 0.373798
O O15 0.000000 0.160815 0.134465
O O16 0.722012 0.000000 0.134494
O O17 0.500000 0.152237 0.279713
O O18 0.780665 0.000000 0.269417
O O19 0.000000 0.000000 0.483168
#
# Coordination Sequence:
#
# PCOD9374471 Si02
#       7
#     4   8   8   8   8   8   4
#     4  12  26  40  60  92 128 158 192 244 304 362
#     4  10  20  32  49  77 112 148 188 232 278 334
#     4   9  18  35  59  83 109 144 185 235 292 345
#     4   9  20  41  66  88 114 155 203 247 295 357
#     4   9  17  31  52  77 106 144 189 231 277 334
#     4   9  19  36  56  79 107 141 187 238 286 337
#     4  10  22  40  60  86 116 148 194 240 286 354
#
# _framework density 19.369636
#
# number of rings (size 3 to 8) (size 9 to 14) (size 15 to 20)
#    0.000    2.500    0.000    2.750    1.167    5.667 
#    1.500    3.333    0.000    0.000    0.000    0.000 
#    0.000    0.000    0.000    0.000    0.000    0.000 
#
# Total GULP energy -134012.230209 kJ/mol
# GULP energy per Si atom -5583.842925 kJ/mol
# Density = 1.932555 g / cm^3
# Si number density = 19.369636 Si / 1000 Ang^3
#
#
#
# Elastic Constant Matrix: (Units=GPa)
#
#
# Indices 1 2 3 4 5 6 
#
# 1 75.0606 52.6998 45.2451 0.0000 0.0000 0.0000
# 2 52.6998 173.4701 133.9355 0.0000 0.0000 0.0000
# 3 45.2451 133.9355 152.5634 0.0000 0.0000 0.0000
# 4 0.0000 0.0000 0.0000 30.5118 0.0000 0.0000
# 5 0.0000 0.0000 0.0000 0.0000 32.9680 0.0000
# 6 0.0000 0.0000 0.0000 0.0000 0.0000 10.4565
#
#
#
# Elastic Compliance Matrix: (Units=1/GPa)
#
#
# Indices 1 2 3 4 5 6 
#
# 1 0.017057 -0.003961 -0.001581 0.000000 0.000000 0.000000
# 2 -0.003961 0.018813 -0.015341 0.000000 0.000000 0.000000
# 3 -0.001581 -0.015341 0.020491 0.000000 0.000000 0.000000
# 4 0.000000 0.000000 0.000000 0.032774 0.000000 0.000000
# 5 0.000000 0.000000 0.000000 0.000000 0.030332 0.000000
# 6 0.000000 0.000000 0.000000 0.000000 0.000000 0.095635
#
#
# Mechanical properties :
#
#
# Convention : Reuss Voigt Hill
#
# Bulk Modulus (GPa) = 68.51833 96.09500 82.30667
# Shear Modulus (GPa) = 19.10341 26.06816 22.58578
#
# Velocity S-wave (km/s) = 3.14388 3.67253 3.41844
# Velocity P-wave (km/s) = 6.97349 8.22813 7.62665
#
# Compressibility (1/GPa) = 0.01459463
#
# Stress axis : x y z
#
# Youngs Moduli (GPa) = 58.62826 53.15520 48.80090
#
# Poissons Ratio (x) = 0.21056 0.07715
# Poissons Ratio (y) = 0.23223 0.74866
# Poissons Ratio (z) = 0.09269 0.81546
#
# Static dielectric constant tensor:
#      x y z
#    x 1.714960 0.000000 0.000000 
#    y 0.000000 1.665710 0.000000 
#    z 0.000000 0.000000 1.640930 
# 
# From -- ./inp_files/26936.got.cif
#   From: 2010.05.17/outbox.cif.g08.bks.cpg/sg44_14_cif.got.tgz:26936.got - 2010.06.03 19:37:08.
