data_PCOD9374696
_publ_section_title
;
Structure prediction by ZEFSAII (Michael W. Deem and Ramdas Pophale) SiO2 
 PCOD9374696
Probable space group: I M M 2
;
_chemical_formula_sum "Si O2"
_cell_formula_units_Z 64
_cell_length_a 15.458239
_cell_length_b 9.594276
_cell_length_c 21.066359
_cell_angle_alpha 90.000000
_cell_angle_beta 90.000000
_cell_angle_gamma 90.000000
_cell_volume 3124.364584
_symmetry_space_group_name_H-M "I M M 2"
_symmetry_group_IT_number 44
_symmetry_cell_setting 'orthorhombic'
loop_
_space_group_symop_operation_xyz
x,y,z
-x,-y,z
-x,y,z
x,-y,z
1/2+x,1/2+y,1/2+z
1/2-x,1/2-y,1/2+z
1/2-x,1/2+y,1/2+z
1/2+x,1/2-y,1/2+z
loop_
_atom_site_type_symbol
_atom_site_label
_atom_site_fract_x
_atom_site_fract_y
_atom_site_fract_z
Si Si1 0.852358 0.841892 0.511560
Si Si2 0.645008 0.157936 0.514082
Si Si3 0.395923 0.159880 0.371341
Si Si4 0.604402 0.841488 0.892195
Si Si5 0.604335 0.841725 0.748738
Si Si6 0.604242 0.658937 0.253024
Si Si7 0.350305 0.343449 0.629850
Si Si8 0.142863 0.658775 0.628891
O O1 0.748798 0.849558 0.520159
O O2 0.867561 0.768254 0.444474
O O3 0.888955 0.744740 0.567649
O O4 0.886145 0.000000 0.513947
O O5 0.625122 0.207087 0.442760
O O6 0.613450 0.256599 0.570348
O O7 0.610556 0.000000 0.520383
O O8 0.500000 0.154584 0.366019
O O9 0.363563 0.262185 0.316283
O O10 0.363564 0.000000 0.363542
O O11 0.500000 0.843724 0.891833
O O12 0.633018 0.807450 0.820438
O O13 0.633520 0.000000 0.907575
O O14 0.500000 0.841981 0.749168
O O15 0.633706 0.736812 0.695110
O O16 0.632827 0.000000 0.733943
O O17 0.500000 0.651194 0.257542
O O18 0.637074 0.500000 0.247395
O O19 0.624424 0.752619 0.191877
O O20 0.384871 0.500000 0.631626
O O21 0.246599 0.351076 0.622276
O O22 0.109205 0.500000 0.632367
#
# Coordination Sequence:
#
# PCOD9374696 Si02
#       8
#     8   8   8   8   8   8   8   8
#     4  10  20  34  53  77 105 135 169 213 260 303
#     4   9  19  35  53  75 105 139 174 211 252 304
#     4   9  18  34  55  77 103 137 174 209 249 302
#     4   9  19  36  55  75 101 134 172 211 252 305
#     4   9  19  36  56  77 104 140 178 212 251 306
#     4  10  21  36  54  78 106 134 169 215 262 306
#     4  10  21  35  53  79 107 135 172 218 262 303
#     4  10  21  37  55  75 103 139 176 212 254 309
#
# _framework density 20.484165000000001
#
# number of rings (size 3 to 8) (size 9 to 14) (size 15 to 20)
#    0.000    2.500    0.000    2.250    0.000    6.250 
#    0.000    6.250    0.000    0.000    0.000    0.000 
#    0.000    0.000    0.000    0.000    0.000    0.000 
#
# Total GULP energy -178649.195974 kJ/mol
# GULP energy per Si atom -5582.787374 kJ/mol
# Density = 2.043754 g / cm^3
# Si number density = 20.484165 Si / 1000 Ang^3
#
#
#
# Elastic Constant Matrix: (Units=GPa)
#
#
# Indices 1 2 3 4 5 6 
#
# 1 24.7549 8.4851 -1.9923 0.0000 0.0000 0.0000
# 2 8.4851 190.4585 141.3380 0.0000 0.0000 0.0000
# 3 -1.9923 141.3380 175.4527 0.0000 0.0000 0.0000
# 4 0.0000 0.0000 0.0000 21.1049 0.0000 0.0000
# 5 0.0000 0.0000 0.0000 0.0000 30.7246 0.0000
# 6 0.0000 0.0000 0.0000 0.0000 0.0000 15.8104
#
#
#
# Elastic Compliance Matrix: (Units=1/GPa)
#
#
# Indices 1 2 3 4 5 6 
#
# 1 0.042729 -0.005628 0.005019 0.000000 0.000000 0.000000
# 2 -0.005628 0.013796 -0.011177 0.000000 0.000000 0.000000
# 3 0.005019 -0.011177 0.014761 0.000000 0.000000 0.000000
# 4 0.000000 0.000000 0.000000 0.047382 0.000000 0.000000
# 5 0.000000 0.000000 0.000000 0.000000 0.032547 0.000000
# 6 0.000000 0.000000 0.000000 0.000000 0.000000 0.063249
#
#
# Mechanical properties :
#
#
# Convention : Reuss Voigt Hill
#
# Bulk Modulus (GPa) = 20.95884 76.25864 48.60874
# Shear Modulus (GPa) = 19.68956 29.71701 24.70329
#
# Velocity S-wave (km/s) = 3.10370 3.81298 3.47648
# Velocity P-wave (km/s) = 4.80603 7.52954 6.31632
#
# Compressibility (1/GPa) = 0.04771257
#
# Stress axis : x y z
#
# Youngs Moduli (GPa) = 23.40325 72.48560 67.74814
#
# Poissons Ratio (x) = 0.40797 -0.34004
# Poissons Ratio (y) = 0.13172 0.75724
# Poissons Ratio (z) = -0.11746 0.81019
#
# Static dielectric constant tensor:
#      x y z
#    x 1.755440 0.000000 0.000000 
#    y 0.000000 1.727190 0.000000 
#    z 0.000000 0.000000 1.697300 
# 
# From -- ./inp_files/20752.got.cif
#   From: 2010.05.17/outbox.cif.g08.bks.cpg/sg44_11_cif.got.tgz:20752.got - 2010.06.03 19:37:08.
