data_PCOD9374888
_publ_section_title
;
Structure prediction by ZEFSAII (Michael W. Deem and Ramdas Pophale) SiO2 
 PCOD9374888
Probable space group: I M M 2
;
_chemical_formula_sum "Si O2"
_cell_formula_units_Z 48
_cell_length_a 8.652596
_cell_length_b 16.804670
_cell_length_c 18.507261
_cell_angle_alpha 90.000000
_cell_angle_beta 90.000000
_cell_angle_gamma 90.000000
_cell_volume 2691.030156
_symmetry_space_group_name_H-M "I M M 2"
_symmetry_group_IT_number 44
_symmetry_cell_setting 'orthorhombic'
loop_
_space_group_symop_operation_xyz
x,y,z
-x,-y,z
-x,y,z
x,-y,z
1/2+x,1/2+y,1/2+z
1/2-x,1/2-y,1/2+z
1/2-x,1/2+y,1/2+z
1/2+x,1/2-y,1/2+z
loop_
_atom_site_type_symbol
_atom_site_label
_atom_site_fract_x
_atom_site_fract_y
_atom_site_fract_z
Si Si1 0.183956 0.180439 0.636520
Si Si2 0.183180 0.260084 0.907233
Si Si3 0.818456 0.350980 0.292502
Si Si4 0.684101 0.330029 0.557038
Si Si5 0.680921 0.500000 0.374767
Si Si6 0.682765 0.000000 0.033664
Si Si7 0.313897 0.591710 0.988653
O O1 0.270887 0.158496 0.709545
O O2 0.232504 0.268018 0.609717
O O3 0.224003 0.122017 0.569690
O O4 0.000000 0.176439 0.648239
O O5 0.273287 0.227151 0.838292
O O6 0.235386 0.346928 0.933695
O O7 0.000000 0.258093 0.893757
O O8 0.216282 0.201454 0.975379
O O9 0.723356 0.422722 0.328468
O O10 0.000000 0.367052 0.299369
O O11 0.500000 0.325955 0.567561
O O12 0.743889 0.419362 0.564639
O O13 0.500000 0.500000 0.393939
O O14 0.777491 0.500000 0.448433
O O15 0.500000 0.000000 0.044260
O O16 0.500000 0.598072 0.981168
O O17 0.269186 0.500000 0.978707
#
# Coordination Sequence:
#
# PCOD9374888 Si02
#       7
#     8   8   8   8   4   4   8
#     4  10  21  37  58  83 116 153 189 230 281 340
#     4  10  20  35  57  82 111 149 189 233 282 332
#     4  12  24  38  57  84 117 152 189 231 283 343
#     4  10  20  36  57  82 114 151 191 234 280 333
#     4  12  24  38  56  84 118 151 186 231 286 338
#     4  12  22  34  58  88 116 147 188 235 282 336
#     4   9  19  36  58  84 112 147 188 231 279 332
#
# _framework density 17.837036000000001
#
# number of rings (size 3 to 8) (size 9 to 14) (size 15 to 20)
#    0.000    1.500    1.667    4.500    1.167    2.333 
#    0.000    0.000    1.833    0.000    0.000    0.000 
#    0.000    0.000    0.000    0.000    0.000    0.000 
#
# Total GULP energy -134124.091506 kJ/mol
# GULP energy per Si atom -5588.503813 kJ/mol
# Density = 1.779644 g / cm^3
# Si number density = 17.837036 Si / 1000 Ang^3
#
#
#
# Elastic Constant Matrix: (Units=GPa)
#
#
# Indices 1 2 3 4 5 6 
#
# 1 44.1233 6.4305 -0.3323 0.0000 0.0000 0.0000
# 2 6.4305 108.1465 2.3781 0.0000 0.0000 0.0000
# 3 -0.3323 2.3781 35.5654 0.0000 0.0000 0.0000
# 4 0.0000 0.0000 0.0000 10.5726 0.0000 0.0000
# 5 0.0000 0.0000 0.0000 0.0000 28.4389 0.0000
# 6 0.0000 0.0000 0.0000 0.0000 0.0000 30.2409
#
#
#
# Elastic Compliance Matrix: (Units=1/GPa)
#
#
# Indices 1 2 3 4 5 6 
#
# 1 0.022865 -0.001366 0.000305 0.000000 0.000000 0.000000
# 2 -0.001366 0.009342 -0.000637 0.000000 0.000000 0.000000
# 3 0.000305 -0.000637 0.028163 0.000000 0.000000 0.000000
# 4 0.000000 0.000000 0.000000 0.094584 0.000000 0.000000
# 5 0.000000 0.000000 0.000000 0.000000 0.035163 0.000000
# 6 0.000000 0.000000 0.000000 0.000000 0.000000 0.033068
#
#
# Mechanical properties :
#
#
# Convention : Reuss Voigt Hill
#
# Bulk Modulus (GPa) = 17.55238 22.75422 20.15330
# Shear Modulus (GPa) = 20.36057 25.80774 23.08416
#
# Velocity S-wave (km/s) = 3.38224 3.80789 3.60136
# Velocity P-wave (km/s) = 5.01144 5.66726 5.34941
#
# Compressibility (1/GPa) = 0.05697232
#
# Stress axis : x y z
#
# Youngs Moduli (GPa) = 43.73463 107.04374 35.50801
#
# Poissons Ratio (x) = 0.14625 -0.01083
# Poissons Ratio (y) = 0.05975 0.02263
# Poissons Ratio (z) = -0.01334 0.06823
#
# Static dielectric constant tensor:
#      x y z
#    x 1.590520 0.000000 0.000000 
#    y 0.000000 1.602750 0.000000 
#    z 0.000000 0.000000 1.583940 
# 
# From -- ./inp_files/20330.got.cif
#   From: 2010.05.17/outbox.cif.g08.bks.cpg/sg44_11_cif.got.tgz:20330.got - 2010.06.03 19:37:08.
