data_PCOD9374428
_publ_section_title
;
Structure prediction by ZEFSAII (Michael W. Deem and Ramdas Pophale) SiO2 
 PCOD9374428
Probable space group: I M M 2
;
_chemical_formula_sum "Si O2"
_cell_formula_units_Z 64
_cell_length_a 14.429385
_cell_length_b 7.593865
_cell_length_c 24.968079
_cell_angle_alpha 90.000000
_cell_angle_beta 90.000000
_cell_angle_gamma 90.000000
_cell_volume 2735.872306
_symmetry_space_group_name_H-M "I M M 2"
_symmetry_group_IT_number 44
_symmetry_cell_setting 'orthorhombic'
loop_
_space_group_symop_operation_xyz
x,y,z
-x,-y,z
-x,y,z
x,-y,z
1/2+x,1/2+y,1/2+z
1/2-x,1/2-y,1/2+z
1/2-x,1/2+y,1/2+z
1/2+x,1/2-y,1/2+z
loop_
_atom_site_type_symbol
_atom_site_label
_atom_site_fract_x
_atom_site_fract_y
_atom_site_fract_z
Si Si1 0.801100 0.715275 0.467730
Si Si2 0.603534 0.699520 0.476216
Si Si3 0.247633 0.696858 0.655800
Si Si4 0.897944 0.715050 0.572868
Si Si5 0.107466 0.796412 0.741017
Si Si6 0.393167 0.211266 0.858529
Si Si7 0.889321 0.697575 0.857541
Si Si8 0.894274 0.788122 0.237437
O O1 0.793999 0.500000 0.466446
O O2 0.702248 0.781399 0.491313
O O3 0.879426 0.758385 0.511034
O O4 0.830496 0.774639 0.408201
O O5 0.500000 0.778212 0.485084
O O6 0.599431 0.500000 0.497106
O O7 0.619891 0.695583 0.411916
O O8 0.276535 0.500000 0.638054
O O9 0.188838 0.780144 0.607837
O O10 0.170677 0.685788 0.702329
O O11 0.332657 0.781555 0.688245
O O12 0.897380 0.500000 0.577576
O O13 0.000000 0.774941 0.590688
O O14 0.141738 0.780187 0.802117
O O15 0.000000 0.742225 0.737799
O O16 0.113586 0.000000 0.725087
O O17 0.500000 0.275690 0.863474
O O18 0.360988 0.251145 0.798060
O O19 0.395778 0.000000 0.863211
O O20 0.852554 0.500000 0.864175
O O21 0.000000 0.684125 0.851375
O O22 0.000000 0.724351 0.234345
O O23 0.893833 0.000000 0.232385
#
# Coordination Sequence:
#
# PCOD9374428 Si02
#       8
#     8   8   8   8   8   8   8   8
#     4   9  17  29  48  74 101 132 169 210 258 306
#     4   9  17  29  44  66 100 136 167 204 251 302
#     4  10  20  33  52  76 100 133 175 215 260 313
#     4   9  17  31  52  77 104 131 166 218 267 305
#     4  10  20  32  47  70 101 135 168 206 256 310
#     4   9  17  30  50  75  99 126 166 212 253 301
#     4   9  17  29  45  66  95 131 169 207 246 295
#     4   9  19  35  51  71 104 138 167 209 263 314
#
# _framework density 23.392903
#
# number of rings (size 3 to 8) (size 9 to 14) (size 15 to 20)
#    0.000    2.750    0.000    1.500    1.750    4.750 
#    0.000    0.625    0.000    5.250    0.000    1.750 
#    0.000    4.000    0.000    0.000    0.000    0.000 
#
# Total GULP energy -178417.986116 kJ/mol
# GULP energy per Si atom -5575.562066 kJ/mol
# Density = 2.333966 g / cm^3
# Si number density = 23.392903 Si / 1000 Ang^3
#
#
#
# Elastic Constant Matrix: (Units=GPa)
#
#
# Indices 1 2 3 4 5 6 
#
# 1 146.7951 2.3194 48.6739 0.0000 0.0000 0.0000
# 2 2.3194 56.5892 -2.6796 0.0000 0.0000 0.0000
# 3 48.6739 -2.6796 88.9760 0.0000 0.0000 0.0000
# 4 0.0000 0.0000 0.0000 8.6910 0.0000 0.0000
# 5 0.0000 0.0000 0.0000 0.0000 35.8810 0.0000
# 6 0.0000 0.0000 0.0000 0.0000 0.0000 9.1733
#
#
#
# Elastic Compliance Matrix: (Units=1/GPa)
#
#
# Indices 1 2 3 4 5 6 
#
# 1 0.008339 -0.000559 -0.004579 0.000000 0.000000 0.000000
# 2 -0.000559 0.017734 0.000840 0.000000 0.000000 0.000000
# 3 -0.004579 0.000840 0.013769 0.000000 0.000000 0.000000
# 4 0.000000 0.000000 0.000000 0.115061 0.000000 0.000000
# 5 0.000000 0.000000 0.000000 0.000000 0.027870 0.000000
# 6 0.000000 0.000000 0.000000 0.000000 0.000000 0.109012
#
#
# Mechanical properties :
#
#
# Convention : Reuss Voigt Hill
#
# Bulk Modulus (GPa) = 32.00331 43.22083 37.61207
# Shear Modulus (GPa) = 16.08772 27.01884 21.55328
#
# Velocity S-wave (km/s) = 2.62528 3.40222 3.03868
# Velocity P-wave (km/s) = 4.78539 5.82663 5.33149
#
# Compressibility (1/GPa) = 0.03124677
#
# Stress axis : x y z
#
# Youngs Moduli (GPa) = 119.91475 56.38924 72.62657
#
# Poissons Ratio (x) = 0.03150 0.33254
# Poissons Ratio (y) = 0.06699 -0.06098
# Poissons Ratio (z) = 0.54906 -0.04735
#
# Static dielectric constant tensor:
#      x y z
#    x 1.988190 0.000000 0.000000 
#    y 0.000000 1.930210 0.000000 
#    z 0.000000 0.000000 1.871460 
# 
# From -- ./inp_files/25185.got.cif
#   From: 2010.05.17/outbox.cif.g08.bks.cpg/sg44_13_cif.got.tgz:25185.got - 2010.06.03 19:37:08.
