data_PCOD9374851
_publ_section_title
;
Structure prediction by ZEFSAII (Michael W. Deem and Ramdas Pophale) SiO2 
 PCOD9374851
Probable space group: I M M 2
;
_chemical_formula_sum "Si O2"
_cell_formula_units_Z 64
_cell_length_a 25.362891
_cell_length_b 8.900931
_cell_length_c 15.368946
_cell_angle_alpha 90.000000
_cell_angle_beta 90.000000
_cell_angle_gamma 90.000000
_cell_volume 3469.590934
_symmetry_space_group_name_H-M "I M M 2"
_symmetry_group_IT_number 44
_symmetry_cell_setting 'orthorhombic'
loop_
_space_group_symop_operation_xyz
x,y,z
-x,-y,z
-x,y,z
x,-y,z
1/2+x,1/2+y,1/2+z
1/2-x,1/2-y,1/2+z
1/2-x,1/2+y,1/2+z
1/2+x,1/2-y,1/2+z
loop_
_atom_site_type_symbol
_atom_site_label
_atom_site_fract_x
_atom_site_fract_y
_atom_site_fract_z
Si Si1 0.281765 0.321118 0.340600
Si Si2 0.339063 0.178464 0.810653
Si Si3 0.387795 0.179067 0.303827
Si Si4 0.939991 0.680211 0.621727
Si Si5 0.266937 0.179810 0.529825
Si Si6 0.138958 0.179701 0.134106
Si Si7 0.938277 0.819166 0.976841
Si Si8 0.352401 0.320629 0.999140
O O1 0.288035 0.500000 0.352278
O O2 0.224052 0.293682 0.300801
O O3 0.330974 0.255039 0.288848
O O4 0.282239 0.240178 0.434265
O O5 0.368570 0.251402 0.729354
O O6 0.354420 0.248098 0.903380
O O7 0.346957 0.000000 0.812253
O O8 0.424898 0.212160 0.221736
O O9 0.412448 0.243235 0.392502
O O10 0.381496 0.000000 0.311367
O O11 0.935951 0.500000 0.610117
O O12 0.898660 0.759553 0.559064
O O13 0.000000 0.725979 0.604138
O O14 0.305914 0.257876 0.596956
O O15 0.205092 0.216809 0.539762
O O16 0.273271 0.000000 0.534196
O O17 0.140731 0.000000 0.139512
O O18 0.094379 0.222252 0.063414
O O19 0.000000 0.780249 0.983698
O O20 0.934049 0.000000 0.966922
O O21 0.354878 0.500000 0.990905
#
# Coordination Sequence:
#
# PCOD9374851 Si02
#       8
#     8   8   8   8   8   8   8   8
#     4  10  20  35  55  83 118 156 195 236 290 350
#     4  10  22  39  60  85 120 159 197 246 299 353
#     4  11  22  36  58  88 120 156 196 241 292 353
#     4  10  23  42  61  85 118 156 201 249 299 354
#     4  10  20  35  56  85 119 153 191 239 292 352
#     4  11  22  36  58  87 120 158 200 245 294 351
#     4  10  22  40  60  84 118 159 200 244 293 348
#     4  10  22  40  62  88 117 152 199 248 300 357
#
# _framework density 18.445979000000001
#
# number of rings (size 3 to 8) (size 9 to 14) (size 15 to 20)
#    0.000    1.750    1.250    2.625    1.750    5.500 
#    0.000    0.625    0.000    2.250    0.000    0.000 
#    0.000    0.000    0.000    0.000    0.000    0.000 
#
# Total GULP energy -178803.258445 kJ/mol
# GULP energy per Si atom -5587.601826 kJ/mol
# Density = 1.840400 g / cm^3
# Si number density = 18.445979 Si / 1000 Ang^3
#
#
#
# Elastic Constant Matrix: (Units=GPa)
#
#
# Indices 1 2 3 4 5 6 
#
# 1 114.0814 51.2473 61.0607 0.0000 0.0000 0.0000
# 2 51.2473 53.2341 45.1023 0.0000 0.0000 0.0000
# 3 61.0607 45.1023 96.6418 0.0000 0.0000 0.0000
# 4 0.0000 0.0000 0.0000 32.8865 0.0000 0.0000
# 5 0.0000 0.0000 0.0000 0.0000 27.2830 0.0000
# 6 0.0000 0.0000 0.0000 0.0000 0.0000 25.6239
#
#
#
# Elastic Compliance Matrix: (Units=1/GPa)
#
#
# Indices 1 2 3 4 5 6 
#
# 1 0.016829 -0.011896 -0.005081 0.000000 0.000000 0.000000
# 2 -0.011896 0.039479 -0.010909 0.000000 0.000000 0.000000
# 3 -0.005081 -0.010909 0.018649 0.000000 0.000000 0.000000
# 4 0.000000 0.000000 0.000000 0.030408 0.000000 0.000000
# 5 0.000000 0.000000 0.000000 0.000000 0.036653 0.000000
# 6 0.000000 0.000000 0.000000 0.000000 0.000000 0.039026
#
#
# Mechanical properties :
#
#
# Convention : Reuss Voigt Hill
#
# Bulk Modulus (GPa) = 52.12237 64.30865 58.21551
# Shear Modulus (GPa) = 20.55826 24.26182 22.41004
#
# Velocity S-wave (km/s) = 3.34205 3.63063 3.48932
# Velocity P-wave (km/s) = 6.57347 7.24667 6.91826
#
# Compressibility (1/GPa) = 0.01918562
#
# Stress axis : x y z
#
# Youngs Moduli (GPa) = 59.42004 25.32973 53.62235
#
# Poissons Ratio (x) = 0.30133 0.27247
# Poissons Ratio (y) = 0.70687 0.58494
# Poissons Ratio (z) = 0.30193 0.27631
#
# Static dielectric constant tensor:
#      x y z
#    x 1.629600 0.000000 0.000000 
#    y 0.000000 1.613070 0.000000 
#    z 0.000000 0.000000 1.622390 
# 
# From -- ./inp_files/16809.got.cif
#   From: 2010.05.17/outbox.cif.g08.bks.cpg/sg44_9_cif.got.tgz:16809.got - 2010.06.03 19:37:08.
