data_PCOD9374884
_publ_section_title
;
Structure prediction by ZEFSAII (Michael W. Deem and Ramdas Pophale) SiO2 
 PCOD9374884
Probable space group: I M M 2
;
_chemical_formula_sum "Si O2"
_cell_formula_units_Z 48
_cell_length_a 16.773074
_cell_length_b 8.867329
_cell_length_c 18.788201
_cell_angle_alpha 90.000000
_cell_angle_beta 90.000000
_cell_angle_gamma 90.000000
_cell_volume 2794.413578
_symmetry_space_group_name_H-M "I M M 2"
_symmetry_group_IT_number 44
_symmetry_cell_setting 'orthorhombic'
loop_
_space_group_symop_operation_xyz
x,y,z
-x,-y,z
-x,y,z
x,-y,z
1/2+x,1/2+y,1/2+z
1/2-x,1/2-y,1/2+z
1/2-x,1/2+y,1/2+z
1/2+x,1/2-y,1/2+z
loop_
_atom_site_type_symbol
_atom_site_label
_atom_site_fract_x
_atom_site_fract_y
_atom_site_fract_z
Si Si1 0.323038 0.180585 0.829270
Si Si2 0.343739 0.819228 0.663849
Si Si3 0.500000 0.177848 0.435039
Si Si4 0.500000 0.319765 0.591847
Si Si5 0.763727 0.679995 0.548074
Si Si6 0.161382 0.821063 0.906900
Si Si7 0.407651 0.319616 0.963248
O O1 0.337928 0.217626 0.747351
O O2 0.232078 0.214565 0.851942
O O3 0.379811 0.264003 0.885234
O O4 0.333829 0.000000 0.839238
O O5 0.422005 0.743546 0.630771
O O6 0.268990 0.758230 0.618771
O O7 0.348652 0.000000 0.656546
O O8 0.500000 0.261809 0.511023
O O9 0.580764 0.229739 0.396695
O O10 0.500000 0.000000 0.446483
O O11 0.500000 0.500000 0.592269
O O12 0.767957 0.500000 0.556701
O O13 0.699663 0.710757 0.484690
O O14 0.847225 0.743167 0.518986
O O15 0.144552 0.000000 0.903774
O O16 0.500000 0.279901 0.975251
O O17 0.399243 0.500000 0.967351
#
# Coordination Sequence:
#
# PCOD9374884 Si02
#       7
#     8   8   4   4   8   8   8
#     4   9  21  38  57  80 110 146 182 221 277 332
#     4  11  22  37  57  83 113 145 183 228 272 327
#     4  12  22  32  54  84 110 139 180 231 272 314
#     4  12  24  36  52  80 116 151 180 217 272 334
#     4  10  20  35  57  81 108 146 184 224 275 328
#     4   9  18  35  55  77 107 143 181 220 268 328
#     4  10  21  36  56  83 111 143 185 231 273 318
#
# _framework density 17.177128
#
# number of rings (size 3 to 8) (size 9 to 14) (size 15 to 20)
#    0.000    1.833    1.667    4.000    1.167    5.333 
#    0.000    0.000    1.833    0.000    0.000    0.000 
#    0.000    0.000    0.000    0.000    0.000    0.000 
#
# Total GULP energy -134026.096078 kJ/mol
# GULP energy per Si atom -5584.420670 kJ/mol
# Density = 1.713803 g / cm^3
# Si number density = 17.177128 Si / 1000 Ang^3
#
#
#
# Elastic Constant Matrix: (Units=GPa)
#
#
# Indices 1 2 3 4 5 6 
#
# 1 121.7909 48.8853 32.3286 0.0000 0.0000 0.0000
# 2 48.8853 60.6349 24.2668 0.0000 0.0000 0.0000
# 3 32.3286 24.2668 59.2104 0.0000 0.0000 0.0000
# 4 0.0000 0.0000 0.0000 24.9649 0.0000 0.0000
# 5 0.0000 0.0000 0.0000 0.0000 16.0255 0.0000
# 6 0.0000 0.0000 0.0000 0.0000 0.0000 32.2775
#
#
#
# Elastic Compliance Matrix: (Units=1/GPa)
#
#
# Indices 1 2 3 4 5 6 
#
# 1 0.012644 -0.008889 -0.003261 0.000000 0.000000 0.000000
# 2 -0.008889 0.025977 -0.005793 0.000000 0.000000 0.000000
# 3 -0.003261 -0.005793 0.021043 0.000000 0.000000 0.000000
# 4 0.000000 0.000000 0.000000 0.040056 0.000000 0.000000
# 5 0.000000 0.000000 0.000000 0.000000 0.062401 0.000000
# 6 0.000000 0.000000 0.000000 0.000000 0.000000 0.030981
#
#
# Mechanical properties :
#
#
# Convention : Reuss Voigt Hill
#
# Bulk Modulus (GPa) = 42.05338 50.28863 46.17101
# Shear Modulus (GPa) = 21.10455 23.73059 22.41757
#
# Velocity S-wave (km/s) = 3.50900 3.72092 3.61651
# Velocity P-wave (km/s) = 6.39944 6.91378 6.66158
#
# Compressibility (1/GPa) = 0.02377930
#
# Stress axis : x y z
#
# Youngs Moduli (GPa) = 79.08688 38.49505 47.52072
#
# Poissons Ratio (x) = 0.34219 0.15494
# Poissons Ratio (y) = 0.70302 0.27529
# Poissons Ratio (z) = 0.25787 0.22301
#
# Static dielectric constant tensor:
#      x y z
#    x 1.579470 0.000000 0.000000 
#    y 0.000000 1.570160 0.000000 
#    z 0.000000 0.000000 1.560810 
# 
# From -- ./inp_files/21728.got.cif
#   From: 2010.05.17/outbox.cif.g08.bks.cpg/sg44_11_cif.got.tgz:21728.got - 2010.06.03 19:37:08.
