data_PCOD9374466
_publ_section_title
;
Structure prediction by ZEFSAII (Michael W. Deem and Ramdas Pophale) SiO2 
 PCOD9374466
Probable space group: I M M 2
;
_chemical_formula_sum "Si O2"
_cell_formula_units_Z 64
_cell_length_a 8.577962
_cell_length_b 20.846044
_cell_length_c 15.931994
_cell_angle_alpha 90.000000
_cell_angle_beta 90.000000
_cell_angle_gamma 90.000000
_cell_volume 2848.904573
_symmetry_space_group_name_H-M "I M M 2"
_symmetry_group_IT_number 44
_symmetry_cell_setting 'orthorhombic'
loop_
_space_group_symop_operation_xyz
x,y,z
-x,-y,z
-x,y,z
x,-y,z
1/2+x,1/2+y,1/2+z
1/2-x,1/2-y,1/2+z
1/2-x,1/2+y,1/2+z
1/2+x,1/2-y,1/2+z
loop_
_atom_site_type_symbol
_atom_site_label
_atom_site_fract_x
_atom_site_fract_y
_atom_site_fract_z
Si Si1 0.684064 0.569022 0.502710
Si Si2 0.317692 0.805647 0.796138
Si Si3 0.687157 0.576033 0.030811
Si Si4 0.312012 0.073047 0.708884
Si Si5 0.675501 0.252532 0.131434
Si Si6 0.826255 0.397954 0.671549
Si Si7 0.679170 0.577700 0.849287
Si Si8 0.815118 0.786655 0.964175
O O1 0.500000 0.569037 0.485203
O O2 0.749197 0.500000 0.471651
O O3 0.712484 0.571236 0.603108
O O4 0.743998 0.638684 0.472174
O O5 0.500000 0.804138 0.816893
O O6 0.262128 0.879184 0.782507
O O7 0.288067 0.777232 0.704180
O O8 0.225357 0.769433 0.868811
O O9 0.500000 0.581991 0.031998
O O10 0.725267 0.500000 0.031989
O O11 0.741523 0.600896 0.939955
O O12 0.755682 0.599532 0.118505
O O13 0.500000 0.072601 0.707623
O O14 0.255831 0.000000 0.719674
O O15 0.500000 0.279260 0.140125
O O16 0.668656 0.176788 0.149649
O O17 0.734334 0.255930 0.035750
O O18 0.773353 0.405087 0.766948
O O19 0.000000 0.424465 0.660198
O O20 0.500000 0.600050 0.839948
O O21 0.675039 0.500000 0.853911
O O22 0.000000 0.785775 0.978999
#
# Coordination Sequence:
#
# PCOD9374466 Si02
#       8
#     8   8   8   8   8   8   8   8
#     4   9  18  33  54  81 115 154 191 229 282 346
#     4  11  23  40  63  90 118 154 196 238 290 352
#     4   8  15  29  48  71 102 141 184 228 273 326
#     4   9  19  36  57  83 116 150 183 227 285 344
#     4  10  22  42  62  82 113 153 197 247 296 344
#     4  10  20  32  49  76 108 144 189 241 290 338
#     4   9  17  29  46  71 106 147 189 233 283 341
#     4  10  21  39  63  89 119 154 194 245 295 345
#
# _framework density 22.464774999999999
#
# number of rings (size 3 to 8) (size 9 to 14) (size 15 to 20)
#    0.000    2.500    0.000    2.625    0.000    6.000 
#    2.250    1.250    0.000    0.000    0.000    0.000 
#    0.000    0.000    0.000    0.000    0.000    0.000 
#
# Total GULP energy -178586.437974 kJ/mol
# GULP energy per Si atom -5580.826187 kJ/mol
# Density = 2.241364 g / cm^3
# Si number density = 22.464775 Si / 1000 Ang^3
#
#
#
# Elastic Constant Matrix: (Units=GPa)
#
#
# Indices 1 2 3 4 5 6 
#
# 1 16.5358 -8.7824 -1.6186 0.0000 0.0000 0.0000
# 2 -8.7824 29.9161 -1.5850 0.0000 0.0000 0.0000
# 3 -1.6186 -1.5850 114.1110 0.0000 0.0000 0.0000
# 4 0.0000 0.0000 0.0000 23.1039 0.0000 0.0000
# 5 0.0000 0.0000 0.0000 0.0000 26.5822 0.0000
# 6 0.0000 0.0000 0.0000 0.0000 0.0000 14.7487
#
#
#
# Elastic Compliance Matrix: (Units=1/GPa)
#
#
# Indices 1 2 3 4 5 6 
#
# 1 0.071842 0.021160 0.001313 0.000000 0.000000 0.000000
# 2 0.021160 0.039684 0.000851 0.000000 0.000000 0.000000
# 3 0.001313 0.000851 0.008794 0.000000 0.000000 0.000000
# 4 0.000000 0.000000 0.000000 0.043283 0.000000 0.000000
# 5 0.000000 0.000000 0.000000 0.000000 0.037619 0.000000
# 6 0.000000 0.000000 0.000000 0.000000 0.000000 0.067803
#
#
# Mechanical properties :
#
#
# Convention : Reuss Voigt Hill
#
# Bulk Modulus (GPa) = 5.98917 15.17677 10.58297
# Shear Modulus (GPa) = 17.98357 24.39022 21.18689
#
# Velocity S-wave (km/s) = 2.83242 3.29859 3.07435
# Velocity P-wave (km/s) = 3.65631 4.61281 4.16213
#
# Compressibility (1/GPa) = 0.16696817
#
# Stress axis : x y z
#
# Youngs Moduli (GPa) = 13.91947 25.19917 113.71594
#
# Poissons Ratio (x) = -0.53322 -0.14930
# Poissons Ratio (y) = -0.29454 -0.09681
# Poissons Ratio (z) = -0.01828 -0.02145
#
# Static dielectric constant tensor:
#      x y z
#    x 1.769430 0.000000 0.000000 
#    y 0.000000 1.912730 0.000000 
#    z 0.000000 0.000000 1.817580 
# 
# From -- ./inp_files/16861.got.cif
#   From: 2010.05.17/outbox.cif.g08.bks.cpg/sg44_9_cif.got.tgz:16861.got - 2010.06.03 19:37:08.
