data_PCOD9374472
_publ_section_title
;
Structure prediction by ZEFSAII (Michael W. Deem and Ramdas Pophale) SiO2 
 PCOD9374472
Probable space group: I M M 2
;
_chemical_formula_sum "Si O2"
_cell_formula_units_Z 56
_cell_length_a 17.118430
_cell_length_b 8.637492
_cell_length_c 20.158213
_cell_angle_alpha 90.000000
_cell_angle_beta 90.000000
_cell_angle_gamma 90.000000
_cell_volume 2980.599466
_symmetry_space_group_name_H-M "I M M 2"
_symmetry_group_IT_number 44
_symmetry_cell_setting 'orthorhombic'
loop_
_space_group_symop_operation_xyz
x,y,z
-x,-y,z
-x,y,z
x,-y,z
1/2+x,1/2+y,1/2+z
1/2-x,1/2-y,1/2+z
1/2-x,1/2+y,1/2+z
1/2+x,1/2-y,1/2+z
loop_
_atom_site_type_symbol
_atom_site_label
_atom_site_fract_x
_atom_site_fract_y
_atom_site_fract_z
Si Si1 0.252596 0.316572 0.699420
Si Si2 0.236198 0.686717 0.433453
Si Si3 0.913504 0.184755 0.357977
Si Si4 0.000000 0.684402 0.750209
Si Si5 0.343860 0.315353 0.317372
Si Si6 0.837194 0.314105 0.566739
Si Si7 0.000000 0.816487 0.599319
Si Si8 0.414034 0.815378 0.709096
O O1 0.248372 0.500000 0.712454
O O2 0.223738 0.226770 0.764392
O O3 0.195636 0.276466 0.639182
O O4 0.339798 0.269847 0.678997
O O5 0.236983 0.500000 0.430708
O O6 0.157335 0.747063 0.399180
O O7 0.310211 0.737668 0.388996
O O8 0.224309 0.733690 0.509907
O O9 0.913037 0.263688 0.285937
O O10 0.000000 0.212514 0.387449
O O11 0.903821 0.000000 0.349910
O O12 0.077173 0.738470 0.789953
O O13 0.000000 0.500000 0.744600
O O14 0.000000 0.750300 0.674945
O O15 0.355484 0.500000 0.318624
O O16 0.845888 0.500000 0.562839
O O17 0.922193 0.239444 0.561957
O O18 0.000000 0.000000 0.603887
O O19 0.500000 0.773466 0.682327
O O20 0.404814 0.000000 0.704725
#
# Coordination Sequence:
#
# PCOD9374472 Si02
#       8
#     8   8   8   4   8   8   4   8
#     4  11  21  35  59  86 116 151 191 244 298 354
#     4  10  22  39  59  82 113 157 198 235 289 358
#     4  10  20  32  49  78 114 146 181 227 274 326
#     4  12  24  40  64  92 122 157 200 255 312 365
#     4  11  22  38  62  91 119 152 199 250 300 359
#     4  10  23  41  59  83 119 160 198 241 300 371
#     4  12  24  38  60  92 126 163 204 251 306 365
#     4  10  20  34  54  80 110 146 189 235 285 343
#
# _framework density 18.788167000000001
#
# number of rings (size 3 to 8) (size 9 to 14) (size 15 to 20)
#    0.000    1.429    2.857    3.000    1.000    3.429 
#    0.000    0.000    1.571    0.000    0.000    0.000 
#    0.000    0.000    0.000    0.000    0.000    0.000 
#
# Total GULP energy -156320.283642 kJ/mol
# GULP energy per Si atom -5582.867273 kJ/mol
# Density = 1.874540 g / cm^3
# Si number density = 18.788167 Si / 1000 Ang^3
#
#
#
# Elastic Constant Matrix: (Units=GPa)
#
#
# Indices 1 2 3 4 5 6 
#
# 1 82.3608 5.8087 15.6290 0.0000 0.0000 0.0000
# 2 5.8087 13.6418 19.0016 0.0000 0.0000 0.0000
# 3 15.6290 19.0016 66.8718 0.0000 0.0000 0.0000
# 4 0.0000 0.0000 0.0000 14.6642 0.0000 0.0000
# 5 0.0000 0.0000 0.0000 0.0000 28.6347 0.0000
# 6 0.0000 0.0000 0.0000 0.0000 0.0000 34.3531
#
#
#
# Elastic Compliance Matrix: (Units=1/GPa)
#
#
# Indices 1 2 3 4 5 6 
#
# 1 0.012742 -0.002114 -0.002377 0.000000 0.000000 0.000000
# 2 -0.002114 0.121674 -0.034080 0.000000 0.000000 0.000000
# 3 -0.002377 -0.034080 0.025193 0.000000 0.000000 0.000000
# 4 0.000000 0.000000 0.000000 0.068193 0.000000 0.000000
# 5 0.000000 0.000000 0.000000 0.000000 0.034923 0.000000
# 6 0.000000 0.000000 0.000000 0.000000 0.000000 0.029109
#
#
# Mechanical properties :
#
#
# Convention : Reuss Voigt Hill
#
# Bulk Modulus (GPa) = 12.12605 27.08369 19.60487
# Shear Modulus (GPa) = 12.61142 23.69273 18.15207
#
# Velocity S-wave (km/s) = 2.59365 3.55497 3.11166
# Velocity P-wave (km/s) = 3.92905 5.59437 4.83397
#
# Compressibility (1/GPa) = 0.08246709
#
# Stress axis : x y z
#
# Youngs Moduli (GPa) = 78.48109 8.21867 39.69314
#
# Poissons Ratio (x) = 0.01738 0.09436
# Poissons Ratio (y) = 0.16594 1.35272
# Poissons Ratio (z) = 0.18656 0.28009
#
# Static dielectric constant tensor:
#      x y z
#    x 1.663920 0.000000 0.000000 
#    y 0.000000 1.631390 0.000000 
#    z 0.000000 0.000000 1.666000 
# 
# From -- ./inp_files/24155.got.cif
#   From: 2010.05.17/outbox.cif.g08.bks.cpg/sg44_13_cif.got.tgz:24155.got - 2010.06.03 19:37:08.
