data_PCOD9374230
_publ_section_title
;
Structure prediction by ZEFSAII (Michael W. Deem and Ramdas Pophale) SiO2 
 PCOD9374230
Probable space group: I M M 2
;
_chemical_formula_sum "Si O2"
_cell_formula_units_Z 64
_cell_length_a 8.359442
_cell_length_b 25.623341
_cell_length_c 15.313646
_cell_angle_alpha 90.000000
_cell_angle_beta 90.000000
_cell_angle_gamma 90.000000
_cell_volume 3280.134474
_symmetry_space_group_name_H-M "I M M 2"
_symmetry_group_IT_number 44
_symmetry_cell_setting 'orthorhombic'
loop_
_space_group_symop_operation_xyz
x,y,z
-x,-y,z
-x,y,z
x,-y,z
1/2+x,1/2+y,1/2+z
1/2-x,1/2-y,1/2+z
1/2-x,1/2+y,1/2+z
1/2+x,1/2-y,1/2+z
loop_
_atom_site_type_symbol
_atom_site_label
_atom_site_fract_x
_atom_site_fract_y
_atom_site_fract_z
Si Si1 0.693211 0.763089 0.590930
Si Si2 0.306324 0.939906 0.648569
Si Si3 0.311749 0.228360 0.795473
Si Si4 0.189210 0.440665 0.488926
Si Si5 0.687929 0.160238 0.306257
Si Si6 0.310405 0.352374 0.612828
Si Si7 0.304236 0.865444 0.492586
Si Si8 0.187261 0.882359 0.822270
O O1 0.500000 0.761707 0.582549
O O2 0.726246 0.777020 0.691993
O O3 0.750101 0.703865 0.576776
O O4 0.752786 0.809639 0.530352
O O5 0.500000 0.939440 0.650067
O O6 0.254988 0.910016 0.560529
O O7 0.248896 0.908493 0.733200
O O8 0.252805 0.000000 0.651163
O O9 0.500000 0.239866 0.803361
O O10 0.214179 0.278402 0.827381
O O11 0.271359 0.173272 0.838029
O O12 0.236247 0.500000 0.510034
O O13 0.228063 0.400576 0.565989
O O14 0.276621 0.420451 0.402407
O O15 0.000000 0.439816 0.471245
O O16 0.500000 0.150792 0.291714
O O17 0.779006 0.148724 0.216579
O O18 0.743966 0.129204 0.391933
O O19 0.500000 0.355352 0.596717
O O20 0.500000 0.864288 0.492741
O O21 0.000000 0.872481 0.814929
#
# Coordination Sequence:
#
# PCOD9374230 Si02
#       8
#     8   8   8   8   8   8   8   8
#     4   8  15  30  54  81 112 150 188 231 284 338
#     4  10  20  37  61  85 113 155 203 245 287 340
#     4  10  19  35  57  82 117 157 198 242 291 347
#     4  11  25  44  64  86 113 149 197 250 300 355
#     4  10  20  34  57  87 122 159 199 246 298 353
#     4  10  21  38  61  86 117 156 196 244 300 355
#     4   9  17  32  55  84 118 155 196 242 287 338
#     4  12  24  37  57  87 121 156 192 234 296 367
#
# _framework density 19.511393000000002
#
# number of rings (size 3 to 8) (size 9 to 14) (size 15 to 20)
#    0.000    2.000    1.250    3.750    1.750    2.750 
#    0.000    1.875    0.000    2.250    0.000    0.000 
#    0.000    0.000    0.000    0.000    0.000    0.000 
#
# Total GULP energy -178706.114859 kJ/mol
# GULP energy per Si atom -5584.566089 kJ/mol
# Density = 1.946698 g / cm^3
# Si number density = 19.511393 Si / 1000 Ang^3
#
#
#
# Elastic Constant Matrix: (Units=GPa)
#
#
# Indices 1 2 3 4 5 6 
#
# 1 19.4249 -3.7414 -4.5619 0.0000 0.0000 0.0000
# 2 -3.7414 84.8338 28.4004 0.0000 0.0000 0.0000
# 3 -4.5619 28.4004 61.4087 0.0000 0.0000 0.0000
# 4 0.0000 0.0000 0.0000 29.1393 0.0000 0.0000
# 5 0.0000 0.0000 0.0000 0.0000 15.9182 0.0000
# 6 0.0000 0.0000 0.0000 0.0000 0.0000 22.5588
#
#
#
# Elastic Compliance Matrix: (Units=1/GPa)
#
#
# Indices 1 2 3 4 5 6 
#
# 1 0.052497 0.001195 0.003347 0.000000 0.000000 0.000000
# 2 0.001195 0.013974 -0.006374 0.000000 0.000000 0.000000
# 3 0.003347 -0.006374 0.019481 0.000000 0.000000 0.000000
# 4 0.000000 0.000000 0.000000 0.034318 0.000000 0.000000
# 5 0.000000 0.000000 0.000000 0.000000 0.062821 0.000000
# 6 0.000000 0.000000 0.000000 0.000000 0.000000 0.044329
#
#
# Mechanical properties :
#
#
# Convention : Reuss Voigt Hill
#
# Bulk Modulus (GPa) = 12.15251 22.87351 17.51301
# Shear Modulus (GPa) = 19.34137 23.22793 21.28465
#
# Velocity S-wave (km/s) = 3.15189 3.45408 3.30644
# Velocity P-wave (km/s) = 4.41450 5.25891 4.85510
#
# Compressibility (1/GPa) = 0.08228755
#
# Stress axis : x y z
#
# Youngs Moduli (GPa) = 19.04886 71.55961 51.33221
#
# Poissons Ratio (x) = -0.08548 -0.17183
# Poissons Ratio (y) = -0.02276 0.32720
# Poissons Ratio (z) = -0.06376 0.45613
#
# Static dielectric constant tensor:
#      x y z
#    x 1.667420 0.000000 0.000000 
#    y 0.000000 1.674580 0.000000 
#    z 0.000000 0.000000 1.680320 
# 
# From -- ./inp_files/16795.got.cif
#   From: 2010.05.17/outbox.cif.g08.bks.cpg/sg44_9_cif.got.tgz:16795.got - 2010.06.03 19:37:08.
