data_PCOD9374111
_publ_section_title
;
Structure prediction by ZEFSAII (Michael W. Deem and Ramdas Pophale) SiO2 
 PCOD9374111
Probable space group: I M M 2
;
_chemical_formula_sum "Si O2"
_cell_formula_units_Z 64
_cell_length_a 8.613791
_cell_length_b 29.437007
_cell_length_c 13.372918
_cell_angle_alpha 90.000000
_cell_angle_beta 90.000000
_cell_angle_gamma 90.000000
_cell_volume 3390.893602
_symmetry_space_group_name_H-M "I M M 2"
_symmetry_group_IT_number 44
_symmetry_cell_setting 'orthorhombic'
loop_
_space_group_symop_operation_xyz
x,y,z
-x,-y,z
-x,y,z
x,-y,z
1/2+x,1/2+y,1/2+z
1/2-x,1/2-y,1/2+z
1/2-x,1/2+y,1/2+z
1/2+x,1/2-y,1/2+z
loop_
_atom_site_type_symbol
_atom_site_label
_atom_site_fract_x
_atom_site_fract_y
_atom_site_fract_z
Si Si1 0.816015 0.879508 0.622080
Si Si2 0.686297 0.883586 0.190378
Si Si3 0.321929 0.220302 0.144334
Si Si4 0.687527 0.946774 0.010512
Si Si5 0.314443 0.856317 0.406831
Si Si6 0.687368 0.552841 0.295452
Si Si7 0.818548 0.755415 0.420515
Si Si8 0.821661 0.700355 0.248478
O O1 0.744442 0.876881 0.511534
O O2 0.760119 0.918526 0.698896
O O3 0.777242 0.833111 0.680920
O O4 0.000000 0.883904 0.610055
O O5 0.500000 0.891220 0.196873
O O6 0.709158 0.832925 0.147936
O O7 0.743670 0.881431 0.305543
O O8 0.745045 0.919098 0.107592
O O9 0.500000 0.226898 0.182647
O O10 0.198828 0.248963 0.205989
O O11 0.313584 0.241505 0.035209
O O12 0.500000 0.943581 0.007580
O O13 0.749273 0.930244 0.902560
O O14 0.729918 0.000000 0.019632
O O15 0.500000 0.858244 0.406569
O O16 0.266986 0.803042 0.402992
O O17 0.500000 0.555208 0.298758
O O18 0.733146 0.500000 0.285402
O O19 0.764323 0.710588 0.360121
O O20 0.000000 0.762174 0.394582
O O21 0.000000 0.684983 0.246497
#
# Coordination Sequence:
#
# PCOD9374111 Si02
#       8
#     8   8   8   8   8   8   8   8
#     4  11  23  38  56  79 109 147 184 225 278 327
#     4   9  19  34  54  80 111 145 179 219 272 326
#     4  10  19  34  52  71 103 148 184 218 268 321
#     4   9  18  35  61  88 112 140 175 219 274 332
#     4  11  21  35  55  78 107 147 189 228 268 317
#     4   9  20  40  62  83 109 140 176 222 275 328
#     4  10  21  34  50  73 106 146 182 223 271 318
#     4  11  22  34  51  79 109 142 184 227 266 318
#
# _framework density 18.874082000000001
#
# number of rings (size 3 to 8) (size 9 to 14) (size 15 to 20)
#    0.000    2.000    2.500    1.125    1.750    1.500 
#    0.000    2.500    0.000    0.750    0.000    0.000 
#    0.000    0.000    0.000    0.000    0.000    0.000 
#
# Total GULP energy -178364.190618 kJ/mol
# GULP energy per Si atom -5573.880957 kJ/mol
# Density = 1.883112 g / cm^3
# Si number density = 18.874082 Si / 1000 Ang^3
#
#
#
# Elastic Constant Matrix: (Units=GPa)
#
#
# Indices 1 2 3 4 5 6 
#
# 1 17.2867 13.3717 29.0622 0.0000 0.0000 0.0000
# 2 13.3717 65.1234 61.1152 0.0000 0.0000 0.0000
# 3 29.0622 61.1152 145.6698 -0.0001 0.0000 0.0000
# 4 0.0000 0.0000 -0.0001 36.9808 0.0000 0.0000
# 5 0.0000 0.0000 0.0000 0.0000 19.2023 0.0000
# 6 0.0000 0.0000 0.0000 0.0000 0.0000 11.8575
#
#
#
# Elastic Compliance Matrix: (Units=1/GPa)
#
#
# Indices 1 2 3 4 5 6 
#
# 1 0.087310 -0.002607 -0.016325 0.000000 0.000000 0.000000
# 2 -0.002607 0.025405 -0.010139 0.000000 0.000000 0.000000
# 3 -0.016325 -0.010139 0.014376 0.000000 0.000000 0.000000
# 4 0.000000 0.000000 0.000000 0.027041 0.000000 0.000000
# 5 0.000000 0.000000 0.000000 0.000000 0.052077 0.000000
# 6 0.000000 0.000000 0.000000 0.000000 0.000000 0.084335
#
#
# Mechanical properties :
#
#
# Convention : Reuss Voigt Hill
#
# Bulk Modulus (GPa) = 14.50334 48.35313 31.42824
# Shear Modulus (GPa) = 13.45284 21.91018 17.68151
#
# Velocity S-wave (km/s) = 2.67267 3.41084 3.06406
# Velocity P-wave (km/s) = 4.15032 6.41764 5.40423
#
# Compressibility (1/GPa) = 0.06894962
#
# Stress axis : x y z
#
# Youngs Moduli (GPa) = 11.45342 39.36185 69.56267
#
# Poissons Ratio (x) = 0.10260 1.13564
# Poissons Ratio (y) = 0.02985 0.70527
# Poissons Ratio (z) = 0.18698 0.39908
#
# Static dielectric constant tensor:
#      x y z
#    x 1.662740 0.000000 0.000000 
#    y 0.000000 1.648100 0.000000 
#    z 0.000000 0.000000 1.731140 
# 
# From -- ./inp_files/11534.got.cif
#   From: 2010.05.17/outbox.cif.g08.bks.cpg/sg44_6_cif.got.tgz:11534.got - 2010.06.03 19:37:08.
