data_PCOD9374256
_publ_section_title
;
Structure prediction by ZEFSAII (Michael W. Deem and Ramdas Pophale) SiO2 
 PCOD9374256
Probable space group: I M M 2
;
_chemical_formula_sum "Si O2"
_cell_formula_units_Z 48
_cell_length_a 16.079767
_cell_length_b 16.543233
_cell_length_c 8.826124
_cell_angle_alpha 90.000000
_cell_angle_beta 90.000000
_cell_angle_gamma 90.000000
_cell_volume 2347.849002
_symmetry_space_group_name_H-M "I M M 2"
_symmetry_group_IT_number 44
_symmetry_cell_setting 'orthorhombic'
loop_
_space_group_symop_operation_xyz
x,y,z
-x,-y,z
-x,y,z
x,-y,z
1/2+x,1/2+y,1/2+z
1/2-x,1/2-y,1/2+z
1/2-x,1/2+y,1/2+z
1/2+x,1/2-y,1/2+z
loop_
_atom_site_type_symbol
_atom_site_label
_atom_site_fract_x
_atom_site_fract_y
_atom_site_fract_z
Si Si1 0.500000 0.812612 0.154280
Si Si2 0.500000 0.095133 0.466211
Si Si3 0.181583 0.091870 0.135477
Si Si4 0.678708 0.380424 0.992254
Si Si5 0.500000 0.632615 0.037799
Si Si6 0.168547 0.686517 0.485749
Si Si7 0.842660 0.409020 0.181239
Si Si8 0.000000 0.901789 0.191293
O O1 0.500000 0.846335 0.323015
O O2 0.500000 0.715496 0.132183
O O3 0.415252 0.840122 0.072415
O O4 0.581474 0.108455 0.568173
O O5 0.500000 0.000000 0.418970
O O6 0.188125 0.092584 0.318348
O O7 0.250158 0.148712 0.062995
O O8 0.085687 0.116529 0.106118
O O9 0.194119 0.000000 0.081464
O O10 0.589618 0.408010 0.059446
O O11 0.674832 0.283030 0.990747
O O12 0.756865 0.406956 0.089285
O O13 0.500000 0.644383 0.852968
O O14 0.161748 0.654897 0.315381
O O15 0.855419 0.500000 0.242952
O O16 0.000000 0.000000 0.222448
#
# Coordination Sequence:
#
# PCOD9374256 Si02
#       8
#     4   4   8   8   4   8   8   4
#     4  10  21  37  59  83 111 147 190 234 279 336
#     4  10  23  40  59  82 112 150 191 230 281 343
#     4  10  19  35  59  85 110 146 192 235 278 335
#     4  10  20  37  58  82 114 151 188 230 281 342
#     4   8  18  35  56  82 111 141 184 232 276 323
#     4  11  22  37  58  86 116 148 188 238 285 329
#     4  11  23  39  57  83 117 152 188 234 286 335
#     4   8  16  32  58  87 116 148 185 228 280 338
#
# _framework density 20.444244000000001
#
# number of rings (size 3 to 8) (size 9 to 14) (size 15 to 20)
#    0.000    2.000    0.000    3.500    0.000    4.667 
#    0.000    3.333    0.000    0.000    0.000    0.000 
#    0.000    0.000    0.000    0.000    0.000    0.000 
#
# Total GULP energy -134072.993710 kJ/mol
# GULP energy per Si atom -5586.374738 kJ/mol
# Density = 2.039771 g / cm^3
# Si number density = 20.444244 Si / 1000 Ang^3
#
#
#
# Elastic Constant Matrix: (Units=GPa)
#
#
# Indices 1 2 3 4 5 6 
#
# 1 182.1929 52.5798 45.2977 0.0000 0.0000 0.0000
# 2 52.5798 98.6701 39.6370 0.0000 0.0000 0.0000
# 3 45.2977 39.6370 58.4635 0.0000 0.0000 0.0000
# 4 0.0000 0.0000 0.0000 708.9114 0.0000 0.0000
# 5 0.0000 0.0000 0.0000 0.0000 27.8256 0.0000
# 6 0.0000 0.0000 0.0000 0.0000 0.0000 -6.7789
#
#
#
# Elastic Compliance Matrix: (Units=1/GPa)
#
#
# Indices 1 2 3 4 5 6 
#
# 1 0.007121 -0.002169 -0.004047 0.000000 0.000000 0.000000
# 2 -0.002169 0.014589 -0.008210 0.000000 0.000000 0.000000
# 3 -0.004047 -0.008210 0.025807 0.000000 0.000000 0.000000
# 4 0.000000 0.000000 0.000000 0.001411 0.000000 0.000000
# 5 0.000000 0.000000 0.000000 0.000000 0.035938 0.000000
# 6 0.000000 0.000000 0.000000 0.000000 0.000000 -0.147517
#
#
# Mechanical properties :
#
#
# Convention : Reuss Voigt Hill
#
# Bulk Modulus (GPa) = 53.57889 68.26172 60.92031
# Shear Modulus (GPa) = -181.29773 159.44576 -10.92598
#
# Velocity S-wave (km/s) = -9.42717 8.84081 -2.31428
# Velocity P-wave (km/s) = 9.60371 11.73349 4.76674
#
# Compressibility (1/GPa) = 0.01866407
#
# Stress axis : x y z
#
# Youngs Moduli (GPa) = 140.43493 68.54574 38.74979
#
# Poissons Ratio (x) = 0.14867 0.15681
# Poissons Ratio (y) = 0.30459 0.31815
# Poissons Ratio (z) = 0.56830 0.56279
#
# Static dielectric constant tensor:
#      x y z
#    x 1.740540 0.000000 0.000000 
#    y 0.000000 1.668500 0.000000 
#    z 0.000000 0.000000 1.676460 
# 
# From -- ./inp_files/7172.got.cif
#   From: 2010.05.17/outbox.cif.g08.bks.cpg/sg44_4_cif.got.tgz:7172.got - 2010.06.03 19:37:08.
