data_PCOD9374685
_publ_section_title
;
Structure prediction by ZEFSAII (Michael W. Deem and Ramdas Pophale) SiO2 
 PCOD9374685
Probable space group: I M M 2
;
_chemical_formula_sum "Si O2"
_cell_formula_units_Z 64
_cell_length_a 8.793750
_cell_length_b 15.067689
_cell_length_c 25.505184
_cell_angle_alpha 90.000000
_cell_angle_beta 90.000000
_cell_angle_gamma 90.000000
_cell_volume 3379.474886
_symmetry_space_group_name_H-M "I M M 2"
_symmetry_group_IT_number 44
_symmetry_cell_setting 'orthorhombic'
loop_
_space_group_symop_operation_xyz
x,y,z
-x,-y,z
-x,y,z
x,-y,z
1/2+x,1/2+y,1/2+z
1/2-x,1/2-y,1/2+z
1/2-x,1/2+y,1/2+z
1/2+x,1/2-y,1/2+z
loop_
_atom_site_type_symbol
_atom_site_label
_atom_site_fract_x
_atom_site_fract_y
_atom_site_fract_z
Si Si1 0.675034 0.391877 0.449980
Si Si2 0.314440 0.758757 0.754746
Si Si3 0.318655 0.604637 0.049584
Si Si4 0.315861 0.764759 0.634950
Si Si5 0.183350 0.102342 0.329376
Si Si6 0.685491 0.398589 0.565016
Si Si7 0.682845 0.102081 0.841448
Si Si8 0.824701 0.392003 0.939590
O O1 0.500000 0.363346 0.445450
O O2 0.676417 0.500000 0.451069
O O3 0.736485 0.366456 0.507240
O O4 0.763249 0.364166 0.398166
O O5 0.500000 0.759680 0.753775
O O6 0.263883 0.770523 0.695074
O O7 0.269000 0.666580 0.782285
O O8 0.264152 0.836777 0.793813
O O9 0.500000 0.612826 0.049665
O O10 0.279924 0.500000 0.054748
O O11 0.248011 0.659551 0.097120
O O12 0.255262 0.636600 0.993288
O O13 0.500000 0.769659 0.634151
O O14 0.270673 0.670564 0.609433
O O15 0.246576 0.135118 0.385261
O O16 0.000000 0.103833 0.332408
O O17 0.230865 0.000000 0.321361
O O18 0.500000 0.400384 0.562618
O O19 0.735358 0.500000 0.574077
O O20 0.500000 0.102285 0.841253
O O21 0.734434 0.000000 0.835303
O O22 0.817964 0.500000 0.939550
O O23 0.000000 0.364833 0.940274
#
# Coordination Sequence:
#
# PCOD9374685 Si02
#       8
#     8   8   8   8   8   8   8   8
#     4   8  14  27  47  70  95 121 151 190 238 291
#     4   9  19  33  48  71 100 130 169 209 243 287
#     4  10  21  37  55  75 103 137 169 209 266 323
#     4  10  20  34  53  76 101 133 177 220 252 295
#     4   9  17  31  51  74 103 137 168 203 251 303
#     4   8  15  29  50  76 104 130 158 200 252 299
#     4   9  17  30  47  66  91 123 156 193 238 284
#     4   9  17  31  53  80 105 129 164 209 256 310
#
# _framework density 18.937854999999999
#
# number of rings (size 3 to 8) (size 9 to 14) (size 15 to 20)
#    0.000    3.000    0.000    1.500    0.000    4.250 
#    0.000    8.750    0.000    2.625    0.000    0.000 
#    0.000    0.000    0.000    0.000    0.000    0.000 
#
# Total GULP energy -178446.028185 kJ/mol
# GULP energy per Si atom -5576.438381 kJ/mol
# Density = 1.889475 g / cm^3
# Si number density = 18.937855 Si / 1000 Ang^3
#
#
#
# Elastic Constant Matrix: (Units=GPa)
#
#
# Indices 1 2 3 4 5 6 
#
# 1 4.3246 -11.0117 -15.3741 0.0000 0.0000 0.0000
# 2 -11.0117 -47.8113 -117.8653 0.0000 0.0000 0.0000
# 3 -15.3741 -117.8653 -78.1768 0.0000 0.0000 0.0000
# 4 0.0000 0.0000 0.0000 33.8617 0.0000 0.0000
# 5 0.0000 0.0000 0.0000 0.0000 25.6430 0.0000
# 6 0.0000 0.0000 0.0000 0.0000 0.0000 11.2779
#
#
#
# Elastic Compliance Matrix: (Units=1/GPa)
#
#
# Indices 1 2 3 4 5 6 
#
# 1 0.161077 -0.015089 -0.008928 0.000000 0.000000 0.000000
# 2 -0.015089 0.009112 -0.010771 0.000000 0.000000 0.000000
# 3 -0.008928 -0.010771 0.005203 0.000000 0.000000 0.000000
# 4 0.000000 0.000000 0.000000 0.029532 0.000000 0.000000
# 5 0.000000 0.000000 0.000000 0.000000 0.038997 0.000000
# 6 0.000000 0.000000 0.000000 0.000000 0.000000 0.088669
#
#
# Mechanical properties :
#
#
# Convention : Reuss Voigt Hill
#
# Bulk Modulus (GPa) = 9.45032 -45.57399 -18.06183
# Shear Modulus (GPa) = 11.43021 15.66237 13.54629
#
# Velocity S-wave (km/s) = 2.45942 2.87895 2.67742
# Velocity P-wave (km/s) = 3.61469 3.61471 0.00751
#
# Compressibility (1/GPa) = 0.10581647
#
# Stress axis : x y z
#
# Youngs Moduli (GPa) = 6.20823 109.74343 192.18762
#
# Poissons Ratio (x) = 1.65589 1.71587
# Poissons Ratio (y) = 0.09367 2.07003
# Poissons Ratio (z) = 0.05543 1.18203
#
# Static dielectric constant tensor:
#      x y z
#    x 1.642960 0.000000 0.000000 
#    y 0.000000 1.690370 0.000000 
#    z 0.000000 0.000000 1.638550 
# 
# From -- ./inp_files/25168.got.cif
#   From: 2010.05.17/outbox.cif.g08.bks.cpg/sg44_13_cif.got.tgz:25168.got - 2010.06.03 19:37:08.
