data_PCOD9374792
_publ_section_title
;
Structure prediction by ZEFSAII (Michael W. Deem and Ramdas Pophale) SiO2 
 PCOD9374792
Probable space group: I M M 2
;
_chemical_formula_sum "Si O2"
_cell_formula_units_Z 64
_cell_length_a 19.751865
_cell_length_b 8.757426
_cell_length_c 21.081231
_cell_angle_alpha 90.000000
_cell_angle_beta 90.000000
_cell_angle_gamma 90.000000
_cell_volume 3646.536391
_symmetry_space_group_name_H-M "I M M 2"
_symmetry_group_IT_number 44
_symmetry_cell_setting 'orthorhombic'
loop_
_space_group_symop_operation_xyz
x,y,z
-x,-y,z
-x,y,z
x,-y,z
1/2+x,1/2+y,1/2+z
1/2-x,1/2-y,1/2+z
1/2-x,1/2+y,1/2+z
1/2+x,1/2-y,1/2+z
loop_
_atom_site_type_symbol
_atom_site_label
_atom_site_fract_x
_atom_site_fract_y
_atom_site_fract_z
Si Si1 0.077290 0.182327 0.996650
Si Si2 0.787373 0.818492 0.814140
Si Si3 0.077603 0.818709 0.623748
Si Si4 0.077290 0.317673 0.764703
Si Si5 0.792149 0.817163 0.194627
Si Si6 0.577603 0.181291 0.637605
Si Si7 0.212627 0.318492 0.947213
Si Si8 0.292149 0.817163 0.066727
O O1 0.134967 0.266440 0.957494
O O2 0.000000 0.218294 0.977306
O O3 0.087102 0.000000 0.992896
O O4 0.084949 0.235459 0.069700
O O5 0.865033 0.766439 0.803860
O O6 0.745450 0.751973 0.755131
O O7 0.763055 0.750002 0.880677
O O8 0.783156 0.000000 0.814766
O O9 0.084949 0.735459 0.691653
O O10 0.133439 0.751439 0.576991
O O11 0.000000 0.795422 0.602542
O O12 0.088258 0.000000 0.632763
O O13 0.087102 0.500000 0.768457
O O14 0.000000 0.281705 0.784048
O O15 0.866561 0.748559 0.184362
O O16 0.750000 0.779432 0.130677
O O17 0.794772 0.000000 0.200020
O O18 0.500000 0.204579 0.658812
O O19 0.588257 0.000000 0.628590
O O20 0.216844 0.500000 0.946586
O O21 0.254550 0.251975 0.006222
O O22 0.294771 0.000000 0.061333
#
# Coordination Sequence:
#
# PCOD9374792 Si02
#       8
#     8   8   8   8   8   8   8   8
#     4  10  20  35  55  81 115 153 193 235 281 336
#     4  12  25  40  59  82 115 153 194 239 288 343
#     4  10  20  34  56  87 118 149 189 236 286 338
#     4  10  20  35  55  81 115 153 193 235 281 336
#     4  11  22  37  60  87 116 151 193 238 285 338
#     4  10  20  34  56  87 118 149 189 236 286 338
#     4  12  25  40  59  82 115 153 194 239 288 343
#     4  11  22  37  60  87 116 151 193 238 285 338
#
# _framework density 17.550901
#
# number of rings (size 3 to 8) (size 9 to 14) (size 15 to 20)
#    0.000    1.250    2.500    4.500    0.000    4.500 
#    0.000    0.000    0.000    0.750    0.000    0.000 
#    0.000    0.000    0.000    0.000    0.000    0.000 
#
# Total GULP energy -178891.664738 kJ/mol
# GULP energy per Si atom -5590.364523 kJ/mol
# Density = 1.751095 g / cm^3
# Si number density = 17.550901 Si / 1000 Ang^3
#
#
#
# Elastic Constant Matrix: (Units=GPa)
#
#
# Indices 1 2 3 4 5 6 
#
# 1 83.6812 44.3657 49.0428 0.0000 0.0000 0.0000
# 2 44.3657 91.9270 48.9491 0.0000 0.0000 0.0000
# 3 49.0428 48.9491 109.9590 0.0000 0.0000 0.0000
# 4 0.0000 0.0000 0.0000 29.2831 0.0000 0.0000
# 5 0.0000 0.0000 0.0000 0.0000 15.7585 0.0000
# 6 0.0000 0.0000 0.0000 0.0000 0.0000 30.7705
#
#
#
# Elastic Compliance Matrix: (Units=1/GPa)
#
#
# Indices 1 2 3 4 5 6 
#
# 1 0.018326 -0.005888 -0.005552 0.000000 0.000000 0.000000
# 2 -0.005888 0.016150 -0.004563 0.000000 0.000000 0.000000
# 3 -0.005552 -0.004563 0.013602 0.000000 0.000000 0.000000
# 4 0.000000 0.000000 0.000000 0.034149 0.000000 0.000000
# 5 0.000000 0.000000 0.000000 0.000000 0.063458 0.000000
# 6 0.000000 0.000000 0.000000 0.000000 0.000000 0.032499
#
#
# Mechanical properties :
#
#
# Convention : Reuss Voigt Hill
#
# Bulk Modulus (GPa) = 62.22522 63.36470 62.79496
# Shear Modulus (GPa) = 23.19680 24.70972 23.95326
#
# Velocity S-wave (km/s) = 3.63945 3.75626 3.69831
# Velocity P-wave (km/s) = 7.29328 7.41582 7.35480
#
# Compressibility (1/GPa) = 0.01607065
#
# Stress axis : x y z
#
# Youngs Moduli (GPa) = 54.56780 61.92142 73.51840
#
# Poissons Ratio (x) = 0.36458 0.40821
# Poissons Ratio (y) = 0.32128 0.33547
# Poissons Ratio (z) = 0.30299 0.28255
#
# Static dielectric constant tensor:
#      x y z
#    x 1.606580 0.000000 0.000000 
#    y 0.000000 1.581240 0.000000 
#    z 0.000000 0.000000 1.578730 
# 
# From -- ./inp_files/22284.got.cif
#   From: 2010.05.17/outbox.cif.g08.bks.cpg/sg44_12_cif.got.tgz:22284.got - 2010.06.03 19:37:08.
