data_PCOD9374039
_publ_section_title
;
Structure prediction by ZEFSAII (Michael W. Deem and Ramdas Pophale) SiO2 
 PCOD9374039
Probable space group: I M M 2
;
_chemical_formula_sum "Si O2"
_cell_formula_units_Z 56
_cell_length_a 14.217563
_cell_length_b 15.609505
_cell_length_c 12.830023
_cell_angle_alpha 90.000000
_cell_angle_beta 90.000000
_cell_angle_gamma 90.000000
_cell_volume 2847.355723
_symmetry_space_group_name_H-M "I M M 2"
_symmetry_group_IT_number 44
_symmetry_cell_setting 'orthorhombic'
loop_
_space_group_symop_operation_xyz
x,y,z
-x,-y,z
-x,y,z
x,-y,z
1/2+x,1/2+y,1/2+z
1/2-x,1/2-y,1/2+z
1/2-x,1/2+y,1/2+z
1/2+x,1/2-y,1/2+z
loop_
_atom_site_type_symbol
_atom_site_label
_atom_site_fract_x
_atom_site_fract_y
_atom_site_fract_z
Si Si1 0.389788 0.832059 0.966500
Si Si2 0.390407 0.101054 0.748705
Si Si3 0.895069 0.136154 0.542741
Si Si4 0.114895 0.404904 0.678090
Si Si5 0.386499 0.775512 0.356502
Si Si6 0.889723 0.095355 0.789266
Si Si7 0.810277 0.405026 0.022739
O O1 0.500000 0.856756 0.958211
O O2 0.355752 0.847389 0.849507
O O3 0.387046 0.734965 0.007780
O O4 0.349703 0.888360 0.060872
O O5 0.500000 0.122913 0.725266
O O6 0.330165 0.113323 0.644451
O O7 0.387959 0.000000 0.774780
O O8 0.889754 0.122236 0.667404
O O9 0.800957 0.093219 0.500908
O O10 0.000000 0.106338 0.510972
O O11 0.141165 0.500000 0.714647
O O12 0.145919 0.330011 0.755688
O O13 0.000000 0.401368 0.675695
O O14 0.500000 0.773740 0.352645
O O15 0.353180 0.677421 0.352083
O O16 0.355054 0.830332 0.454975
O O17 0.000000 0.087695 0.817250
O O18 0.846840 0.000000 0.800954
O O19 0.850847 0.500000 0.000790
#
# Coordination Sequence:
#
# PCOD9374039 Si02
#       7
#     8   8   8   8   8   8   8
#     4   9  16  30  51  76 106 142 182 224 267 316
#     4   9  18  33  53  79 112 146 179 216 264 332
#     4  10  20  36  55  77 106 140 186 241 283 319
#     4   9  15  25  47  78 111 146 179 216 268 327
#     4  10  19  33  53  82 118 148 179 222 276 337
#     4   9  17  32  56  83 109 139 181 234 283 323
#     4  11  23  35  51  79 114 152 188 222 273 337
#
# _framework density 19.667370999999999
#
# number of rings (size 3 to 8) (size 9 to 14) (size 15 to 20)
#    0.000    2.429    1.429    1.714    0.000    5.143 
#    0.000    0.000    0.000    0.857    0.000    2.000 
#    0.000    9.429    0.000    0.286    0.000    0.000 
#
# Total GULP energy -156097.709989 kJ/mol
# GULP energy per Si atom -5574.918214 kJ/mol
# Density = 1.962261 g / cm^3
# Si number density = 19.667371 Si / 1000 Ang^3
#
#
#
# Elastic Constant Matrix: (Units=GPa)
#
#
# Indices 1 2 3 4 5 6 
#
# 1 69.6402 20.1761 8.9198 0.0000 0.0000 0.0000
# 2 20.1761 153.5478 70.7816 0.0000 0.0000 0.0000
# 3 8.9198 70.7816 91.2394 0.0000 0.0000 0.0000
# 4 0.0000 0.0000 0.0000 18.9017 0.0000 0.0000
# 5 0.0000 0.0000 0.0000 0.0000 -3.4329 0.0000
# 6 0.0000 0.0000 0.0000 0.0000 0.0000 0.0984
#
#
#
# Elastic Compliance Matrix: (Units=1/GPa)
#
#
# Indices 1 2 3 4 5 6 
#
# 1 0.014928 -0.002006 0.000097 0.000000 0.000000 0.000000
# 2 -0.002006 0.010408 -0.007878 0.000000 0.000000 0.000000
# 3 0.000097 -0.007878 0.017062 0.000000 0.000000 0.000000
# 4 0.000000 0.000000 0.000000 0.052905 0.000000 0.000000
# 5 0.000000 0.000000 0.000000 0.000000 -0.291298 0.000000
# 6 0.000000 0.000000 0.000000 0.000000 0.000000 10.163867
#
#
# Mechanical properties :
#
#
# Convention : Reuss Voigt Hill
#
# Bulk Modulus (GPa) = 43.81382 57.13138 50.47260
# Shear Modulus (GPa) = 0.50025 17.41677 8.95851
#
# Velocity S-wave (km/s) = 0.50488 2.97908 2.13656
# Velocity P-wave (km/s) = 4.76085 6.39883 5.63962
#
# Compressibility (1/GPa) = 0.02282385
#
# Stress axis : x y z
#
# Youngs Moduli (GPa) = 66.98656 96.08162 58.60879
#
# Poissons Ratio (x) = 0.19277 -0.00569
# Poissons Ratio (y) = 0.13439 0.46172
# Poissons Ratio (z) = -0.00650 0.75693
#
# Static dielectric constant tensor:
#      x y z
#    x 1.722970 0.000000 0.000000 
#    y 0.000000 1.729490 0.000000 
#    z 0.000000 0.000000 1.680550 
# 
# From -- ./inp_files/13219.got.cif
#   From: 2010.05.17/outbox.cif.g08.bks.cpg/sg44_7_cif.got.tgz:13219.got - 2010.06.03 19:37:08.
