data_PCOD9374253
_publ_section_title
;
Structure prediction by ZEFSAII (Michael W. Deem and Ramdas Pophale) SiO2 
 PCOD9374253
Probable space group: I M M 2
;
_chemical_formula_sum "Si O2"
_cell_formula_units_Z 56
_cell_length_a 13.896771
_cell_length_b 13.919682
_cell_length_c 15.376493
_cell_angle_alpha 90.000000
_cell_angle_beta 90.000000
_cell_angle_gamma 90.000000
_cell_volume 2974.407789
_symmetry_space_group_name_H-M "I M M 2"
_symmetry_group_IT_number 44
_symmetry_cell_setting 'orthorhombic'
loop_
_space_group_symop_operation_xyz
x,y,z
-x,-y,z
-x,y,z
x,-y,z
1/2+x,1/2+y,1/2+z
1/2-x,1/2-y,1/2+z
1/2-x,1/2+y,1/2+z
1/2+x,1/2-y,1/2+z
loop_
_atom_site_type_symbol
_atom_site_label
_atom_site_fract_x
_atom_site_fract_y
_atom_site_fract_z
Si Si1 0.617339 0.895593 0.736530
Si Si2 0.711112 0.885231 0.383627
Si Si3 0.388821 0.259841 0.874498
Si Si4 0.610875 0.180769 0.558213
Si Si5 0.821335 0.389988 0.512226
Si Si6 0.107196 0.105608 0.038026
Si Si7 0.389576 0.883982 0.203765
O O1 0.500000 0.894003 0.735759
O O2 0.646956 0.807412 0.795658
O O3 0.650343 0.880608 0.637904
O O4 0.647257 0.000000 0.770512
O O5 0.820906 0.851138 0.381224
O O6 0.664513 0.835706 0.468121
O O7 0.659734 0.853198 0.293827
O O8 0.701340 0.000000 0.391669
O O9 0.500000 0.284554 0.862333
O O10 0.376618 0.188586 0.956605
O O11 0.500000 0.152615 0.543613
O O12 0.610540 0.292831 0.587276
O O13 0.857793 0.500000 0.501187
O O14 0.708012 0.390780 0.486697
O O15 0.832682 0.363772 0.614353
O O16 0.000000 0.107579 0.994996
O O17 0.111496 0.000000 0.083452
O O18 0.500000 0.849476 0.197292
O O19 0.392689 0.000000 0.208364
#
# Coordination Sequence:
#
# PCOD9374253 Si02
#       7
#     8   8   8   8   8   8   8
#     4   9  19  35  55  80 107 136 176 226 274 323
#     4  11  23  37  54  79 109 145 187 230 279 336
#     4  11  23  37  54  79 109 145 187 230 279 336
#     4  10  19  35  59  84 110 142 180 226 279 332
#     4  10  19  35  59  84 110 142 180 226 279 332
#     4   9  18  32  52  82 117 148 182 226 275 332
#     4   9  19  35  55  80 107 136 176 226 274 323
#
# _framework density 18.827278
#
# number of rings (size 3 to 8) (size 9 to 14) (size 15 to 20)
#    0.000    2.143    1.429    1.714    2.000    3.143 
#    0.000    0.000    0.000    0.000    0.000    0.000 
#    0.000    0.000    0.000    0.000    0.000    0.000 
#
# Total GULP energy -155875.855696 kJ/mol
# GULP energy per Si atom -5566.994846 kJ/mol
# Density = 1.878443 g / cm^3
# Si number density = 18.827278 Si / 1000 Ang^3
#
#
#
# Elastic Constant Matrix: (Units=GPa)
#
#
# Indices 1 2 3 4 5 6 
#
# 1 84.9529 9.5575 18.6667 0.0000 0.0000 0.0000
# 2 9.5575 62.0503 15.4402 0.0000 0.0000 0.0000
# 3 18.6667 15.4402 95.9389 0.0000 0.0000 0.0000
# 4 0.0000 0.0000 0.0000 12.9773 0.0000 0.0000
# 5 0.0000 0.0000 0.0000 0.0000 7.0059 0.0000
# 6 0.0000 0.0000 0.0000 0.0000 0.0000 13.2779
#
#
#
# Elastic Compliance Matrix: (Units=1/GPa)
#
#
# Indices 1 2 3 4 5 6 
#
# 1 0.012407 -0.001365 -0.002194 0.000000 0.000000 0.000000
# 2 -0.001365 0.016938 -0.002460 0.000000 0.000000 0.000000
# 3 -0.002194 -0.002460 0.011246 0.000000 0.000000 0.000000
# 4 0.000000 0.000000 0.000000 0.077058 0.000000 0.000000
# 5 0.000000 0.000000 0.000000 0.000000 0.142736 0.000000
# 6 0.000000 0.000000 0.000000 0.000000 0.000000 0.075313
#
#
# Mechanical properties :
#
#
# Convention : Reuss Voigt Hill
#
# Bulk Modulus (GPa) = 35.02372 36.69677 35.86025
# Shear Modulus (GPa) = 13.99559 19.93740 16.96649
#
# Velocity S-wave (km/s) = 2.72943 3.25770 3.00520
# Velocity P-wave (km/s) = 5.34566 5.80377 5.57942
#
# Compressibility (1/GPa) = 0.02855208
#
# Stress axis : x y z
#
# Youngs Moduli (GPa) = 80.59989 59.03726 88.91875
#
# Poissons Ratio (x) = 0.08059 0.19512
# Poissons Ratio (y) = 0.11002 0.21878
# Poissons Ratio (z) = 0.17686 0.14526
#
# Static dielectric constant tensor:
#      x y z
#    x 1.679120 0.000000 0.000000 
#    y 0.000000 1.667280 0.000000 
#    z 0.000000 0.000000 1.654510 
# 
# From -- ./inp_files/18505.got.cif
#   From: 2010.05.17/outbox.cif.g08.bks.cpg/sg44_10_cif.got.tgz:18505.got - 2010.06.03 19:37:08.
