data_PCOD9374573
_publ_section_title
;
Structure prediction by ZEFSAII (Michael W. Deem and Ramdas Pophale) SiO2 
 PCOD9374573
Probable space group: I M M 2
;
_chemical_formula_sum "Si O2"
_cell_formula_units_Z 64
_cell_length_a 31.036172
_cell_length_b 8.583717
_cell_length_c 14.770934
_cell_angle_alpha 90.000000
_cell_angle_beta 90.000000
_cell_angle_gamma 90.000000
_cell_volume 3935.061266
_symmetry_space_group_name_H-M "I M M 2"
_symmetry_group_IT_number 44
_symmetry_cell_setting 'orthorhombic'
loop_
_space_group_symop_operation_xyz
x,y,z
-x,-y,z
-x,y,z
x,-y,z
1/2+x,1/2+y,1/2+z
1/2-x,1/2-y,1/2+z
1/2-x,1/2+y,1/2+z
1/2+x,1/2-y,1/2+z
loop_
_atom_site_type_symbol
_atom_site_label
_atom_site_fract_x
_atom_site_fract_y
_atom_site_fract_z
Si Si1 0.134273 0.182910 0.064470
Si Si2 0.702128 0.184274 0.697723
Si Si3 0.950709 0.811883 0.796068
Si Si4 0.134138 0.181869 0.708789
Si Si5 0.266640 0.185245 0.894703
Si Si6 0.549800 0.813877 0.498594
Si Si7 0.173421 0.679327 0.883965
Si Si8 0.212502 0.683966 0.600061
O O1 0.162792 0.226284 0.151035
O O2 0.084366 0.232374 0.063374
O O3 0.138118 0.000000 0.045838
O O4 0.154863 0.278627 0.981523
O O5 0.705488 0.214107 0.805075
O O6 0.747490 0.232566 0.650578
O O7 0.696270 0.000000 0.683439
O O8 0.915167 0.763628 0.722258
O O9 0.000000 0.772786 0.772084
O O10 0.947555 0.000000 0.805728
O O11 0.941578 0.738536 0.894671
O O12 0.153475 0.208394 0.808831
O O13 0.166936 0.268922 0.642985
O O14 0.134449 0.000000 0.685219
O O15 0.223989 0.287667 0.886086
O O16 0.254938 0.000000 0.893314
O O17 0.286680 0.217667 0.992839
O O18 0.500000 0.772685 0.517912
O O19 0.554453 0.000000 0.504156
O O20 0.164210 0.500000 0.860711
O O21 0.219351 0.500000 0.612447
#
# Coordination Sequence:
#
# PCOD9374573 Si02
#       8
#     8   8   8   8   8   8   8   8
#     4  12  23  35  51  74 106 141 175 211 257 314
#     4  11  22  36  54  75 100 134 175 218 260 303
#     4   9  18  32  50  72 101 137 172 208 256 309
#     4  11  21  33  50  74 105 139 174 214 257 308
#     4  10  22  38  53  70 101 137 174 217 260 302
#     4  10  20  33  51  76 104 134 172 214 254 302
#     4  12  22  31  50  74 102 138 177 216 253 300
#     4  11  22  35  52  75 103 137 175 214 256 309
#
# _framework density 16.264042
#
# number of rings (size 3 to 8) (size 9 to 14) (size 15 to 20)
#    0.000    1.250    3.750    3.750    0.000    2.250 
#    0.000    0.000    0.000    0.000    0.000    0.875 
#    0.000    5.000    0.000    0.000    0.000    0.000 
#
# Total GULP energy -178653.414480 kJ/mol
# GULP energy per Si atom -5582.919202 kJ/mol
# Density = 1.622702 g / cm^3
# Si number density = 16.264042 Si / 1000 Ang^3
#
#
#
# Elastic Constant Matrix: (Units=GPa)
#
#
# Indices 1 2 3 4 5 6 
#
# 1 94.8401 15.2454 23.4944 0.0000 0.0000 0.0000
# 2 15.2454 20.5660 5.0022 0.0000 0.0000 0.0000
# 3 23.4944 5.0022 62.4211 0.0000 0.0000 0.0000
# 4 0.0000 0.0000 0.0000 18.3155 0.0000 0.0000
# 5 0.0000 0.0000 0.0000 0.0000 19.9969 0.0000
# 6 0.0000 0.0000 0.0000 0.0000 0.0000 17.6321
#
#
#
# Elastic Compliance Matrix: (Units=1/GPa)
#
#
# Indices 1 2 3 4 5 6 
#
# 1 0.012963 -0.008590 -0.004191 0.000000 0.000000 0.000000
# 2 -0.008590 0.055283 -0.001197 0.000000 0.000000 0.000000
# 3 -0.004191 -0.001197 0.017693 0.000000 0.000000 0.000000
# 4 0.000000 0.000000 0.000000 0.054599 0.000000 0.000000
# 5 0.000000 0.000000 0.000000 0.000000 0.050008 0.000000
# 6 0.000000 0.000000 0.000000 0.000000 0.000000 0.056715
#
#
# Mechanical properties :
#
#
# Convention : Reuss Voigt Hill
#
# Bulk Modulus (GPa) = 17.24621 29.47901 23.36261
# Shear Modulus (GPa) = 16.97539 20.12790 18.55164
#
# Velocity S-wave (km/s) = 3.23420 3.52173 3.38102
# Velocity P-wave (km/s) = 4.95718 5.89079 5.44403
#
# Compressibility (1/GPa) = 0.05798376
#
# Stress axis : x y z
#
# Youngs Moduli (GPa) = 77.14225 18.08879 56.51799
#
# Poissons Ratio (x) = 0.15538 0.23685
# Poissons Ratio (y) = 0.66266 0.06765
# Poissons Ratio (z) = 0.32328 0.02165
#
# Static dielectric constant tensor:
#      x y z
#    x 1.571460 0.000000 0.000000 
#    y 0.000000 1.546110 0.000000 
#    z 0.000000 0.000000 1.528700 
# 
# From -- ./inp_files/17143.got.cif
#   From: 2010.05.17/outbox.cif.g08.bks.cpg/sg44_9_cif.got.tgz:17143.got - 2010.06.03 19:37:08.
