data_PCOD9374400
_publ_section_title
;
Structure prediction by ZEFSAII (Michael W. Deem and Ramdas Pophale) SiO2 
 PCOD9374400
Probable space group: I M M 2
;
_chemical_formula_sum "Si O2"
_cell_formula_units_Z 48
_cell_length_a 8.052805
_cell_length_b 8.640220
_cell_length_c 35.426233
_cell_angle_alpha 90.000000
_cell_angle_beta 90.000000
_cell_angle_gamma 90.000000
_cell_volume 2464.886681
_symmetry_space_group_name_H-M "I M M 2"
_symmetry_group_IT_number 44
_symmetry_cell_setting 'orthorhombic'
loop_
_space_group_symop_operation_xyz
x,y,z
-x,-y,z
-x,y,z
x,-y,z
1/2+x,1/2+y,1/2+z
1/2-x,1/2-y,1/2+z
1/2-x,1/2+y,1/2+z
1/2+x,1/2-y,1/2+z
loop_
_atom_site_type_symbol
_atom_site_label
_atom_site_fract_x
_atom_site_fract_y
_atom_site_fract_z
Si Si1 0.000000 0.314555 0.564020
Si Si2 0.199261 0.824581 0.937034
Si Si3 0.696373 0.676541 0.859023
Si Si4 0.000000 0.689047 0.651086
Si Si5 0.183057 0.810748 0.199481
Si Si6 0.692409 0.183783 0.517049
Si Si7 0.194742 0.317174 0.779194
O O1 0.832761 0.256831 0.543477
O O2 0.000000 0.500000 0.563138
O O3 0.000000 0.262451 0.607639
O O4 0.268672 0.764115 0.897655
O O5 0.000000 0.823327 0.933439
O O6 0.255067 0.000000 0.944137
O O7 0.239027 0.723506 0.973739
O O8 0.500000 0.669900 0.852977
O O9 0.761284 0.500000 0.863514
O O10 0.771372 0.748277 0.820766
O O11 0.834924 0.740016 0.673303
O O12 0.000000 0.500000 0.651684
O O13 0.209949 0.756374 0.242636
O O14 0.000000 0.766178 0.185912
O O15 0.189460 0.000000 0.200487
O O16 0.500000 0.238768 0.523199
O O17 0.693248 0.000000 0.522131
O O18 0.239860 0.500000 0.782466
O O19 0.000000 0.308044 0.770600
#
# Coordination Sequence:
#
# PCOD9374400 Si02
#       7
#     4   8   8   4   8   8   8
#     4  11  23  37  59  89 123 157 191 239 299 365
#     4  10  21  37  56  78 106 142 184 231 287 346
#     4  10  20  31  46  74 109 145 186 230 276 330
#     4   9  18  31  45  73 111 147 185 225 281 345
#     4   9  15  25  43  67 101 144 185 226 273 329
#     4  10  22  41  64  87 113 150 196 245 294 348
#     4   9  15  25  43  67 100 141 185 230 274 321
#
# _framework density 19.473513000000001
#
# number of rings (size 3 to 8) (size 9 to 14) (size 15 to 20)
#    0.000    2.333    0.833    2.250    1.167    5.667 
#    0.000    1.667    0.000    0.000    0.000    2.333 
#    0.000    2.667    0.000    0.000    0.000    0.000 
#
# Total GULP energy -133875.999771 kJ/mol
# GULP energy per Si atom -5578.166657 kJ/mol
# Density = 1.942919 g / cm^3
# Si number density = 19.473513 Si / 1000 Ang^3
#
#
#
# Elastic Constant Matrix: (Units=GPa)
#
#
# Indices 1 2 3 4 5 6 
#
# 1 111.0644 19.6431 83.0345 0.0000 0.0000 0.0000
# 2 19.6431 25.2550 14.0690 0.0000 0.0000 0.0000
# 3 83.0345 14.0690 137.7959 0.0000 0.0000 0.0000
# 4 0.0000 0.0000 0.0000 13.2700 0.0000 0.0000
# 5 0.0000 0.0000 0.0000 0.0000 16.8132 0.0000
# 6 0.0000 0.0000 0.0000 0.0000 0.0000 15.6163
#
#
#
# Elastic Compliance Matrix: (Units=1/GPa)
#
#
# Indices 1 2 3 4 5 6 
#
# 1 0.017923 -0.008402 -0.009942 0.000000 0.000000 0.000000
# 2 -0.008402 0.045922 0.000374 0.000000 0.000000 0.000000
# 3 -0.009942 0.000374 0.013210 0.000000 0.000000 0.000000
# 4 0.000000 0.000000 0.000000 0.075358 0.000000 0.000000
# 5 0.000000 0.000000 0.000000 0.000000 0.059477 0.000000
# 6 0.000000 0.000000 0.000000 0.000000 0.000000 0.064036
#
#
# Mechanical properties :
#
#
# Convention : Reuss Voigt Hill
#
# Bulk Modulus (GPa) = 24.32168 56.40095 40.36131
# Shear Modulus (GPa) = 15.35762 19.63113 17.49438
#
# Velocity S-wave (km/s) = 2.81132 3.17849 3.00053
# Velocity P-wave (km/s) = 4.80154 6.51891 5.72499
#
# Compressibility (1/GPa) = 0.04111558
#
# Stress axis : x y z
#
# Youngs Moduli (GPa) = 55.79466 21.77585 75.69968
#
# Poissons Ratio (x) = 0.18295 0.75263
# Poissons Ratio (y) = 0.46876 -0.02831
# Poissons Ratio (z) = 0.55473 -0.00814
#
# Static dielectric constant tensor:
#      x y z
#    x 1.690480 0.000000 0.000000 
#    y 0.000000 1.686790 0.000000 
#    z 0.000000 0.000000 1.677470 
# 
# From -- ./inp_files/26875.got.cif
#   From: 2010.05.17/outbox.cif.g08.bks.cpg/sg44_14_cif.got.tgz:26875.got - 2010.06.03 19:37:08.
