data_PCOD9374748
_publ_section_title
;
Structure prediction by ZEFSAII (Michael W. Deem and Ramdas Pophale) SiO2 
 PCOD9374748
Probable space group: I M M 2
;
_chemical_formula_sum "Si O2"
_cell_formula_units_Z 56
_cell_length_a 8.564613
_cell_length_b 21.615848
_cell_length_c 14.219150
_cell_angle_alpha 90.000000
_cell_angle_beta 90.000000
_cell_angle_gamma 90.000000
_cell_volume 2632.410759
_symmetry_space_group_name_H-M "I M M 2"
_symmetry_group_IT_number 44
_symmetry_cell_setting 'orthorhombic'
loop_
_space_group_symop_operation_xyz
x,y,z
-x,-y,z
-x,y,z
x,-y,z
1/2+x,1/2+y,1/2+z
1/2-x,1/2-y,1/2+z
1/2-x,1/2+y,1/2+z
1/2+x,1/2-y,1/2+z
loop_
_atom_site_type_symbol
_atom_site_label
_atom_site_fract_x
_atom_site_fract_y
_atom_site_fract_z
Si Si1 0.174188 0.500000 0.055071
Si Si2 0.680198 0.500000 0.858792
Si Si3 0.678462 0.428161 0.563254
Si Si4 0.312485 0.138223 0.338001
Si Si5 0.323652 0.873022 0.668987
Si Si6 0.680695 0.814732 0.144999
Si Si7 0.319463 0.708368 0.019417
Si Si8 0.682690 0.571020 0.339796
O O1 0.184629 0.560194 0.119173
O O2 0.000000 0.500000 0.009845
O O3 0.298301 0.500000 0.972116
O O4 0.500000 0.500000 0.830582
O O5 0.751420 0.567143 0.830158
O O6 0.500000 0.410472 0.589065
O O7 0.698294 0.500000 0.586286
O O8 0.801420 0.385050 0.612761
O O9 0.694274 0.420751 0.451100
O O10 0.500000 0.135363 0.333902
O O11 0.254733 0.181635 0.251230
O O12 0.264472 0.171265 0.435653
O O13 0.500000 0.848971 0.656563
O O14 0.200518 0.832150 0.613595
O O15 0.282244 0.882865 0.777254
O O16 0.500000 0.795772 0.151676
O O17 0.748313 0.773184 0.059776
O O18 0.500000 0.715309 0.991467
O O19 0.500000 0.576899 0.313882
O O20 0.730456 0.500000 0.320108
#
# Coordination Sequence:
#
# PCOD9374748 Si02
#       8
#     4   4   8   8   8   8   8   8
#     4  10  20  34  54  85 126 161 202 257 316 378
#     4  12  24  38  64  99 130 167 212 269 328 378
#     4   9  20  39  62  90 121 156 203 259 313 374
#     4  11  24  44  67  94 130 171 214 263 326 388
#     4  11  21  34  56  87 122 162 206 254 313 373
#     4  10  25  45  65  90 123 164 208 259 317 382
#     4  11  24  43  63  89 124 162 213 264 311 377
#     4   9  18  33  54  82 119 158 196 241 297 357
#
# _framework density 21.273275999999999
#
# number of rings (size 3 to 8) (size 9 to 14) (size 15 to 20)
#    0.000    1.714    2.143    2.786    1.000    4.857 
#    0.000    5.714    0.000    0.000    0.000    0.000 
#    0.000    0.000    0.000    0.000    0.000    0.000 
#
# Total GULP energy -156205.723029 kJ/mol
# GULP energy per Si atom -5578.775822 kJ/mol
# Density = 2.122486 g / cm^3
# Si number density = 21.273276 Si / 1000 Ang^3
#
#
#
# Elastic Constant Matrix: (Units=GPa)
#
#
# Indices 1 2 3 4 5 6 
#
# 1 38.1324 21.7792 18.8164 0.0000 0.0000 0.0000
# 2 21.7792 67.7574 29.6296 0.0000 0.0000 0.0000
# 3 18.8164 29.6296 51.2031 0.0000 0.0000 0.0000
# 4 0.0000 0.0000 0.0000 11.7690 0.0000 0.0000
# 5 0.0000 0.0000 0.0000 0.0000 22.9138 0.0000
# 6 0.0000 0.0000 0.0000 0.0000 0.0000 18.9980
#
#
#
# Elastic Compliance Matrix: (Units=1/GPa)
#
#
# Indices 1 2 3 4 5 6 
#
# 1 0.034633 -0.007452 -0.008415 0.000000 0.000000 0.000000
# 2 -0.007452 0.021362 -0.009623 0.000000 0.000000 0.000000
# 3 -0.008415 -0.009623 0.028191 0.000000 0.000000 0.000000
# 4 0.000000 0.000000 0.000000 0.084969 0.000000 0.000000
# 5 0.000000 0.000000 0.000000 0.000000 0.043642 0.000000
# 6 0.000000 0.000000 0.000000 0.000000 0.000000 0.052637
#
#
# Mechanical properties :
#
#
# Convention : Reuss Voigt Hill
#
# Bulk Modulus (GPa) = 30.11510 33.06036 31.58773
# Shear Modulus (GPa) = 15.26802 16.52734 15.89768
#
# Velocity S-wave (km/s) = 2.68192 2.79033 2.73666
# Velocity P-wave (km/s) = 4.87619 5.09468 4.98663
#
# Compressibility (1/GPa) = 0.03320593
#
# Stress axis : x y z
#
# Youngs Moduli (GPa) = 28.87415 46.81225 35.47266
#
# Poissons Ratio (x) = 0.34887 0.29849
# Poissons Ratio (y) = 0.21518 0.34135
# Poissons Ratio (z) = 0.24297 0.45046
#
# Static dielectric constant tensor:
#      x y z
#    x 1.776940 0.000000 0.000000 
#    y 0.000000 1.805790 0.000000 
#    z 0.000000 0.000000 1.792080 
# 
# From -- ./inp_files/16591.got.cif
#   From: 2010.05.17/outbox.cif.g08.bks.cpg/sg44_9_cif.got.tgz:16591.got - 2010.06.03 19:37:08.
