data_PCOD9374200
_publ_section_title
;
Structure prediction by ZEFSAII (Michael W. Deem and Ramdas Pophale) SiO2 
 PCOD9374200
Probable space group: I M M 2
;
_chemical_formula_sum "Si O2"
_cell_formula_units_Z 64
_cell_length_a 24.056257
_cell_length_b 14.690526
_cell_length_c 9.370849
_cell_angle_alpha 90.000000
_cell_angle_beta 90.000000
_cell_angle_gamma 90.000000
_cell_volume 3311.649312
_symmetry_space_group_name_H-M "I M M 2"
_symmetry_group_IT_number 44
_symmetry_cell_setting 'orthorhombic'
loop_
_space_group_symop_operation_xyz
x,y,z
-x,-y,z
-x,y,z
x,-y,z
1/2+x,1/2+y,1/2+z
1/2-x,1/2-y,1/2+z
1/2-x,1/2+y,1/2+z
1/2+x,1/2-y,1/2+z
loop_
_atom_site_type_symbol
_atom_site_label
_atom_site_fract_x
_atom_site_fract_y
_atom_site_fract_z
Si Si1 0.341283 0.232263 0.656710
Si Si2 0.565690 0.891268 0.176339
Si Si3 0.562501 0.400500 0.295405
Si Si4 0.150209 0.900184 0.541356
Si Si5 0.657657 0.193030 0.971880
Si Si6 0.436331 0.214770 0.461082
Si Si7 0.774156 0.402491 0.980363
Si Si8 0.259783 0.606262 0.649029
O O1 0.331467 0.179229 0.804403
O O2 0.404187 0.218225 0.608949
O O3 0.309112 0.181225 0.530863
O O4 0.316114 0.333977 0.652164
O O5 0.500000 0.867138 0.155162
O O6 0.583819 0.848110 0.328631
O O7 0.570129 0.000000 0.182788
O O8 0.605774 0.854367 0.051570
O O9 0.500000 0.393587 0.230264
O O10 0.566011 0.500000 0.365322
O O11 0.610296 0.396490 0.177457
O O12 0.567917 0.316890 0.400345
O O13 0.144000 0.801491 0.470920
O O14 0.216278 0.901996 0.567522
O O15 0.138820 0.000000 0.469681
O O16 0.712376 0.159161 0.057982
O O17 0.500000 0.189065 0.483760
O O18 0.802414 0.500000 0.004627
O O19 0.759516 0.395369 0.813979
O O20 0.265712 0.500000 0.603724
#
# Coordination Sequence:
#
# PCOD9374200 Si02
#       8
#     8   8   8   8   8   8   8   8
#     4  12  24  38  60  89 124 153 193 243 304 356
#     4  10  22  42  66  88 115 158 206 246 289 348
#     4   9  18  34  59  90 120 154 198 244 287 341
#     4  10  19  34  59  88 121 156 197 244 291 345
#     4  12  23  37  61  90 123 154 199 248 295 351
#     4  10  22  40  62  87 117 155 198 244 295 356
#     4  10  22  40  60  82 116 159 199 240 290 351
#     4  11  23  41  62  84 116 162 205 241 288 353
#
# _framework density 19.325717999999998
#
# number of rings (size 3 to 8) (size 9 to 14) (size 15 to 20)
#    0.000    1.500    3.750    1.125    0.000    4.500 
#    0.000    1.250    0.000    1.500    0.000    0.000 
#    0.000    0.000    0.000    0.000    0.000    0.000 
#
# Total GULP energy -178233.106604 kJ/mol
# GULP energy per Si atom -5569.784581 kJ/mol
# Density = 1.928173 g / cm^3
# Si number density = 19.325718 Si / 1000 Ang^3
#
#
#
# Elastic Constant Matrix: (Units=GPa)
#
#
# Indices 1 2 3 4 5 6 
#
# 1 60.5105 10.8364 34.1437 0.0000 0.0000 0.0000
# 2 10.8364 97.4423 19.0713 0.0000 0.0000 0.0000
# 3 34.1437 19.0713 48.8387 0.0000 0.0000 0.0000
# 4 0.0000 0.0000 0.0000 11.0839 0.0000 0.0000
# 5 0.0000 0.0000 0.0000 0.0000 119.5802 0.0000
# 6 0.0000 0.0000 0.0000 0.0000 0.0000 22.1471
#
#
#
# Elastic Compliance Matrix: (Units=1/GPa)
#
#
# Indices 1 2 3 4 5 6 
#
# 1 0.027344 0.000759 -0.019413 0.000000 0.000000 0.000000
# 2 0.000759 0.011133 -0.004878 0.000000 0.000000 0.000000
# 3 -0.019413 -0.004878 0.035952 0.000000 0.000000 0.000000
# 4 0.000000 0.000000 0.000000 0.090221 0.000000 0.000000
# 5 0.000000 0.000000 0.000000 0.000000 0.008363 0.000000
# 6 0.000000 0.000000 0.000000 0.000000 0.000000 0.045153
#
#
# Mechanical properties :
#
#
# Convention : Reuss Voigt Hill
#
# Bulk Modulus (GPa) = 36.54283 37.21046 36.87665
# Shear Modulus (GPa) = 18.22488 40.07826 29.15157
#
# Velocity S-wave (km/s) = 3.07422 4.55887 3.88807
# Velocity P-wave (km/s) = 5.61704 6.85618 6.26731
#
# Compressibility (1/GPa) = 0.02736515
#
# Stress axis : x y z
#
# Youngs Moduli (GPa) = 36.57093 89.82494 27.81484
#
# Poissons Ratio (x) = -0.06814 0.53996
# Poissons Ratio (y) = -0.02774 0.13567
# Poissons Ratio (z) = 0.70995 0.43813
#
# Static dielectric constant tensor:
#      x y z
#    x 1.605180 0.000000 0.000000 
#    y 0.000000 1.724330 0.000000 
#    z 0.000000 0.000000 1.676180 
# 
# From -- ./inp_files/7533.got.cif
#   From: 2010.05.17/outbox.cif.g08.bks.cpg/sg44_4_cif.got.tgz:7533.got - 2010.06.03 19:37:08.
