data_PCOD9374217
_publ_section_title
;
Structure prediction by ZEFSAII (Michael W. Deem and Ramdas Pophale) SiO2 
 PCOD9374217
Probable space group: I M M 2
;
_chemical_formula_sum "Si O2"
_cell_formula_units_Z 48
_cell_length_a 7.943380
_cell_length_b 29.192181
_cell_length_c 10.516921
_cell_angle_alpha 90.000000
_cell_angle_beta 90.000000
_cell_angle_gamma 90.000000
_cell_volume 2438.711880
_symmetry_space_group_name_H-M "I M M 2"
_symmetry_group_IT_number 44
_symmetry_cell_setting 'orthorhombic'
loop_
_space_group_symop_operation_xyz
x,y,z
-x,-y,z
-x,y,z
x,-y,z
1/2+x,1/2+y,1/2+z
1/2-x,1/2-y,1/2+z
1/2-x,1/2+y,1/2+z
1/2+x,1/2-y,1/2+z
loop_
_atom_site_type_symbol
_atom_site_label
_atom_site_fract_x
_atom_site_fract_y
_atom_site_fract_z
Si Si1 0.302419 0.858006 0.349100
Si Si2 0.302927 0.301382 0.090299
Si Si3 0.204278 0.448854 0.974189
Si Si4 0.706420 0.803477 0.104934
Si Si5 0.801979 0.648772 0.344594
Si Si6 0.200465 0.948734 0.769437
O O1 0.500000 0.865119 0.322471
O O2 0.286448 0.826800 0.474254
O O3 0.231040 0.907678 0.386741
O O4 0.231658 0.831702 0.227138
O O5 0.500000 0.299537 0.057246
O O6 0.240454 0.249480 0.108469
O O7 0.282530 0.329508 0.220302
O O8 0.256909 0.500000 0.935030
O O9 0.000000 0.447480 0.975084
O O10 0.260580 0.441839 0.119772
O O11 0.500000 0.803343 0.108395
O O12 0.758733 0.827570 0.973946
O O13 0.775595 0.594189 0.343731
O O14 0.000000 0.658200 0.332390
O O15 0.000000 0.947944 0.785855
O O16 0.262580 0.000000 0.803125
#
# Coordination Sequence:
#
# PCOD9374217 Si02
#       6
#     8   8   8   8   8   8
#     4  10  19  35  56  78 106 140 177 222 270 320
#     4  11  21  35  55  79 107 142 185 228 267 317
#     4   9  17  30  52  80 105 132 172 220 267 317
#     4   9  21  37  53  77 111 145 180 223 271 319
#     4  11  21  36  56  80 110 145 183 224 267 320
#     4  10  20  34  54  80 109 139 176 223 271 319
#
# _framework density 19.68252
#
# number of rings (size 3 to 8) (size 9 to 14) (size 15 to 20)
#    0.000    2.000    1.667    2.500    0.000    1.000 
#    0.000    5.833    0.000    3.000    0.000    2.333 
#    0.000    0.000    0.000    0.000    0.000    0.000 
#
# Total GULP energy -133998.041700 kJ/mol
# GULP energy per Si atom -5583.251737 kJ/mol
# Density = 1.963772 g / cm^3
# Si number density = 19.682520 Si / 1000 Ang^3
#
#
#
# Elastic Constant Matrix: (Units=GPa)
#
#
# Indices 1 2 3 4 5 6 
#
# 1 17.8092 -7.2937 -13.0882 0.0003 -0.0002 0.0001
# 2 -7.2937 150.3465 44.6793 -0.0006 0.0003 0.0001
# 3 -13.0882 44.6793 83.2389 -0.0016 0.0003 0.0003
# 4 0.0003 -0.0006 -0.0016 1.2301 -0.0005 0.0004
# 5 -0.0002 0.0003 0.0003 -0.0005 -10.9660 -0.0002
# 6 0.0001 0.0001 0.0003 0.0004 -0.0002 15.4733
#
#
#
# Elastic Compliance Matrix: (Units=1/GPa)
#
#
# Indices 1 2 3 4 5 6 
#
# 1 0.063489 0.000135 0.009910 -0.000005 -0.000001 -0.000001
# 2 0.000135 0.007914 -0.004227 -0.000001 0.000000 0.000000
# 3 0.009910 -0.004227 0.015841 0.000016 0.000000 0.000000
# 4 -0.000005 -0.000001 0.000016 0.812910 -0.000033 -0.000019
# 5 -0.000001 0.000000 0.000000 -0.000033 -0.091191 -0.000001
# 6 -0.000001 0.000000 0.000000 -0.000019 -0.000001 0.064627
#
#
# Mechanical properties :
#
#
# Convention : Reuss Voigt Hill
#
# Bulk Modulus (GPa) = 10.11317 33.33218 21.72267
# Shear Modulus (GPa) = 5.58714 16.28730 10.93722
#
# Velocity S-wave (km/s) = 1.68665 2.87975 2.35985
# Velocity P-wave (km/s) = 2.99038 5.29424 4.29950
#
# Compressibility (1/GPa) = 0.09888100
#
# Stress axis : x y z
#
# Youngs Moduli (GPa) = 15.75071 126.35987 63.12890
#
# Poissons Ratio (x) = -0.01704 -0.62564
# Poissons Ratio (y) = -0.00212 0.26682
# Poissons Ratio (z) = -0.15610 0.53408
#
# Static dielectric constant tensor:
#      x y z
#    x 1.709160 0.000000 0.000000 
#    y 0.000000 1.713270 0.000000 
#    z 0.000000 0.000000 1.645450 
# 
# From -- ./inp_files/4906.got.cif
#   From: 2010.05.17/outbox.cif.g08.bks.cpg/sg44_3_cif.got.tgz:4906.got - 2010.06.03 19:37:08.
