data_PCOD9374107
_publ_section_title
;
Structure prediction by ZEFSAII (Michael W. Deem and Ramdas Pophale) SiO2 
 PCOD9374107
Probable space group: I M M 2
;
_chemical_formula_sum "Si O2"
_cell_formula_units_Z 64
_cell_length_a 20.247423
_cell_length_b 14.280815
_cell_length_c 11.706875
_cell_angle_alpha 90.000000
_cell_angle_beta 90.000000
_cell_angle_gamma 90.000000
_cell_volume 3385.039419
_symmetry_space_group_name_H-M "I M M 2"
_symmetry_group_IT_number 44
_symmetry_cell_setting 'orthorhombic'
loop_
_space_group_symop_operation_xyz
x,y,z
-x,-y,z
-x,y,z
x,-y,z
1/2+x,1/2+y,1/2+z
1/2-x,1/2-y,1/2+z
1/2-x,1/2+y,1/2+z
1/2+x,1/2-y,1/2+z
loop_
_atom_site_type_symbol
_atom_site_label
_atom_site_fract_x
_atom_site_fract_y
_atom_site_fract_z
Si Si1 0.286759 0.395502 0.059570
Si Si2 0.421288 0.763171 0.538877
Si Si3 0.678632 0.393221 0.590092
Si Si4 0.078815 0.609543 0.520173
Si Si5 0.425696 0.806230 0.790216
Si Si6 0.309473 0.202005 0.160111
Si Si7 0.837732 0.390728 0.896988
Si Si8 0.883750 0.103382 0.341954
O O1 0.292321 0.500000 0.108324
O O2 0.299335 0.312539 0.147536
O O3 0.215953 0.385870 0.998319
O O4 0.338432 0.388174 0.953951
O O5 0.500000 0.744183 0.543790
O O6 0.376864 0.669865 0.528650
O O7 0.398900 0.805688 0.662079
O O8 0.402020 0.836495 0.441589
O O9 0.680152 0.500000 0.549095
O O10 0.750377 0.345945 0.587963
O O11 0.658560 0.395908 0.724785
O O12 0.088154 0.500000 0.544049
O O13 0.104567 0.634518 0.392679
O O14 0.120977 0.670952 0.606659
O O15 0.000000 0.629689 0.525133
O O16 0.500000 0.842146 0.778520
O O17 0.425674 0.697822 0.830903
O O18 0.308587 0.162271 0.287627
O O19 0.849051 0.500000 0.869848
O O20 0.916358 0.000000 0.345838
#
# Coordination Sequence:
#
# PCOD9374107 Si02
#       8
#     8   8   8   8   8   8   8   8
#     4  10  20  36  58  85 118 152 191 245 307 359
#     4  10  22  39  59  86 122 162 204 252 306 367
#     4  10  19  33  58  89 117 152 200 250 304 359
#     4  10  21  35  52  81 119 157 197 247 306 360
#     4   9  18  33  53  79 112 151 192 240 296 350
#     4  12  21  37  64  86 119 158 203 254 308 365
#     4  11  23  39  60  88 120 160 204 250 304 363
#     4   9  16  30  53  80 110 141 180 235 293 348
#
# _framework density 18.906721999999998
#
# number of rings (size 3 to 8) (size 9 to 14) (size 15 to 20)
#    0.000    1.875    3.750    1.125    0.000    1.750 
#    0.000    4.375    0.000    0.375    0.000    0.000 
#    0.000    0.000    0.000    0.000    0.000    0.000 
#
# Total GULP energy -178387.557849 kJ/mol
# GULP energy per Si atom -5574.611183 kJ/mol
# Density = 1.886369 g / cm^3
# Si number density = 18.906722 Si / 1000 Ang^3
#
#
#
# Elastic Constant Matrix: (Units=GPa)
#
#
# Indices 1 2 3 4 5 6 
#
# 1 70.5521 38.3077 14.4006 0.0000 0.0000 0.0000
# 2 38.3077 137.1350 43.7516 0.0000 0.0000 0.0000
# 3 14.4006 43.7516 26.5419 0.0000 0.0000 0.0000
# 4 0.0000 0.0000 0.0000 28.7742 0.0000 0.0000
# 5 0.0000 0.0000 0.0000 0.0000 18.4256 0.0000
# 6 0.0000 0.0000 0.0000 0.0000 0.0000 24.0499
#
#
#
# Elastic Compliance Matrix: (Units=1/GPa)
#
#
# Indices 1 2 3 4 5 6 
#
# 1 0.016814 -0.003768 -0.002912 0.000000 0.000000 0.000000
# 2 -0.003768 0.016225 -0.024702 0.000000 0.000000 0.000000
# 3 -0.002912 -0.024702 0.079974 0.000000 0.000000 0.000000
# 4 0.000000 0.000000 0.000000 0.034753 0.000000 0.000000
# 5 0.000000 0.000000 0.000000 0.000000 0.054272 0.000000
# 6 0.000000 0.000000 0.000000 0.000000 0.000000 0.041580
#
#
# Mechanical properties :
#
#
# Convention : Reuss Voigt Hill
#
# Bulk Modulus (GPa) = 19.89993 47.46096 33.68044
# Shear Modulus (GPa) = 15.47352 23.43455 19.45404
#
# Velocity S-wave (km/s) = 2.86390 3.52445 3.21120
# Velocity P-wave (km/s) = 4.63509 6.45906 5.62155
#
# Compressibility (1/GPa) = 0.05025144
#
# Stress axis : x y z
#
# Youngs Moduli (GPa) = 59.47384 61.63144 12.50402
#
# Poissons Ratio (x) = 0.23223 0.03641
# Poissons Ratio (y) = 0.22410 0.30887
# Poissons Ratio (z) = 0.17316 1.52240
#
# Static dielectric constant tensor:
#      x y z
#    x 1.659890 0.000000 0.000000 
#    y 0.000000 1.666400 0.000000 
#    z 0.000000 0.000000 1.668600 
# 
# From -- ./inp_files/13434.got.cif
#   From: 2010.05.17/outbox.cif.g08.bks.cpg/sg44_7_cif.got.tgz:13434.got - 2010.06.03 19:37:08.
