data_PCOD9374893
_publ_section_title
;
Structure prediction by ZEFSAII (Michael W. Deem and Ramdas Pophale) SiO2 
 PCOD9374893
Probable space group: I M M 2
;
_chemical_formula_sum "Si O2"
_cell_formula_units_Z 64
_cell_length_a 15.593058
_cell_length_b 21.757744
_cell_length_c 9.759880
_cell_angle_alpha 90.000000
_cell_angle_beta 90.000000
_cell_angle_gamma 90.000000
_cell_volume 3311.232186
_symmetry_space_group_name_H-M "I M M 2"
_symmetry_group_IT_number 44
_symmetry_cell_setting 'orthorhombic'
loop_
_space_group_symop_operation_xyz
x,y,z
-x,-y,z
-x,y,z
x,-y,z
1/2+x,1/2+y,1/2+z
1/2-x,1/2-y,1/2+z
1/2-x,1/2+y,1/2+z
1/2+x,1/2-y,1/2+z
loop_
_atom_site_type_symbol
_atom_site_label
_atom_site_fract_x
_atom_site_fract_y
_atom_site_fract_z
Si Si1 0.676880 0.428850 0.909960
Si Si2 0.900207 0.241932 0.037625
Si Si3 0.405271 0.858940 0.731217
Si Si4 0.405239 0.425381 0.190208
Si Si5 0.728416 0.359161 0.640857
Si Si6 0.376517 0.931349 0.463552
Si Si7 0.404085 0.819866 0.264780
Si Si8 0.756385 0.427827 0.378410
O O1 0.654933 0.500000 0.873685
O O2 0.684963 0.384864 0.779485
O O3 0.773217 0.429785 0.970404
O O4 0.616907 0.406993 0.034200
O O5 0.884622 0.296199 0.149243
O O6 0.835110 0.187982 0.068157
O O7 0.000000 0.223710 0.051190
O O8 0.889522 0.270086 0.885581
O O9 0.500000 0.853186 0.793969
O O10 0.408534 0.908943 0.609520
O O11 0.333094 0.883420 0.831969
O O12 0.500000 0.403336 0.230919
O O13 0.406624 0.500000 0.188876
O O14 0.328647 0.409217 0.293025
O O15 0.819870 0.326368 0.671516
O O16 0.742573 0.416051 0.538693
O O17 0.405083 0.884144 0.347922
O O18 0.402474 0.000000 0.430933
O O19 0.500000 0.810045 0.204907
O O20 0.774268 0.500000 0.350407
#
# Coordination Sequence:
#
# PCOD9374893 Si02
#       8
#     8   8   8   8   8   8   8   8
#     4   9  17  33  55  86 119 151 200 252 293 349
#     4   9  21  41  62  84 113 152 208 261 302 353
#     4  10  20  35  57  83 115 153 196 248 295 350
#     4   9  18  35  58  81 114 159 200 241 289 348
#     4  11  23  36  63  87 119 163 196 247 314 363
#     4   9  15  28  54  85 113 146 189 236 286 343
#     4   9  20  38  57  83 118 155 196 242 291 357
#     4  11  23  38  56  91 132 163 196 241 307 381
#
# _framework density 19.328151999999999
#
# number of rings (size 3 to 8) (size 9 to 14) (size 15 to 20)
#    0.000    2.375    1.250    1.875    1.750    3.750 
#    0.000    0.000    0.000    3.750    0.000    0.000 
#    0.000    0.000    0.000    0.000    0.000    0.000 
#
# Total GULP energy -178472.048441 kJ/mol
# GULP energy per Si atom -5577.251514 kJ/mol
# Density = 1.928416 g / cm^3
# Si number density = 19.328152 Si / 1000 Ang^3
#
#
#
# Elastic Constant Matrix: (Units=GPa)
#
#
# Indices 1 2 3 4 5 6 
#
# 1 78.3744 22.0416 19.6828 0.0000 0.0000 0.0000
# 2 22.0416 40.2584 3.1622 0.0000 0.0000 0.0000
# 3 19.6828 3.1622 47.1135 0.0000 0.0000 0.0000
# 4 0.0000 0.0000 0.0000 11.8368 0.0000 0.0000
# 5 0.0000 0.0000 0.0000 0.0000 -16.5362 0.0000
# 6 0.0000 0.0000 0.0000 0.0000 0.0000 14.6355
#
#
#
# Elastic Compliance Matrix: (Units=1/GPa)
#
#
# Indices 1 2 3 4 5 6 
#
# 1 0.016826 -0.008706 -0.006445 0.000000 0.000000 0.000000
# 2 -0.008706 0.029476 0.001659 0.000000 0.000000 0.000000
# 3 -0.006445 0.001659 0.023807 0.000000 0.000000 0.000000
# 4 0.000000 0.000000 0.000000 0.084483 0.000000 0.000000
# 5 0.000000 0.000000 0.000000 0.000000 -0.060473 0.000000
# 6 0.000000 0.000000 0.000000 0.000000 0.000000 0.068327
#
#
# Mechanical properties :
#
#
# Convention : Reuss Voigt Hill
#
# Bulk Modulus (GPa) = 23.18913 28.39106 25.79010
# Shear Modulus (GPa) = 24.53320 10.04451 17.28885
#
# Velocity S-wave (km/s) = 3.56659 2.28213 2.99405
# Velocity P-wave (km/s) = 5.38371 4.65457 5.03236
#
# Compressibility (1/GPa) = 0.04312364
#
# Stress axis : x y z
#
# Youngs Moduli (GPa) = 59.43031 33.92600 42.00500
#
# Poissons Ratio (x) = 0.29537 0.27073
# Poissons Ratio (y) = 0.51742 -0.06968
# Poissons Ratio (z) = 0.38305 -0.05628
#
# Static dielectric constant tensor:
#      x y z
#    x 1.733760 0.000000 0.000000 
#    y 0.000000 1.656640 0.000000 
#    z 0.000000 0.000000 1.656340 
# 
# From -- ./inp_files/7536.got.cif
#   From: 2010.05.17/outbox.cif.g08.bks.cpg/sg44_4_cif.got.tgz:7536.got - 2010.06.03 19:37:08.
