data_PCOD9374464
_publ_section_title
;
Structure prediction by ZEFSAII (Michael W. Deem and Ramdas Pophale) SiO2 
 PCOD9374464
Probable space group: I M M 2
;
_chemical_formula_sum "Si O2"
_cell_formula_units_Z 56
_cell_length_a 8.767648
_cell_length_b 16.703530
_cell_length_c 23.591159
_cell_angle_alpha 90.000000
_cell_angle_beta 90.000000
_cell_angle_gamma 90.000000
_cell_volume 3454.941075
_symmetry_space_group_name_H-M "I M M 2"
_symmetry_group_IT_number 44
_symmetry_cell_setting 'orthorhombic'
loop_
_space_group_symop_operation_xyz
x,y,z
-x,-y,z
-x,y,z
x,-y,z
1/2+x,1/2+y,1/2+z
1/2-x,1/2-y,1/2+z
1/2-x,1/2+y,1/2+z
1/2+x,1/2-y,1/2+z
loop_
_atom_site_type_symbol
_atom_site_label
_atom_site_fract_x
_atom_site_fract_y
_atom_site_fract_z
Si Si1 0.316700 0.406269 0.135990
Si Si2 0.680115 0.000000 0.441668
Si Si3 0.818016 0.146296 0.510530
Si Si4 0.818205 0.756750 0.922315
Si Si5 0.817028 0.407929 0.364279
Si Si6 0.681742 0.176939 0.746387
Si Si7 0.317506 0.830106 0.304165
Si Si8 0.180896 0.000000 0.317013
O O1 0.500000 0.404748 0.142549
O O2 0.270504 0.500000 0.132585
O O3 0.280215 0.362415 0.076768
O O4 0.242194 0.362473 0.189148
O O5 0.728917 0.076604 0.477715
O O6 0.500000 0.000000 0.429853
O O7 0.769577 0.000000 0.382812
O O8 0.766832 0.226078 0.478180
O O9 0.000000 0.134179 0.504522
O O10 0.768040 0.845389 0.904423
O O11 0.775384 0.700576 0.867959
O O12 0.000000 0.751312 0.929479
O O13 0.774739 0.500000 0.373321
O O14 0.782876 0.381118 0.299723
O O15 0.000000 0.399794 0.371933
O O16 0.500000 0.186587 0.743795
O O17 0.756954 0.261952 0.761878
O O18 0.500000 0.833891 0.301992
O O19 0.248594 0.917320 0.292958
O O20 0.000000 0.000000 0.311653
#
# Coordination Sequence:
#
# PCOD9374464 Si02
#       8
#     8   4   8   8   8   8   8   4
#     4  10  21  36  52  74 103 138 176 211 254 306
#     4  12  22  32  48  74 108 140 172 211 252 303
#     4  11  21  35  52  73 104 141 176 211 251 306
#     4  10  20  32  49  75 105 134 169 212 258 307
#     4   9  18  33  52  74 102 135 172 210 253 306
#     4  10  20  34  52  76 104 136 173 214 256 302
#     4  10  20  34  51  74 105 138 172 213 256 306
#     4  12  22  32  52  78 106 140 172 209 256 309
#
# _framework density 16.208669
#
# number of rings (size 3 to 8) (size 9 to 14) (size 15 to 20)
#    0.000    1.714    2.143    3.429    0.000    4.000 
#    0.000    0.000    0.000    0.000    1.857    0.000 
#    0.000    0.000    0.000    0.000    0.000    0.000 
#
# Total GULP energy -156329.454831 kJ/mol
# GULP energy per Si atom -5583.194815 kJ/mol
# Density = 1.617178 g / cm^3
# Si number density = 16.208669 Si / 1000 Ang^3
#
#
#
# Elastic Constant Matrix: (Units=GPa)
#
#
# Indices 1 2 3 4 5 6 
#
# 1 52.0605 45.0663 37.0773 0.0000 0.0000 0.0000
# 2 45.0663 126.9088 54.4856 0.0000 0.0000 0.0000
# 3 37.0773 54.4856 95.8810 0.0000 0.0000 0.0000
# 4 0.0000 0.0000 0.0000 23.9112 0.0000 0.0000
# 5 0.0000 0.0000 0.0000 0.0000 26.1951 0.0000
# 6 0.0000 0.0000 0.0000 0.0000 0.0000 28.7400
#
#
#
# Elastic Compliance Matrix: (Units=1/GPa)
#
#
# Indices 1 2 3 4 5 6 
#
# 1 0.031525 -0.007884 -0.007710 0.000000 0.000000 0.000000
# 2 -0.007884 0.012394 -0.003994 0.000000 0.000000 0.000000
# 3 -0.007710 -0.003994 0.015681 0.000000 0.000000 0.000000
# 4 0.000000 0.000000 0.000000 0.041821 0.000000 0.000000
# 5 0.000000 0.000000 0.000000 0.000000 0.038175 0.000000
# 6 0.000000 0.000000 0.000000 0.000000 0.000000 0.034795
#
#
# Mechanical properties :
#
#
# Convention : Reuss Voigt Hill
#
# Bulk Modulus (GPa) = 48.96652 60.90096 54.93374
# Shear Modulus (GPa) = 22.68840 24.98400 23.83620
#
# Velocity S-wave (km/s) = 3.74541 3.93032 3.83898
# Velocity P-wave (km/s) = 6.99856 7.63225 7.32226
#
# Compressibility (1/GPa) = 0.02042212
#
# Stress axis : x y z
#
# Youngs Moduli (GPa) = 31.72100 80.68162 63.77152
#
# Poissons Ratio (x) = 0.63613 0.49169
# Poissons Ratio (y) = 0.25010 0.25472
# Poissons Ratio (z) = 0.24458 0.32227
#
# Static dielectric constant tensor:
#      x y z
#    x 1.539140 0.000000 0.000000 
#    y 0.000000 1.552210 0.000000 
#    z 0.000000 0.000000 1.521430 
# 
# From -- ./inp_files/23117.got.cif
#   From: 2010.05.17/outbox.cif.g08.bks.cpg/sg44_12_cif.got.tgz:23117.got - 2010.06.03 19:37:08.
