data_PCOD9374188
_publ_section_title
;
Structure prediction by ZEFSAII (Michael W. Deem and Ramdas Pophale) SiO2 
 PCOD9374188
Probable space group: I M M 2
;
_chemical_formula_sum "Si O2"
_cell_formula_units_Z 40
_cell_length_a 16.291024
_cell_length_b 22.479071
_cell_length_c 5.296876
_cell_angle_alpha 90.000000
_cell_angle_beta 90.000000
_cell_angle_gamma 90.000000
_cell_volume 1939.753520
_symmetry_space_group_name_H-M "I M M 2"
_symmetry_group_IT_number 44
_symmetry_cell_setting 'orthorhombic'
loop_
_space_group_symop_operation_xyz
x,y,z
-x,-y,z
-x,y,z
x,-y,z
1/2+x,1/2+y,1/2+z
1/2-x,1/2-y,1/2+z
1/2-x,1/2+y,1/2+z
1/2+x,1/2-y,1/2+z
loop_
_atom_site_type_symbol
_atom_site_label
_atom_site_fract_x
_atom_site_fract_y
_atom_site_fract_z
Si Si1 0.132568 0.618633 0.586790
Si Si2 0.213883 0.931813 0.893172
Si Si3 0.401578 0.752873 0.904590
Si Si4 0.626189 0.932233 0.585244
Si Si5 0.097612 0.178934 0.912151
O O1 0.220975 0.586737 0.607982
O O2 0.139726 0.684704 0.476990
O O3 0.089806 0.582566 0.360647
O O4 0.097881 0.612257 0.866447
O O5 0.276330 0.926355 0.654626
O O6 0.187475 0.000000 0.914964
O O7 0.142609 0.884062 0.902348
O O8 0.500000 0.764338 0.885770
O O9 0.387994 0.710633 0.144673
O O10 0.374465 0.720913 0.645882
O O11 0.609093 0.000000 0.510408
O O12 0.000000 0.170867 0.945198
#
# Coordination Sequence:
#
# PCOD9374188 Si02
#       5
#     8   8   8   8   8
#     4  10  19  34  58  81 109 146 183 228 280 331
#     4   9  21  36  58  83 112 146 184 231 279 329
#     4  10  22  39  57  80 113 150 187 230 278 332
#     4   9  18  33  53  82 112 141 179 226 275 326
#     4  10  22  38  56  81 114 149 187 229 275 333
#
# _framework density 20.621176999999999
#
# number of rings (size 3 to 8) (size 9 to 14) (size 15 to 20)
#    1.200    1.200    0.000    2.400    2.800    2.000 
#    0.000    0.000    0.000   10.200    0.000    0.000 
#    0.000    0.000    0.000    0.000    0.000    0.000 
#
# Total GULP energy -111377.343809 kJ/mol
# GULP energy per Si atom -5568.867190 kJ/mol
# Density = 2.057424 g / cm^3
# Si number density = 20.621177 Si / 1000 Ang^3
#
#
#
# Elastic Constant Matrix: (Units=GPa)
#
#
# Indices 1 2 3 4 5 6 
#
# 1 22.9523 27.3220 19.7700 0.0000 0.0000 0.0000
# 2 27.3220 114.4973 13.2488 0.0000 0.0000 0.0000
# 3 19.7700 13.2488 82.3112 0.0000 0.0000 0.0000
# 4 0.0000 0.0000 0.0000 13.0334 0.0000 0.0000
# 5 0.0000 0.0000 0.0000 0.0000 16.6459 0.0000
# 6 0.0000 0.0000 0.0000 0.0000 0.0000 42.8069
#
#
#
# Elastic Compliance Matrix: (Units=1/GPa)
#
#
# Indices 1 2 3 4 5 6 
#
# 1 0.076818 -0.016503 -0.015794 0.000000 0.000000 0.000000
# 2 -0.016503 0.012445 0.001961 0.000000 0.000000 0.000000
# 3 -0.015794 0.001961 0.015627 0.000000 0.000000 0.000000
# 4 0.000000 0.000000 0.000000 0.076726 0.000000 0.000000
# 5 0.000000 0.000000 0.000000 0.000000 0.060075 0.000000
# 6 0.000000 0.000000 0.000000 0.000000 0.000000 0.023361
#
#
# Mechanical properties :
#
#
# Convention : Reuss Voigt Hill
#
# Bulk Modulus (GPa) = 22.61597 37.82694 30.22145
# Shear Modulus (GPa) = 14.68583 25.12523 19.90553
#
# Velocity S-wave (km/s) = 2.67155 3.49437 3.11029
# Velocity P-wave (km/s) = 4.52851 5.88765 5.25223
#
# Compressibility (1/GPa) = 0.04421654
#
# Stress axis : x y z
#
# Youngs Moduli (GPa) = 13.01779 80.35329 63.99188
#
# Poissons Ratio (x) = 1.32608 1.01070
# Poissons Ratio (y) = 0.21483 -0.12547
# Poissons Ratio (z) = 0.20561 -0.15755
#
# Static dielectric constant tensor:
#      x y z
#    x 1.655450 0.000000 0.000000 
#    y 0.000000 1.714470 0.000000 
#    z 0.000000 0.000000 1.768900 
# 
# From -- ./inp_files/1971.got.cif
#   From: 2010.05.17/outbox.cif.g08.bks.cpg/sg44_1_cif.got.tgz:1971.got - 2010.06.03 19:37:08.
