data_PCOD9374338
_publ_section_title
;
Structure prediction by ZEFSAII (Michael W. Deem and Ramdas Pophale) SiO2 
 PCOD9374338
Probable space group: I M M 2
;
_chemical_formula_sum "Si O2"
_cell_formula_units_Z 64
_cell_length_a 14.983654
_cell_length_b 22.547238
_cell_length_c 9.718292
_cell_angle_alpha 90.000000
_cell_angle_beta 90.000000
_cell_angle_gamma 90.000000
_cell_volume 3283.227894
_symmetry_space_group_name_H-M "I M M 2"
_symmetry_group_IT_number 44
_symmetry_cell_setting 'orthorhombic'
loop_
_space_group_symop_operation_xyz
x,y,z
-x,-y,z
-x,y,z
x,-y,z
1/2+x,1/2+y,1/2+z
1/2-x,1/2-y,1/2+z
1/2-x,1/2+y,1/2+z
1/2+x,1/2-y,1/2+z
loop_
_atom_site_type_symbol
_atom_site_label
_atom_site_fract_x
_atom_site_fract_y
_atom_site_fract_z
Si Si1 0.666852 0.567371 0.490850
Si Si2 0.781046 0.866664 0.559532
Si Si3 0.902123 0.686782 0.389185
Si Si4 0.332385 0.067516 0.779408
Si Si5 0.225142 0.258945 0.892971
Si Si6 0.902502 0.162583 0.814255
Si Si7 0.242973 0.071180 0.279388
Si Si8 0.895453 0.344373 0.711870
O O1 0.638459 0.500000 0.506265
O O2 0.758645 0.568366 0.401584
O O3 0.597361 0.602236 0.399089
O O4 0.689364 0.590082 0.642692
O O5 0.718968 0.912976 0.641242
O O6 0.735182 0.804155 0.519412
O O7 0.859766 0.850103 0.665025
O O8 0.799080 0.897486 0.413218
O O9 0.894099 0.623956 0.310505
O O10 0.822019 0.732110 0.355744
O O11 0.894269 0.668749 0.549619
O O12 0.000000 0.713106 0.365123
O O13 0.368099 0.000000 0.771611
O O14 0.163417 0.201760 0.907400
O O15 0.169242 0.295258 0.779384
O O16 0.000000 0.189447 0.799873
O O17 0.343917 0.095373 0.254642
O O18 0.242349 0.000000 0.291071
O O19 0.000000 0.343342 0.755610
#
# Coordination Sequence:
#
# PCOD9374338 Si02
#       8
#     8   8   8   8   8   8   8   8
#     4   9  18  35  60  89 122 163 208 255 305 362
#     4  10  22  38  63  90 126 164 207 257 324 384
#     4  11  22  37  61  92 120 160 215 267 316 377
#     4  10  19  38  62  89 124 167 211 254 310 381
#     4  11  21  38  60  84 126 163 202 262 317 379
#     4  11  22  40  66  91 118 164 217 258 310 380
#     4  10  19  36  62  90 124 168 208 259 325 376
#     4  10  21  36  59  89 121 160 211 260 311 375
#
# _framework density 19.493012
#
# number of rings (size 3 to 8) (size 9 to 14) (size 15 to 20)
#    0.000    1.750    3.750    1.500    0.000    3.750 
#    0.000    5.000    0.000    3.750    0.000    0.000 
#    0.000    0.000    0.000    0.000    0.000    0.000 
#
# Total GULP energy -178314.063555 kJ/mol
# GULP energy per Si atom -5572.314486 kJ/mol
# Density = 1.944864 g / cm^3
# Si number density = 19.493012 Si / 1000 Ang^3
#
#
#
# Elastic Constant Matrix: (Units=GPa)
#
#
# Indices 1 2 3 4 5 6 
#
# 1 106.6112 34.1757 30.8829 0.0000 0.0000 0.0000
# 2 34.1757 70.4238 35.2389 0.0000 0.0000 0.0000
# 3 30.8829 35.2389 116.5506 0.0002 0.0000 0.0000
# 4 0.0000 0.0000 0.0002 29.8606 0.0000 0.0000
# 5 0.0000 0.0000 0.0000 0.0000 3.4478 0.0000
# 6 0.0000 0.0000 0.0000 0.0000 0.0000 9.0285
#
#
#
# Elastic Compliance Matrix: (Units=1/GPa)
#
#
# Indices 1 2 3 4 5 6 
#
# 1 0.011350 -0.004717 -0.001581 0.000000 0.000000 0.000000
# 2 -0.004717 0.018691 -0.004401 0.000000 0.000000 0.000000
# 3 -0.001581 -0.004401 0.010330 0.000000 0.000000 0.000000
# 4 0.000000 0.000000 0.000000 0.033489 0.000000 0.000000
# 5 0.000000 0.000000 0.000000 0.000000 0.290037 0.000000
# 6 0.000000 0.000000 0.000000 0.000000 0.000000 0.110761
#
#
# Mechanical properties :
#
#
# Convention : Reuss Voigt Hill
#
# Bulk Modulus (GPa) = 52.70967 54.90896 53.80931
# Shear Modulus (GPa) = 9.95261 21.35325 15.65293
#
# Velocity S-wave (km/s) = 2.26204 3.31332 2.83680
# Velocity P-wave (km/s) = 5.82421 6.54730 6.19631
#
# Compressibility (1/GPa) = 0.01897185
#
# Stress axis : x y z
#
# Youngs Moduli (GPa) = 88.10604 53.50141 96.80779
#
# Poissons Ratio (x) = 0.25235 0.15309
# Poissons Ratio (y) = 0.41557 0.42609
# Poissons Ratio (z) = 0.13933 0.23548
#
# Static dielectric constant tensor:
#      x y z
#    x 1.709730 0.000000 0.000000 
#    y 0.000000 1.743120 0.000000 
#    z 0.000000 0.000000 1.678690 
# 
# From -- ./inp_files/7551.got.cif
#   From: 2010.05.17/outbox.cif.g08.bks.cpg/sg44_4_cif.got.tgz:7551.got - 2010.06.03 19:37:08.
