data_PCOD9374691
_publ_section_title
;
Structure prediction by ZEFSAII (Michael W. Deem and Ramdas Pophale) SiO2 
 PCOD9374691
Probable space group: I M M 2
;
_chemical_formula_sum "Si O2"
_cell_formula_units_Z 64
_cell_length_a 33.219678
_cell_length_b 8.947081
_cell_length_c 12.084745
_cell_angle_alpha 90.000000
_cell_angle_beta 90.000000
_cell_angle_gamma 90.000000
_cell_volume 3591.817635
_symmetry_space_group_name_H-M "I M M 2"
_symmetry_group_IT_number 44
_symmetry_cell_setting 'orthorhombic'
loop_
_space_group_symop_operation_xyz
x,y,z
-x,-y,z
-x,y,z
x,-y,z
1/2+x,1/2+y,1/2+z
1/2-x,1/2-y,1/2+z
1/2-x,1/2+y,1/2+z
1/2+x,1/2-y,1/2+z
loop_
_atom_site_type_symbol
_atom_site_label
_atom_site_fract_x
_atom_site_fract_y
_atom_site_fract_z
Si Si1 0.048292 0.829085 0.887560
Si Si2 0.144448 0.820243 0.512785
Si Si3 0.689957 0.679768 0.581279
Si Si4 0.817765 0.672522 0.846743
Si Si5 0.275048 0.320357 0.145329
Si Si6 0.124228 0.181940 0.265391
Si Si7 0.400333 0.829764 0.207703
Si Si8 0.546221 0.682598 0.635518
O O1 0.065712 0.739033 0.785469
O O2 0.000000 0.831659 0.884139
O O3 0.063319 0.000000 0.879671
O O4 0.058591 0.770544 0.010713
O O5 0.188303 0.777857 0.561958
O O6 0.136140 0.766946 0.388206
O O7 0.111101 0.760341 0.597850
O O8 0.143199 0.000000 0.513280
O O9 0.691407 0.500000 0.576958
O O10 0.677832 0.745562 0.462905
O O11 0.733594 0.745717 0.609471
O O12 0.657766 0.724254 0.675184
O O13 0.804928 0.500000 0.862176
O O14 0.787354 0.759093 0.765893
O O15 0.860154 0.673161 0.783031
O O16 0.271868 0.500000 0.146435
O O17 0.080177 0.230162 0.222347
O O18 0.123599 0.000000 0.268069
O O19 0.409604 0.000000 0.178721
O O20 0.500000 0.729691 0.657683
O O21 0.545726 0.500000 0.633043
#
# Coordination Sequence:
#
# PCOD9374691 Si02
#       8
#     8   8   8   8   8   8   8   8
#     4   9  17  30  52  81 109 138 173 217 268 324
#     4   9  19  36  55  73 102 143 180 216 265 326
#     4  11  22  34  54  81 108 139 177 224 275 329
#     4  10  21  37  54  74 103 137 178 223 268 324
#     4  10  21  36  54  76 103 140 181 224 275 324
#     4   9  18  32  51  77 106 141 179 219 269 323
#     4  10  20  34  53  76 103 138 176 220 269 314
#     4   8  14  27  50  80 110 136 169 217 267 314
#
# _framework density 17.818276000000001
#
# number of rings (size 3 to 8) (size 9 to 14) (size 15 to 20)
#    0.000    2.500    0.000    3.000    1.750    3.250 
#    0.000    1.875    0.000    3.000    0.000    0.000 
#    0.000    0.000    0.000    0.000    0.000    0.000 
#
# Total GULP energy -178476.781176 kJ/mol
# GULP energy per Si atom -5577.399412 kJ/mol
# Density = 1.777772 g / cm^3
# Si number density = 17.818276 Si / 1000 Ang^3
#
#
#
# Elastic Constant Matrix: (Units=GPa)
#
#
# Indices 1 2 3 4 5 6 
#
# 1 68.6869 21.2854 60.5195 0.0000 0.0000 0.0000
# 2 21.2854 38.9546 34.4124 0.0000 0.0000 0.0000
# 3 60.5195 34.4124 157.7106 0.0000 0.0000 0.0000
# 4 0.0000 0.0000 0.0000 16.4643 0.0000 0.0000
# 5 0.0000 0.0000 0.0000 0.0000 14.4653 0.0000
# 6 0.0000 0.0000 0.0000 0.0000 0.0000 18.5761
#
#
#
# Elastic Compliance Matrix: (Units=1/GPa)
#
#
# Indices 1 2 3 4 5 6 
#
# 1 0.023048 -0.005922 -0.007552 0.000000 0.000000 0.000000
# 2 -0.005922 0.033322 -0.004998 0.000000 0.000000 0.000000
# 3 -0.007552 -0.004998 0.010329 0.000000 0.000000 0.000000
# 4 0.000000 0.000000 0.000000 0.060738 0.000000 0.000000
# 5 0.000000 0.000000 0.000000 0.000000 0.069131 0.000000
# 6 0.000000 0.000000 0.000000 0.000000 0.000000 0.053833
#
#
# Mechanical properties :
#
#
# Convention : Reuss Voigt Hill
#
# Bulk Modulus (GPa) = 33.60848 55.30964 44.45906
# Shear Modulus (GPa) = 16.81999 19.84345 18.33172
#
# Velocity S-wave (km/s) = 3.07575 3.34077 3.21100
# Velocity P-wave (km/s) = 5.61395 6.78154 6.22518
#
# Compressibility (1/GPa) = 0.02975440
#
# Stress axis : x y z
#
# Youngs Moduli (GPa) = 43.38712 30.00981 96.81060
#
# Poissons Ratio (x) = 0.17773 0.73114
# Poissons Ratio (y) = 0.25695 0.48389
# Poissons Ratio (z) = 0.32767 0.15000
#
# Static dielectric constant tensor:
#      x y z
#    x 1.609340 0.000000 0.000000 
#    y 0.000000 1.604300 0.000000 
#    z 0.000000 0.000000 1.600420 
# 
# From -- ./inp_files/15083.got.cif
#   From: 2010.05.17/outbox.cif.g08.bks.cpg/sg44_8_cif.got.tgz:15083.got - 2010.06.03 19:37:08.
