data_PCOD9374251
_publ_section_title
;
Structure prediction by ZEFSAII (Michael W. Deem and Ramdas Pophale) SiO2 
 PCOD9374251
Probable space group: I M M 2
;
_chemical_formula_sum "Si O2"
_cell_formula_units_Z 56
_cell_length_a 9.117237
_cell_length_b 17.265141
_cell_length_c 19.788114
_cell_angle_alpha 90.000000
_cell_angle_beta 90.000000
_cell_angle_gamma 90.000000
_cell_volume 3114.854590
_symmetry_space_group_name_H-M "I M M 2"
_symmetry_group_IT_number 44
_symmetry_cell_setting 'orthorhombic'
loop_
_space_group_symop_operation_xyz
x,y,z
-x,-y,z
-x,y,z
x,-y,z
1/2+x,1/2+y,1/2+z
1/2-x,1/2-y,1/2+z
1/2-x,1/2+y,1/2+z
1/2+x,1/2-y,1/2+z
loop_
_atom_site_type_symbol
_atom_site_label
_atom_site_fract_x
_atom_site_fract_y
_atom_site_fract_z
Si Si1 0.169430 0.238330 0.414250
Si Si2 0.178668 0.500000 0.500879
Si Si3 0.177716 0.000000 0.850639
Si Si4 0.670356 0.833357 0.049770
Si Si5 0.321670 0.154223 0.790745
Si Si6 0.172753 0.413625 0.745533
Si Si7 0.672316 0.916092 0.408111
Si Si8 0.174718 0.769245 0.175410
O O1 0.179253 0.299177 0.474693
O O2 0.221591 0.280860 0.346398
O O3 0.252010 0.160622 0.434024
O O4 0.000000 0.217892 0.402752
O O5 0.255656 0.500000 0.427197
O O6 0.217492 0.422739 0.542607
O O7 0.000000 0.500000 0.490584
O O8 0.240215 0.075721 0.811818
O O9 0.000000 0.000000 0.852887
O O10 0.500000 0.832469 0.070925
O O11 0.759852 0.780399 0.101115
O O12 0.500000 0.143301 0.795213
O O13 0.285004 0.192384 0.718269
O O14 0.215754 0.500000 0.721921
O O15 0.187165 0.413032 0.826663
O O16 0.264778 0.344561 0.714536
O O17 0.000000 0.403325 0.729998
O O18 0.500000 0.913790 0.423446
O O19 0.730891 0.000000 0.430817
O O20 0.000000 0.771657 0.173393
#
# Coordination Sequence:
#
# PCOD9374251 Si02
#       8
#     8   4   4   8   8   8   8   8
#     4  10  19  35  59  83 108 146 191 234 281 342
#     4  10  20  40  62  84 122 169 200 229 290 369
#     4  12  24  36  62  98 120 143 192 259 304 337
#     4  10  22  38  58  81 114 158 196 231 285 360
#     4  10  21  40  61  83 116 155 193 234 295 363
#     4   9  18  32  50  75 110 149 182 212 260 325
#     4   9  18  32  52  80 111 142 178 226 277 325
#     4  11  23  37  56  83 114 150 190 239 288 337
#
# _framework density 17.978366999999999
#
# number of rings (size 3 to 8) (size 9 to 14) (size 15 to 20)
#    0.000    2.000    2.857    1.929    1.000    3.429 
#    0.000    1.429    1.571    0.000    0.000    0.000 
#    0.000    0.000    0.000    0.000    0.000    0.000 
#
# Total GULP energy -156171.417598 kJ/mol
# GULP energy per Si atom -5577.550629 kJ/mol
# Density = 1.793745 g / cm^3
# Si number density = 17.978367 Si / 1000 Ang^3
#
#
#
# Elastic Constant Matrix: (Units=GPa)
#
#
# Indices 1 2 3 4 5 6 
#
# 1 36.0659 25.5587 16.9896 0.0000 0.0000 0.0000
# 2 25.5587 93.5665 10.9797 0.0000 0.0000 0.0000
# 3 16.9896 10.9797 51.9677 0.0000 0.0000 0.0000
# 4 0.0000 0.0000 0.0000 22.4348 0.0000 0.0000
# 5 0.0000 0.0000 0.0000 0.0000 27.6104 0.0000
# 6 0.0000 0.0000 0.0000 0.0000 0.0000 28.1636
#
#
#
# Elastic Compliance Matrix: (Units=1/GPa)
#
#
# Indices 1 2 3 4 5 6 
#
# 1 0.039648 -0.009546 -0.010945 0.000000 0.000000 0.000000
# 2 -0.009546 0.013258 0.000320 0.000000 0.000000 0.000000
# 3 -0.010945 0.000320 0.022753 0.000000 0.000000 0.000000
# 4 0.000000 0.000000 0.000000 0.044574 0.000000 0.000000
# 5 0.000000 0.000000 0.000000 0.000000 0.036218 0.000000
# 6 0.000000 0.000000 0.000000 0.000000 0.000000 0.035507
#
#
# Mechanical properties :
#
#
# Convention : Reuss Voigt Hill
#
# Bulk Modulus (GPa) = 28.31544 32.07290 30.19417
# Shear Modulus (GPa) = 20.48576 24.17990 22.33283
#
# Velocity S-wave (km/s) = 3.37926 3.67133 3.52832
# Velocity P-wave (km/s) = 5.56864 5.98748 5.78186
#
# Compressibility (1/GPa) = 0.03531642
#
# Stress axis : x y z
#
# Youngs Moduli (GPa) = 25.22212 75.42835 43.94945
#
# Poissons Ratio (x) = 0.72003 0.48103
# Poissons Ratio (y) = 0.24077 -0.01405
# Poissons Ratio (z) = 0.27606 -0.02412
#
# Static dielectric constant tensor:
#      x y z
#    x 1.612020 0.000000 0.000000 
#    y 0.000000 1.617050 0.000000 
#    z 0.000000 0.000000 1.626270 
# 
# From -- ./inp_files/23119.got.cif
#   From: 2010.05.17/outbox.cif.g08.bks.cpg/sg44_12_cif.got.tgz:23119.got - 2010.06.03 19:37:08.
