data_PCOD9374155
_publ_section_title
;
Structure prediction by ZEFSAII (Michael W. Deem and Ramdas Pophale) SiO2 
 PCOD9374155
Probable space group: I M M 2
;
_chemical_formula_sum "Si O2"
_cell_formula_units_Z 64
_cell_length_a 8.536219
_cell_length_b 29.013052
_cell_length_c 13.995965
_cell_angle_alpha 90.000000
_cell_angle_beta 90.000000
_cell_angle_gamma 90.000000
_cell_volume 3466.265405
_symmetry_space_group_name_H-M "I M M 2"
_symmetry_group_IT_number 44
_symmetry_cell_setting 'orthorhombic'
loop_
_space_group_symop_operation_xyz
x,y,z
-x,-y,z
-x,y,z
x,-y,z
1/2+x,1/2+y,1/2+z
1/2-x,1/2-y,1/2+z
1/2-x,1/2+y,1/2+z
1/2+x,1/2-y,1/2+z
loop_
_atom_site_type_symbol
_atom_site_label
_atom_site_fract_x
_atom_site_fract_y
_atom_site_fract_z
Si Si1 0.173522 0.294741 0.026850
Si Si2 0.688849 0.946299 0.919015
Si Si3 0.311205 0.106965 0.309559
Si Si4 0.813052 0.945597 0.124537
Si Si5 0.178860 0.789420 0.715609
Si Si6 0.322517 0.093866 0.517972
Si Si7 0.317524 0.708999 0.831985
Si Si8 0.809123 0.392637 0.226599
O O1 0.305286 0.282960 0.102280
O O2 0.000000 0.280171 0.058109
O O3 0.170014 0.350302 0.018079
O O4 0.217640 0.276671 0.924123
O O5 0.500000 0.944042 0.924790
O O6 0.736032 0.919919 0.822318
O O7 0.734798 0.000000 0.910055
O O8 0.756094 0.928623 0.020078
O O9 0.500000 0.109863 0.316263
O O10 0.262893 0.079160 0.215570
O O11 0.254528 0.084636 0.411662
O O12 0.242991 0.158606 0.301235
O O13 0.000000 0.940568 0.130070
O O14 0.773314 0.000000 0.128812
O O15 0.285132 0.749428 0.758362
O O16 0.245105 0.840634 0.734269
O O17 0.000000 0.785538 0.747488
O O18 0.500000 0.074828 0.518288
O O19 0.254726 0.084922 0.624600
O O20 0.500000 0.705105 0.855510
O O21 0.000000 0.390820 0.221323
#
# Coordination Sequence:
#
# PCOD9374155 Si02
#       8
#     8   8   8   8   8   8   8   8
#     4   9  17  33  53  73 100 136 177 218 264 318
#     4   9  18  34  57  82 108 142 184 229 278 333
#     4  10  19  34  56  81 108 140 182 226 272 330
#     4  10  21  37  56  78 108 146 186 230 282 334
#     4  11  21  34  52  77 107 142 183 224 270 325
#     4   7  13  27  50  76 102 132 163 205 259 315
#     4  11  21  35  54  78 108 142 179 222 274 329
#     4   9  17  33  55  79 108 140 177 221 274 332
#
# _framework density 18.463677000000001
#
# number of rings (size 3 to 8) (size 9 to 14) (size 15 to 20)
#    0.000    2.500    0.000    4.875    0.000    1.250 
#    2.250    1.250    0.000    2.250    0.000    1.750 
#    0.000    0.000    0.000    0.000    0.000    0.000 
#
# Total GULP energy -178175.701003 kJ/mol
# GULP energy per Si atom -5567.990656 kJ/mol
# Density = 1.842165 g / cm^3
# Si number density = 18.463677 Si / 1000 Ang^3
#
#
#
# Elastic Constant Matrix: (Units=GPa)
#
#
# Indices 1 2 3 4 5 6 
#
# 1 45.2154 14.6229 22.1569 0.0000 0.0000 0.0000
# 2 14.6229 40.1288 49.5526 0.0000 0.0000 0.0000
# 3 22.1569 49.5526 160.5132 0.0000 0.0000 0.0001
# 4 0.0000 0.0000 0.0000 28.1868 0.0000 0.0000
# 5 0.0000 0.0000 0.0000 0.0000 20.6278 0.0000
# 6 0.0000 0.0000 0.0001 0.0000 0.0000 18.5122
#
#
#
# Elastic Compliance Matrix: (Units=1/GPa)
#
#
# Indices 1 2 3 4 5 6 
#
# 1 0.025178 -0.007891 -0.001039 0.000000 0.000000 0.000000
# 2 -0.007891 0.042745 -0.012107 0.000000 0.000000 0.000000
# 3 -0.001039 -0.012107 0.010111 0.000000 0.000000 0.000000
# 4 0.000000 0.000000 0.000000 0.035478 0.000000 0.000000
# 5 0.000000 0.000000 0.000000 0.000000 0.048478 0.000000
# 6 0.000000 0.000000 0.000000 0.000000 0.000000 0.054018
#
#
# Mechanical properties :
#
#
# Convention : Reuss Voigt Hill
#
# Bulk Modulus (GPa) = 27.80928 46.50245 37.15587
# Shear Modulus (GPa) = 18.51376 24.10036 21.30706
#
# Velocity S-wave (km/s) = 3.17000 3.61679 3.40074
# Velocity P-wave (km/s) = 5.33787 6.53316 5.96553
#
# Compressibility (1/GPa) = 0.03595921
#
# Stress axis : x y z
#
# Youngs Moduli (GPa) = 39.71758 23.39441 98.90224
#
# Poissons Ratio (x) = 0.18461 0.10279
# Poissons Ratio (y) = 0.31343 1.19738
# Poissons Ratio (z) = 0.04128 0.28323
#
# Static dielectric constant tensor:
#      x y z
#    x 1.623130 0.000000 0.000000 
#    y 0.000000 1.607400 0.000000 
#    z 0.000000 0.000000 1.679120 
# 
# From -- ./inp_files/11418.got.cif
#   From: 2010.05.17/outbox.cif.g08.bks.cpg/sg44_6_cif.got.tgz:11418.got - 2010.06.03 19:37:08.
