data_PCOD9374975
_publ_section_title
;
Structure prediction by ZEFSAII (Michael W. Deem and Ramdas Pophale) SiO2 
 PCOD9374975
Probable space group: I M M 2
;
_chemical_formula_sum "Si O2"
_cell_formula_units_Z 58
_cell_length_a 24.896932
_cell_length_b 12.312887
_cell_length_c 10.078147
_cell_angle_alpha 90.000000
_cell_angle_beta 90.000000
_cell_angle_gamma 90.000000
_cell_volume 3089.487310
_symmetry_space_group_name_H-M "I M M 2"
_symmetry_group_IT_number 44
_symmetry_cell_setting 'orthorhombic'
loop_
_space_group_symop_operation_xyz
x,y,z
-x,-y,z
-x,y,z
x,-y,z
1/2+x,1/2+y,1/2+z
1/2-x,1/2-y,1/2+z
1/2-x,1/2+y,1/2+z
1/2+x,1/2-y,1/2+z
loop_
_atom_site_type_symbol
_atom_site_label
_atom_site_fract_x
_atom_site_fract_y
_atom_site_fract_z
Si Si1 0.758090 0.127433 0.524620
Si Si2 0.148724 0.874781 0.310188
Si Si3 0.063311 0.376775 0.965148
Si Si4 0.058029 0.300238 0.378737
Si Si5 0.000000 0.500000 0.268412
Si Si6 0.061135 0.706486 0.675052
Si Si7 0.343057 0.285024 0.523975
Si Si8 0.153085 0.874751 0.733902
O O1 0.798975 0.142988 0.401818
O O2 0.705982 0.200938 0.515695
O O3 0.792662 0.154944 0.655855
O O4 0.743466 0.000000 0.529198
O O5 0.104444 0.784086 0.346014
O O6 0.161399 0.855736 0.155921
O O7 0.131170 0.000000 0.332544
O O8 0.076244 0.500000 0.004811
O O9 0.101988 0.285609 0.024072
O O10 0.000000 0.360003 0.995842
O O11 0.069493 0.367466 0.804698
O O12 0.046406 0.403083 0.285218
O O13 0.065581 0.345236 0.529271
O O14 0.000000 0.240289 0.379974
O O15 0.104590 0.801123 0.682747
O O16 0.000000 0.747962 0.688128
O O17 0.342365 0.355221 0.390285
O O18 0.142391 0.000000 0.703466
#
# Coordination Sequence:
#
# PCOD9374975 Si02
#       8
#     8   8   8   8   2   8   8   8
#     4  10  21  39  61  83 111 151 201 254 300 354
#     4  11  23  40  62  86 121 161 201 246 299 361
#     4   9  19  34  55  83 116 154 192 238 297 363
#     4   9  19  36  58  89 120 157 193 246 299 350
#     4   8  20  36  58  88 130 152 192 254 296 348
#     4   9  17  30  56  85 112 146 190 234 289 346
#     4  11  22  38  58  84 115 155 195 245 302 356
#     4  10  20  36  57  82 113 147 189 242 294 346
#
# _framework density 18.773342
#
# number of rings (size 3 to 8) (size 9 to 14) (size 15 to 20)
#    0.414    1.793    1.379    1.655    0.966    1.103 
#    2.483    1.379    3.034    3.310    0.000    0.000 
#    0.000    0.000    0.000    0.000    0.000    0.000 
#
# Total GULP energy -161458.595033 kJ/mol
# GULP energy per Si atom -5567.537760 kJ/mol
# Density = 1.873061 g / cm^3
# Si number density = 18.773342 Si / 1000 Ang^3
#
#
#
# Elastic Constant Matrix: (Units=GPa)
#
#
# Indices 1 2 3 4 5 6 
#
# 1 44.5715 30.4262 -2.3496 0.0000 0.0000 0.0000
# 2 30.4262 70.7927 4.0602 0.0000 0.0000 0.0000
# 3 -2.3496 4.0602 87.9694 0.0000 0.0000 0.0000
# 4 0.0000 0.0000 0.0000 18.4177 0.0000 0.0000
# 5 0.0000 0.0000 0.0000 0.0000 12.4901 0.0000
# 6 0.0000 0.0000 0.0000 0.0000 0.0000 24.6589
#
#
#
# Elastic Compliance Matrix: (Units=1/GPa)
#
#
# Indices 1 2 3 4 5 6 
#
# 1 0.031945 -0.013815 0.001491 0.000000 0.000000 0.000000
# 2 -0.013815 0.020138 -0.001298 0.000000 0.000000 0.000000
# 3 0.001491 -0.001298 0.011467 0.000000 0.000000 0.000000
# 4 0.000000 0.000000 0.000000 0.054296 0.000000 0.000000
# 5 0.000000 0.000000 0.000000 0.000000 0.080063 0.000000
# 6 0.000000 0.000000 0.000000 0.000000 0.000000 0.040553
#
#
# Mechanical properties :
#
#
# Convention : Reuss Voigt Hill
#
# Bulk Modulus (GPa) = 27.54460 29.73413 28.63936
# Shear Modulus (GPa) = 17.99786 22.52645 20.26215
#
# Velocity S-wave (km/s) = 3.09963 3.46774 3.28884
# Velocity P-wave (km/s) = 5.24541 5.64858 5.45073
#
# Compressibility (1/GPa) = 0.03630476
#
# Stress axis : x y z
#
# Youngs Moduli (GPa) = 31.30337 49.65731 87.20419
#
# Poissons Ratio (x) = 0.68604 -0.13001
# Poissons Ratio (y) = 0.43247 0.11323
# Poissons Ratio (z) = -0.04667 0.06448
#
# Static dielectric constant tensor:
#      x y z
#    x 1.623710 0.000000 0.000000 
#    y 0.000000 1.603110 0.000000 
#    z 0.000000 0.000000 1.721750 
# 
# From -- ./inp_files/9747.got.cif
#   From: 2010.05.17/outbox.cif.g08.bks.cpg/sg44_5_cif.got.tgz:9747.got - 2010.06.03 19:37:08.
