data_PCOD9374104
_publ_section_title
;
Structure prediction by ZEFSAII (Michael W. Deem and Ramdas Pophale) SiO2 
 PCOD9374104
Probable space group: I M M 2
;
_chemical_formula_sum "Si O2"
_cell_formula_units_Z 58
_cell_length_a 7.582001
_cell_length_b 14.766191
_cell_length_c 25.896196
_cell_angle_alpha 90.000000
_cell_angle_beta 90.000000
_cell_angle_gamma 90.000000
_cell_volume 2899.267535
_symmetry_space_group_name_H-M "I M M 2"
_symmetry_group_IT_number 44
_symmetry_cell_setting 'orthorhombic'
loop_
_space_group_symop_operation_xyz
x,y,z
-x,-y,z
-x,y,z
x,-y,z
1/2+x,1/2+y,1/2+z
1/2-x,1/2-y,1/2+z
1/2-x,1/2+y,1/2+z
1/2+x,1/2-y,1/2+z
loop_
_atom_site_type_symbol
_atom_site_label
_atom_site_fract_x
_atom_site_fract_y
_atom_site_fract_z
Si Si1 0.713493 0.396706 0.659970
Si Si2 0.705396 0.900137 0.414806
Si Si3 0.288298 0.296109 0.558114
Si Si4 0.209470 0.098890 0.533559
Si Si5 0.216153 0.158578 0.272894
Si Si6 0.302790 0.781103 0.860198
Si Si7 0.707360 0.398135 0.456389
Si Si8 0.500000 0.000000 0.297149
O O1 0.500000 0.401003 0.656583
O O2 0.777442 0.500000 0.666738
O O3 0.778507 0.352863 0.606960
O O4 0.752395 0.340973 0.711670
O O5 0.500000 0.899594 0.398915
O O6 0.709674 0.890534 0.476538
O O7 0.799774 0.815834 0.389594
O O8 0.778017 0.000000 0.402911
O O9 0.500000 0.304290 0.557511
O O10 0.250614 0.189875 0.563903
O O11 0.220523 0.336093 0.503324
O O12 0.000000 0.096116 0.526348
O O13 0.265833 0.000000 0.554223
O O14 0.264260 0.250115 0.304113
O O15 0.341958 0.078968 0.293805
O O16 0.000000 0.143563 0.279404
O O17 0.500000 0.814662 0.853074
O O18 0.219131 0.849794 0.900868
O O19 0.500000 0.406211 0.467110
O O20 0.782036 0.500000 0.456383
#
# Coordination Sequence:
#
# PCOD9374104 Si02
#       8
#     8   8   8   8   8   8   8   2
#     4   9  17  35  58  81 116 151 183 231 286 338
#     4  10  20  31  49  74 104 140 182 225 269 331
#     4  10  19  33  58  85 109 148 192 231 282 342
#     4  10  20  34  49  72 110 149 180 223 282 334
#     4  10  23  39  57  86 121 158 195 241 294 353
#     4  11  23  36  54  79 113 149 187 230 284 343
#     4  10  21  37  57  83 113 147 191 237 285 345
#     4  12  22  36  64  86 122 160 198 236 296 348
#
# _framework density 20.005051999999999
#
# number of rings (size 3 to 8) (size 9 to 14) (size 15 to 20)
#    0.000    1.931    2.069    1.862    2.897    3.586 
#    1.241    0.000    0.000    1.655    0.000    5.793 
#    0.000    0.000    0.000    0.000    0.000    0.000 
#
# Total GULP energy -161471.163031 kJ/mol
# GULP energy per Si atom -5567.971139 kJ/mol
# Density = 1.995952 g / cm^3
# Si number density = 20.005052 Si / 1000 Ang^3
#
#
#
# Elastic Constant Matrix: (Units=GPa)
#
#
# Indices 1 2 3 4 5 6 
#
# 1 64.2051 4.6781 10.8749 0.0000 0.0000 0.0000
# 2 4.6781 109.7223 58.6415 0.0000 0.0000 0.0000
# 3 10.8749 58.6415 113.0181 0.0000 0.0000 0.0000
# 4 0.0000 0.0000 0.0000 -1.0007 0.0000 0.0000
# 5 0.0000 0.0000 0.0000 0.0000 13.3682 0.0000
# 6 0.0000 0.0000 0.0000 0.0000 0.0000 23.0983
#
#
#
# Elastic Compliance Matrix: (Units=1/GPa)
#
#
# Indices 1 2 3 4 5 6 
#
# 1 0.015836 0.000193 -0.001624 0.000000 0.000000 0.000000
# 2 0.000193 0.012613 -0.006563 0.000000 0.000000 0.000000
# 3 -0.001624 -0.006563 0.012410 0.000000 0.000000 0.000000
# 4 0.000000 0.000000 0.000000 -0.999321 0.000000 0.000000
# 5 0.000000 0.000000 0.000000 0.000000 0.074805 0.000000
# 6 0.000000 0.000000 0.000000 0.000000 0.000000 0.043293
#
#
# Mechanical properties :
#
#
# Convention : Reuss Voigt Hill
#
# Bulk Modulus (GPa) = 40.20803 48.37049 44.28926
# Shear Modulus (GPa) = -6.12682 21.27655 7.57486
#
# Velocity S-wave (km/s) = -1.75194 3.26476 1.94800
# Velocity P-wave (km/s) = 4.00627 6.20026 5.21984
#
# Compressibility (1/GPa) = 0.02487066
#
# Stress axis : x y z
#
# Youngs Moduli (GPa) = 63.14692 79.28030 80.58113
#
# Poissons Ratio (x) = -0.01527 0.13084
# Poissons Ratio (y) = -0.01216 0.52888
# Poissons Ratio (z) = 0.10253 0.52034
#
# Static dielectric constant tensor:
#      x y z
#    x 1.751150 0.000000 0.000000 
#    y 0.000000 1.754830 0.000000 
#    z 0.000000 0.000000 1.748190 
# 
# From -- ./inp_files/25048.got.cif
#   From: 2010.05.17/outbox.cif.g08.bks.cpg/sg44_13_cif.got.tgz:25048.got - 2010.06.03 19:37:08.
