data_PCOD9374281
_publ_section_title
;
Structure prediction by ZEFSAII (Michael W. Deem and Ramdas Pophale) SiO2 
 PCOD9374281
Probable space group: I M M 2
;
_chemical_formula_sum "Si O2"
_cell_formula_units_Z 64
_cell_length_a 14.946304
_cell_length_b 18.823726
_cell_length_c 11.551791
_cell_angle_alpha 90.000000
_cell_angle_beta 90.000000
_cell_angle_gamma 90.000000
_cell_volume 3250.040155
_symmetry_space_group_name_H-M "I M M 2"
_symmetry_group_IT_number 44
_symmetry_cell_setting 'orthorhombic'
loop_
_space_group_symop_operation_xyz
x,y,z
-x,-y,z
-x,y,z
x,-y,z
1/2+x,1/2+y,1/2+z
1/2-x,1/2-y,1/2+z
1/2-x,1/2+y,1/2+z
1/2+x,1/2-y,1/2+z
loop_
_atom_site_type_symbol
_atom_site_label
_atom_site_fract_x
_atom_site_fract_y
_atom_site_fract_z
Si Si1 0.629533 0.919226 0.483150
Si Si2 0.154309 0.918407 0.490879
Si Si3 0.600779 0.267648 0.074332
Si Si4 0.234484 0.296111 0.391006
Si Si5 0.660028 0.828124 0.278493
Si Si6 0.670823 0.583337 0.729943
Si Si7 0.899438 0.689589 0.182545
Si Si8 0.601289 0.668608 0.529193
O O1 0.737914 0.920429 0.488128
O O2 0.605097 0.877474 0.365796
O O3 0.599990 0.876212 0.595210
O O4 0.599370 0.000000 0.481317
O O5 0.125577 0.851708 0.570118
O O6 0.129620 0.900414 0.356995
O O7 0.123970 0.000000 0.518403
O O8 0.500000 0.262375 0.031606
O O9 0.609326 0.226755 0.196142
O O10 0.666527 0.223374 0.992485
O O11 0.280066 0.222128 0.358344
O O12 0.176268 0.319528 0.280139
O O13 0.318760 0.341372 0.437120
O O14 0.733875 0.876984 0.215303
O O15 0.687178 0.500000 0.729288
O O16 0.608681 0.608218 0.626157
O O17 0.880309 0.758767 0.102485
O O18 0.000000 0.699038 0.231593
O O19 0.500000 0.673386 0.481776
#
# Coordination Sequence:
#
# PCOD9374281 Si02
#       8
#     8   8   8   8   8   8   8   8
#     4  10  20  39  66  91 119 158 208 264 318 362
#     4   9  18  35  58  90 127 162 202 255 316 373
#     4  12  23  35  59  95 128 167 208 248 306 374
#     4  12  20  39  62  86 125 162 201 252 311 368
#     4  11  20  37  62  91 123 161 206 252 306 371
#     4  10  19  35  61  90 122 162 205 255 314 368
#     4  11  22  37  61  92 123 163 211 257 306 367
#     4  11  22  37  60  91 124 161 209 259 309 373
#
# _framework density 19.692063000000001
#
# number of rings (size 3 to 8) (size 9 to 14) (size 15 to 20)
#    0.000    1.250    6.250    2.250    0.000    3.250 
#    0.000    1.875    0.000    1.875    0.000    1.750 
#    0.000    0.000    0.000    0.000    0.000    0.000 
#
# Total GULP energy -178534.313731 kJ/mol
# GULP energy per Si atom -5579.197304 kJ/mol
# Density = 1.964724 g / cm^3
# Si number density = 19.692063 Si / 1000 Ang^3
#
#
#
# Elastic Constant Matrix: (Units=GPa)
#
#
# Indices 1 2 3 4 5 6 
#
# 1 97.2709 -10.1823 18.0148 0.0000 0.0000 0.0000
# 2 -10.1823 73.8459 13.0998 0.0000 0.0000 0.0000
# 3 18.0148 13.0998 39.5978 0.0000 0.0000 0.0000
# 4 0.0000 0.0000 0.0000 32.8584 0.0000 0.0000
# 5 0.0000 0.0000 0.0000 0.0000 -12.7818 0.0000
# 6 0.0000 0.0000 0.0000 0.0000 0.0000 26.1015
#
#
#
# Elastic Compliance Matrix: (Units=1/GPa)
#
#
# Indices 1 2 3 4 5 6 
#
# 1 0.011720 0.002722 -0.006232 0.000000 0.000000 0.000000
# 2 0.002722 0.015018 -0.006206 0.000000 0.000000 0.000000
# 3 -0.006232 -0.006206 0.030142 0.000000 0.000000 0.000000
# 4 0.000000 0.000000 0.000000 0.030434 0.000000 0.000000
# 5 0.000000 0.000000 0.000000 0.000000 -0.078236 0.000000
# 6 0.000000 0.000000 0.000000 0.000000 0.000000 0.038312
#
#
# Mechanical properties :
#
#
# Convention : Reuss Voigt Hill
#
# Bulk Modulus (GPa) = 26.70513 28.06436 27.38474
# Shear Modulus (GPa) = 63.04750 21.88777 42.46764
#
# Velocity S-wave (km/s) = 5.66447 3.33754 4.64894
# Velocity P-wave (km/s) = 7.50816 5.39766 6.53862
#
# Compressibility (1/GPa) = 0.03744599
#
# Stress axis : x y z
#
# Youngs Moduli (GPa) = 85.32676 66.58701 33.17589
#
# Poissons Ratio (x) = -0.18122 0.20676
# Poissons Ratio (y) = -0.23222 0.20590
# Poissons Ratio (z) = 0.53177 0.41326
#
# Static dielectric constant tensor:
#      x y z
#    x 1.757290 0.000000 0.000000 
#    y 0.000000 1.700100 0.000000 
#    z 0.000000 0.000000 1.730400 
# 
# From -- ./inp_files/13438.got.cif
#   From: 2010.05.17/outbox.cif.g08.bks.cpg/sg44_7_cif.got.tgz:13438.got - 2010.06.03 19:37:08.
