data_PCOD9374133
_publ_section_title
;
Structure prediction by ZEFSAII (Michael W. Deem and Ramdas Pophale) SiO2 
 PCOD9374133
Probable space group: I M M 2
;
_chemical_formula_sum "Si O2"
_cell_formula_units_Z 48
_cell_length_a 7.524972
_cell_length_b 14.147591
_cell_length_c 19.332855
_cell_angle_alpha 90.000000
_cell_angle_beta 90.000000
_cell_angle_gamma 90.000000
_cell_volume 2058.180115
_symmetry_space_group_name_H-M "I M M 2"
_symmetry_group_IT_number 44
_symmetry_cell_setting 'orthorhombic'
loop_
_space_group_symop_operation_xyz
x,y,z
-x,-y,z
-x,y,z
x,-y,z
1/2+x,1/2+y,1/2+z
1/2-x,1/2-y,1/2+z
1/2-x,1/2+y,1/2+z
1/2+x,1/2-y,1/2+z
loop_
_atom_site_type_symbol
_atom_site_label
_atom_site_fract_x
_atom_site_fract_y
_atom_site_fract_z
Si Si1 0.282876 0.609473 0.558760
Si Si2 0.206270 0.396624 0.271989
Si Si3 0.706291 0.686297 0.412322
Si Si4 0.713325 0.396664 0.071668
Si Si5 0.801566 0.239282 0.174152
Si Si6 0.213233 0.102386 0.408925
O O1 0.500000 0.615748 0.561816
O O2 0.235458 0.500000 0.550157
O O3 0.223463 0.667360 0.490165
O O4 0.218779 0.651726 0.632340
O O5 0.285756 0.500000 0.257536
O O6 0.209275 0.378076 0.353608
O O7 0.285522 0.304619 0.233321
O O8 0.000000 0.398862 0.249716
O O9 0.500000 0.660889 0.414673
O O10 0.722554 0.794768 0.386954
O O11 0.500000 0.384695 0.078372
O O12 0.760874 0.500000 0.099535
O O13 0.809581 0.314914 0.111773
O O14 0.754981 0.397306 0.990710
O O15 0.000000 0.211050 0.198453
O O16 0.000000 0.102985 0.401333
O O17 0.276529 0.000000 0.380813
#
# Coordination Sequence:
#
# PCOD9374133 Si02
#       6
#     8   8   8   8   8   8
#     4   9  18  33  54  81 109 138 180 232 282 331
#     4  10  22  38  55  79 113 151 188 230 284 345
#     4  11  21  35  57  84 114 148 186 234 285 333
#     4   9  17  29  48  76 109 140 170 214 272 328
#     4  10  19  34  55  79 107 142 186 235 278 322
#     4   9  18  33  53  79 112 147 182 223 275 334
#
# _framework density 23.321572
#
# number of rings (size 3 to 8) (size 9 to 14) (size 15 to 20)
#    0.000    2.333    1.667    2.500    0.000    3.000 
#    0.000    2.500    0.000    4.500    0.000    0.000 
#    0.000    0.000    0.000    0.000    0.000    0.000 
#
# Total GULP energy -133839.042057 kJ/mol
# GULP energy per Si atom -5576.626752 kJ/mol
# Density = 2.326849 g / cm^3
# Si number density = 23.321572 Si / 1000 Ang^3
#
#
#
# Elastic Constant Matrix: (Units=GPa)
#
#
# Indices 1 2 3 4 5 6 
#
# 1 54.6907 -2.3463 0.2424 0.0000 0.0000 0.0000
# 2 -2.3463 131.9202 37.4442 0.0000 0.0000 0.0000
# 3 0.2424 37.4442 85.5384 0.0000 0.0000 0.0000
# 4 0.0000 0.0000 0.0000 23.3879 0.0000 0.0000
# 5 0.0000 0.0000 0.0000 0.0000 13.9331 0.0000
# 6 0.0000 0.0000 0.0000 0.0000 0.0000 -62.4653
#
#
#
# Elastic Compliance Matrix: (Units=1/GPa)
#
#
# Indices 1 2 3 4 5 6 
#
# 1 0.018302 0.000389 -0.000222 0.000000 0.000000 0.000000
# 2 0.000389 0.008664 -0.003794 0.000000 0.000000 0.000000
# 3 -0.000222 -0.003794 0.013352 0.000000 0.000000 0.000000
# 4 0.000000 0.000000 0.000000 0.042757 0.000000 0.000000
# 5 0.000000 0.000000 0.000000 0.000000 0.071771 0.000000
# 6 0.000000 0.000000 0.000000 0.000000 0.000000 -0.016009
#
#
# Mechanical properties :
#
#
# Convention : Reuss Voigt Hill
#
# Bulk Modulus (GPa) = 30.24441 38.09221 34.16831
# Shear Modulus (GPa) = 31.82407 10.75840 21.29123
#
# Velocity S-wave (km/s) = 3.69802 2.15014 3.02477
# Velocity P-wave (km/s) = 5.58842 4.74690 5.18476
#
# Compressibility (1/GPa) = 0.03306396
#
# Stress axis : x y z
#
# Youngs Moduli (GPa) = 54.63796 115.41916 74.89519
#
# Poissons Ratio (x) = -0.04484 0.01662
# Poissons Ratio (y) = -0.02123 0.28414
# Poissons Ratio (z) = 0.01213 0.43787
#
# Static dielectric constant tensor:
#      x y z
#    x 1.929190 0.000000 0.000000 
#    y 0.000000 1.951290 0.000000 
#    z 0.000000 0.000000 1.881060 
# 
# From -- ./inp_files/20310.got.cif
#   From: 2010.05.17/outbox.cif.g08.bks.cpg/sg44_11_cif.got.tgz:20310.got - 2010.06.03 19:37:08.
