data_PCOD9374949
_publ_section_title
;
Structure prediction by ZEFSAII (Michael W. Deem and Ramdas Pophale) SiO2 
 PCOD9374949
Probable space group: I M M 2
;
_chemical_formula_sum "Si O2"
_cell_formula_units_Z 64
_cell_length_a 8.603546
_cell_length_b 29.042406
_cell_length_c 13.348279
_cell_angle_alpha 90.000000
_cell_angle_beta 90.000000
_cell_angle_gamma 90.000000
_cell_volume 3335.303452
_symmetry_space_group_name_H-M "I M M 2"
_symmetry_group_IT_number 44
_symmetry_cell_setting 'orthorhombic'
loop_
_space_group_symop_operation_xyz
x,y,z
-x,-y,z
-x,y,z
x,-y,z
1/2+x,1/2+y,1/2+z
1/2-x,1/2-y,1/2+z
1/2-x,1/2+y,1/2+z
1/2+x,1/2-y,1/2+z
loop_
_atom_site_type_symbol
_atom_site_label
_atom_site_fract_x
_atom_site_fract_y
_atom_site_fract_z
Si Si1 0.813761 0.361558 0.382170
Si Si2 0.813989 0.118474 0.666251
Si Si3 0.687590 0.755956 0.857371
Si Si4 0.823629 0.199734 0.527055
Si Si5 0.687388 0.445957 0.779952
Si Si6 0.823369 0.286535 0.663728
Si Si7 0.816339 0.445031 0.995476
Si Si8 0.185446 0.117420 0.094502
O O1 0.759179 0.383050 0.276707
O O2 0.758287 0.307821 0.382311
O O3 0.753746 0.386545 0.482417
O O4 0.000000 0.360969 0.385233
O O5 0.755899 0.164169 0.606343
O O6 0.769199 0.078173 0.589326
O O7 0.000000 0.121219 0.679356
O O8 0.500000 0.755697 0.866459
O O9 0.735881 0.742552 0.746951
O O10 0.753496 0.713073 0.922748
O O11 0.833945 0.250663 0.573039
O O12 0.000000 0.182293 0.508326
O O13 0.500000 0.442436 0.786720
O O14 0.728216 0.500000 0.769809
O O15 0.738121 0.418295 0.680847
O O16 0.755512 0.428798 0.886283
O O17 0.735099 0.332344 0.633316
O O18 0.000000 0.297818 0.693925
O O19 0.791519 0.500000 0.998480
O O20 0.000000 0.435776 0.002955
O O21 0.000000 0.114030 0.087295
#
# Coordination Sequence:
#
# PCOD9374949 Si02
#       8
#     8   8   8   8   8   8   8   8
#     4  11  22  38  59  83 117 159 199 244 294 343
#     4  11  22  38  61  87 118 157 200 242 287 348
#     4  10  20  36  53  75 111 154 195 239 287 336
#     4   9  19  35  53  76 111 151 193 236 279 331
#     4   9  20  41  66  89 115 149 189 236 292 353
#     4  11  21  36  54  80 115 153 194 238 285 342
#     4  10  22  41  64  91 121 149 185 239 298 352
#     4  11  23  38  59  87 116 152 198 245 293 351
#
# _framework density 19.188659999999999
#
# number of rings (size 3 to 8) (size 9 to 14) (size 15 to 20)
#    0.000    1.750    2.500    1.875    1.750    2.250 
#    0.000    1.250    0.000    2.250    0.000    0.000 
#    0.000    0.000    0.000    0.000    0.000    0.000 
#
# Total GULP energy -178417.001671 kJ/mol
# GULP energy per Si atom -5575.531302 kJ/mol
# Density = 1.914499 g / cm^3
# Si number density = 19.188660 Si / 1000 Ang^3
#
#
#
# Elastic Constant Matrix: (Units=GPa)
#
#
# Indices 1 2 3 4 5 6 
#
# 1 37.4655 19.1672 32.1179 0.0000 0.0000 0.0000
# 2 19.1672 40.0630 31.9360 0.0000 0.0000 0.0000
# 3 32.1179 31.9360 113.4575 -0.0002 -0.0001 -0.0001
# 4 0.0000 0.0000 -0.0002 35.7805 0.0000 0.0000
# 5 0.0000 0.0000 -0.0001 0.0000 28.3050 0.0000
# 6 0.0000 0.0000 -0.0001 0.0000 0.0000 20.5798
#
#
#
# Elastic Compliance Matrix: (Units=1/GPa)
#
#
# Indices 1 2 3 4 5 6 
#
# 1 0.039883 -0.012998 -0.007632 0.000000 0.000000 0.000000
# 2 -0.012998 0.036417 -0.006571 0.000000 0.000000 0.000000
# 3 -0.007632 -0.006571 0.012824 0.000000 0.000000 0.000000
# 4 0.000000 0.000000 0.000000 0.027948 0.000000 0.000000
# 5 0.000000 0.000000 0.000000 0.000000 0.035329 0.000000
# 6 0.000000 0.000000 0.000000 0.000000 0.000000 0.048591
#
#
# Mechanical properties :
#
#
# Convention : Reuss Voigt Hill
#
# Bulk Modulus (GPa) = 28.79915 39.71424 34.25669
# Shear Modulus (GPa) = 18.72875 24.11738 21.42307
#
# Velocity S-wave (km/s) = 3.12754 3.54906 3.34495
# Velocity P-wave (km/s) = 5.29934 6.12667 5.72796
#
# Compressibility (1/GPa) = 0.03472324
#
# Stress axis : x y z
#
# Youngs Moduli (GPa) = 25.07326 27.45940 77.97893
#
# Poissons Ratio (x) = 0.35691 0.59511
# Poissons Ratio (y) = 0.32589 0.51243
# Poissons Ratio (z) = 0.19135 0.18045
#
# Static dielectric constant tensor:
#      x y z
#    x 1.661700 0.000000 0.000000 
#    y 0.000000 1.676410 0.000000 
#    z 0.000000 0.000000 1.695570 
# 
# From -- ./inp_files/11446.got.cif
#   From: 2010.05.17/outbox.cif.g08.bks.cpg/sg44_6_cif.got.tgz:11446.got - 2010.06.03 19:37:08.
