data_PCOD9374515
_publ_section_title
;
Structure prediction by ZEFSAII (Michael W. Deem and Ramdas Pophale) SiO2 
 PCOD9374515
Probable space group: I M M 2
;
_chemical_formula_sum "Si O2"
_cell_formula_units_Z 64
_cell_length_a 7.452358
_cell_length_b 34.801109
_cell_length_c 12.048370
_cell_angle_alpha 90.000000
_cell_angle_beta 90.000000
_cell_angle_gamma 90.000000
_cell_volume 3124.748652
_symmetry_space_group_name_H-M "I M M 2"
_symmetry_group_IT_number 44
_symmetry_cell_setting 'orthorhombic'
loop_
_space_group_symop_operation_xyz
x,y,z
-x,-y,z
-x,y,z
x,-y,z
1/2+x,1/2+y,1/2+z
1/2-x,1/2-y,1/2+z
1/2-x,1/2+y,1/2+z
1/2+x,1/2-y,1/2+z
loop_
_atom_site_type_symbol
_atom_site_label
_atom_site_fract_x
_atom_site_fract_y
_atom_site_fract_z
Si Si1 0.795890 0.308777 0.162310
Si Si2 0.713251 0.146771 0.059237
Si Si3 0.781347 0.455432 0.196153
Si Si4 0.279815 0.121910 0.815373
Si Si5 0.783099 0.223248 0.194159
Si Si6 0.781547 0.456253 0.944811
Si Si7 0.217501 0.606956 0.779298
Si Si8 0.792076 0.182655 0.413735
O O1 0.719578 0.345101 0.228645
O O2 0.715260 0.266206 0.173964
O O3 0.000000 0.305264 0.204820
O O4 0.799477 0.316634 0.031823
O O5 0.500000 0.141372 0.053959
O O6 0.739227 0.190487 0.103097
O O7 0.782652 0.118894 0.157259
O O8 0.780338 0.135407 0.937642
O O9 0.724803 0.500000 0.217971
O O10 0.723409 0.420939 0.277363
O O11 0.727786 0.444407 0.069700
O O12 0.000000 0.456270 0.198454
O O13 0.500000 0.120994 0.813537
O O14 0.719845 0.209733 0.315688
O O15 0.000000 0.223498 0.196236
O O16 0.726395 0.500000 0.931237
O O17 0.000000 0.454843 0.945040
O O18 0.720379 0.431107 0.841335
O O19 0.274994 0.640911 0.860762
O O20 0.000000 0.606425 0.774579
O O21 0.000000 0.192430 0.432485
#
# Coordination Sequence:
#
# PCOD9374515 Si02
#       8
#     8   8   8   8   8   8   8   8
#     4  10  20  33  50  69  91 122 159 196 236 286
#     4   9  18  31  49  69  93 127 163 195 235 285
#     4   8  13  22  38  63  94 125 156 192 236 282
#     4   9  17  29  46  68  94 127 162 196 235 284
#     4   9  20  35  49  67  92 123 156 194 242 285
#     4   8  13  22  41  69  96 122 156 199 240 278
#     4   9  16  29  48  69  94 125 160 194 233 284
#     4  10  20  33  49  70  94 119 153 195 238 280
#
# _framework density 20.481646999999999
#
# number of rings (size 3 to 8) (size 9 to 14) (size 15 to 20)
#    0.000    3.000    0.000    1.875    1.750    3.000 
#    0.000    1.250    0.000    4.125    0.000    0.000 
#    0.000    2.500    0.000    0.000    0.000    0.000 
#
# Total GULP energy -178360.493300 kJ/mol
# GULP energy per Si atom -5573.765416 kJ/mol
# Density = 2.043503 g / cm^3
# Si number density = 20.481647 Si / 1000 Ang^3
#
#
#
# Elastic Constant Matrix: (Units=GPa)
#
#
# Indices 1 2 3 4 5 6 
#
# 1 60.7999 2.6419 1.7595 0.0000 0.0000 0.0000
# 2 2.6419 140.5042 115.9336 -0.0001 0.0000 0.0000
# 3 1.7595 115.9336 153.8249 -0.0001 -0.0001 0.0000
# 4 0.0000 -0.0001 -0.0001 13.3074 0.0000 0.0000
# 5 0.0000 0.0000 -0.0001 0.0000 -17.5812 0.0000
# 6 0.0000 0.0000 0.0000 0.0000 0.0000 7.2842
#
#
#
# Elastic Compliance Matrix: (Units=1/GPa)
#
#
# Indices 1 2 3 4 5 6 
#
# 1 0.016462 -0.000408 0.000119 0.000000 0.000000 0.000000
# 2 -0.000408 0.018832 -0.014189 0.000000 0.000000 0.000000
# 3 0.000119 -0.014189 0.017193 0.000000 0.000000 0.000000
# 4 0.000000 0.000000 0.000000 0.075146 0.000000 0.000000
# 5 0.000000 0.000000 0.000000 0.000000 -0.056879 0.000000
# 6 0.000000 0.000000 0.000000 0.000000 0.000000 0.137283
#
#
# Mechanical properties :
#
#
# Convention : Reuss Voigt Hill
#
# Bulk Modulus (GPa) = 42.49481 66.19987 54.34734
# Shear Modulus (GPa) = 20.42171 16.25500 18.33836
#
# Velocity S-wave (km/s) = 3.16107 2.82021 2.99550
# Velocity P-wave (km/s) = 5.84089 6.55717 6.20937
#
# Compressibility (1/GPa) = 0.02353229
#
# Stress axis : x y z
#
# Youngs Moduli (GPa) = 60.74715 53.09980 58.16228
#
# Poissons Ratio (x) = 0.02165 -0.00692
# Poissons Ratio (y) = 0.02477 0.82526
# Poissons Ratio (z) = -0.00723 0.75342
#
# Static dielectric constant tensor:
#      x y z
#    x 1.819570 0.000000 0.000000 
#    y 0.000000 1.735560 0.000000 
#    z 0.000000 0.000000 1.722860 
# 
# From -- ./inp_files/11556.got.cif
#   From: 2010.05.17/outbox.cif.g08.bks.cpg/sg44_6_cif.got.tgz:11556.got - 2010.06.03 19:37:08.
