data_PCOD9374487
_publ_section_title
;
Structure prediction by ZEFSAII (Michael W. Deem and Ramdas Pophale) SiO2 
 PCOD9374487
Probable space group: I M M 2
;
_chemical_formula_sum "Si O2"
_cell_formula_units_Z 56
_cell_length_a 23.960859
_cell_length_b 9.112108
_cell_length_c 14.119072
_cell_angle_alpha 90.000000
_cell_angle_beta 90.000000
_cell_angle_gamma 90.000000
_cell_volume 3082.672548
_symmetry_space_group_name_H-M "I M M 2"
_symmetry_group_IT_number 44
_symmetry_cell_setting 'orthorhombic'
loop_
_space_group_symop_operation_xyz
x,y,z
-x,-y,z
-x,y,z
x,-y,z
1/2+x,1/2+y,1/2+z
1/2-x,1/2-y,1/2+z
1/2-x,1/2+y,1/2+z
1/2+x,1/2-y,1/2+z
loop_
_atom_site_type_symbol
_atom_site_label
_atom_site_fract_x
_atom_site_fract_y
_atom_site_fract_z
Si Si1 0.065983 0.673517 0.635850
Si Si2 0.934761 0.174844 0.834828
Si Si3 0.063821 0.824641 0.258475
Si Si4 0.766147 0.325518 0.336244
Si Si5 0.335356 0.174925 0.437327
Si Si6 0.882692 0.675289 0.436868
Si Si7 0.664751 0.175888 0.654396
O O1 0.074804 0.500000 0.655037
O O2 0.078753 0.765093 0.729731
O O3 0.101689 0.715670 0.543895
O O4 0.000000 0.692711 0.613819
O O5 0.893641 0.252607 0.907711
O O6 0.000000 0.208996 0.852777
O O7 0.927667 0.000000 0.838112
O O8 0.079286 0.760029 0.361443
O O9 0.108090 0.754235 0.186872
O O10 0.000000 0.788203 0.234519
O O11 0.069934 0.000000 0.259529
O O12 0.754513 0.500000 0.337792
O O13 0.712741 0.237869 0.370239
O O14 0.818843 0.297612 0.405918
O O15 0.788110 0.284733 0.231508
O O16 0.321329 0.211250 0.546445
O O17 0.339060 0.000000 0.428299
O O18 0.892620 0.500000 0.426584
O O19 0.656704 0.000000 0.662667
#
# Coordination Sequence:
#
# PCOD9374487 Si02
#       7
#     8   8   8   8   8   8   8
#     4   9  17  31  53  81 112 146 185 226 266 314
#     4  10  22  39  57  79 109 143 178 220 271 323
#     4  10  20  32  50  80 114 146 183 227 272 319
#     4   9  19  37  57  79 109 141 176 219 267 319
#     4  11  23  39  60  83 106 138 180 222 268 321
#     4   9  18  33  54  80 111 148 186 223 267 319
#     4   9  21  40  58  78 107 143 182 223 267 320
#
# _framework density 18.166055
#
# number of rings (size 3 to 8) (size 9 to 14) (size 15 to 20)
#    0.000    2.429    0.000    2.571    0.000    8.286 
#    0.000    7.143    0.000    0.000    0.000    0.000 
#    0.000    0.000    0.000    0.000    0.000    0.000 
#
# Total GULP energy -156285.718068 kJ/mol
# GULP energy per Si atom -5581.632788 kJ/mol
# Density = 1.812471 g / cm^3
# Si number density = 18.166055 Si / 1000 Ang^3
#
#
#
# Elastic Constant Matrix: (Units=GPa)
#
#
# Indices 1 2 3 4 5 6 
#
# 1 87.4507 50.1610 66.3905 0.0000 0.0000 0.0000
# 2 50.1610 41.8548 47.0306 0.0000 0.0000 0.0000
# 3 66.3905 47.0306 113.6437 0.0000 0.0000 0.0000
# 4 0.0000 0.0000 0.0000 17.6389 0.0000 0.0000
# 5 0.0000 0.0000 0.0000 0.0000 15.6419 0.0000
# 6 0.0000 0.0000 0.0000 0.0000 0.0000 29.9958
#
#
#
# Elastic Compliance Matrix: (Units=1/GPa)
#
#
# Indices 1 2 3 4 5 6 
#
# 1 0.038939 -0.039450 -0.006422 0.000000 0.000000 0.000000
# 2 -0.039450 0.084628 -0.011976 0.000000 0.000000 0.000000
# 3 -0.006422 -0.011976 0.017507 0.000000 0.000000 0.000000
# 4 0.000000 0.000000 0.000000 0.056693 0.000000 0.000000
# 5 0.000000 0.000000 0.000000 0.000000 0.063931 0.000000
# 6 0.000000 0.000000 0.000000 0.000000 0.000000 0.033338
#
#
# Mechanical properties :
#
#
# Convention : Reuss Voigt Hill
#
# Bulk Modulus (GPa) = 39.40386 63.34591 51.37489
# Shear Modulus (GPa) = 11.92774 17.94646 14.93710
#
# Velocity S-wave (km/s) = 2.56519 3.14652 2.87061
# Velocity P-wave (km/s) = 5.52373 6.93880 6.27131
#
# Compressibility (1/GPa) = 0.02537822
#
# Stress axis : x y z
#
# Youngs Moduli (GPa) = 25.68152 11.81636 57.11955
#
# Poissons Ratio (x) = 0.46616 0.36680
# Poissons Ratio (y) = 1.01314 0.68407
# Poissons Ratio (z) = 0.16492 0.14151
#
# Static dielectric constant tensor:
#      x y z
#    x 1.606440 0.000000 0.000000 
#    y 0.000000 1.601400 0.000000 
#    z 0.000000 0.000000 1.615620 
# 
# From -- ./inp_files/16492.got.cif
#   From: 2010.05.17/outbox.cif.g08.bks.cpg/sg44_9_cif.got.tgz:16492.got - 2010.06.03 19:37:08.
