data_PCOD9374582
_publ_section_title
;
Structure prediction by ZEFSAII (Michael W. Deem and Ramdas Pophale) SiO2 
 PCOD9374582
Probable space group: I M M 2
;
_chemical_formula_sum "Si O2"
_cell_formula_units_Z 64
_cell_length_a 8.700064
_cell_length_b 20.051540
_cell_length_c 21.223193
_cell_angle_alpha 90.000000
_cell_angle_beta 90.000000
_cell_angle_gamma 90.000000
_cell_volume 3702.379255
_symmetry_space_group_name_H-M "I M M 2"
_symmetry_group_IT_number 44
_symmetry_cell_setting 'orthorhombic'
loop_
_space_group_symop_operation_xyz
x,y,z
-x,-y,z
-x,y,z
x,-y,z
1/2+x,1/2+y,1/2+z
1/2-x,1/2-y,1/2+z
1/2-x,1/2+y,1/2+z
1/2+x,1/2-y,1/2+z
loop_
_atom_site_type_symbol
_atom_site_label
_atom_site_fract_x
_atom_site_fract_y
_atom_site_fract_z
Si Si1 0.682873 0.575567 0.974410
Si Si2 0.314518 0.213360 0.292422
Si Si3 0.314399 0.074213 0.236036
Si Si4 0.683361 0.074706 0.613872
Si Si5 0.183351 0.711643 0.932565
Si Si6 0.316145 0.424202 0.594810
Si Si7 0.682737 0.790347 0.051060
Si Si8 0.683686 0.787164 0.672094
O O1 0.500000 0.583859 0.967071
O O2 0.725158 0.500000 0.955150
O O3 0.771815 0.634050 0.939429
O O4 0.726954 0.582100 0.048212
O O5 0.500000 0.215185 0.289911
O O6 0.266758 0.136763 0.278258
O O7 0.267790 0.233918 0.362692
O O8 0.249907 0.258424 0.236598
O O9 0.500000 0.075591 0.230816
O O10 0.245370 0.083398 0.166276
O O11 0.269591 0.000000 0.258739
O O12 0.500000 0.079682 0.599957
O O13 0.722813 0.135351 0.659694
O O14 0.712616 0.000000 0.638552
O O15 0.261603 0.752052 0.988893
O O16 0.000000 0.718400 0.938693
O O17 0.500000 0.416775 0.595072
O O18 0.278464 0.500000 0.574849
O O19 0.241778 0.366227 0.553568
O O20 0.500000 0.788514 0.055158
O O21 0.751512 0.753813 0.112610
O O22 0.500000 0.780140 0.672393
#
# Coordination Sequence:
#
# PCOD9374582 Si02
#       8
#     8   8   8   8   8   8   8   8
#     4  10  20  33  51  78 111 147 185 225 272 328
#     4  10  22  37  54  78 110 148 187 229 275 328
#     4   9  17  31  51  76 108 146 184 220 263 319
#     4   9  18  33  54  80 109 142 180 224 272 324
#     4  11  23  38  55  78 110 149 192 233 277 326
#     4  10  20  34  55  84 113 141 178 226 277 327
#     4  12  23  36  57  82 111 146 185 230 278 327
#     4  11  21  34  57  84 110 142 183 230 277 329
#
# _framework density 17.286182
#
# number of rings (size 3 to 8) (size 9 to 14) (size 15 to 20)
#    0.000    1.750    2.500    2.625    0.000    3.500 
#    0.000    1.250    0.000    2.250    0.000    3.500 
#    0.000    0.000    0.000    0.000    0.000    0.000 
#
# Total GULP energy -178651.669215 kJ/mol
# GULP energy per Si atom -5582.864663 kJ/mol
# Density = 1.724684 g / cm^3
# Si number density = 17.286182 Si / 1000 Ang^3
#
#
#
# Elastic Constant Matrix: (Units=GPa)
#
#
# Indices 1 2 3 4 5 6 
#
# 1 25.6671 24.0507 22.2225 0.0000 0.0000 0.0000
# 2 24.0507 97.2727 52.6972 0.0000 0.0000 0.0000
# 3 22.2225 52.6972 101.8386 0.0000 0.0000 0.0000
# 4 0.0000 0.0000 0.0000 21.0919 0.0000 0.0000
# 5 0.0000 0.0000 0.0000 0.0000 21.9600 0.0000
# 6 0.0000 0.0000 0.0000 0.0000 0.0000 26.8387
#
#
#
# Elastic Compliance Matrix: (Units=1/GPa)
#
#
# Indices 1 2 3 4 5 6 
#
# 1 0.053858 -0.009657 -0.006756 0.000000 0.000000 0.000000
# 2 -0.009657 0.016016 -0.006181 0.000000 0.000000 0.000000
# 3 -0.006756 -0.006181 0.014492 0.000000 0.000000 0.000000
# 4 0.000000 0.000000 0.000000 0.047411 0.000000 0.000000
# 5 0.000000 0.000000 0.000000 0.000000 0.045537 0.000000
# 6 0.000000 0.000000 0.000000 0.000000 0.000000 0.037260
#
#
# Mechanical properties :
#
#
# Convention : Reuss Voigt Hill
#
# Bulk Modulus (GPa) = 25.52294 46.96880 36.24587
# Shear Modulus (GPa) = 18.32711 22.36534 20.34623
#
# Velocity S-wave (km/s) = 3.25963 3.60088 3.43450
# Velocity P-wave (km/s) = 5.38181 6.67224 6.06146
#
# Compressibility (1/GPa) = 0.03918044
#
# Stress axis : x y z
#
# Youngs Moduli (GPa) = 18.56741 62.43652 69.00456
#
# Poissons Ratio (x) = 0.60292 0.46617
# Poissons Ratio (y) = 0.17930 0.42649
# Poissons Ratio (z) = 0.12543 0.38589
#
# Static dielectric constant tensor:
#      x y z
#    x 1.579450 0.000000 0.000000 
#    y 0.000000 1.610590 0.000000 
#    z 0.000000 0.000000 1.559700 
# 
# From -- ./inp_files/20798.got.cif
#   From: 2010.05.17/outbox.cif.g08.bks.cpg/sg44_11_cif.got.tgz:20798.got - 2010.06.03 19:37:08.
