data_PCOD9374348
_publ_section_title
;
Structure prediction by ZEFSAII (Michael W. Deem and Ramdas Pophale) SiO2 
 PCOD9374348
Probable space group: I M M 2
;
_chemical_formula_sum "Si O2"
_cell_formula_units_Z 48
_cell_length_a 19.088173
_cell_length_b 7.607606
_cell_length_c 15.322601
_cell_angle_alpha 90.000000
_cell_angle_beta 90.000000
_cell_angle_gamma 90.000000
_cell_volume 2225.076092
_symmetry_space_group_name_H-M "I M M 2"
_symmetry_group_IT_number 44
_symmetry_cell_setting 'orthorhombic'
loop_
_space_group_symop_operation_xyz
x,y,z
-x,-y,z
-x,y,z
x,-y,z
1/2+x,1/2+y,1/2+z
1/2-x,1/2-y,1/2+z
1/2-x,1/2+y,1/2+z
1/2+x,1/2-y,1/2+z
loop_
_atom_site_type_symbol
_atom_site_label
_atom_site_fract_x
_atom_site_fract_y
_atom_site_fract_z
Si Si1 0.269885 0.287360 0.585070
Si Si2 0.350146 0.709817 0.228689
Si Si3 0.500000 0.289548 0.960001
Si Si4 0.888943 0.294315 0.318292
Si Si5 0.575439 0.298697 0.631524
Si Si6 0.500000 0.284083 0.159974
Si Si7 0.259299 0.285050 0.385159
O O1 0.271683 0.500000 0.586825
O O2 0.209220 0.238310 0.653979
O O3 0.348519 0.221865 0.607633
O O4 0.256383 0.228906 0.485592
O O5 0.356703 0.500000 0.236453
O O6 0.426967 0.776414 0.202428
O O7 0.322179 0.774371 0.322520
O O8 0.500000 0.500000 0.959619
O O9 0.566783 0.226694 0.905804
O O10 0.500000 0.228998 0.059036
O O11 0.886958 0.500000 0.295649
O O12 0.922977 0.200187 0.236466
O O13 0.811199 0.229213 0.336257
O O14 0.500000 0.219427 0.604510
O O15 0.575621 0.500000 0.598970
O O16 0.500000 0.500000 0.161497
O O17 0.259553 0.500000 0.386757
#
# Coordination Sequence:
#
# PCOD9374348 Si02
#       7
#     8   8   4   8   8   4   8
#     4  10  20  36  56  80 108 142 180 224 275 325
#     4  10  19  37  58  79 108 144 182 226 269 319
#     4  11  21  33  49  78 111 138 172 223 273 322
#     4  11  20  32  52  78 105 139 177 216 267 322
#     4  10  20  34  52  76 108 140 173 219 269 320
#     4   9  20  35  55  80 107 140 182 223 267 320
#     4   9  19  34  54  79 108 138 179 225 267 318
#
# _framework density 21.572296000000001
#
# number of rings (size 3 to 8) (size 9 to 14) (size 15 to 20)
#    0.000    2.000    2.500    1.750    0.000    0.000 
#    1.500    2.917    0.000    0.000    0.000    0.000 
#    0.000    0.000    0.000    0.000    0.000    0.000 
#
# Total GULP energy -133948.981565 kJ/mol
# GULP energy per Si atom -5581.207565 kJ/mol
# Density = 2.152320 g / cm^3
# Si number density = 21.572296 Si / 1000 Ang^3
#
#
#
# Elastic Constant Matrix: (Units=GPa)
#
#
# Indices 1 2 3 4 5 6 
#
# 1 152.5172 -3.4427 23.2506 0.0000 0.0000 0.0000
# 2 -3.4427 50.2179 -8.7652 0.0000 0.0000 0.0000
# 3 23.2506 -8.7652 70.0536 0.0000 0.0000 0.0000
# 4 0.0000 0.0000 0.0000 14.8215 0.0000 0.0000
# 5 0.0000 0.0000 0.0000 0.0000 33.5355 0.0000
# 6 0.0000 0.0000 0.0000 0.0000 0.0000 18.7017
#
#
#
# Elastic Compliance Matrix: (Units=1/GPa)
#
#
# Indices 1 2 3 4 5 6 
#
# 1 0.006906 0.000075 -0.002283 0.000000 0.000000 0.000000
# 2 0.000075 0.020359 0.002522 0.000000 0.000000 0.000000
# 3 -0.002283 0.002522 0.015348 0.000000 0.000000 0.000000
# 4 0.000000 0.000000 0.000000 0.067469 0.000000 0.000000
# 5 0.000000 0.000000 0.000000 0.000000 0.029819 0.000000
# 6 0.000000 0.000000 0.000000 0.000000 0.000000 0.053471
#
#
# Mechanical properties :
#
#
# Convention : Reuss Voigt Hill
#
# Bulk Modulus (GPa) = 23.12555 32.76380 27.94468
# Shear Modulus (GPa) = 24.13624 30.86149 27.49887
#
# Velocity S-wave (km/s) = 3.34856 3.78644 3.57421
# Velocity P-wave (km/s) = 5.06890 5.85978 5.47863
#
# Compressibility (1/GPa) = 0.04324221
#
# Stress axis : x y z
#
# Youngs Moduli (GPa) = 144.79463 49.11923 65.15486
#
# Poissons Ratio (x) = -0.00368 0.14874
# Poissons Ratio (y) = -0.01086 -0.16435
# Poissons Ratio (z) = 0.33054 -0.12390
#
# Static dielectric constant tensor:
#      x y z
#    x 1.810980 0.000000 0.000000 
#    y 0.000000 1.819480 0.000000 
#    z 0.000000 0.000000 1.750430 
# 
# From -- ./inp_files/16174.got.cif
#   From: 2010.05.17/outbox.cif.g08.bks.cpg/sg44_9_cif.got.tgz:16174.got - 2010.06.03 19:37:08.
