data_PCOD9374442
_publ_section_title
;
Structure prediction by ZEFSAII (Michael W. Deem and Ramdas Pophale) SiO2 
 PCOD9374442
Probable space group: I M M 2
;
_chemical_formula_sum "Si O2"
_cell_formula_units_Z 64
_cell_length_a 8.265562
_cell_length_b 31.294661
_cell_length_c 14.858893
_cell_angle_alpha 90.000000
_cell_angle_beta 90.000000
_cell_angle_gamma 90.000000
_cell_volume 3843.519552
_symmetry_space_group_name_H-M "I M M 2"
_symmetry_group_IT_number 44
_symmetry_cell_setting 'orthorhombic'
loop_
_space_group_symop_operation_xyz
x,y,z
-x,-y,z
-x,y,z
x,-y,z
1/2+x,1/2+y,1/2+z
1/2-x,1/2-y,1/2+z
1/2-x,1/2+y,1/2+z
1/2+x,1/2-y,1/2+z
loop_
_atom_site_type_symbol
_atom_site_label
_atom_site_fract_x
_atom_site_fract_y
_atom_site_fract_z
Si Si1 0.694389 0.134356 0.798310
Si Si2 0.693072 0.213980 0.275455
Si Si3 0.807821 0.203623 0.660679
Si Si4 0.803981 0.048420 0.088418
Si Si5 0.188116 0.673659 0.492537
Si Si6 0.192325 0.732133 0.977646
Si Si7 0.804485 0.548145 0.383391
Si Si8 0.186504 0.133219 0.168214
O O1 0.500000 0.134423 0.785561
O O2 0.771959 0.161713 0.719252
O O3 0.728300 0.158487 0.892383
O O4 0.749645 0.085730 0.816613
O O5 0.500000 0.218570 0.276141
O O6 0.754734 0.254420 0.216337
O O7 0.747184 0.216449 0.379223
O O8 0.732653 0.168695 0.230672
O O9 0.727904 0.202228 0.562578
O O10 0.000000 0.208358 0.649322
O O11 0.745961 0.085198 0.156582
O O12 0.000000 0.049686 0.088288
O O13 0.752535 0.000000 0.110433
O O14 0.747705 0.057424 0.986154
O O15 0.215119 0.723998 0.498009
O O16 0.297135 0.651656 0.567312
O O17 0.000000 0.662975 0.510853
O O18 0.000000 0.740748 0.973562
O O19 0.748970 0.500000 0.361342
O O20 0.000000 0.548516 0.382610
O O21 0.000000 0.130526 0.195284
#
# Coordination Sequence:
#
# PCOD9374442 Si02
#       8
#     8   8   8   8   8   8   8   8
#     4  10  20  32  48  72 100 135 170 203 243 289
#     4  10  22  36  50  70  98 129 164 204 246 289
#     4  11  22  35  51  73  99 130 166 204 245 291
#     4   9  18  31  46  69 101 132 163 201 245 293
#     4  11  20  30  47  71 101 133 166 204 240 281
#     4  11  22  37  52  69  96 131 168 206 245 288
#     4   9  17  30  48  71  99 131 167 204 244 291
#     4  11  21  31  49  73  98 134 171 201 241 292
#
# _framework density 16.651406000000001
#
# number of rings (size 3 to 8) (size 9 to 14) (size 15 to 20)
#    0.000    1.750    3.750    1.500    0.000    3.000 
#    0.000    0.000    0.000    0.000    0.000    0.875 
#    0.000    1.000    0.000    0.000    0.000    0.000 
#
# Total GULP energy -178495.339129 kJ/mol
# GULP energy per Si atom -5577.979348 kJ/mol
# Density = 1.661351 g / cm^3
# Si number density = 16.651406 Si / 1000 Ang^3
#
#
#
# Elastic Constant Matrix: (Units=GPa)
#
#
# Indices 1 2 3 4 5 6 
#
# 1 9.0108 -2.6561 7.6887 0.0000 0.0000 0.0000
# 2 -2.6561 104.1666 32.7503 0.0000 0.0000 0.0000
# 3 7.6887 32.7503 72.5612 0.0001 0.0000 0.0000
# 4 0.0000 0.0000 0.0001 21.7035 0.0000 0.0000
# 5 0.0000 0.0000 0.0000 0.0000 18.2534 0.0000
# 6 0.0000 0.0000 0.0000 0.0000 0.0000 13.9148
#
#
#
# Elastic Compliance Matrix: (Units=1/GPa)
#
#
# Indices 1 2 3 4 5 6 
#
# 1 0.128597 0.008814 -0.017604 0.000000 0.000000 0.000000
# 2 0.008814 0.011792 -0.006256 0.000000 0.000000 0.000000
# 3 -0.017604 -0.006256 0.018471 0.000000 0.000000 0.000000
# 4 0.000000 0.000000 0.000000 0.046075 0.000000 0.000000
# 5 0.000000 0.000000 0.000000 0.000000 0.054784 0.000000
# 6 0.000000 0.000000 0.000000 0.000000 0.000000 0.071866
#
#
# Mechanical properties :
#
#
# Convention : Reuss Voigt Hill
#
# Bulk Modulus (GPa) = 7.76603 29.03381 18.39992
# Shear Modulus (GPa) = 12.35788 20.63806 16.49797
#
# Velocity S-wave (km/s) = 2.72720 3.52436 3.15109
# Velocity P-wave (km/s) = 3.81980 5.83400 4.93084
#
# Compressibility (1/GPa) = 0.12876599
#
# Stress axis : x y z
#
# Youngs Moduli (GPa) = 7.77623 84.80558 54.14031
#
# Poissons Ratio (x) = -0.74747 0.95311
# Poissons Ratio (y) = -0.06854 0.33871
# Poissons Ratio (z) = 0.13690 0.53055
#
# Static dielectric constant tensor:
#      x y z
#    x 1.572390 0.000000 0.000000 
#    y 0.000000 1.596680 0.000000 
#    z 0.000000 0.000000 1.543550 
# 
# From -- ./inp_files/17072.got.cif
#   From: 2010.05.17/outbox.cif.g08.bks.cpg/sg44_9_cif.got.tgz:17072.got - 2010.06.03 19:37:08.
