data_PCOD9374435
_publ_section_title
;
Structure prediction by ZEFSAII (Michael W. Deem and Ramdas Pophale) SiO2 
 PCOD9374435
Probable space group: I M M 2
;
_chemical_formula_sum "Si O2"
_cell_formula_units_Z 40
_cell_length_a 8.458020
_cell_length_b 26.605762
_cell_length_c 10.013038
_cell_angle_alpha 90.000000
_cell_angle_beta 90.000000
_cell_angle_gamma 90.000000
_cell_volume 2253.254639
_symmetry_space_group_name_H-M "I M M 2"
_symmetry_group_IT_number 44
_symmetry_cell_setting 'orthorhombic'
loop_
_space_group_symop_operation_xyz
x,y,z
-x,-y,z
-x,y,z
x,-y,z
1/2+x,1/2+y,1/2+z
1/2-x,1/2-y,1/2+z
1/2-x,1/2+y,1/2+z
1/2+x,1/2-y,1/2+z
loop_
_atom_site_type_symbol
_atom_site_label
_atom_site_fract_x
_atom_site_fract_y
_atom_site_fract_z
Si Si1 0.190372 0.637595 0.047380
Si Si2 0.690588 0.333089 0.330662
Si Si3 0.308967 0.942638 0.329727
Si Si4 0.308704 0.217415 0.327638
Si Si5 0.310553 0.636484 0.621022
O O1 0.255152 0.640243 0.195875
O O2 0.000000 0.637177 0.053166
O O3 0.242111 0.589774 0.958984
O O4 0.238183 0.686829 0.961207
O O5 0.500000 0.332211 0.332863
O O6 0.745066 0.274901 0.328416
O O7 0.744395 0.358735 0.468258
O O8 0.500000 0.942856 0.330227
O O9 0.254533 0.911361 0.200885
O O10 0.252933 0.000000 0.331190
O O11 0.500000 0.216376 0.321318
O O12 0.243763 0.185625 0.203425
O O13 0.500000 0.634691 0.622949
#
# Coordination Sequence:
#
# PCOD9374435 Si02
#       5
#     8   8   8   8   8
#     4   9  18  32  51  74  98 126 164 207 246 288
#     4  10  20  32  47  72 107 138 162 197 243 289
#     4   9  19  38  59  74  92 123 164 208 251 296
#     4   9  18  33  50  70 100 138 174 201 232 282
#     4  10  20  33  50  75 104 131 163 203 246 290
#
# _framework density 17.752101
#
# number of rings (size 3 to 8) (size 9 to 14) (size 15 to 20)
#    0.000    2.600    0.000    3.000    0.000    7.600 
#    0.000    1.000    0.000    3.600    0.000    0.000 
#    0.000    0.000    0.000    0.000    0.000    0.000 
#
# Total GULP energy -111570.820411 kJ/mol
# GULP energy per Si atom -5578.541021 kJ/mol
# Density = 1.771170 g / cm^3
# Si number density = 17.752101 Si / 1000 Ang^3
#
#
#
# Elastic Constant Matrix: (Units=GPa)
#
#
# Indices 1 2 3 4 5 6 
#
# 1 4.5007 19.6608 18.9491 0.0001 0.0000 0.0000
# 2 19.6608 148.5255 90.0197 0.0000 -0.0001 0.0000
# 3 18.9491 90.0197 191.8776 -0.0006 -0.0010 0.0000
# 4 0.0001 0.0000 -0.0006 5.1170 -0.0001 -0.0001
# 5 0.0000 -0.0001 -0.0010 -0.0001 29.4584 -0.0001
# 6 0.0000 0.0000 0.0000 -0.0001 -0.0001 27.0268
#
#
#
# Elastic Compliance Matrix: (Units=1/GPa)
#
#
# Indices 1 2 3 4 5 6 
#
# 1 0.650205 -0.065887 -0.033301 -0.000017 0.000000 0.000000
# 2 -0.065887 0.016084 -0.001039 0.000001 0.000000 0.000000
# 3 -0.033301 -0.001039 0.008988 0.000002 0.000000 0.000000
# 4 -0.000017 0.000001 0.000002 0.195425 0.000001 0.000001
# 5 0.000000 0.000000 0.000000 0.000001 0.033946 0.000000
# 6 0.000000 0.000000 0.000000 0.000001 0.000000 0.037000
#
#
# Mechanical properties :
#
#
# Convention : Reuss Voigt Hill
#
# Bulk Modulus (GPa) = 2.10604 66.90701 34.50653
# Shear Modulus (GPa) = 3.84504 26.73873 15.29189
#
# Velocity S-wave (km/s) = 1.47332 3.88523 2.93817
# Velocity P-wave (km/s) = 2.02068 7.60908 5.56692
#
# Compressibility (1/GPa) = 0.47482377
#
# Stress axis : x y z
#
# Youngs Moduli (GPa) = 1.53798 62.17203 111.26041
#
# Poissons Ratio (x) = 4.09630 3.70507
# Poissons Ratio (y) = 0.10133 0.11564
# Poissons Ratio (z) = 0.05122 0.06462
#
# Static dielectric constant tensor:
#      x y z
#    x 1.611900 0.000000 0.000000 
#    y 0.000000 1.595620 0.000000 
#    z 0.000000 0.000000 1.595970 
# 
# From -- ./inp_files/4436.got.cif
#   From: 2010.05.17/outbox.cif.g08.bks.cpg/sg44_3_cif.got.tgz:4436.got - 2010.06.03 19:37:08.
