data_PCOD9374571
_publ_section_title
;
Structure prediction by ZEFSAII (Michael W. Deem and Ramdas Pophale) SiO2 
 PCOD9374571
Probable space group: I M M 2
;
_chemical_formula_sum "Si O2"
_cell_formula_units_Z 48
_cell_length_a 9.355195
_cell_length_b 8.386159
_cell_length_c 32.715652
_cell_angle_alpha 90.000000
_cell_angle_beta 90.000000
_cell_angle_gamma 90.000000
_cell_volume 2566.678759
_symmetry_space_group_name_H-M "I M M 2"
_symmetry_group_IT_number 44
_symmetry_cell_setting 'orthorhombic'
loop_
_space_group_symop_operation_xyz
x,y,z
-x,-y,z
-x,y,z
x,-y,z
1/2+x,1/2+y,1/2+z
1/2-x,1/2-y,1/2+z
1/2-x,1/2+y,1/2+z
1/2+x,1/2-y,1/2+z
loop_
_atom_site_type_symbol
_atom_site_label
_atom_site_fract_x
_atom_site_fract_y
_atom_site_fract_z
Si Si1 0.334320 0.310847 0.237730
Si Si2 0.837010 0.810030 0.160415
Si Si3 0.836881 0.807471 0.582335
Si Si4 0.329155 0.807652 0.413468
Si Si5 0.173640 0.687228 0.825208
Si Si6 0.166712 0.694951 0.002543
O O1 0.500000 0.254830 0.234388
O O2 0.333940 0.500000 0.231801
O O3 0.239558 0.233503 0.202731
O O4 0.282046 0.272079 0.283571
O O5 0.749354 0.741025 0.122446
O O6 0.000000 0.749700 0.159933
O O7 0.839503 0.000000 0.156371
O O8 0.758056 0.750805 0.541156
O O9 0.000000 0.750239 0.584365
O O10 0.839518 0.000000 0.580691
O O11 0.500000 0.778759 0.414642
O O12 0.274592 0.748598 0.369388
O O13 0.276464 0.751926 0.457862
O O14 0.311329 0.000000 0.412097
O O15 0.210018 0.500000 0.821937
O O16 0.000000 0.697475 0.826704
O O17 0.168582 0.500000 0.002028
O O18 0.000000 0.741220 0.007098
#
# Coordination Sequence:
#
# PCOD9374571 Si02
#       6
#     8   8   8   8   8   8
#     4  10  20  33  51  76 103 130 162 199 241 292
#     4  11  24  39  54  72  94 123 162 205 248 296
#     4  10  20  33  51  76 103 130 162 199 241 292
#     4   7  10  18  36  64  94 125 164 204 238 273
#     4   8  13  23  42  68  97 129 165 204 242 278
#     4   8  13  23  42  68  97 129 165 204 242 278
#
# _framework density 18.701211000000001
#
# number of rings (size 3 to 8) (size 9 to 14) (size 15 to 20)
#    0.000    3.000    0.000    4.000    0.000    5.333 
#    0.000    0.000    0.000    2.000    0.000    9.333 
#    0.000    0.000    0.000    0.000    0.000    0.000 
#
# Total GULP energy -133682.566968 kJ/mol
# GULP energy per Si atom -5570.106957 kJ/mol
# Density = 1.865865 g / cm^3
# Si number density = 18.701211 Si / 1000 Ang^3
#
#
#
# Elastic Constant Matrix: (Units=GPa)
#
#
# Indices 1 2 3 4 5 6 
#
# 1 83.7931 11.4526 75.0559 0.0000 0.0000 0.0000
# 2 11.4526 6.3902 10.6926 0.0000 0.0000 0.0000
# 3 75.0559 10.6926 179.7465 0.0000 0.0000 0.0000
# 4 0.0000 0.0000 0.0000 21.4181 0.0000 0.0000
# 5 0.0000 0.0000 0.0000 0.0000 22.4993 0.0000
# 6 0.0000 0.0000 0.0000 0.0000 0.0000 11.6833
#
#
#
# Elastic Compliance Matrix: (Units=1/GPa)
#
#
# Indices 1 2 3 4 5 6 
#
# 1 0.022745 -0.027621 -0.007854 0.000000 0.000000 0.000000
# 2 -0.027621 0.207330 -0.000800 0.000000 0.000000 0.000000
# 3 -0.007854 -0.000800 0.008891 0.000000 0.000000 0.000000
# 4 0.000000 0.000000 0.000000 0.046690 0.000000 0.000000
# 5 0.000000 0.000000 0.000000 0.000000 0.044446 0.000000
# 6 0.000000 0.000000 0.000000 0.000000 0.000000 0.085592
#
#
# Mechanical properties :
#
#
# Convention : Reuss Voigt Hill
#
# Bulk Modulus (GPa) = 6.00906 51.59247 28.80077
# Shear Modulus (GPa) = 9.19600 22.63537 15.91569
#
# Velocity S-wave (km/s) = 2.21991 3.48281 2.92044
# Velocity P-wave (km/s) = 3.12903 6.61974 5.17744
#
# Compressibility (1/GPa) = 0.16641526
#
# Stress axis : x y z
#
# Youngs Moduli (GPa) = 43.96654 4.82323 112.47764
#
# Poissons Ratio (x) = 0.13322 0.88343
# Poissons Ratio (y) = 1.21439 0.08999
# Poissons Ratio (z) = 0.34532 0.00386
#
# Static dielectric constant tensor:
#      x y z
#    x 1.638410 0.000000 0.000000 
#    y 0.000000 1.652770 0.000000 
#    z 0.000000 0.000000 1.676820 
# 
# From -- ./inp_files/26872.got.cif
#   From: 2010.05.17/outbox.cif.g08.bks.cpg/sg44_14_cif.got.tgz:26872.got - 2010.06.03 19:37:08.
