data_PCOD9374405
_publ_section_title
;
Structure prediction by ZEFSAII (Michael W. Deem and Ramdas Pophale) SiO2 
 PCOD9374405
Probable space group: I M M 2
;
_chemical_formula_sum "Si O2"
_cell_formula_units_Z 48
_cell_length_a 9.085375
_cell_length_b 7.912379
_cell_length_c 35.421169
_cell_angle_alpha 90.000000
_cell_angle_beta 90.000000
_cell_angle_gamma 90.000000
_cell_volume 2546.319109
_symmetry_space_group_name_H-M "I M M 2"
_symmetry_group_IT_number 44
_symmetry_cell_setting 'orthorhombic'
loop_
_space_group_symop_operation_xyz
x,y,z
-x,-y,z
-x,y,z
x,-y,z
1/2+x,1/2+y,1/2+z
1/2-x,1/2-y,1/2+z
1/2-x,1/2+y,1/2+z
1/2+x,1/2-y,1/2+z
loop_
_atom_site_type_symbol
_atom_site_label
_atom_site_fract_x
_atom_site_fract_y
_atom_site_fract_z
Si Si1 0.822257 0.690285 0.801990
Si Si2 0.327844 0.301154 0.221181
Si Si3 0.675310 0.000000 0.934881
Si Si4 0.333756 0.200420 0.141114
Si Si5 0.321358 0.199011 0.480909
Si Si6 0.666888 0.203447 0.565677
Si Si7 0.174778 0.500000 0.345142
O O1 0.792255 0.500000 0.815361
O O2 0.770688 0.708811 0.758362
O O3 0.000000 0.715754 0.802156
O O4 0.747193 0.834705 0.826507
O O5 0.500000 0.248677 0.217646
O O6 0.322990 0.500000 0.229302
O O7 0.262156 0.269264 0.179774
O O8 0.748036 0.832570 0.953000
O O9 0.500000 0.000000 0.941993
O O10 0.699591 0.000000 0.889978
O O11 0.500000 0.270722 0.138335
O O12 0.254664 0.238863 0.102064
O O13 0.340725 0.000000 0.145783
O O14 0.500000 0.210747 0.479211
O O15 0.276083 0.247413 0.523901
O O16 0.284459 0.000000 0.474265
O O17 0.500000 0.267721 0.568583
O O18 0.662480 0.000000 0.566165
O O19 0.000000 0.500000 0.338047
#
# Coordination Sequence:
#
# PCOD9374405 Si02
#       7
#     8   8   4   8   8   8   4
#     4  10  20  37  64  92 116 150 198 249 295 344
#     4   9  16  30  54  81 111 147 189 239 291 335
#     4  11  25  41  61  89 121 155 193 241 301 361
#     4  10  20  31  47  78 115 148 187 234 281 334
#     4   9  20  40  64  88 115 153 198 244 295 350
#     4   9  19  36  55  76 106 145 188 233 284 338
#     4  11  25  43  59  85 125 161 191 235 299 367
#
# _framework density 18.850740999999999
#
# number of rings (size 3 to 8) (size 9 to 14) (size 15 to 20)
#    0.000    2.333    0.833    2.500    1.167    6.667 
#    0.000    5.833    0.000    2.000    0.000    0.000 
#    0.000    0.000    0.000    0.000    0.000    0.000 
#
# Total GULP energy -133844.306870 kJ/mol
# GULP energy per Si atom -5576.846120 kJ/mol
# Density = 1.880784 g / cm^3
# Si number density = 18.850741 Si / 1000 Ang^3
#
#
#
# Elastic Constant Matrix: (Units=GPa)
#
#
# Indices 1 2 3 4 5 6 
#
# 1 40.7090 43.9490 56.9569 0.0000 0.0000 0.0000
# 2 43.9490 108.8853 80.3243 0.0000 0.0000 0.0000
# 3 56.9569 80.3243 136.5790 0.0000 0.0000 0.0000
# 4 0.0000 0.0000 0.0000 5.0328 0.0000 0.0000
# 5 0.0000 0.0000 0.0000 0.0000 27.3680 0.0000
# 6 0.0000 0.0000 0.0000 0.0000 0.0000 18.9028
#
#
#
# Elastic Compliance Matrix: (Units=1/GPa)
#
#
# Indices 1 2 3 4 5 6 
#
# 1 0.065856 -0.011166 -0.020897 0.000000 0.000000 0.000000
# 2 -0.011166 0.018115 -0.005997 0.000000 0.000000 0.000000
# 3 -0.020897 -0.005997 0.019563 0.000000 0.000000 0.000000
# 4 0.000000 0.000000 0.000000 0.198696 0.000000 0.000000
# 5 0.000000 0.000000 0.000000 0.000000 0.036539 0.000000
# 6 0.000000 0.000000 0.000000 0.000000 0.000000 0.052902
#
#
# Mechanical properties :
#
#
# Convention : Reuss Voigt Hill
#
# Bulk Modulus (GPa) = 36.47675 72.07041 54.27358
# Shear Modulus (GPa) = 10.48370 17.25694 13.87032
#
# Velocity S-wave (km/s) = 2.36083 3.02893 2.71550
# Velocity P-wave (km/s) = 5.17915 7.10969 6.21978
#
# Compressibility (1/GPa) = 0.02741473
#
# Stress axis : x y z
#
# Youngs Moduli (GPa) = 15.18454 55.20298 51.11567
#
# Poissons Ratio (x) = 0.61638 1.06817
# Poissons Ratio (y) = 0.16955 0.30656
# Poissons Ratio (z) = 0.31731 0.33107
#
# Static dielectric constant tensor:
#      x y z
#    x 1.660960 0.000000 0.000000 
#    y 0.000000 1.663230 0.000000 
#    z 0.000000 0.000000 1.669310 
# 
# From -- ./inp_files/26949.got.cif
#   From: 2010.05.17/outbox.cif.g08.bks.cpg/sg44_14_cif.got.tgz:26949.got - 2010.06.03 19:37:08.
