data_PCOD9374985
_publ_section_title
;
Structure prediction by ZEFSAII (Michael W. Deem and Ramdas Pophale) SiO2 
 PCOD9374985
Probable space group: I M M 2
;
_chemical_formula_sum "Si O2"
_cell_formula_units_Z 64
_cell_length_a 12.665616
_cell_length_b 27.151351
_cell_length_c 9.282750
_cell_angle_alpha 90.000000
_cell_angle_beta 90.000000
_cell_angle_gamma 90.000000
_cell_volume 3192.231768
_symmetry_space_group_name_H-M "I M M 2"
_symmetry_group_IT_number 44
_symmetry_cell_setting 'orthorhombic'
loop_
_space_group_symop_operation_xyz
x,y,z
-x,-y,z
-x,y,z
x,-y,z
1/2+x,1/2+y,1/2+z
1/2-x,1/2-y,1/2+z
1/2-x,1/2+y,1/2+z
1/2+x,1/2-y,1/2+z
loop_
_atom_site_type_symbol
_atom_site_label
_atom_site_fract_x
_atom_site_fract_y
_atom_site_fract_z
Si Si1 0.617359 0.340029 0.632430
Si Si2 0.381985 0.554440 0.515573
Si Si3 0.753648 0.555663 0.235566
Si Si4 0.267461 0.214472 0.912981
Si Si5 0.122910 0.719587 0.706533
Si Si6 0.123383 0.057825 0.457161
Si Si7 0.375260 0.847787 0.664341
Si Si8 0.760339 0.647598 0.867451
O O1 0.500000 0.321454 0.613001
O O2 0.619874 0.399219 0.619977
O O3 0.688626 0.320705 0.502966
O O4 0.660412 0.326130 0.790025
O O5 0.500000 0.555593 0.448925
O O6 0.370716 0.500000 0.582248
O O7 0.294041 0.560230 0.394490
O O8 0.793600 0.500000 0.214553
O O9 0.654994 0.562098 0.126038
O O10 0.840637 0.596688 0.204746
O O11 0.191393 0.250019 0.822011
O O12 0.338107 0.186344 0.795699
O O13 0.339554 0.233205 0.045514
O O14 0.151098 0.662451 0.748735
O O15 0.000000 0.728527 0.723648
O O16 0.214684 0.092562 0.389587
O O17 0.000000 0.072601 0.432736
O O18 0.132431 0.000000 0.419447
O O19 0.500000 0.843357 0.637526
O O20 0.307587 0.836186 0.520389
#
# Coordination Sequence:
#
# PCOD9374985 Si02
#       8
#     8   8   8   8   8   8   8   8
#     4  10  20  36  57  87 124 158 192 238 294 359
#     4   9  16  28  51  84 121 159 194 235 295 356
#     4   9  17  31  52  83 118 157 202 250 298 354
#     4  11  23  43  65  94 117 150 198 246 306 370
#     4  11  24  44  67  90 121 158 197 250 307 363
#     4   9  17  31  53  84 123 163 203 248 298 352
#     4  11  22  39  61  86 116 158 205 254 300 349
#     4  10  22  37  57  86 122 161 203 244 293 352
#
# _framework density 20.048670000000001
#
# number of rings (size 3 to 8) (size 9 to 14) (size 15 to 20)
#    0.000    2.000    1.250    2.625    0.000    2.250 
#    0.000   15.000    0.000    1.125    0.000    0.000 
#    0.000    0.000    0.000    0.000    0.000    0.000 
#
# Total GULP energy -178241.448456 kJ/mol
# GULP energy per Si atom -5570.045264 kJ/mol
# Density = 2.000304 g / cm^3
# Si number density = 20.048670 Si / 1000 Ang^3
#
#
#
# Elastic Constant Matrix: (Units=GPa)
#
#
# Indices 1 2 3 4 5 6 
#
# 1 101.4524 56.3076 50.3449 -0.0002 0.0006 0.0001
# 2 56.3076 77.0692 37.7463 -0.0001 0.0000 0.0000
# 3 50.3449 37.7463 120.8574 0.0000 0.0013 0.0003
# 4 -0.0002 -0.0001 0.0000 12.1102 0.0001 0.0001
# 5 0.0006 0.0000 0.0013 0.0001 21.1041 -0.0002
# 6 0.0001 0.0000 0.0003 0.0001 -0.0002 21.2676
#
#
#
# Elastic Compliance Matrix: (Units=1/GPa)
#
#
# Indices 1 2 3 4 5 6 
#
# 1 0.018100 -0.011252 -0.004025 0.000000 0.000000 0.000000
# 2 -0.011252 0.022314 -0.002282 0.000000 0.000000 0.000000
# 3 -0.004025 -0.002282 0.010664 0.000000 -0.000001 0.000000
# 4 0.000000 0.000000 0.000000 0.082575 -0.000001 0.000000
# 5 0.000000 0.000000 -0.000001 -0.000001 0.047384 0.000000
# 6 0.000000 0.000000 0.000000 0.000000 0.000000 0.047020
#
#
# Mechanical properties :
#
#
# Convention : Reuss Voigt Hill
#
# Bulk Modulus (GPa) = 62.66295 65.35295 64.00795
# Shear Modulus (GPa) = 18.62236 21.22838 19.92537
#
# Velocity S-wave (km/s) = 3.05102 3.25752 3.15596
# Velocity P-wave (km/s) = 6.61324 6.84226 6.72872
#
# Compressibility (1/GPa) = 0.01595839
#
# Stress axis : x y z
#
# Youngs Moduli (GPa) = 55.25009 44.81507 93.77625
#
# Poissons Ratio (x) = 0.50427 0.37748
# Poissons Ratio (y) = 0.62169 0.21398
# Poissons Ratio (z) = 0.22240 0.10226
#
# Static dielectric constant tensor:
#      x y z
#    x 1.687040 0.000000 0.000000 
#    y 0.000000 1.790010 0.000000 
#    z 0.000000 0.000000 1.719340 
# 
# From -- ./inp_files/6386.got.cif
#   From: 2010.05.17/outbox.cif.g08.bks.cpg/sg44_4_cif.got.tgz:6386.got - 2010.06.03 19:37:08.
