data_PCOD9374399
_publ_section_title
;
Structure prediction by ZEFSAII (Michael W. Deem and Ramdas Pophale) SiO2 
 PCOD9374399
Probable space group: I M M 2
;
_chemical_formula_sum "Si O2"
_cell_formula_units_Z 48
_cell_length_a 7.570936
_cell_length_b 9.510139
_cell_length_c 35.789434
_cell_angle_alpha 90.000000
_cell_angle_beta 90.000000
_cell_angle_gamma 90.000000
_cell_volume 2576.862644
_symmetry_space_group_name_H-M "I M M 2"
_symmetry_group_IT_number 44
_symmetry_cell_setting 'orthorhombic'
loop_
_space_group_symop_operation_xyz
x,y,z
-x,-y,z
-x,y,z
x,-y,z
1/2+x,1/2+y,1/2+z
1/2-x,1/2-y,1/2+z
1/2-x,1/2+y,1/2+z
1/2+x,1/2-y,1/2+z
loop_
_atom_site_type_symbol
_atom_site_label
_atom_site_fract_x
_atom_site_fract_y
_atom_site_fract_z
Si Si1 0.710736 0.832104 0.158310
Si Si2 0.000000 0.670099 0.111483
Si Si3 0.784025 0.838443 0.384796
Si Si4 0.212219 0.658030 0.743537
Si Si5 0.702232 0.328478 0.967719
Si Si6 0.000000 0.670852 0.024463
Si Si7 0.289478 0.157386 0.815085
O O1 0.500000 0.806043 0.154315
O O2 0.829406 0.738482 0.131316
O O3 0.765112 0.802454 0.201409
O O4 0.738805 0.000000 0.152337
O O5 0.000000 0.500000 0.114837
O O6 0.000000 0.709825 0.067695
O O7 0.733545 0.787138 0.426226
O O8 0.720719 0.745562 0.350345
O O9 0.000000 0.839693 0.385000
O O10 0.727197 0.000000 0.379924
O O11 0.278299 0.500000 0.751696
O O12 0.262279 0.762710 0.776248
O O13 0.000000 0.651557 0.742567
O O14 0.500000 0.282887 0.973026
O O15 0.701634 0.500000 0.967041
O O16 0.829524 0.282377 0.000874
O O17 0.000000 0.500000 0.023685
O O18 0.500000 0.148546 0.820583
O O19 0.217295 0.000000 0.813737
#
# Coordination Sequence:
#
# PCOD9374399 Si02
#       7
#     8   4   8   8   8   4   8
#     4   9  20  40  62  81 106 146 193 237 280 329
#     4  11  23  35  55  89 123 149 179 225 289 357
#     4   8  14  27  47  69  94 130 177 220 257 301
#     4   9  19  36  55  74  96 129 179 228 266 308
#     4   8  14  27  48  70  96 135 179 223 267 308
#     4   9  18  31  47  77 113 139 171 219 273 331
#     4  10  20  31  46  73 108 141 170 207 261 324
#
# _framework density 18.627300999999999
#
# number of rings (size 3 to 8) (size 9 to 14) (size 15 to 20)
#    0.000    3.000    0.000    2.750    1.167    3.000 
#    1.500    3.333    0.000    2.000    0.000    2.333 
#    0.000    0.000    0.000    0.000    0.000    0.000 
#
# Total GULP energy -133819.353462 kJ/mol
# GULP energy per Si atom -5575.806394 kJ/mol
# Density = 1.858490 g / cm^3
# Si number density = 18.627301 Si / 1000 Ang^3
#
#
#
# Elastic Constant Matrix: (Units=GPa)
#
#
# Indices 1 2 3 4 5 6 
#
# 1 76.0180 35.4740 61.5515 0.0000 0.0000 0.0000
# 2 35.4740 77.6364 94.8053 0.0000 0.0000 0.0000
# 3 61.5515 94.8053 193.8178 0.0000 0.0000 0.0000
# 4 0.0000 0.0000 0.0000 23.4374 0.0000 0.0000
# 5 0.0000 0.0000 0.0000 0.0000 42.8694 0.0000
# 6 0.0000 0.0000 0.0000 0.0000 0.0000 15.7111
#
#
#
# Elastic Compliance Matrix: (Units=1/GPa)
#
#
# Indices 1 2 3 4 5 6 
#
# 1 0.018002 -0.003090 -0.004205 0.000000 0.000000 0.000000
# 2 -0.003090 0.032517 -0.014924 0.000000 0.000000 0.000000
# 3 -0.004205 -0.014924 0.013795 0.000000 0.000000 0.000000
# 4 0.000000 0.000000 0.000000 0.042667 0.000000 0.000000
# 5 0.000000 0.000000 0.000000 0.000000 0.023327 0.000000
# 6 0.000000 0.000000 0.000000 0.000000 0.000000 0.063649
#
#
# Mechanical properties :
#
#
# Convention : Reuss Voigt Hill
#
# Bulk Modulus (GPa) = 50.31534 81.23707 65.77621
# Shear Modulus (GPa) = 20.40633 26.77967 23.59300
#
# Velocity S-wave (km/s) = 3.31343 3.79576 3.56277
# Velocity P-wave (km/s) = 6.45823 7.93202 7.23276
#
# Compressibility (1/GPa) = 0.01987465
#
# Stress axis : x y z
#
# Youngs Moduli (GPa) = 55.54974 30.75281 72.48870
#
# Poissons Ratio (x) = 0.09503 0.30485
# Poissons Ratio (y) = 0.17165 1.08185
# Poissons Ratio (z) = 0.23361 0.45897
#
# Static dielectric constant tensor:
#      x y z
#    x 1.682120 0.000000 0.000000 
#    y 0.000000 1.642440 0.000000 
#    z 0.000000 0.000000 1.632850 
# 
# From -- ./inp_files/26973.got.cif
#   From: 2010.05.17/outbox.cif.g08.bks.cpg/sg44_14_cif.got.tgz:26973.got - 2010.06.03 19:37:08.
