data_PCOD9374013
_publ_section_title
;
Structure prediction by ZEFSAII (Michael W. Deem and Ramdas Pophale) SiO2 
 PCOD9374013
Probable space group: I M M 2
;
_chemical_formula_sum "Si O2"
_cell_formula_units_Z 56
_cell_length_a 14.379409
_cell_length_b 22.707220
_cell_length_c 9.192252
_cell_angle_alpha 90.000000
_cell_angle_beta 90.000000
_cell_angle_gamma 90.000000
_cell_volume 3001.421064
_symmetry_space_group_name_H-M "I M M 2"
_symmetry_group_IT_number 44
_symmetry_cell_setting 'orthorhombic'
loop_
_space_group_symop_operation_xyz
x,y,z
-x,-y,z
-x,y,z
x,-y,z
1/2+x,1/2+y,1/2+z
1/2-x,1/2-y,1/2+z
1/2-x,1/2+y,1/2+z
1/2+x,1/2-y,1/2+z
loop_
_atom_site_type_symbol
_atom_site_label
_atom_site_fract_x
_atom_site_fract_y
_atom_site_fract_z
Si Si1 0.104547 0.608718 0.006250
Si Si2 0.890440 0.239011 0.609962
Si Si3 0.738210 0.834821 0.001228
Si Si4 0.229085 0.429903 0.752669
Si Si5 0.718370 0.375583 0.176479
Si Si6 0.896420 0.747505 0.956837
Si Si7 0.898291 0.930481 0.464510
O O1 0.187513 0.594893 0.116751
O O2 0.105989 0.679872 0.004522
O O3 0.000000 0.589133 0.040732
O O4 0.138823 0.584298 0.851117
O O5 0.852939 0.293632 0.515751
O O6 0.820816 0.183376 0.594226
O O7 0.000000 0.226770 0.582777
O O8 0.881521 0.253899 0.782129
O O9 0.730525 0.888603 0.112390
O O10 0.822048 0.789142 0.033810
O O11 0.762342 0.858879 0.841644
O O12 0.233500 0.500000 0.722873
O O13 0.317418 0.411520 0.853330
O O14 0.635237 0.418552 0.129254
O O15 0.000000 0.771233 0.982185
O O16 0.000000 0.904441 0.436602
O O17 0.903796 0.000000 0.444232
#
# Coordination Sequence:
#
# PCOD9374013 Si02
#       7
#     8   8   8   8   8   8   8
#     4  10  19  36  58  79 111 151 194 239 282 341
#     4  10  19  33  52  77 111 149 185 228 283 343
#     4  11  21  34  56  84 118 149 184 241 299 345
#     4  10  22  38  59  85 113 153 200 241 286 342
#     4  10  21  34  55  84 115 147 188 233 293 348
#     4   9  18  33  54  78 109 148 187 230 285 342
#     4   9  19  38  60  80 108 149 192 231 276 340
#
# _framework density 18.657827999999999
#
# number of rings (size 3 to 8) (size 9 to 14) (size 15 to 20)
#    0.000    2.143    2.857    0.429    0.000    2.571 
#    0.000    0.000    0.000    1.714    0.000    2.000 
#    0.000    0.000    0.000    0.000    0.000    0.000 
#
# Total GULP energy -155912.801115 kJ/mol
# GULP energy per Si atom -5568.314326 kJ/mol
# Density = 1.861536 g / cm^3
# Si number density = 18.657828 Si / 1000 Ang^3
#
#
#
# Elastic Constant Matrix: (Units=GPa)
#
#
# Indices 1 2 3 4 5 6 
#
# 1 106.2474 6.7046 14.5731 0.0001 0.0000 0.0000
# 2 6.7046 48.6305 22.9975 0.0001 -0.0001 0.0000
# 3 14.5731 22.9975 49.4751 0.0001 -0.0002 -0.0001
# 4 0.0001 0.0001 0.0001 20.9493 -0.0001 0.0000
# 5 0.0000 -0.0001 -0.0002 -0.0001 14.5847 0.0000
# 6 0.0000 0.0000 -0.0001 0.0000 0.0000 21.6552
#
#
#
# Elastic Compliance Matrix: (Units=1/GPa)
#
#
# Indices 1 2 3 4 5 6 
#
# 1 0.009808 0.000018 -0.002897 0.000000 0.000000 0.000000
# 2 0.000018 0.026357 -0.012257 0.000000 0.000000 0.000000
# 3 -0.002897 -0.012257 0.026763 0.000000 0.000000 0.000000
# 4 0.000000 0.000000 0.000000 0.047734 0.000000 0.000000
# 5 0.000000 0.000000 0.000000 0.000000 0.068565 0.000000
# 6 0.000000 0.000000 0.000000 0.000000 0.000000 0.046178
#
#
# Mechanical properties :
#
#
# Convention : Reuss Voigt Hill
#
# Bulk Modulus (GPa) = 30.62252 32.54482 31.58367
# Shear Modulus (GPa) = 18.75724 22.10969 20.43346
#
# Velocity S-wave (km/s) = 3.17413 3.44613 3.31292
# Velocity P-wave (km/s) = 5.46642 5.77194 5.62126
#
# Compressibility (1/GPa) = 0.03265570
#
# Stress axis : x y z
#
# Youngs Moduli (GPa) = 101.95470 37.94053 37.36509
#
# Poissons Ratio (x) = -0.00068 0.10826
# Poissons Ratio (y) = -0.00183 0.45798
# Poissons Ratio (z) = 0.29540 0.46503
#
# Static dielectric constant tensor:
#      x y z
#    x 1.688020 0.000000 0.000000 
#    y 0.000000 1.679450 0.000000 
#    z 0.000000 0.000000 1.637080 
# 
# From -- ./inp_files/7409.got.cif
#   From: 2010.05.17/outbox.cif.g08.bks.cpg/sg44_4_cif.got.tgz:7409.got - 2010.06.03 19:37:08.
