data_PCOD9374772
_publ_section_title
;
Structure prediction by ZEFSAII (Michael W. Deem and Ramdas Pophale) SiO2 
 PCOD9374772
Probable space group: I M M 2
;
_chemical_formula_sum "Si O2"
_cell_formula_units_Z 64
_cell_length_a 8.805735
_cell_length_b 25.552664
_cell_length_c 15.287294
_cell_angle_alpha 90.000000
_cell_angle_beta 90.000000
_cell_angle_gamma 90.000000
_cell_volume 3439.793835
_symmetry_space_group_name_H-M "I M M 2"
_symmetry_group_IT_number 44
_symmetry_cell_setting 'orthorhombic'
loop_
_space_group_symop_operation_xyz
x,y,z
-x,-y,z
-x,y,z
x,-y,z
1/2+x,1/2+y,1/2+z
1/2-x,1/2-y,1/2+z
1/2-x,1/2+y,1/2+z
1/2+x,1/2-y,1/2+z
loop_
_atom_site_type_symbol
_atom_site_label
_atom_site_fract_x
_atom_site_fract_y
_atom_site_fract_z
Si Si1 0.680665 0.220330 0.034800
Si Si2 0.318539 0.732161 0.726069
Si Si3 0.319634 0.895912 0.992115
Si Si4 0.319746 0.438195 0.671600
Si Si5 0.317757 0.149675 0.700706
Si Si6 0.818579 0.941098 0.818144
Si Si7 0.317665 0.828311 0.501230
Si Si8 0.819689 0.366353 0.818417
O O1 0.500000 0.222471 0.052500
O O2 0.771614 0.219558 0.126142
O O3 0.711202 0.166295 0.984844
O O4 0.733926 0.273032 0.987593
O O5 0.500000 0.726374 0.736540
O O6 0.277678 0.793095 0.739531
O O7 0.230948 0.690867 0.785087
O O8 0.500000 0.903652 0.985550
O O9 0.263208 0.914647 0.086822
O O10 0.238270 0.926893 0.915096
O O11 0.500000 0.430532 0.661195
O O12 0.288628 0.500000 0.677434
O O13 0.263963 0.408156 0.757807
O O14 0.500000 0.145150 0.706158
O O15 0.244384 0.102407 0.752528
O O16 0.275932 0.151367 0.597806
O O17 0.000000 0.939746 0.817008
O O18 0.767898 0.000000 0.795382
O O19 0.500000 0.818917 0.501485
O O20 0.283474 0.867113 0.421534
O O21 0.000000 0.372380 0.806808
#
# Coordination Sequence:
#
# PCOD9374772 Si02
#       8
#     8   8   8   8   8   8   8   8
#     4  10  20  34  55  86 120 154 195 235 285 349
#     4  10  20  35  57  85 120 156 191 235 290 350
#     4  11  23  38  59  89 120 155 198 242 292 354
#     4  11  24  41  61  86 119 160 202 244 295 351
#     4   9  20  40  62  85 115 153 197 245 298 351
#     4  11  25  42  60  85 116 153 200 250 301 356
#     4   9  21  39  59  86 121 157 195 242 295 352
#     4  11  22  37  59  89 121 156 200 243 291 350
#
# _framework density 18.605765999999999
#
# number of rings (size 3 to 8) (size 9 to 14) (size 15 to 20)
#    0.000    1.750    1.250    3.375    1.750    8.500 
#    0.000    0.625    0.000    3.750    0.000    0.000 
#    0.000    0.000    0.000    0.000    0.000    0.000 
#
# Total GULP energy -178775.217342 kJ/mol
# GULP energy per Si atom -5586.725542 kJ/mol
# Density = 1.856342 g / cm^3
# Si number density = 18.605766 Si / 1000 Ang^3
#
#
#
# Elastic Constant Matrix: (Units=GPa)
#
#
# Indices 1 2 3 4 5 6 
#
# 1 20.4076 28.0900 4.7564 0.0000 0.0000 0.0000
# 2 28.0900 97.0392 28.1770 0.0000 0.0000 0.0000
# 3 4.7564 28.1770 49.2817 -0.0001 -0.0001 0.0000
# 4 0.0000 0.0000 -0.0001 23.6011 0.0000 0.0000
# 5 0.0000 0.0000 -0.0001 0.0000 26.0700 0.0000
# 6 0.0000 0.0000 0.0000 0.0000 0.0000 29.9930
#
#
#
# Elastic Compliance Matrix: (Units=1/GPa)
#
#
# Indices 1 2 3 4 5 6 
#
# 1 0.083367 -0.026135 0.006897 0.000000 0.000000 0.000000
# 2 -0.026135 0.020550 -0.009227 0.000000 0.000000 0.000000
# 3 0.006897 -0.009227 0.024901 0.000000 0.000000 0.000000
# 4 0.000000 0.000000 0.000000 0.042371 0.000000 0.000000
# 5 0.000000 0.000000 0.000000 0.000000 0.038358 0.000000
# 6 0.000000 0.000000 0.000000 0.000000 0.000000 0.033341
#
#
# Mechanical properties :
#
#
# Convention : Reuss Voigt Hill
#
# Bulk Modulus (GPa) = 13.91059 32.08615 22.99837
# Shear Modulus (GPa) = 15.44254 22.97983 19.21119
#
# Velocity S-wave (km/s) = 2.88407 3.51820 3.21680
# Velocity P-wave (km/s) = 4.31083 5.81260 5.11711
#
# Compressibility (1/GPa) = 0.07188769
#
# Stress axis : x y z
#
# Youngs Moduli (GPa) = 11.99516 48.66289 40.15838
#
# Poissons Ratio (x) = 1.27179 -0.27696
# Poissons Ratio (y) = 0.31349 0.37054
# Poissons Ratio (z) = -0.08273 0.44901
#
# Static dielectric constant tensor:
#      x y z
#    x 1.620140 0.000000 0.000000 
#    y 0.000000 1.633890 0.000000 
#    z 0.000000 0.000000 1.646700 
# 
# From -- ./inp_files/16817.got.cif
#   From: 2010.05.17/outbox.cif.g08.bks.cpg/sg44_9_cif.got.tgz:16817.got - 2010.06.03 19:37:08.
