data_PCOD9374006
_publ_section_title
;
Structure prediction by ZEFSAII (Michael W. Deem and Ramdas Pophale) SiO2 
 PCOD9374006
Probable space group: I M M 2
;
_chemical_formula_sum "Si O2"
_cell_formula_units_Z 48
_cell_length_a 29.001251
_cell_length_b 7.615851
_cell_length_c 10.793162
_cell_angle_alpha 90.000000
_cell_angle_beta 90.000000
_cell_angle_gamma 90.000000
_cell_volume 2383.877126
_symmetry_space_group_name_H-M "I M M 2"
_symmetry_group_IT_number 44
_symmetry_cell_setting 'orthorhombic'
loop_
_space_group_symop_operation_xyz
x,y,z
-x,-y,z
-x,y,z
x,-y,z
1/2+x,1/2+y,1/2+z
1/2-x,1/2-y,1/2+z
1/2-x,1/2+y,1/2+z
1/2+x,1/2-y,1/2+z
loop_
_atom_site_type_symbol
_atom_site_label
_atom_site_fract_x
_atom_site_fract_y
_atom_site_fract_z
Si Si1 0.300324 0.210689 0.428140
Si Si2 0.853631 0.715704 0.682782
Si Si3 0.351087 0.207729 0.673939
Si Si4 0.551032 0.790619 0.286259
Si Si5 0.051596 0.209795 0.075148
Si Si6 0.807826 0.711115 0.428506
O O1 0.323425 0.273938 0.300767
O O2 0.326000 0.280383 0.550916
O O3 0.246327 0.249669 0.431200
O O4 0.306251 0.000000 0.427970
O O5 0.853421 0.500000 0.682552
O O6 0.905979 0.775044 0.707189
O O7 0.832231 0.775979 0.553569
O O8 0.405816 0.228668 0.657512
O O9 0.330937 0.279936 0.802145
O O10 0.341141 0.000000 0.675112
O O11 0.500000 0.717826 0.259615
O O12 0.560506 0.762124 0.432226
O O13 0.549107 0.000000 0.267610
O O14 0.000000 0.274862 0.107762
O O15 0.050787 0.000000 0.080231
O O16 0.813058 0.500000 0.428968
#
# Coordination Sequence:
#
# PCOD9374006 Si02
#       6
#     8   8   8   8   8   8
#     4  10  19  33  52  72 100 137 175 210 248 297
#     4   9  17  32  51  74 103 131 162 206 253 295
#     4  10  20  35  53  76 105 136 172 211 251 301
#     4   9  16  30  54  77  98 129 167 206 253 304
#     4  10  20  33  52  79 105 129 166 214 258 302
#     4  10  21  34  50  74 105 136 170 211 251 295
#
# _framework density 20.135266000000001
#
# number of rings (size 3 to 8) (size 9 to 14) (size 15 to 20)
#    0.000    2.333    1.667    1.500    0.000    2.333 
#    0.000    1.667    0.000    3.000    0.000    2.333 
#    0.000    0.000    0.000    0.000    0.000    0.000 
#
# Total GULP energy -133977.740312 kJ/mol
# GULP energy per Si atom -5582.405846 kJ/mol
# Density = 2.008944 g / cm^3
# Si number density = 20.135266 Si / 1000 Ang^3
#
#
#
# Elastic Constant Matrix: (Units=GPa)
#
#
# Indices 1 2 3 4 5 6 
#
# 1 172.4698 -7.4620 110.4878 0.0000 0.0000 0.0000
# 2 -7.4620 38.8472 12.9093 0.0000 0.0000 0.0000
# 3 110.4878 12.9093 173.1579 0.0000 0.0000 0.0000
# 4 0.0000 0.0000 0.0000 -4.5795 0.0000 0.0000
# 5 0.0000 0.0000 0.0000 0.0000 -1.2791 0.0000
# 6 0.0000 0.0000 0.0000 0.0000 0.0000 23.6843
#
#
#
# Elastic Compliance Matrix: (Units=1/GPa)
#
#
# Indices 1 2 3 4 5 6 
#
# 1 0.010475 0.004341 -0.007007 0.000000 0.000000 0.000000
# 2 0.004341 0.028195 -0.004872 0.000000 0.000000 0.000000
# 3 -0.007007 -0.004872 0.010610 0.000000 0.000000 0.000000
# 4 0.000000 0.000000 0.000000 -0.218366 0.000000 0.000000
# 5 0.000000 0.000000 0.000000 0.000000 -0.781820 0.000000
# 6 0.000000 0.000000 0.000000 0.000000 0.000000 0.042222
#
#
# Mechanical properties :
#
#
# Convention : Reuss Voigt Hill
#
# Bulk Modulus (GPa) = 29.23776 68.48281 48.86029
# Shear Modulus (GPa) = -5.66761 21.46781 7.90010
#
# Velocity S-wave (km/s) = -1.67955 3.26878 1.98294
# Velocity P-wave (km/s) = 3.28497 6.95211 5.43704
#
# Compressibility (1/GPa) = 0.03420234
#
# Stress axis : x y z
#
# Youngs Moduli (GPa) = 95.46473 35.46783 94.25440
#
# Poissons Ratio (x) = -0.15396 0.66049
# Poissons Ratio (y) = -0.41439 0.45918
# Poissons Ratio (z) = 0.66897 0.17279
#
# Static dielectric constant tensor:
#      x y z
#    x 1.702660 0.000000 0.000000 
#    y 0.000000 1.741400 0.000000 
#    z 0.000000 0.000000 1.691010 
# 
# From -- ./inp_files/4905.got.cif
#   From: 2010.05.17/outbox.cif.g08.bks.cpg/sg44_3_cif.got.tgz:4905.got - 2010.06.03 19:37:08.
