data_PCOD9374389
_publ_section_title
;
Structure prediction by ZEFSAII (Michael W. Deem and Ramdas Pophale) SiO2 
 PCOD9374389
Probable space group: I M M 2
;
_chemical_formula_sum "Si O2"
_cell_formula_units_Z 64
_cell_length_a 7.430429
_cell_length_b 19.126671
_cell_length_c 21.805748
_cell_angle_alpha 90.000000
_cell_angle_beta 90.000000
_cell_angle_gamma 90.000000
_cell_volume 3099.019187
_symmetry_space_group_name_H-M "I M M 2"
_symmetry_group_IT_number 44
_symmetry_cell_setting 'orthorhombic'
loop_
_space_group_symop_operation_xyz
x,y,z
-x,-y,z
-x,y,z
x,-y,z
1/2+x,1/2+y,1/2+z
1/2-x,1/2-y,1/2+z
1/2-x,1/2+y,1/2+z
1/2+x,1/2-y,1/2+z
loop_
_atom_site_type_symbol
_atom_site_label
_atom_site_fract_x
_atom_site_fract_y
_atom_site_fract_z
Si Si1 0.715989 0.580969 0.250000
Si Si2 0.779864 0.081018 0.380230
Si Si3 0.219441 0.081523 0.616331
Si Si4 0.779461 0.831372 0.498569
Si Si5 0.787217 0.579562 0.384138
Si Si6 0.717380 0.580190 0.612850
Si Si7 0.787043 0.327104 0.494498
Si Si8 0.291152 0.414938 0.746423
O O1 0.500000 0.580604 0.248770
O O2 0.778047 0.500000 0.251649
O O3 0.776472 0.608730 0.183777
O O4 0.767284 0.611113 0.315895
O O5 0.724002 0.128503 0.436883
O O6 0.715867 0.105498 0.312802
O O7 0.000000 0.081324 0.378373
O O8 0.727148 0.000000 0.389493
O O9 0.279995 0.127138 0.559118
O O10 0.000000 0.081903 0.615773
O O11 0.272234 0.000000 0.610223
O O12 0.716672 0.751505 0.498954
O O13 0.000000 0.832252 0.499423
O O14 0.712701 0.500000 0.385066
O O15 0.711910 0.627688 0.437976
O O16 0.000000 0.573139 0.395063
O O17 0.500000 0.577845 0.616666
O O18 0.777987 0.500000 0.601757
O O19 0.765417 0.630161 0.557203
O O20 0.785060 0.604809 0.679947
O O21 0.000000 0.319508 0.483174
O O22 0.500000 0.392666 0.746479
O O23 0.288712 0.500000 0.746491
#
# Coordination Sequence:
#
# PCOD9374389 Si02
#       8
#     8   8   8   8   8   8   8   8
#     4   8  14  25  43  66  86 104 134 178 219 250
#     4   8  12  20  38  63  88 113 141 174 213 255
#     4   8  13  23  41  64  87 110 140 179 216 249
#     4   9  16  25  38  59  89 121 146 170 208 257
#     4   9  17  29  43  58  80 111 143 175 212 253
#     4   9  17  30  48  67  86 111 144 180 216 254
#     4  10  20  31  42  61  91 120 144 175 214 254
#     4   7  11  21  38  61  85 105 132 176 220 250
#
# _framework density 20.651696999999999
#
# number of rings (size 3 to 8) (size 9 to 14) (size 15 to 20)
#    0.000    3.500    0.000    3.000    0.000    2.750 
#    0.000    2.500    0.000    2.250    0.000    0.875 
#    0.000    2.500    0.000    0.500    0.000    0.000 
#
# Total GULP energy -178298.439592 kJ/mol
# GULP energy per Si atom -5571.826237 kJ/mol
# Density = 2.060469 g / cm^3
# Si number density = 20.651697 Si / 1000 Ang^3
#
#
#
# Elastic Constant Matrix: (Units=GPa)
#
#
# Indices 1 2 3 4 5 6 
#
# 1 62.1904 3.0214 -0.5917 0.0000 0.0000 0.0000
# 2 3.0214 101.0265 108.7097 0.0000 0.0000 0.0000
# 3 -0.5917 108.7097 249.5374 0.0000 0.0000 0.0000
# 4 0.0000 0.0000 0.0000 -6.2511 0.0000 0.0000
# 5 0.0000 0.0000 0.0000 0.0000 247.5588 0.0000
# 6 0.0000 0.0000 0.0000 0.0000 0.0000 -0.4136
#
#
#
# Elastic Compliance Matrix: (Units=1/GPa)
#
#
# Indices 1 2 3 4 5 6 
#
# 1 0.016132 -0.000986 0.000468 0.000000 0.000000 0.000000
# 2 -0.000986 0.018693 -0.008146 0.000000 0.000000 0.000000
# 3 0.000468 -0.008146 0.007557 0.000000 0.000000 0.000000
# 4 0.000000 0.000000 0.000000 -0.159973 0.000000 -0.000001
# 5 0.000000 0.000000 0.000000 0.000000 0.004039 0.000000
# 6 0.000000 0.000000 0.000000 -0.000001 0.000000 -2.417734
#
#
# Mechanical properties :
#
#
# Convention : Reuss Voigt Hill
#
# Bulk Modulus (GPa) = 39.91285 70.55922 55.23604
# Shear Modulus (GPa) = -1.99553 68.28648 33.14548
#
# Velocity S-wave (km/s) = -0.98406 5.75652 4.01056
# Velocity P-wave (km/s) = 4.25176 8.85573 6.94627
#
# Compressibility (1/GPa) = 0.02505458
#
# Stress axis : x y z
#
# Youngs Moduli (GPa) = 61.98864 53.49481 132.32248
#
# Poissons Ratio (x) = 0.05273 -0.06188
# Poissons Ratio (y) = 0.06110 1.07790
# Poissons Ratio (z) = -0.02899 0.43577
#
# Static dielectric constant tensor:
#      x y z
#    x 1.765710 0.000000 0.000000 
#    y 0.000000 1.687990 0.000000 
#    z 0.000000 0.000000 1.766210 
# 
# From -- ./inp_files/23962.got.cif
#   From: 2010.05.17/outbox.cif.g08.bks.cpg/sg44_12_cif.got.tgz:23962.got - 2010.06.03 19:37:08.
