data_PCOD9374552
_publ_section_title
;
Structure prediction by ZEFSAII (Michael W. Deem and Ramdas Pophale) SiO2 
 PCOD9374552
Probable space group: I M M 2
;
_chemical_formula_sum "Si O2"
_cell_formula_units_Z 64
_cell_length_a 14.330266
_cell_length_b 8.299410
_cell_length_c 24.997976
_cell_angle_alpha 90.000000
_cell_angle_beta 90.000000
_cell_angle_gamma 90.000000
_cell_volume 2973.078104
_symmetry_space_group_name_H-M "I M M 2"
_symmetry_group_IT_number 44
_symmetry_cell_setting 'orthorhombic'
loop_
_space_group_symop_operation_xyz
x,y,z
-x,-y,z
-x,y,z
x,-y,z
1/2+x,1/2+y,1/2+z
1/2-x,1/2-y,1/2+z
1/2-x,1/2+y,1/2+z
1/2+x,1/2-y,1/2+z
loop_
_atom_site_type_symbol
_atom_site_label
_atom_site_fract_x
_atom_site_fract_y
_atom_site_fract_z
Si Si1 0.889525 0.818504 0.666840
Si Si2 0.259151 0.316818 0.971558
Si Si3 0.607125 0.191984 0.669131
Si Si4 0.897211 0.197016 0.383851
Si Si5 0.803397 0.805470 0.278069
Si Si6 0.397371 0.189217 0.283979
Si Si7 0.388039 0.182528 0.055204
Si Si8 0.393654 0.691574 0.551287
O O1 0.885730 0.714060 0.720236
O O2 0.855288 0.726604 0.614786
O O3 0.000000 0.838225 0.657443
O O4 0.850063 0.000000 0.673361
O O5 0.232564 0.500000 0.959230
O O6 0.310655 0.244404 0.919749
O O7 0.341933 0.306925 0.015122
O O8 0.172695 0.237581 0.002089
O O9 0.500000 0.253566 0.676292
O O10 0.669978 0.249505 0.718667
O O11 0.637217 0.242066 0.609339
O O12 0.604920 0.000000 0.670804
O O13 0.880081 0.239971 0.322090
O O14 0.000000 0.251574 0.401975
O O15 0.896233 0.000000 0.387520
O O16 0.703270 0.745341 0.301302
O O17 0.798169 0.000000 0.276387
O O18 0.500000 0.259168 0.298565
O O19 0.401038 0.000000 0.297194
O O20 0.500000 0.188329 0.052519
O O21 0.358432 0.000000 0.041751
O O22 0.500000 0.750345 0.542555
O O23 0.395025 0.500000 0.555789
#
# Coordination Sequence:
#
# PCOD9374552 Si02
#       8
#     8   8   8   8   8   8   8   8
#     4   9  17  29  46  69 100 140 183 226 276 333
#     4  11  22  36  58  85 114 150 193 243 298 352
#     4  10  21  37  58  87 121 153 189 240 300 356
#     4   9  19  37  60  87 119 153 193 242 294 351
#     4  10  20  35  59  86 114 156 204 245 290 348
#     4   9  18  32  49  73 109 149 188 233 282 334
#     4  10  20  33  50  75 109 148 190 234 282 343
#     4  10  22  41  63  86 116 154 195 241 295 359
#
# _framework density 21.526510999999999
#
# number of rings (size 3 to 8) (size 9 to 14) (size 15 to 20)
#    0.000    2.250    0.000    2.625    1.750    5.250 
#    0.000    1.875    0.000    5.250    0.000    1.750 
#    0.000    0.000    0.000    0.000    0.000    0.000 
#
# Total GULP energy -178433.828170 kJ/mol
# GULP energy per Si atom -5576.057130 kJ/mol
# Density = 2.147752 g / cm^3
# Si number density = 21.526511 Si / 1000 Ang^3
#
#
#
# Elastic Constant Matrix: (Units=GPa)
#
#
# Indices 1 2 3 4 5 6 
#
# 1 140.0373 12.8207 40.4024 0.0000 0.0000 0.0000
# 2 12.8207 27.1743 3.8591 0.0000 0.0000 0.0000
# 3 40.4024 3.8591 77.5971 0.0000 0.0000 0.0000
# 4 0.0000 0.0000 0.0000 13.2012 0.0000 0.0000
# 5 0.0000 0.0000 0.0000 0.0000 -3.9733 0.0000
# 6 0.0000 0.0000 0.0000 0.0000 0.0000 20.0691
#
#
#
# Elastic Compliance Matrix: (Units=1/GPa)
#
#
# Indices 1 2 3 4 5 6 
#
# 1 0.008721 -0.003494 -0.004367 0.000000 0.000000 0.000000
# 2 -0.003494 0.038461 -0.000093 0.000000 0.000000 0.000000
# 3 -0.004367 -0.000093 0.015165 0.000000 0.000000 0.000000
# 4 0.000000 0.000000 0.000000 0.075751 0.000000 0.000000
# 5 0.000000 0.000000 0.000000 0.000000 -0.251682 0.000000
# 6 0.000000 0.000000 0.000000 0.000000 0.000000 0.049828
#
#
# Mechanical properties :
#
#
# Convention : Reuss Voigt Hill
#
# Bulk Modulus (GPa) = 21.53392 39.88592 30.70992
# Shear Modulus (GPa) = -154.47400 18.37450 -68.04975
#
# Velocity S-wave (km/s) = -8.48031 2.92477 -5.62856
# Velocity P-wave (km/s) = 9.26620 5.47491 5.28620
#
# Compressibility (1/GPa) = 0.04643836
#
# Stress axis : x y z
#
# Youngs Moduli (GPa) = 114.66901 26.00018 65.93954
#
# Poissons Ratio (x) = 0.09085 0.28795
# Poissons Ratio (y) = 0.40068 0.00616
# Poissons Ratio (z) = 0.50074 0.00243
#
# Static dielectric constant tensor:
#      x y z
#    x 1.866370 0.000000 0.000000 
#    y 0.000000 1.778400 0.000000 
#    z 0.000000 0.000000 1.753920 
# 
# From -- ./inp_files/25752.got.cif
#   From: 2010.05.17/outbox.cif.g08.bks.cpg/sg44_13_cif.got.tgz:25752.got - 2010.06.03 19:37:08.
