data_PCOD9374344
_publ_section_title
;
Structure prediction by ZEFSAII (Michael W. Deem and Ramdas Pophale) SiO2 
 PCOD9374344
Probable space group: I M M 2
;
_chemical_formula_sum "Si O2"
_cell_formula_units_Z 64
_cell_length_a 31.256408
_cell_length_b 8.856888
_cell_length_c 12.119035
_cell_angle_alpha 90.000000
_cell_angle_beta 90.000000
_cell_angle_gamma 90.000000
_cell_volume 3354.967055
_symmetry_space_group_name_H-M "I M M 2"
_symmetry_group_IT_number 44
_symmetry_cell_setting 'orthorhombic'
loop_
_space_group_symop_operation_xyz
x,y,z
-x,-y,z
-x,y,z
x,-y,z
1/2+x,1/2+y,1/2+z
1/2-x,1/2-y,1/2+z
1/2-x,1/2+y,1/2+z
1/2+x,1/2-y,1/2+z
loop_
_atom_site_type_symbol
_atom_site_label
_atom_site_fract_x
_atom_site_fract_y
_atom_site_fract_z
Si Si1 0.547948 0.179206 0.839420
Si Si2 0.199835 0.818563 0.864794
Si Si3 0.626032 0.679955 0.974810
Si Si4 0.330271 0.324535 0.610751
Si Si5 0.798891 0.321044 0.331008
Si Si6 0.451631 0.318430 0.358346
Si Si7 0.432957 0.675920 0.609662
Si Si8 0.625559 0.819976 0.218222
O O1 0.500000 0.215006 0.880319
O O2 0.585027 0.264767 0.904993
O O3 0.550467 0.227010 0.711333
O O4 0.554849 0.000000 0.849419
O O5 0.249431 0.779470 0.848856
O O6 0.168040 0.736732 0.781046
O O7 0.194918 0.000000 0.850179
O O8 0.186122 0.782666 0.989759
O O9 0.626024 0.500000 0.980866
O O10 0.668478 0.736070 0.911686
O O11 0.624320 0.750311 0.096307
O O12 0.318372 0.500000 0.631976
O O13 0.311783 0.221917 0.706890
O O14 0.381539 0.316156 0.611179
O O15 0.803424 0.500000 0.349294
O O16 0.500000 0.285734 0.320500
O O17 0.444766 0.500000 0.352500
O O18 0.447773 0.277263 0.487819
O O19 0.415271 0.238080 0.287707
O O20 0.445374 0.500000 0.625830
O O21 0.625195 0.000000 0.212005
#
# Coordination Sequence:
#
# PCOD9374344 Si02
#       8
#     8   8   8   8   8   8   8   8
#     4  11  24  41  63  93 128 163 204 259 316 370
#     4  10  23  44  66  92 128 168 210 256 307 369
#     4  12  26  45  67  89 122 167 212 258 311 375
#     4  10  20  38  65  93 127 168 208 254 306 365
#     4  11  24  41  65  97 129 163 207 261 315 365
#     4  10  21  40  66  93 124 165 211 257 308 372
#     4  10  19  36  64  94 126 165 206 251 305 369
#     4  12  26  43  65  92 126 165 208 261 314 369
#
# _framework density 19.076191999999999
#
# number of rings (size 3 to 8) (size 9 to 14) (size 15 to 20)
#    0.000    1.250    2.500    3.375    1.750    4.250 
#    0.000    0.000    0.000    0.000    0.000    0.000 
#    0.000    0.000    0.000    0.000    0.000    0.000 
#
# Total GULP energy -178958.703636 kJ/mol
# GULP energy per Si atom -5592.459489 kJ/mol
# Density = 1.903277 g / cm^3
# Si number density = 19.076192 Si / 1000 Ang^3
#
#
#
# Elastic Constant Matrix: (Units=GPa)
#
#
# Indices 1 2 3 4 5 6 
#
# 1 158.7168 81.9268 83.3580 0.0000 0.0000 0.0000
# 2 81.9268 98.2095 68.2919 0.0000 0.0000 0.0000
# 3 83.3580 68.2919 131.5754 0.0000 0.0000 0.0000
# 4 0.0000 0.0000 0.0000 8.0189 0.0000 0.0000
# 5 0.0000 0.0000 0.0000 0.0000 42.2320 0.0000
# 6 0.0000 0.0000 0.0000 0.0000 0.0000 -19.0768
#
#
#
# Elastic Compliance Matrix: (Units=1/GPa)
#
#
# Indices 1 2 3 4 5 6 
#
# 1 0.012181 -0.007504 -0.003823 0.000000 0.000000 0.000000
# 2 -0.007504 0.020555 -0.005915 0.000000 0.000000 0.000000
# 3 -0.003823 -0.005915 0.013092 0.000000 0.000000 0.000000
# 4 0.000000 0.000000 0.000000 0.124706 0.000000 0.000000
# 5 0.000000 0.000000 0.000000 0.000000 0.023679 0.000000
# 6 0.000000 0.000000 0.000000 0.000000 0.000000 -0.052420
#
#
# Mechanical properties :
#
#
# Convention : Reuss Voigt Hill
#
# Bulk Modulus (GPa) = 88.13716 95.07277 91.60497
# Shear Modulus (GPa) = 27.76893 16.56316 22.16604
#
# Velocity S-wave (km/s) = 3.81948 2.94983 3.41247
# Velocity P-wave (km/s) = 8.10890 7.84529 7.97819
#
# Compressibility (1/GPa) = 0.01134595
#
# Stress axis : x y z
#
# Youngs Moduli (GPa) = 82.09179 48.65039 76.38191
#
# Poissons Ratio (x) = 0.36505 0.29200
# Poissons Ratio (y) = 0.61598 0.45179
# Poissons Ratio (z) = 0.31382 0.28776
#
# Static dielectric constant tensor:
#      x y z
#    x 1.654250 0.000000 0.000000 
#    y 0.000000 1.642450 0.000000 
#    z 0.000000 0.000000 1.629110 
# 
# From -- ./inp_files/15027.got.cif
#   From: 2010.05.17/outbox.cif.g08.bks.cpg/sg44_8_cif.got.tgz:15027.got - 2010.06.03 19:37:08.
