data_PCOD9374094
_publ_section_title
;
Structure prediction by ZEFSAII (Michael W. Deem and Ramdas Pophale) SiO2 
 PCOD9374094
Probable space group: I M M 2
;
_chemical_formula_sum "Si O2"
_cell_formula_units_Z 48
_cell_length_a 19.548326
_cell_length_b 15.499242
_cell_length_c 8.943155
_cell_angle_alpha 90.000000
_cell_angle_beta 90.000000
_cell_angle_gamma 90.000000
_cell_volume 2709.634979
_symmetry_space_group_name_H-M "I M M 2"
_symmetry_group_IT_number 44
_symmetry_cell_setting 'orthorhombic'
loop_
_space_group_symop_operation_xyz
x,y,z
-x,-y,z
-x,y,z
x,-y,z
1/2+x,1/2+y,1/2+z
1/2-x,1/2-y,1/2+z
1/2-x,1/2+y,1/2+z
1/2+x,1/2-y,1/2+z
loop_
_atom_site_type_symbol
_atom_site_label
_atom_site_fract_x
_atom_site_fract_y
_atom_site_fract_z
Si Si1 0.279635 0.666626 0.107880
Si Si2 0.781717 0.500000 0.273222
Si Si3 0.226864 0.653616 0.771127
Si Si4 0.925383 0.000000 0.927381
Si Si5 0.285747 0.500000 0.592773
Si Si6 0.922501 0.500000 0.106595
Si Si7 0.575473 0.671765 0.229719
Si Si8 0.077483 0.359974 0.845792
O O1 0.252953 0.584466 0.200212
O O2 0.261475 0.755017 0.192032
O O3 0.362372 0.668999 0.113499
O O4 0.246903 0.662246 0.944507
O O5 0.763892 0.500000 0.447998
O O6 0.861361 0.500000 0.225456
O O7 0.272164 0.583170 0.691339
O O8 0.147744 0.621062 0.757925
O O9 0.862593 0.000000 0.036643
O O10 0.920544 0.915203 0.824946
O O11 0.000000 0.000000 0.000724
O O12 0.000000 0.500000 0.168017
O O13 0.916340 0.584571 0.998348
O O14 0.500000 0.677390 0.159699
O O15 0.581066 0.755061 0.340594
O O16 0.000000 0.381231 0.788960
#
# Coordination Sequence:
#
# PCOD9374094 Si02
#       8
#     8   4   8   4   4   4   8   8
#     4  11  21  37  59  85 116 148 188 240 286 337
#     4  12  21  36  58  84 117 148 188 237 286 336
#     4  11  23  37  58  86 117 151 193 237 285 338
#     4  10  20  35  56  83 113 149 195 231 277 344
#     4  12  24  38  56  84 118 154 194 239 284 333
#     4  10  19  33  56  85 116 149 185 229 287 339
#     4   9  18  34  58  85 112 148 189 230 281 344
#     4   9  18  34  58  84 110 146 192 230 278 347
#
# _framework density 17.714562999999998
#
# number of rings (size 3 to 8) (size 9 to 14) (size 15 to 20)
#    0.000    1.667    3.333    2.000    2.333    0.000 
#    0.000    1.667    0.000    4.000    0.000    0.000 
#    0.000    0.000    0.000    0.000    0.000    0.000 
#
# Total GULP energy -133697.580804 kJ/mol
# GULP energy per Si atom -5570.732534 kJ/mol
# Density = 1.767424 g / cm^3
# Si number density = 17.714563 Si / 1000 Ang^3
#
#
#
# Elastic Constant Matrix: (Units=GPa)
#
#
# Indices 1 2 3 4 5 6 
#
# 1 123.1323 24.6370 19.3191 0.0000 0.0000 0.0000
# 2 24.6370 82.2092 19.6409 0.0000 0.0000 0.0000
# 3 19.3191 19.6409 64.5476 0.0000 0.0000 0.0000
# 4 0.0000 0.0000 0.0000 25.3997 0.0000 0.0000
# 5 0.0000 0.0000 0.0000 0.0000 25.1475 0.0000
# 6 0.0000 0.0000 0.0000 0.0000 0.0000 28.8814
#
#
#
# Elastic Compliance Matrix: (Units=1/GPa)
#
#
# Indices 1 2 3 4 5 6 
#
# 1 0.008870 -0.002183 -0.001991 0.000000 0.000000 0.000000
# 2 -0.002183 0.013655 -0.003502 0.000000 0.000000 0.000000
# 3 -0.001991 -0.003502 0.017154 0.000000 0.000000 0.000000
# 4 0.000000 0.000000 0.000000 0.039370 0.000000 0.000000
# 5 0.000000 0.000000 0.000000 0.000000 0.039765 0.000000
# 6 0.000000 0.000000 0.000000 0.000000 0.000000 0.034624
#
#
# Mechanical properties :
#
#
# Convention : Reuss Voigt Hill
#
# Bulk Modulus (GPa) = 41.10364 44.12033 42.61199
# Shear Modulus (GPa) = 28.26470 29.63854 28.95162
#
# Velocity S-wave (km/s) = 3.99878 4.09481 4.04708
# Velocity P-wave (km/s) = 6.67638 6.87873 6.77831
#
# Compressibility (1/GPa) = 0.02432874
#
# Stress axis : x y z
#
# Youngs Moduli (GPa) = 112.73424 73.23421 58.29617
#
# Poissons Ratio (x) = 0.15985 0.11605
# Poissons Ratio (y) = 0.24607 0.20413
# Poissons Ratio (z) = 0.22443 0.25644
#
# Static dielectric constant tensor:
#      x y z
#    x 1.650950 0.000000 0.000000 
#    y 0.000000 1.601060 0.000000 
#    z 0.000000 0.000000 1.548210 
# 
# From -- ./inp_files/8158.got.cif
#   From: 2010.05.17/outbox.cif.g08.bks.cpg/sg44_5_cif.got.tgz:8158.got - 2010.06.03 19:37:08.
