data_PCOD9374011
_publ_section_title
;
Structure prediction by ZEFSAII (Michael W. Deem and Ramdas Pophale) SiO2 
 PCOD9374011
Probable space group: I M M 2
;
_chemical_formula_sum "Si O2"
_cell_formula_units_Z 48
_cell_length_a 17.259556
_cell_length_b 7.683266
_cell_length_c 19.061392
_cell_angle_alpha 90.000000
_cell_angle_beta 90.000000
_cell_angle_gamma 90.000000
_cell_volume 2527.726614
_symmetry_space_group_name_H-M "I M M 2"
_symmetry_group_IT_number 44
_symmetry_cell_setting 'orthorhombic'
loop_
_space_group_symop_operation_xyz
x,y,z
-x,-y,z
-x,y,z
x,-y,z
1/2+x,1/2+y,1/2+z
1/2-x,1/2-y,1/2+z
1/2-x,1/2+y,1/2+z
1/2+x,1/2-y,1/2+z
loop_
_atom_site_type_symbol
_atom_site_label
_atom_site_fract_x
_atom_site_fract_y
_atom_site_fract_z
Si Si1 0.911537 0.713441 0.925610
Si Si2 0.726695 0.798323 0.518456
Si Si3 0.500000 0.712086 0.064919
Si Si4 0.000000 0.702950 0.401436
Si Si5 0.160279 0.791013 0.634525
Si Si6 0.308580 0.207358 0.295193
Si Si7 0.169163 0.704372 0.388012
O O1 0.911089 0.500000 0.926570
O O2 0.873128 0.767495 0.851567
O O3 0.000000 0.769999 0.932795
O O4 0.852729 0.775718 0.986345
O O5 0.770001 0.720985 0.585743
O O6 0.787982 0.791276 0.454150
O O7 0.710001 0.000000 0.534551
O O8 0.500000 0.500000 0.061850
O O9 0.422379 0.770282 0.104837
O O10 0.500000 0.779825 0.985680
O O11 0.082739 0.776103 0.376929
O O12 0.000000 0.500000 0.380495
O O13 0.171550 0.753422 0.715984
O O14 0.159932 0.000000 0.625779
O O15 0.226145 0.276895 0.322212
O O16 0.304822 0.000000 0.301105
O O17 0.162812 0.500000 0.405792
#
# Coordination Sequence:
#
# PCOD9374011 Si02
#       7
#     8   8   4   4   8   8   8
#     4   8  15  29  49  73  96 120 160 210 250 289
#     4   9  17  31  52  74  99 133 172 206 248 302
#     4  10  20  32  50  76 108 139 164 203 260 312
#     4  10  20  32  52  80 104 129 166 213 260 306
#     4  10  20  33  49  73 105 138 167 205 254 307
#     4  10  21  34  51  73 100 137 172 208 256 307
#     4  10  19  33  52  75 103 132 167 212 256 303
#
# _framework density 18.989394999999998
#
# number of rings (size 3 to 8) (size 9 to 14) (size 15 to 20)
#    0.000    2.500    1.667    2.000    1.167    2.000 
#    0.000    0.000    1.833    4.500    0.000    0.000 
#    0.000    0.000    0.000    0.000    0.000    0.000 
#
# Total GULP energy -133841.233434 kJ/mol
# GULP energy per Si atom -5576.718060 kJ/mol
# Density = 1.894617 g / cm^3
# Si number density = 18.989395 Si / 1000 Ang^3
#
#
#
# Elastic Constant Matrix: (Units=GPa)
#
#
# Indices 1 2 3 4 5 6 
#
# 1 196.4347 6.1655 66.1015 0.0000 0.0000 0.0000
# 2 6.1655 30.3396 3.5318 0.0000 0.0000 0.0000
# 3 66.1015 3.5318 85.6394 0.0000 0.0000 0.0000
# 4 0.0000 0.0000 0.0000 22.0755 0.0000 0.0000
# 5 0.0000 0.0000 0.0000 0.0000 21.4090 0.0000
# 6 0.0000 0.0000 0.0000 0.0000 0.0000 19.1544
#
#
#
# Elastic Compliance Matrix: (Units=1/GPa)
#
#
# Indices 1 2 3 4 5 6 
#
# 1 0.006896 -0.000785 -0.005290 0.000000 0.000000 0.000000
# 2 -0.000785 0.033209 -0.000763 0.000000 0.000000 0.000000
# 3 -0.005290 -0.000763 0.015791 0.000000 0.000000 0.000000
# 4 0.000000 0.000000 0.000000 0.045299 0.000000 0.000000
# 5 0.000000 0.000000 0.000000 0.000000 0.046709 0.000000
# 6 0.000000 0.000000 0.000000 0.000000 0.000000 0.052207
#
#
# Mechanical properties :
#
#
# Convention : Reuss Voigt Hill
#
# Bulk Modulus (GPa) = 23.68645 51.55681 37.62163
# Shear Modulus (GPa) = 21.94316 28.30211 25.12263
#
# Velocity S-wave (km/s) = 3.40302 3.86478 3.64123
# Velocity P-wave (km/s) = 5.28596 6.86474 6.12642
#
# Compressibility (1/GPa) = 0.04221822
#
# Stress axis : x y z
#
# Youngs Moduli (GPa) = 145.02179 30.11264 63.32536
#
# Poissons Ratio (x) = 0.02365 0.33499
# Poissons Ratio (y) = 0.11391 0.04833
# Poissons Ratio (z) = 0.76716 0.02298
#
# Static dielectric constant tensor:
#      x y z
#    x 1.685770 0.000000 0.000000 
#    y 0.000000 1.711430 0.000000 
#    z 0.000000 0.000000 1.632580 
# 
# From -- ./inp_files/18841.got.cif
#   From: 2010.05.17/outbox.cif.g08.bks.cpg/sg44_10_cif.got.tgz:18841.got - 2010.06.03 19:37:08.
