data_PCOD9374747
_publ_section_title
;
Structure prediction by ZEFSAII (Michael W. Deem and Ramdas Pophale) SiO2 
 PCOD9374747
Probable space group: I M M 2
;
_chemical_formula_sum "Si O2"
_cell_formula_units_Z 56
_cell_length_a 8.669258
_cell_length_b 21.624702
_cell_length_c 14.202008
_cell_angle_alpha 90.000000
_cell_angle_beta 90.000000
_cell_angle_gamma 90.000000
_cell_volume 2662.452156
_symmetry_space_group_name_H-M "I M M 2"
_symmetry_group_IT_number 44
_symmetry_cell_setting 'orthorhombic'
loop_
_space_group_symop_operation_xyz
x,y,z
-x,-y,z
-x,y,z
x,-y,z
1/2+x,1/2+y,1/2+z
1/2-x,1/2-y,1/2+z
1/2-x,1/2+y,1/2+z
1/2+x,1/2-y,1/2+z
loop_
_atom_site_type_symbol
_atom_site_label
_atom_site_fract_x
_atom_site_fract_y
_atom_site_fract_z
Si Si1 0.684821 0.862176 0.865260
Si Si2 0.178216 0.000000 0.105462
Si Si3 0.676885 0.114970 0.209732
Si Si4 0.179611 0.714423 0.547790
Si Si5 0.673538 0.927776 0.586267
Si Si6 0.176830 0.928038 0.388813
Si Si7 0.322007 0.500000 0.379392
Si Si8 0.820528 0.819897 0.676476
O O1 0.500000 0.867263 0.870721
O O2 0.734383 0.820296 0.776267
O O3 0.746968 0.933001 0.854372
O O4 0.742134 0.826321 0.960429
O O5 0.264047 0.059079 0.145887
O O6 0.000000 0.000000 0.136856
O O7 0.181809 0.000000 0.993256
O O8 0.500000 0.104429 0.238136
O O9 0.684915 0.173355 0.142088
O O10 0.779521 0.115672 0.302750
O O11 0.244412 0.778666 0.589303
O O12 0.000000 0.726357 0.522387
O O13 0.500000 0.906523 0.609669
O O14 0.709644 0.920396 0.476058
O O15 0.799424 0.889552 0.641574
O O16 0.683603 0.000000 0.608464
O O17 0.000000 0.918742 0.418959
O O18 0.190868 0.000000 0.356571
O O19 0.500000 0.500000 0.347590
O O20 0.000000 0.803855 0.690437
#
# Coordination Sequence:
#
# PCOD9374747 Si02
#       8
#     8   4   8   8   8   8   4   8
#     4  11  23  43  68  96 129 171 221 268 322 388
#     4  11  21  33  53  88 127 160 205 261 323 380
#     4  11  20  34  58  87 122 167 212 256 314 376
#     4   9  22  42  63  89 125 167 213 263 315 378
#     4  10  22  41  63  88 118 157 209 261 314 380
#     4  10  20  34  54  85 123 158 198 251 306 361
#     4  11  23  39  63  98 133 168 213 273 335 384
#     4  11  24  44  66  92 127 165 209 263 322 382
#
# _framework density 21.033242000000001
#
# number of rings (size 3 to 8) (size 9 to 14) (size 15 to 20)
#    0.000    1.571    2.143    2.571    1.000    3.143 
#    0.000    8.571    0.000    0.000    0.000    0.000 
#    0.000    0.000    0.000    0.000    0.000    0.000 
#
# Total GULP energy -156237.886458 kJ/mol
# GULP energy per Si atom -5579.924516 kJ/mol
# Density = 2.098537 g / cm^3
# Si number density = 21.033242 Si / 1000 Ang^3
#
#
#
# Elastic Constant Matrix: (Units=GPa)
#
#
# Indices 1 2 3 4 5 6 
#
# 1 55.3808 26.0154 5.0089 0.0000 0.0000 0.0000
# 2 26.0154 69.8719 34.6614 0.0000 0.0000 0.0000
# 3 5.0089 34.6614 73.6094 -0.0001 0.0000 -0.0001
# 4 0.0000 0.0000 -0.0001 22.2939 0.0000 0.0000
# 5 0.0000 0.0000 0.0000 0.0000 30.3501 0.0000
# 6 0.0000 0.0000 -0.0001 0.0000 0.0000 -3.7794
#
#
#
# Elastic Compliance Matrix: (Units=1/GPa)
#
#
# Indices 1 2 3 4 5 6 
#
# 1 0.022427 -0.009908 0.003139 0.000000 0.000000 0.000000
# 2 -0.009908 0.023051 -0.010180 0.000000 0.000000 0.000000
# 3 0.003139 -0.010180 0.018165 0.000000 0.000000 0.000000
# 4 0.000000 0.000000 0.000000 0.044855 0.000000 0.000000
# 5 0.000000 0.000000 0.000000 0.000000 0.032949 0.000000
# 6 0.000000 0.000000 0.000000 0.000000 0.000000 -0.264589
#
#
# Mechanical properties :
#
#
# Convention : Reuss Voigt Hill
#
# Bulk Modulus (GPa) = 33.61766 36.69260 35.15513
# Shear Modulus (GPa) = -63.02814 18.65134 -22.18840
#
# Velocity S-wave (km/s) = -5.48006 2.98107 -3.25148
# Velocity P-wave (km/s) = 4.90138 5.41590 1.62918
#
# Compressibility (1/GPa) = 0.02974627
#
# Stress axis : x y z
#
# Youngs Moduli (GPa) = 44.58909 43.38241 55.05028
#
# Poissons Ratio (x) = 0.42981 -0.17281
# Poissons Ratio (y) = 0.44177 0.56041
# Poissons Ratio (z) = -0.13997 0.44163
#
# Static dielectric constant tensor:
#      x y z
#    x 1.731910 0.000000 0.000000 
#    y 0.000000 1.810740 0.000000 
#    z 0.000000 0.000000 1.774270 
# 
# From -- ./inp_files/16540.got.cif
#   From: 2010.05.17/outbox.cif.g08.bks.cpg/sg44_9_cif.got.tgz:16540.got - 2010.06.03 19:37:08.
