data_PCOD9374943
_publ_section_title
;
Structure prediction by ZEFSAII (Michael W. Deem and Ramdas Pophale) SiO2 
 PCOD9374943
Probable space group: I M M 2
;
_chemical_formula_sum "Si O2"
_cell_formula_units_Z 64
_cell_length_a 9.560215
_cell_length_b 29.309824
_cell_length_c 12.125592
_cell_angle_alpha 90.000000
_cell_angle_beta 90.000000
_cell_angle_gamma 90.000000
_cell_volume 3397.690539
_symmetry_space_group_name_H-M "I M M 2"
_symmetry_group_IT_number 44
_symmetry_cell_setting 'orthorhombic'
loop_
_space_group_symop_operation_xyz
x,y,z
-x,-y,z
-x,y,z
x,-y,z
1/2+x,1/2+y,1/2+z
1/2-x,1/2-y,1/2+z
1/2-x,1/2+y,1/2+z
1/2+x,1/2-y,1/2+z
loop_
_atom_site_type_symbol
_atom_site_label
_atom_site_fract_x
_atom_site_fract_y
_atom_site_fract_z
Si Si1 0.846885 0.052674 0.365900
Si Si2 0.333094 0.124298 0.975864
Si Si3 0.669080 0.201650 0.386678
Si Si4 0.257891 0.051880 0.611677
Si Si5 0.338176 0.843500 0.620685
Si Si6 0.166948 0.378554 0.733045
Si Si7 0.830552 0.194381 0.830443
Si Si8 0.846340 0.052601 0.855917
O O1 0.825925 0.053694 0.497427
O O2 0.730973 0.080930 0.303596
O O3 0.000000 0.071221 0.338286
O O4 0.839848 0.000000 0.332298
O O5 0.500000 0.131256 0.961696
O O6 0.241453 0.164898 0.926016
O O7 0.279069 0.080452 0.909185
O O8 0.300465 0.118586 0.104519
O O9 0.500000 0.201132 0.387820
O O10 0.708684 0.179751 0.505002
O O11 0.717555 0.168001 0.289958
O O12 0.708218 0.253207 0.357125
O O13 0.336312 0.100952 0.612994
O O14 0.168892 0.053496 0.723721
O O15 0.325156 0.000000 0.612669
O O16 0.500000 0.830292 0.642574
O O17 0.238340 0.825158 0.717920
O O18 0.000000 0.380008 0.743029
O O19 0.000000 0.190172 0.827019
O O20 0.000000 0.071285 0.886301
O O21 0.839715 0.000000 0.890573
#
# Coordination Sequence:
#
# PCOD9374943 Si02
#       8
#     8   8   8   8   8   8   8   8
#     4  10  21  37  59  90 125 158 196 245 297 355
#     4  11  24  40  61  86 118 157 203 255 301 355
#     4   9  21  42  63  87 120 157 196 249 307 359
#     4  10  20  35  61  94 129 161 196 242 302 367
#     4  11  22  40  66  94 127 158 202 258 306 362
#     4  10  22  42  62  82 115 159 202 247 301 358
#     4  11  24  41  64  89 121 161 202 248 307 368
#     4  10  21  38  61  87 120 161 200 243 300 363
#
# _framework density 18.836324999999999
#
# number of rings (size 3 to 8) (size 9 to 14) (size 15 to 20)
#    0.000    1.750    2.500    1.125    1.750    4.250 
#    0.000    6.875    0.000    0.000    0.000    0.000 
#    0.000    0.000    0.000    0.000    0.000    0.000 
#
# Total GULP energy -178397.274662 kJ/mol
# GULP energy per Si atom -5574.914833 kJ/mol
# Density = 1.879345 g / cm^3
# Si number density = 18.836325 Si / 1000 Ang^3
#
#
#
# Elastic Constant Matrix: (Units=GPa)
#
#
# Indices 1 2 3 4 5 6 
#
# 1 54.6939 32.4169 42.5029 0.0001 -0.0001 0.0000
# 2 32.4169 121.4425 57.7671 0.0000 0.0000 0.0000
# 3 42.5029 57.7671 117.7198 0.0000 0.0001 0.0006
# 4 0.0001 0.0000 0.0000 22.0435 0.0000 -0.0001
# 5 -0.0001 0.0000 0.0001 0.0000 8.0331 0.0002
# 6 0.0000 0.0000 0.0006 -0.0001 0.0002 16.8413
#
#
#
# Elastic Compliance Matrix: (Units=1/GPa)
#
#
# Indices 1 2 3 4 5 6 
#
# 1 0.026376 -0.003275 -0.007916 0.000000 0.000000 0.000000
# 2 -0.003275 0.011148 -0.004288 0.000000 0.000000 0.000000
# 3 -0.007916 -0.004288 0.013457 0.000000 0.000000 0.000000
# 4 0.000000 0.000000 0.000000 0.045365 0.000000 0.000000
# 5 0.000000 0.000000 0.000000 0.000000 0.124486 -0.000002
# 6 0.000000 0.000000 0.000000 0.000000 -0.000002 0.059378
#
#
# Mechanical properties :
#
#
# Convention : Reuss Voigt Hill
#
# Bulk Modulus (GPa) = 49.94254 62.13667 56.03961
# Shear Modulus (GPa) = 15.73104 20.12822 17.92963
#
# Velocity S-wave (km/s) = 2.89302 3.27247 3.08858
# Velocity P-wave (km/s) = 6.14255 6.88026 6.52185
#
# Compressibility (1/GPa) = 0.02002301
#
# Stress axis : x y z
#
# Youngs Moduli (GPa) = 37.91274 89.69912 74.31016
#
# Poissons Ratio (x) = 0.29379 0.58824
# Poissons Ratio (y) = 0.12417 0.31865
# Poissons Ratio (z) = 0.30012 0.38464
#
# Static dielectric constant tensor:
#      x y z
#    x 1.643560 0.000000 0.000000 
#    y 0.000000 1.675890 0.000000 
#    z 0.000000 0.000000 1.636090 
# 
# From -- ./inp_files/11480.got.cif
#   From: 2010.05.17/outbox.cif.g08.bks.cpg/sg44_6_cif.got.tgz:11480.got - 2010.06.03 19:37:08.
