data_PCOD9374791
_publ_section_title
;
Structure prediction by ZEFSAII (Michael W. Deem and Ramdas Pophale) SiO2 
 PCOD9374791
Probable space group: I M M 2
;
_chemical_formula_sum "Si O2"
_cell_formula_units_Z 64
_cell_length_a 28.577202
_cell_length_b 8.796898
_cell_length_c 12.882065
_cell_angle_alpha 90.000000
_cell_angle_beta 90.000000
_cell_angle_gamma 90.000000
_cell_volume 3238.431739
_symmetry_space_group_name_H-M "I M M 2"
_symmetry_group_IT_number 44
_symmetry_cell_setting 'orthorhombic'
loop_
_space_group_symop_operation_xyz
x,y,z
-x,-y,z
-x,y,z
x,-y,z
1/2+x,1/2+y,1/2+z
1/2-x,1/2-y,1/2+z
1/2-x,1/2+y,1/2+z
1/2+x,1/2-y,1/2+z
loop_
_atom_site_type_symbol
_atom_site_label
_atom_site_fract_x
_atom_site_fract_y
_atom_site_fract_z
Si Si1 0.802464 0.818605 0.535960
Si Si2 0.207667 0.819423 0.105092
Si Si3 0.322012 0.822428 0.821986
Si Si4 0.376727 0.819431 0.492633
Si Si5 0.417727 0.322554 0.871094
Si Si6 0.590376 0.680190 0.098834
Si Si7 0.553368 0.183098 0.310448
Si Si8 0.448604 0.322306 0.643917
O O1 0.760261 0.741755 0.596634
O O2 0.797139 0.758386 0.418617
O O3 0.854680 0.780809 0.578179
O O4 0.798151 0.000000 0.538794
O O5 0.188273 0.758082 0.213964
O O6 0.206656 0.000000 0.102792
O O7 0.173276 0.756818 0.014935
O O8 0.376090 0.793075 0.848410
O O9 0.310831 0.000000 0.816739
O O10 0.407485 0.764968 0.393924
O O11 0.409247 0.778659 0.591279
O O12 0.370061 0.000000 0.485144
O O13 0.399936 0.500000 0.874274
O O14 0.448764 0.312394 0.768825
O O15 0.435104 0.293062 0.987675
O O16 0.587874 0.500000 0.120539
O O17 0.568788 0.767062 0.195617
O O18 0.500000 0.236686 0.332022
O O19 0.552728 0.000000 0.316420
O O20 0.500000 0.280343 0.604315
O O21 0.439211 0.500000 0.619091
#
# Coordination Sequence:
#
# PCOD9374791 Si02
#       8
#     8   8   8   8   8   8   8   8
#     4  10  22  41  62  89 123 160 205 258 314 372
#     4  12  24  39  61  90 123 160 205 257 315 378
#     4  11  21  36  59  86 117 155 196 242 301 366
#     4  11  23  40  60  84 117 160 209 260 312 370
#     4   9  18  35  57  83 117 153 191 243 303 357
#     4   9  20  38  62  89 119 156 202 252 303 364
#     4  10  23  42  62  86 122 167 211 260 315 371
#     4  10  20  34  56  86 118 152 192 242 304 368
#
# _framework density 19.762654000000001
#
# number of rings (size 3 to 8) (size 9 to 14) (size 15 to 20)
#    0.000    1.750    1.250    4.125    0.000    6.000 
#    0.000    3.750    0.000    0.000    0.000    0.000 
#    0.000    0.000    0.000    0.000    0.000    0.000 
#
# Total GULP energy -178577.782193 kJ/mol
# GULP energy per Si atom -5580.555694 kJ/mol
# Density = 1.971767 g / cm^3
# Si number density = 19.762654 Si / 1000 Ang^3
#
#
#
# Elastic Constant Matrix: (Units=GPa)
#
#
# Indices 1 2 3 4 5 6 
#
# 1 44.1631 20.7200 6.5058 0.0000 0.0000 0.0000
# 2 20.7200 64.6474 11.3363 0.0000 0.0000 0.0000
# 3 6.5058 11.3363 86.1084 0.0000 0.0000 0.0000
# 4 0.0000 0.0000 0.0000 31.6719 0.0000 0.0000
# 5 0.0000 0.0000 0.0000 0.0000 13.6365 0.0000
# 6 0.0000 0.0000 0.0000 0.0000 0.0000 14.3881
#
#
#
# Elastic Compliance Matrix: (Units=1/GPa)
#
#
# Indices 1 2 3 4 5 6 
#
# 1 0.026721 -0.008404 -0.000912 0.000000 0.000000 0.000000
# 2 -0.008404 0.018477 -0.001798 0.000000 0.000000 0.000000
# 3 -0.000912 -0.001798 0.011919 0.000000 0.000000 0.000000
# 4 0.000000 0.000000 0.000000 0.031574 0.000000 0.000000
# 5 0.000000 0.000000 0.000000 0.000000 0.073333 0.000000
# 6 0.000000 0.000000 0.000000 0.000000 0.000000 0.069502
#
#
# Mechanical properties :
#
#
# Convention : Reuss Voigt Hill
#
# Bulk Modulus (GPa) = 28.66273 30.22701 29.44487
# Shear Modulus (GPa) = 18.84071 22.36311 20.60191
#
# Velocity S-wave (km/s) = 3.09099 3.36755 3.23223
# Velocity P-wave (km/s) = 5.22244 5.51804 5.37227
#
# Compressibility (1/GPa) = 0.03488851
#
# Stress axis : x y z
#
# Youngs Moduli (GPa) = 37.42413 54.12037 83.90067
#
# Poissons Ratio (x) = 0.45484 0.07655
# Poissons Ratio (y) = 0.31452 0.15082
# Poissons Ratio (z) = 0.03415 0.09729
#
# Static dielectric constant tensor:
#      x y z
#    x 1.740610 0.000000 0.000000 
#    y 0.000000 1.667240 0.000000 
#    z 0.000000 0.000000 1.692510 
# 
# From -- ./inp_files/15046.got.cif
#   From: 2010.05.17/outbox.cif.g08.bks.cpg/sg44_8_cif.got.tgz:15046.got - 2010.06.03 19:37:08.
