data_PCOD9374132
_publ_section_title
;
Structure prediction by ZEFSAII (Michael W. Deem and Ramdas Pophale) SiO2 
 PCOD9374132
Probable space group: I M M 2
;
_chemical_formula_sum "Si O2"
_cell_formula_units_Z 64
_cell_length_a 25.857319
_cell_length_b 7.684364
_cell_length_c 15.534657
_cell_angle_alpha 90.000000
_cell_angle_beta 90.000000
_cell_angle_gamma 90.000000
_cell_volume 3086.690538
_symmetry_space_group_name_H-M "I M M 2"
_symmetry_group_IT_number 44
_symmetry_cell_setting 'orthorhombic'
loop_
_space_group_symop_operation_xyz
x,y,z
-x,-y,z
-x,y,z
x,-y,z
1/2+x,1/2+y,1/2+z
1/2-x,1/2-y,1/2+z
1/2-x,1/2+y,1/2+z
1/2+x,1/2-y,1/2+z
loop_
_atom_site_type_symbol
_atom_site_label
_atom_site_fract_x
_atom_site_fract_y
_atom_site_fract_z
Si Si1 0.612916 0.292659 0.095630
Si Si2 0.725894 0.288770 0.127950
Si Si3 0.441304 0.792774 0.275254
Si Si4 0.850189 0.208887 0.302286
Si Si5 0.863848 0.209576 0.927449
Si Si6 0.764039 0.791431 0.827003
Si Si7 0.159635 0.796340 0.108412
Si Si8 0.558162 0.713462 0.924796
O O1 0.616647 0.500000 0.084409
O O2 0.671757 0.226649 0.089089
O O3 0.589551 0.263725 0.190010
O O4 0.576186 0.228087 0.019620
O O5 0.727940 0.500000 0.124382
O O6 0.726051 0.234840 0.228481
O O7 0.779058 0.219238 0.089177
O O8 0.500000 0.722562 0.275190
O O9 0.409488 0.745635 0.360641
O O10 0.444136 0.000000 0.271829
O O11 0.795063 0.245103 0.347034
O O12 0.848712 0.279321 0.204069
O O13 0.898759 0.272096 0.356870
O O14 0.853994 0.000000 0.297521
O O15 0.809950 0.276725 0.886685
O O16 0.859512 0.000000 0.933492
O O17 0.869502 0.276759 0.025004
O O18 0.767576 0.000000 0.827350
O O19 0.146346 0.000000 0.115258
O O20 0.500000 0.770123 0.905624
O O21 0.557976 0.500000 0.924119
#
# Coordination Sequence:
#
# PCOD9374132 Si02
#       8
#     8   8   8   8   8   8   8   8
#     4  10  19  34  55  79 106 142 184 218 259 325
#     4   9  17  30  49  75 106 137 171 212 260 317
#     4  11  24  39  55  79 110 141 177 226 281 327
#     4   9  18  33  52  77 107 137 176 222 266 312
#     4  10  20  36  55  77 107 144 185 221 261 320
#     4   9  17  31  49  72 102 135 171 213 261 313
#     4   9  19  33  51  77 110 143 176 219 268 314
#     4   9  18  32  52  77 104 138 181 225 264 307
#
# _framework density 20.734179999999999
#
# number of rings (size 3 to 8) (size 9 to 14) (size 15 to 20)
#    0.000    2.500    1.250    0.750    1.750    3.000 
#    0.000    1.250    0.000    3.375    0.000    0.000 
#    0.000    0.000    0.000    0.000    0.000    0.000 
#
# Total GULP energy -178584.936514 kJ/mol
# GULP energy per Si atom -5580.779266 kJ/mol
# Density = 2.068699 g / cm^3
# Si number density = 20.734180 Si / 1000 Ang^3
#
#
#
# Elastic Constant Matrix: (Units=GPa)
#
#
# Indices 1 2 3 4 5 6 
#
# 1 119.2617 -9.5402 47.6851 0.0000 0.0000 0.0000
# 2 -9.5402 29.3288 -6.5633 0.0000 0.0000 0.0000
# 3 47.6851 -6.5633 72.1606 0.0000 0.0000 0.0000
# 4 0.0000 0.0000 0.0000 0.9465 0.0000 0.0000
# 5 0.0000 0.0000 0.0000 0.0000 50.3100 0.0000
# 6 0.0000 0.0000 0.0000 0.0000 0.0000 16.4930
#
#
#
# Elastic Compliance Matrix: (Units=1/GPa)
#
#
# Indices 1 2 3 4 5 6 
#
# 1 0.011520 0.002086 -0.007423 0.000000 0.000000 0.000000
# 2 0.002086 0.035182 0.001821 0.000000 0.000000 0.000000
# 3 -0.007423 0.001821 0.018929 0.000000 0.000000 0.000000
# 4 0.000000 0.000000 0.000000 1.056482 0.000000 0.000000
# 5 0.000000 0.000000 0.000000 0.000000 0.019877 0.000000
# 6 0.000000 0.000000 0.000000 0.000000 0.000000 0.060632
#
#
# Mechanical properties :
#
#
# Convention : Reuss Voigt Hill
#
# Bulk Modulus (GPa) = 17.06471 31.54604 24.30538
# Shear Modulus (GPa) = 4.06774 26.16120 15.11447
#
# Velocity S-wave (km/s) = 1.40218 3.55596 2.70286
# Velocity P-wave (km/s) = 3.29690 5.66633 4.63556
#
# Compressibility (1/GPa) = 0.05860046
#
# Stress axis : x y z
#
# Youngs Moduli (GPa) = 86.80825 28.42332 52.82990
#
# Poissons Ratio (x) = -0.05929 0.39214
# Poissons Ratio (y) = -0.18109 -0.09623
# Poissons Ratio (z) = 0.64435 -0.05177
#
# Static dielectric constant tensor:
#      x y z
#    x 1.715940 0.000000 0.000000 
#    y 0.000000 1.769780 0.000000 
#    z 0.000000 0.000000 1.778370 
# 
# From -- ./inp_files/19469.got.cif
#   From: 2010.05.17/outbox.cif.g08.bks.cpg/sg44_10_cif.got.tgz:19469.got - 2010.06.03 19:37:08.
