data_PCOD9374507
_publ_section_title
;
Structure prediction by ZEFSAII (Michael W. Deem and Ramdas Pophale) SiO2 
 PCOD9374507
Probable space group: I M M 2
;
_chemical_formula_sum "Si O2"
_cell_formula_units_Z 56
_cell_length_a 7.554968
_cell_length_b 14.034399
_cell_length_c 33.865866
_cell_angle_alpha 90.000000
_cell_angle_beta 90.000000
_cell_angle_gamma 90.000000
_cell_volume 3590.778649
_symmetry_space_group_name_H-M "I M M 2"
_symmetry_group_IT_number 44
_symmetry_cell_setting 'orthorhombic'
loop_
_space_group_symop_operation_xyz
x,y,z
-x,-y,z
-x,y,z
x,-y,z
1/2+x,1/2+y,1/2+z
1/2-x,1/2-y,1/2+z
1/2-x,1/2+y,1/2+z
1/2+x,1/2-y,1/2+z
loop_
_atom_site_type_symbol
_atom_site_label
_atom_site_fract_x
_atom_site_fract_y
_atom_site_fract_z
Si Si1 0.000000 0.384502 0.500000
Si Si2 0.711698 0.708724 0.818708
Si Si3 0.500000 0.884318 0.091849
Si Si4 0.202959 0.116105 0.152233
Si Si5 0.705430 0.295260 0.445066
Si Si6 0.284763 0.107123 0.863178
Si Si7 0.716464 0.390042 0.739727
Si Si8 0.212484 0.393335 0.900301
O O1 0.829990 0.340579 0.478003
O O2 0.000000 0.500000 0.496263
O O3 0.000000 0.357730 0.546138
O O4 0.500000 0.715265 0.814720
O O5 0.776485 0.812179 0.832635
O O6 0.779737 0.669813 0.777163
O O7 0.746330 0.638251 0.855461
O O8 0.670550 0.852923 0.116944
O O9 0.500000 0.000000 0.092417
O O10 0.268044 0.144506 0.196020
O O11 0.000000 0.146512 0.146736
O O12 0.202961 0.000000 0.153052
O O13 0.500000 0.288481 0.457159
O O14 0.718361 0.361576 0.406191
O O15 0.771488 0.191615 0.429422
O O16 0.500000 0.110146 0.864862
O O17 0.231116 0.000000 0.853492
O O18 0.500000 0.390056 0.739491
O O19 0.771443 0.500000 0.744602
O O20 0.279556 0.500000 0.908191
O O21 0.000000 0.394809 0.903620
#
# Coordination Sequence:
#
# PCOD9374507 Si02
#       8
#     4   8   4   8   8   8   8   8
#     4  11  22  34  47  67  93 115 152 200 227 261
#     4   9  16  25  39  61  86 115 153 188 217 255
#     4   9  18  30  44  63  85 111 143 180 222 267
#     4   8  14  26  42  59  82 111 140 171 214 267
#     4  10  20  33  48  66  88 118 153 186 227 274
#     4   9  16  27  42  59  85 120 155 191 224 254
#     4   8  13  22  37  57  82 111 143 177 211 256
#     4   9  18  31  44  62  91 120 147 184 226 267
#
# _framework density 15.595503000000001
#
# number of rings (size 3 to 8) (size 9 to 14) (size 15 to 20)
#    0.000    3.000    0.714    1.714    1.000    2.571 
#    1.286    1.429    0.000    0.000    0.000    0.000 
#    0.000    2.286    0.000    8.857    0.000    0.000 
#
# Total GULP energy -156006.892341 kJ/mol
# GULP energy per Si atom -5571.674726 kJ/mol
# Density = 1.556001 g / cm^3
# Si number density = 15.595503 Si / 1000 Ang^3
#
#
#
# Elastic Constant Matrix: (Units=GPa)
#
#
# Indices 1 2 3 4 5 6 
#
# 1 66.0027 22.5014 48.3276 0.0000 0.0000 0.0000
# 2 22.5014 90.0060 56.0769 0.0000 0.0000 0.0000
# 3 48.3276 56.0769 148.3160 0.0000 0.0000 0.0000
# 4 0.0000 0.0000 0.0000 19.4274 0.0000 0.0000
# 5 0.0000 0.0000 0.0000 0.0000 -85.1967 0.0000
# 6 0.0000 0.0000 0.0000 0.0000 0.0000 10.7336
#
#
#
# Elastic Compliance Matrix: (Units=1/GPa)
#
#
# Indices 1 2 3 4 5 6 
#
# 1 0.020002 -0.001229 -0.006053 0.000000 0.000000 0.000000
# 2 -0.001229 0.014610 -0.005123 0.000000 0.000000 0.000000
# 3 -0.006053 -0.005123 0.010652 0.000000 0.000000 0.000000
# 4 0.000000 0.000000 0.000000 0.051474 0.000000 0.000000
# 5 0.000000 0.000000 0.000000 0.000000 -0.011738 0.000000
# 6 0.000000 0.000000 0.000000 0.000000 0.000000 0.093165
#
#
# Mechanical properties :
#
#
# Convention : Reuss Voigt Hill
#
# Bulk Modulus (GPa) = 48.89356 62.01517 55.45436
# Shear Modulus (GPa) = 23.83307 0.82078 12.32693
#
# Velocity S-wave (km/s) = 3.91346 0.72625 2.81448
# Velocity P-wave (km/s) = 7.19996 6.36823 6.79683
#
# Compressibility (1/GPa) = 0.02045259
#
# Stress axis : x y z
#
# Youngs Moduli (GPa) = 49.99559 68.44795 93.88288
#
# Poissons Ratio (x) = 0.08415 0.56823
# Poissons Ratio (y) = 0.06147 0.48098
# Poissons Ratio (z) = 0.30260 0.35067
#
# Static dielectric constant tensor:
#      x y z
#    x 1.577690 0.000000 0.000000 
#    y 0.000000 1.520940 0.000000 
#    z 0.000000 0.000000 1.505430 
# 
# From -- ./inp_files/27241.got.cif
#   From: 2010.05.17/outbox.cif.g08.bks.cpg/sg44_14_cif.got.tgz:27241.got - 2010.06.03 19:37:08.
