data_PCOD9374806
_publ_section_title
;
Structure prediction by ZEFSAII (Michael W. Deem and Ramdas Pophale) SiO2 
 PCOD9374806
Probable space group: I M M 2
;
_chemical_formula_sum "Si O2"
_cell_formula_units_Z 56
_cell_length_a 8.926963
_cell_length_b 18.915381
_cell_length_c 16.915026
_cell_angle_alpha 90.000000
_cell_angle_beta 90.000000
_cell_angle_gamma 90.000000
_cell_volume 2856.218961
_symmetry_space_group_name_H-M "I M M 2"
_symmetry_group_IT_number 44
_symmetry_cell_setting 'orthorhombic'
loop_
_space_group_symop_operation_xyz
x,y,z
-x,-y,z
-x,y,z
x,-y,z
1/2+x,1/2+y,1/2+z
1/2-x,1/2-y,1/2+z
1/2-x,1/2+y,1/2+z
1/2+x,1/2-y,1/2+z
loop_
_atom_site_type_symbol
_atom_site_label
_atom_site_fract_x
_atom_site_fract_y
_atom_site_fract_z
Si Si1 0.820323 0.082782 0.861070
Si Si2 0.320255 0.917332 0.491789
Si Si3 0.177878 0.665306 0.831027
Si Si4 0.324133 0.083892 0.167541
Si Si5 0.322363 0.798780 0.760925
Si Si6 0.322481 0.663703 0.523268
Si Si7 0.322150 0.701455 0.090388
O O1 0.735978 0.126812 0.794162
O O2 0.000000 0.088972 0.849323
O O3 0.782069 0.000000 0.862257
O O4 0.784370 0.119509 0.944956
O O5 0.500000 0.911385 0.503278
O O6 0.284344 0.880089 0.408195
O O7 0.236428 0.873434 0.558931
O O8 0.281867 0.000000 0.490431
O O9 0.205107 0.618938 0.752467
O O10 0.267559 0.737644 0.820592
O O11 0.000000 0.681923 0.834348
O O12 0.500000 0.097228 0.148657
O O13 0.224354 0.118359 0.099691
O O14 0.301493 0.000000 0.171592
O O15 0.500000 0.797912 0.753006
O O16 0.246741 0.783777 0.676459
O O17 0.500000 0.677167 0.523056
O O18 0.237986 0.737948 0.531578
O O19 0.500000 0.703679 0.094825
#
# Coordination Sequence:
#
# PCOD9374806 Si02
#       7
#     8   8   8   8   8   8   8
#     4  10  23  43  65  90 124 165 205 250 309 372
#     4  10  22  41  65  93 126 164 206 253 306 366
#     4  10  20  38  63  91 126 165 204 248 303 367
#     4  10  20  34  57  90 127 167 206 246 299 363
#     4  12  25  41  64  93 123 160 208 260 310 365
#     4  11  22  39  63  92 125 162 207 255 305 364
#     4  12  25  42  64  90 123 165 210 257 311 370
#
# _framework density 19.606338999999998
#
# number of rings (size 3 to 8) (size 9 to 14) (size 15 to 20)
#    0.000    1.286    1.429    4.714    0.000    8.857 
#    0.000    0.000    0.000    2.571    0.000    0.000 
#    0.000    0.000    0.000    0.000    0.000    0.000 
#
# Total GULP energy -156645.189750 kJ/mol
# GULP energy per Si atom -5594.471063 kJ/mol
# Density = 1.956171 g / cm^3
# Si number density = 19.606339 Si / 1000 Ang^3
#
#
#
# Elastic Constant Matrix: (Units=GPa)
#
#
# Indices 1 2 3 4 5 6 
#
# 1 58.6948 58.5657 26.3808 0.0000 0.0000 0.0000
# 2 58.5657 141.0204 27.6770 0.0000 0.0000 0.0000
# 3 26.3808 27.6770 37.2695 0.0000 0.0000 0.0000
# 4 0.0000 0.0000 0.0000 29.6581 0.0000 0.0000
# 5 0.0000 0.0000 0.0000 0.0000 29.9297 0.0000
# 6 0.0000 0.0000 0.0000 0.0000 0.0000 32.7114
#
#
#
# Elastic Compliance Matrix: (Units=1/GPa)
#
#
# Indices 1 2 3 4 5 6 
#
# 1 0.036481 -0.011803 -0.017058 0.000000 0.000000 0.000000
# 2 -0.011803 0.012120 -0.000646 0.000000 0.000000 0.000000
# 3 -0.017058 -0.000646 0.039385 0.000000 0.000000 0.000000
# 4 0.000000 0.000000 0.000000 0.033718 0.000000 0.000000
# 5 0.000000 0.000000 0.000000 0.000000 0.033412 0.000000
# 6 0.000000 0.000000 0.000000 0.000000 0.000000 0.030570
#
#
# Mechanical properties :
#
#
# Convention : Reuss Voigt Hill
#
# Bulk Modulus (GPa) = 34.51449 51.35909 42.93679
# Shear Modulus (GPa) = 19.65758 26.75058 23.20408
#
# Velocity S-wave (km/s) = 3.16984 3.69776 3.44393
# Velocity P-wave (km/s) = 5.57128 6.66958 6.14502
#
# Compressibility (1/GPa) = 0.02897333
#
# Stress axis : x y z
#
# Youngs Moduli (GPa) = 27.41189 82.51149 25.39018
#
# Poissons Ratio (x) = 0.97385 0.43310
# Poissons Ratio (y) = 0.32353 0.01640
# Poissons Ratio (z) = 0.46758 0.05329
#
# Static dielectric constant tensor:
#      x y z
#    x 1.655940 0.000000 0.000000 
#    y 0.000000 1.677770 0.000000 
#    z 0.000000 0.000000 1.670890 
# 
# From -- ./inp_files/16462.got.cif
#   From: 2010.05.17/outbox.cif.g08.bks.cpg/sg44_9_cif.got.tgz:16462.got - 2010.06.03 19:37:08.
