data_PCOD9374895
_publ_section_title
;
Structure prediction by ZEFSAII (Michael W. Deem and Ramdas Pophale) SiO2 
 PCOD9374895
Probable space group: I M M 2
;
_chemical_formula_sum "Si O2"
_cell_formula_units_Z 64
_cell_length_a 18.323085
_cell_length_b 9.064972
_cell_length_c 21.312499
_cell_angle_alpha 90.000000
_cell_angle_beta 90.000000
_cell_angle_gamma 90.000000
_cell_volume 3539.968840
_symmetry_space_group_name_H-M "I M M 2"
_symmetry_group_IT_number 44
_symmetry_cell_setting 'orthorhombic'
loop_
_space_group_symop_operation_xyz
x,y,z
-x,-y,z
-x,y,z
x,-y,z
1/2+x,1/2+y,1/2+z
1/2-x,1/2-y,1/2+z
1/2-x,1/2+y,1/2+z
1/2+x,1/2-y,1/2+z
loop_
_atom_site_type_symbol
_atom_site_label
_atom_site_fract_x
_atom_site_fract_y
_atom_site_fract_z
Si Si1 0.587812 0.674569 0.024360
Si Si2 0.085147 0.323809 0.767352
Si Si3 0.588737 0.170209 0.894493
Si Si4 0.912188 0.174569 0.264625
Si Si5 0.911197 0.171092 0.894493
Si Si6 0.170859 0.677459 0.640183
Si Si7 0.329141 0.177460 0.648802
Si Si8 0.914854 0.323808 0.021634
O O1 0.500000 0.692532 0.030403
O O2 0.603694 0.500000 0.025099
O O3 0.627434 0.756153 0.081290
O O4 0.610649 0.745574 0.957871
O O5 0.088207 0.500000 0.776259
O O6 0.113884 0.247456 0.830395
O O7 0.128413 0.286466 0.704582
O O8 0.000000 0.282647 0.758978
O O9 0.500000 0.169530 0.894493
O O10 0.610649 0.254426 0.831114
O O11 0.613091 0.000000 0.894493
O O12 0.872566 0.256153 0.207695
O O13 0.000000 0.192531 0.258582
O O14 0.896306 0.000000 0.263886
O O15 0.000000 0.184241 0.894492
O O16 0.892120 0.000000 0.894494
O O17 0.886116 0.247460 0.958590
O O18 0.175316 0.500000 0.634756
O O19 0.250000 0.750001 0.644493
O O20 0.371587 0.213538 0.584403
O O21 0.324685 0.000000 0.654228
O O22 0.911795 0.500000 0.012729
O O23 0.000000 0.282642 0.030008
#
# Coordination Sequence:
#
# PCOD9374895 Si02
#       8
#     8   8   8   8   8   8   8   8
#     4  10  20  35  57  84 112 142 178 222 272 325
#     4   9  18  34  56  79 104 137 175 214 259 314
#     4   9  17  31  54  83 112 141 176 220 268 319
#     4  10  20  35  57  84 112 142 178 222 272 325
#     4   9  17  29  50  81 110 133 164 212 264 311
#     4  11  23  38  55  77 108 145 185 226 270 321
#     4  11  23  38  55  77 108 145 185 226 270 321
#     4   9  18  34  56  79 104 137 175 214 259 314
#
# _framework density 18.079253999999999
#
# number of rings (size 3 to 8) (size 9 to 14) (size 15 to 20)
#    0.000    2.250    0.000    3.000    0.000    7.500 
#    0.000    3.750    0.000    4.500    0.000    0.000 
#    0.000    0.000    0.000    0.000    0.000    0.000 
#
# Total GULP energy -178627.318889 kJ/mol
# GULP energy per Si atom -5582.103715 kJ/mol
# Density = 1.803811 g / cm^3
# Si number density = 18.079254 Si / 1000 Ang^3
#
#
#
# Elastic Constant Matrix: (Units=GPa)
#
#
# Indices 1 2 3 4 5 6 
#
# 1 53.2170 53.9456 73.5258 0.0000 0.0000 0.0000
# 2 53.9456 104.7470 110.0634 0.0000 0.0000 0.0000
# 3 73.5258 110.0634 230.3103 0.0000 0.0000 0.0000
# 4 0.0000 0.0000 0.0000 32.5578 0.0000 0.0000
# 5 0.0000 0.0000 0.0000 0.0000 -8.7576 0.0000
# 6 0.0000 0.0000 0.0000 0.0000 0.0000 24.4333
#
#
#
# Elastic Compliance Matrix: (Units=1/GPa)
#
#
# Indices 1 2 3 4 5 6 
#
# 1 0.043553 -0.015708 -0.006397 0.000000 0.000000 0.000000
# 2 -0.015708 0.024841 -0.006857 0.000000 0.000000 0.000000
# 3 -0.006397 -0.006857 0.009661 0.000000 0.000000 0.000000
# 4 0.000000 0.000000 0.000000 0.030715 0.000000 0.000000
# 5 0.000000 0.000000 0.000000 0.000000 -0.114187 0.000000
# 6 0.000000 0.000000 0.000000 0.000000 0.000000 0.040928
#
#
# Mechanical properties :
#
#
# Convention : Reuss Voigt Hill
#
# Bulk Modulus (GPa) = 49.67461 95.92711 72.80086
# Shear Modulus (GPa) = 49.92737 19.69601 34.81169
#
# Velocity S-wave (km/s) = 5.26078 3.30423 4.39282
# Velocity P-wave (km/s) = 8.02725 8.22992 8.12922
#
# Compressibility (1/GPa) = 0.02013101
#
# Stress axis : x y z
#
# Youngs Moduli (GPa) = 22.96062 40.25549 103.50804
#
# Poissons Ratio (x) = 0.63233 0.66218
# Poissons Ratio (y) = 0.36067 0.70973
# Poissons Ratio (z) = 0.14689 0.27602
#
# Static dielectric constant tensor:
#      x y z
#    x 1.603460 0.000000 0.000000 
#    y 0.000000 1.603110 0.000000 
#    z 0.000000 0.000000 1.595070 
# 
# From -- ./inp_files/24376.got.cif
#   From: 2010.05.17/outbox.cif.g08.bks.cpg/sg44_13_cif.got.tgz:24376.got - 2010.06.03 19:37:08.
