data_PCOD9374328
_publ_section_title
;
Structure prediction by ZEFSAII (Michael W. Deem and Ramdas Pophale) SiO2 
 PCOD9374328
Probable space group: I M M 2
;
_chemical_formula_sum "Si O2"
_cell_formula_units_Z 48
_cell_length_a 10.297138
_cell_length_b 7.466119
_cell_length_c 28.725910
_cell_angle_alpha 90.000000
_cell_angle_beta 90.000000
_cell_angle_gamma 90.000000
_cell_volume 2208.438127
_symmetry_space_group_name_H-M "I M M 2"
_symmetry_group_IT_number 44
_symmetry_cell_setting 'orthorhombic'
loop_
_space_group_symop_operation_xyz
x,y,z
-x,-y,z
-x,y,z
x,-y,z
1/2+x,1/2+y,1/2+z
1/2-x,1/2-y,1/2+z
1/2-x,1/2+y,1/2+z
1/2+x,1/2-y,1/2+z
loop_
_atom_site_type_symbol
_atom_site_label
_atom_site_fract_x
_atom_site_fract_y
_atom_site_fract_z
Si Si1 0.238972 0.204142 0.372900
Si Si2 0.500000 0.217343 0.528572
Si Si3 0.352067 0.711128 0.696898
Si Si4 0.000000 0.795273 0.921535
Si Si5 0.737505 0.783949 0.592454
Si Si6 0.500000 0.279990 0.934719
Si Si7 0.848403 0.280049 0.775180
Si Si8 0.500000 0.280791 0.042959
O O1 0.370989 0.205083 0.402249
O O2 0.279408 0.281444 0.322964
O O3 0.125687 0.280676 0.405374
O O4 0.197473 0.000000 0.363167
O O5 0.500000 0.288073 0.476801
O O6 0.374850 0.274658 0.557422
O O7 0.500000 0.000000 0.525824
O O8 0.500000 0.784561 0.700514
O O9 0.362254 0.500000 0.706856
O O10 0.299334 0.730430 0.644563
O O11 0.243304 0.779995 0.732735
O O12 0.000000 0.000000 0.905203
O O13 0.873709 0.722369 0.571525
O O14 0.739055 0.000000 0.592270
O O15 0.500000 0.500000 0.936637
O O16 0.500000 0.223245 0.988811
O O17 0.852044 0.500000 0.775893
O O18 0.000000 0.224152 0.772527
O O19 0.500000 0.500000 0.042136
#
# Coordination Sequence:
#
# PCOD9374328 Si02
#       8
#     8   4   8   4   8   4   8   4
#     4  10  19  36  61  86 112 147 191 238 280 332
#     4  10  20  36  59  80 104 145 191 234 279 334
#     4  10  21  35  54  81 114 145 180 229 281 330
#     4  12  24  36  55  84 117 151 186 232 291 350
#     4  10  20  36  57  79 108 144 185 229 274 328
#     4   9  18  32  58  89 111 137 186 237 280 327
#     4   9  18  33  55  83 111 143 184 227 273 329
#     4   9  18  32  50  79 112 137 171 227 278 317
#
# _framework density 21.734817
#
# number of rings (size 3 to 8) (size 9 to 14) (size 15 to 20)
#    0.000    2.167    1.667    1.750    2.333    3.333 
#    0.000    1.250    0.000    1.000    0.000    0.000 
#    0.000    0.000    0.000    0.000    0.000    0.000 
#
# Total GULP energy -134045.107851 kJ/mol
# GULP energy per Si atom -5585.212827 kJ/mol
# Density = 2.168535 g / cm^3
# Si number density = 21.734817 Si / 1000 Ang^3
#
#
#
# Elastic Constant Matrix: (Units=GPa)
#
#
# Indices 1 2 3 4 5 6 
#
# 1 187.2226 -2.4413 81.0078 0.0000 0.0000 0.0000
# 2 -2.4413 64.0487 -9.7755 0.0000 0.0000 0.0000
# 3 81.0078 -9.7755 168.3388 0.0000 0.0000 0.0000
# 4 0.0000 0.0000 0.0000 12.5362 0.0000 0.0000
# 5 0.0000 0.0000 0.0000 0.0000 43.2996 0.0000
# 6 0.0000 0.0000 0.0000 0.0000 0.0000 -3.2649
#
#
#
# Elastic Compliance Matrix: (Units=1/GPa)
#
#
# Indices 1 2 3 4 5 6 
#
# 1 0.006749 -0.000241 -0.003262 0.000000 0.000000 0.000000
# 2 -0.000241 0.015761 0.001031 0.000000 0.000000 0.000000
# 3 -0.003262 0.001031 0.007570 0.000000 0.000000 0.000000
# 4 0.000000 0.000000 0.000000 0.079769 0.000000 0.000000
# 5 0.000000 0.000000 0.000000 0.000000 0.023095 0.000000
# 6 0.000000 0.000000 0.000000 0.000000 0.000000 -0.306286
#
#
# Mechanical properties :
#
#
# Convention : Reuss Voigt Hill
#
# Bulk Modulus (GPa) = 39.78078 61.91024 50.84551
# Shear Modulus (GPa) = -31.24626 33.90212 1.32793
#
# Velocity S-wave (km/s) = -3.79570 3.95372 0.78249
# Velocity P-wave (km/s) = 0.93127 7.02771 4.92552
#
# Compressibility (1/GPa) = 0.02513777
#
# Stress axis : x y z
#
# Youngs Moduli (GPa) = 148.15949 63.44654 132.10067
#
# Poissons Ratio (x) = 0.01527 0.43091
# Poissons Ratio (y) = 0.03565 -0.13620
# Poissons Ratio (z) = 0.48329 -0.06542
#
# Static dielectric constant tensor:
#      x y z
#    x 1.742810 0.000000 0.000000 
#    y 0.000000 1.906010 0.000000 
#    z 0.000000 0.000000 1.738650 
# 
# From -- ./inp_files/27025.got.cif
#   From: 2010.05.17/outbox.cif.g08.bks.cpg/sg44_14_cif.got.tgz:27025.got - 2010.06.03 19:37:08.
