data_PCOD9374476
_publ_section_title
;
Structure prediction by ZEFSAII (Michael W. Deem and Ramdas Pophale) SiO2 
 PCOD9374476
Probable space group: I M M 2
;
_chemical_formula_sum "Si O2"
_cell_formula_units_Z 64
_cell_length_a 7.550801
_cell_length_b 26.088547
_cell_length_c 15.264918
_cell_angle_alpha 90.000000
_cell_angle_beta 90.000000
_cell_angle_gamma 90.000000
_cell_volume 3007.027447
_symmetry_space_group_name_H-M "I M M 2"
_symmetry_group_IT_number 44
_symmetry_cell_setting 'orthorhombic'
loop_
_space_group_symop_operation_xyz
x,y,z
-x,-y,z
-x,y,z
x,-y,z
1/2+x,1/2+y,1/2+z
1/2-x,1/2-y,1/2+z
1/2-x,1/2+y,1/2+z
1/2+x,1/2-y,1/2+z
loop_
_atom_site_type_symbol
_atom_site_label
_atom_site_fract_x
_atom_site_fract_y
_atom_site_fract_z
Si Si1 0.796584 0.660894 0.963490
Si Si2 0.213272 0.274428 0.451948
Si Si3 0.717173 0.135206 0.648381
Si Si4 0.701493 0.652061 0.764192
Si Si5 0.283721 0.059131 0.801209
Si Si6 0.715447 0.236449 0.747493
Si Si7 0.791644 0.443639 0.654361
Si Si8 0.217118 0.387274 0.482453
O O1 0.789782 0.721396 0.987206
O O2 0.705894 0.654655 0.869710
O O3 0.000000 0.646016 0.949334
O O4 0.724715 0.631065 0.047740
O O5 0.257857 0.276357 0.348489
O O6 0.272322 0.328100 0.492346
O O7 0.000000 0.270672 0.459012
O O8 0.500000 0.135793 0.647139
O O9 0.771673 0.090914 0.715501
O O10 0.775876 0.190022 0.687249
O O11 0.500000 0.652005 0.734283
O O12 0.782801 0.705859 0.730440
O O13 0.777262 0.599565 0.728142
O O14 0.500000 0.059242 0.801561
O O15 0.228646 0.088591 0.889606
O O16 0.226823 0.000000 0.801124
O O17 0.500000 0.237910 0.742808
O O18 0.719794 0.500000 0.676348
O O19 0.718774 0.420958 0.563579
O O20 0.000000 0.449244 0.638414
O O21 0.000000 0.386640 0.481707
#
# Coordination Sequence:
#
# PCOD9374476 Si02
#       8
#     8   8   8   8   8   8   8   8
#     4  10  20  32  50  75 108 141 174 220 271 315
#     4   9  16  29  49  73 105 142 174 205 251 311
#     4   9  16  27  44  71 105 138 171 212 261 308
#     4  10  21  37  57  75  99 139 185 226 268 320
#     4   9  15  25  45  73 105 139 173 207 249 310
#     4   8  14  27  46  69  97 132 169 206 252 305
#     4  10  21  36  54  79 110 140 175 224 277 320
#     4   9  16  28  48  76 109 141 170 207 259 317
#
# _framework density 21.283477999999999
#
# number of rings (size 3 to 8) (size 9 to 14) (size 15 to 20)
#    0.000    2.750    1.250    1.875    1.750    1.750 
#    0.000    0.625    0.000    3.000    0.000    0.000 
#    0.000    4.000    0.000    0.000    0.000    0.000 
#
# Total GULP energy -178591.039059 kJ/mol
# GULP energy per Si atom -5580.969971 kJ/mol
# Density = 2.123504 g / cm^3
# Si number density = 21.283478 Si / 1000 Ang^3
#
#
#
# Elastic Constant Matrix: (Units=GPa)
#
#
# Indices 1 2 3 4 5 6 
#
# 1 47.9426 0.5893 -4.9950 0.0000 0.0000 0.0000
# 2 0.5893 144.3803 55.9257 0.0000 0.0000 0.0000
# 3 -4.9950 55.9257 74.9809 0.0001 0.0000 0.0000
# 4 0.0000 0.0000 0.0001 23.1372 0.0000 0.0000
# 5 0.0000 0.0000 0.0000 0.0000 1.7995 0.0000
# 6 0.0000 0.0000 0.0000 0.0000 0.0000 8.1603
#
#
#
# Elastic Compliance Matrix: (Units=1/GPa)
#
#
# Indices 1 2 3 4 5 6 
#
# 1 0.021084 -0.000886 0.002065 0.000000 0.000000 0.000000
# 2 -0.000886 0.009777 -0.007352 0.000000 0.000000 0.000000
# 3 0.002065 -0.007352 0.018958 0.000000 0.000000 0.000000
# 4 0.000000 0.000000 0.000000 0.043220 0.000000 0.000000
# 5 0.000000 0.000000 0.000000 0.000000 0.555722 -0.000001
# 6 0.000000 0.000000 0.000000 0.000000 -0.000001 0.122545
#
#
# Mechanical properties :
#
#
# Convention : Reuss Voigt Hill
#
# Bulk Modulus (GPa) = 26.68455 41.14933 33.91694
# Shear Modulus (GPa) = 6.28028 21.00496 13.64262
#
# Velocity S-wave (km/s) = 1.71965 3.14493 2.53454
# Velocity P-wave (km/s) = 4.06298 5.70643 4.95334
#
# Compressibility (1/GPa) = 0.03747487
#
# Stress axis : x y z
#
# Youngs Moduli (GPa) = 47.42848 102.27611 52.74898
#
# Poissons Ratio (x) = 0.09063 -0.10895
# Poissons Ratio (y) = 0.04203 0.38779
# Poissons Ratio (z) = -0.09796 0.75190
#
# Static dielectric constant tensor:
#      x y z
#    x 1.819320 0.000000 0.000000 
#    y 0.000000 1.768520 0.000000 
#    z 0.000000 0.000000 1.751170 
# 
# From -- ./inp_files/16885.got.cif
#   From: 2010.05.17/outbox.cif.g08.bks.cpg/sg44_9_cif.got.tgz:16885.got - 2010.06.03 19:37:08.
