data_PCOD9374430
_publ_section_title
;
Structure prediction by ZEFSAII (Michael W. Deem and Ramdas Pophale) SiO2 
 PCOD9374430
Probable space group: I M M 2
;
_chemical_formula_sum "Si O2"
_cell_formula_units_Z 64
_cell_length_a 8.932772
_cell_length_b 14.732098
_cell_length_c 29.127029
_cell_angle_alpha 90.000000
_cell_angle_beta 90.000000
_cell_angle_gamma 90.000000
_cell_volume 3833.072525
_symmetry_space_group_name_H-M "I M M 2"
_symmetry_group_IT_number 44
_symmetry_cell_setting 'orthorhombic'
loop_
_space_group_symop_operation_xyz
x,y,z
-x,-y,z
-x,y,z
x,-y,z
1/2+x,1/2+y,1/2+z
1/2-x,1/2-y,1/2+z
1/2-x,1/2+y,1/2+z
1/2+x,1/2-y,1/2+z
loop_
_atom_site_type_symbol
_atom_site_label
_atom_site_fract_x
_atom_site_fract_y
_atom_site_fract_z
Si Si1 0.819773 0.395057 0.917950
Si Si2 0.320101 0.104083 0.778746
Si Si3 0.682100 0.896680 0.044068
Si Si4 0.680420 0.104714 0.149044
Si Si5 0.679550 0.222979 0.958684
Si Si6 0.175614 0.108390 0.877229
Si Si7 0.176269 0.608514 0.812196
Si Si8 0.821958 0.782361 0.230013
O O1 0.777642 0.500000 0.926135
O O2 0.744136 0.323170 0.951212
O O3 0.780489 0.371684 0.864917
O O4 0.000000 0.389208 0.921075
O O5 0.500000 0.108526 0.785468
O O6 0.241522 0.127745 0.826868
O O7 0.279119 0.178209 0.740705
O O8 0.281260 0.000000 0.767072
O O9 0.500000 0.897164 0.043818
O O10 0.727306 0.876335 0.096439
O O11 0.729723 0.000000 0.032773
O O12 0.730925 0.825675 0.005654
O O13 0.500000 0.108769 0.150958
O O14 0.747029 0.173074 0.185783
O O15 0.722995 0.000000 0.159803
O O16 0.500000 0.225244 0.958117
O O17 0.738217 0.162620 0.916361
O O18 0.000000 0.131793 0.878551
O O19 0.191512 0.000000 0.884701
O O20 0.190969 0.500000 0.805785
O O21 0.270627 0.661373 0.774731
O O22 0.000000 0.630746 0.806596
O O23 0.000000 0.787485 0.225227
#
# Coordination Sequence:
#
# PCOD9374430 Si02
#       8
#     8   8   8   8   8   8   8   8
#     4   9  19  35  51  68  96 133 169 204 239 277
#     4   9  19  35  50  65  92 130 166 198 235 280
#     4   8  16  32  52  73  96 123 156 191 230 283
#     4   9  18  34  54  72  93 124 157 188 230 287
#     4  11  20  30  50  76  99 126 161 201 244 288
#     4  10  20  32  47  71 102 132 163 199 238 284
#     4   9  18  32  48  66  92 129 165 191 223 274
#     4  11  21  30  46  73  98 121 153 196 243 283
#
# _framework density 16.696788000000002
#
# number of rings (size 3 to 8) (size 9 to 14) (size 15 to 20)
#    0.000    2.500    0.000    4.125    0.000    7.000 
#    0.000    2.500    0.000    2.250    0.000    3.500 
#    0.000    0.000    0.000    0.000    0.000    0.000 
#
# Total GULP energy -178543.661557 kJ/mol
# GULP energy per Si atom -5579.489424 kJ/mol
# Density = 1.665879 g / cm^3
# Si number density = 16.696788 Si / 1000 Ang^3
#
#
#
# Elastic Constant Matrix: (Units=GPa)
#
#
# Indices 1 2 3 4 5 6 
#
# 1 25.8368 37.3127 36.4225 0.0000 0.0000 0.0000
# 2 37.3127 103.9106 95.6713 0.0000 0.0000 0.0000
# 3 36.4225 95.6713 117.2629 0.0000 0.0000 0.0000
# 4 0.0000 0.0000 0.0000 32.8839 0.0000 0.0000
# 5 0.0000 0.0000 0.0000 0.0000 20.7025 0.0000
# 6 0.0000 0.0000 0.0000 0.0000 0.0000 26.5608
#
#
#
# Elastic Compliance Matrix: (Units=1/GPa)
#
#
# Indices 1 2 3 4 5 6 
#
# 1 0.081356 -0.023904 -0.005767 0.000000 0.000000 0.000000
# 2 -0.023904 0.045700 -0.029861 0.000000 0.000000 0.000000
# 3 -0.005767 -0.029861 0.034682 0.000000 0.000000 0.000000
# 4 0.000000 0.000000 0.000000 0.030410 0.000000 0.000000
# 5 0.000000 0.000000 0.000000 0.000000 0.048303 0.000000
# 6 0.000000 0.000000 0.000000 0.000000 0.000000 0.037649
#
#
# Mechanical properties :
#
#
# Convention : Reuss Voigt Hill
#
# Bulk Modulus (GPa) = 23.43338 65.09148 44.26243
# Shear Modulus (GPa) = 12.15396 21.20301 16.67849
#
# Velocity S-wave (km/s) = 2.70093 3.56741 3.16397
# Velocity P-wave (km/s) = 4.87769 7.48583 6.31781
#
# Compressibility (1/GPa) = 0.04267417
#
# Stress axis : x y z
#
# Youngs Moduli (GPa) = 12.29170 21.88180 28.83367
#
# Poissons Ratio (x) = 0.52305 0.16629
# Poissons Ratio (y) = 0.29382 0.86099
# Poissons Ratio (z) = 0.07089 0.65341
#
# Static dielectric constant tensor:
#      x y z
#    x 1.557560 0.000000 0.000000 
#    y 0.000000 1.577330 0.000000 
#    z 0.000000 0.000000 1.541210 
# 
# From -- ./inp_files/25089.got.cif
#   From: 2010.05.17/outbox.cif.g08.bks.cpg/sg44_13_cif.got.tgz:25089.got - 2010.06.03 19:37:08.
