data_PCOD9374531
_publ_section_title
;
Structure prediction by ZEFSAII (Michael W. Deem and Ramdas Pophale) SiO2 
 PCOD9374531
Probable space group: I M M 2
;
_chemical_formula_sum "Si O2"
_cell_formula_units_Z 64
_cell_length_a 14.331751
_cell_length_b 8.401909
_cell_length_c 24.879364
_cell_angle_alpha 90.000000
_cell_angle_beta 90.000000
_cell_angle_gamma 90.000000
_cell_volume 2995.825421
_symmetry_space_group_name_H-M "I M M 2"
_symmetry_group_IT_number 44
_symmetry_cell_setting 'orthorhombic'
loop_
_space_group_symop_operation_xyz
x,y,z
-x,-y,z
-x,y,z
x,-y,z
1/2+x,1/2+y,1/2+z
1/2-x,1/2-y,1/2+z
1/2-x,1/2+y,1/2+z
1/2+x,1/2-y,1/2+z
loop_
_atom_site_type_symbol
_atom_site_label
_atom_site_fract_x
_atom_site_fract_y
_atom_site_fract_z
Si Si1 0.891737 0.308077 0.393020
Si Si2 0.389668 0.320645 0.392285
Si Si3 0.107909 0.694065 0.270887
Si Si4 0.612209 0.181317 0.280897
Si Si5 0.897405 0.312624 0.009327
Si Si6 0.266501 0.682355 0.192728
Si Si7 0.897555 0.310950 0.602619
Si Si8 0.697397 0.690133 0.001436
O O1 0.889757 0.500000 0.393136
O O2 0.867363 0.255444 0.332028
O O3 0.827305 0.249831 0.441706
O O4 0.000000 0.259569 0.402813
O O5 0.500000 0.340111 0.382389
O O6 0.350647 0.500000 0.399665
O O7 0.353705 0.232341 0.339845
O O8 0.386812 0.214535 0.445346
O O9 0.114301 0.500000 0.270922
O O10 0.175689 0.750945 0.223360
O O11 0.000000 0.736039 0.261574
O O12 0.500000 0.184713 0.279140
O O13 0.655211 0.302166 0.238770
O O14 0.640689 0.000000 0.268021
O O15 0.900810 0.500000 0.022055
O O16 0.796422 0.247443 0.026203
O O17 0.000000 0.244478 0.024678
O O18 0.246987 0.500000 0.178315
O O19 0.313618 0.762644 0.141659
O O20 0.898799 0.500000 0.598944
O O21 0.880570 0.241487 0.543602
O O22 0.000000 0.258251 0.623332
O O23 0.703544 0.500000 0.999263
#
# Coordination Sequence:
#
# PCOD9374531 Si02
#       8
#     8   8   8   8   8   8   8   8
#     4   9  18  35  59  86 119 159 197 236 290 357
#     4   9  17  29  47  73 105 143 189 236 277 323
#     4   8  17  36  60  87 120 156 194 236 288 354
#     4  10  20  33  49  73 111 155 191 227 280 346
#     4   9  19  36  54  76 113 156 192 230 286 352
#     4  11  22  36  60  90 115 147 194 246 294 341
#     4  11  25  45  65  85 115 157 198 239 297 365
#     4  11  23  37  59  90 118 152 200 252 299 343
#
# _framework density 21.363060000000001
#
# number of rings (size 3 to 8) (size 9 to 14) (size 15 to 20)
#    0.000    2.250    0.000    3.375    1.750    7.500 
#    0.000    1.250    0.000    6.750    0.000    0.000 
#    0.000    0.000    0.000    0.000    0.000    0.000 
#
# Total GULP energy -178444.040897 kJ/mol
# GULP energy per Si atom -5576.376278 kJ/mol
# Density = 2.131444 g / cm^3
# Si number density = 21.363060 Si / 1000 Ang^3
#
#
#
# Elastic Constant Matrix: (Units=GPa)
#
#
# Indices 1 2 3 4 5 6 
#
# 1 137.8907 16.1439 35.9797 0.0000 0.0000 0.0000
# 2 16.1439 19.7773 4.6585 0.0000 0.0000 0.0000
# 3 35.9797 4.6585 66.7925 0.0000 0.0000 0.0000
# 4 0.0000 0.0000 0.0000 23.3974 0.0000 0.0000
# 5 0.0000 0.0000 0.0000 0.0000 -23.9642 0.0000
# 6 0.0000 0.0000 0.0000 0.0000 0.0000 14.8626
#
#
#
# Elastic Compliance Matrix: (Units=1/GPa)
#
#
# Indices 1 2 3 4 5 6 
#
# 1 0.009178 -0.006433 -0.004495 0.000000 0.000000 0.000000
# 2 -0.006433 0.055917 -0.000435 0.000000 0.000000 0.000000
# 3 -0.004495 -0.000435 0.017424 0.000000 0.000000 0.000000
# 4 0.000000 0.000000 0.000000 0.042740 0.000000 0.000000
# 5 0.000000 0.000000 0.000000 0.000000 -0.041729 0.000000
# 6 0.000000 0.000000 0.000000 0.000000 0.000000 0.067283
#
#
# Mechanical properties :
#
#
# Convention : Reuss Voigt Hill
#
# Bulk Modulus (GPa) = 16.72458 37.55831 27.14145
# Shear Modulus (GPa) = 25.84383 14.03771 19.94077
#
# Velocity S-wave (km/s) = 3.48191 2.56618 3.05851
# Velocity P-wave (km/s) = 4.90007 5.13804 5.02047
#
# Compressibility (1/GPa) = 0.05979224
#
# Stress axis : x y z
#
# Youngs Moduli (GPa) = 108.95255 17.88376 57.39320
#
# Poissons Ratio (x) = 0.11505 0.25801
# Poissons Ratio (y) = 0.70091 0.02494
# Poissons Ratio (z) = 0.48979 0.00777
#
# Static dielectric constant tensor:
#      x y z
#    x 1.859700 0.000000 0.000000 
#    y 0.000000 1.758580 0.000000 
#    z 0.000000 0.000000 1.742690 
# 
# From -- ./inp_files/25772.got.cif
#   From: 2010.05.17/outbox.cif.g08.bks.cpg/sg44_13_cif.got.tgz:25772.got - 2010.06.03 19:37:08.
