data_PCOD9374766
_publ_section_title
;
Structure prediction by ZEFSAII (Michael W. Deem and Ramdas Pophale) SiO2 
 PCOD9374766
Probable space group: I M M 2
;
_chemical_formula_sum "Si O2"
_cell_formula_units_Z 48
_cell_length_a 7.679120
_cell_length_b 23.543240
_cell_length_c 11.779582
_cell_angle_alpha 90.000000
_cell_angle_beta 90.000000
_cell_angle_gamma 90.000000
_cell_volume 2129.646711
_symmetry_space_group_name_H-M "I M M 2"
_symmetry_group_IT_number 44
_symmetry_cell_setting 'orthorhombic'
loop_
_space_group_symop_operation_xyz
x,y,z
-x,-y,z
-x,y,z
x,-y,z
1/2+x,1/2+y,1/2+z
1/2-x,1/2-y,1/2+z
1/2-x,1/2+y,1/2+z
1/2+x,1/2-y,1/2+z
loop_
_atom_site_type_symbol
_atom_site_label
_atom_site_fract_x
_atom_site_fract_y
_atom_site_fract_z
Si Si1 0.208457 0.146494 0.939540
Si Si2 0.203660 0.640865 0.177718
Si Si3 0.786117 0.235456 0.130179
Si Si4 0.294902 0.064566 0.128258
Si Si5 0.303499 0.348407 0.814341
Si Si6 0.296485 0.436392 0.991086
O O1 0.273560 0.147062 0.811917
O O2 0.000000 0.148454 0.937350
O O3 0.268637 0.197998 0.021957
O O4 0.267676 0.089489 0.003354
O O5 0.272362 0.699801 0.124662
O O6 0.000000 0.636820 0.152943
O O7 0.286707 0.585991 0.119484
O O8 0.725181 0.205775 0.248334
O O9 0.000000 0.234512 0.133633
O O10 0.500000 0.068051 0.156444
O O11 0.193297 0.105618 0.212619
O O12 0.237750 0.000000 0.138936
O O13 0.500000 0.332347 0.848984
O O14 0.218618 0.385027 0.915133
O O15 0.500000 0.439476 0.958039
O O16 0.223230 0.500000 0.975693
#
# Coordination Sequence:
#
# PCOD9374766 Si02
#       6
#     8   8   8   8   8   8
#     4  10  21  39  59  81 111 148 192 235 280 342
#     4  11  23  38  58  85 117 152 189 237 294 348
#     4   8  18  36  58  85 115 143 182 235 292 349
#     4  10  20  34  55  85 117 147 184 233 288 339
#     4   9  18  36  61  86 114 149 191 240 286 337
#     4  10  22  39  59  85 117 158 204 240 280 343
#
# _framework density 22.538948999999999
#
# number of rings (size 3 to 8) (size 9 to 14) (size 15 to 20)
#    0.000    2.333    0.000    3.000    2.333    3.667 
#    0.000    7.500    0.000    0.000    0.000    0.000 
#    0.000    0.000    0.000    0.000    0.000    0.000 
#
# Total GULP energy -133980.042547 kJ/mol
# GULP energy per Si atom -5582.501773 kJ/mol
# Density = 2.248765 g / cm^3
# Si number density = 22.538949 Si / 1000 Ang^3
#
#
#
# Elastic Constant Matrix: (Units=GPa)
#
#
# Indices 1 2 3 4 5 6 
#
# 1 56.0474 1.3715 -4.7485 0.0000 0.0000 0.0000
# 2 1.3715 75.7868 12.6484 0.0000 0.0000 0.0000
# 3 -4.7485 12.6484 90.8500 0.0000 0.0000 0.0000
# 4 0.0000 0.0000 0.0000 19.8145 0.0000 0.0000
# 5 0.0000 0.0000 0.0000 0.0000 16.7917 0.0000
# 6 0.0000 0.0000 0.0000 0.0000 0.0000 0.1515
#
#
#
# Elastic Compliance Matrix: (Units=1/GPa)
#
#
# Indices 1 2 3 4 5 6 
#
# 1 0.017939 -0.000493 0.001006 0.000000 0.000000 0.000001
# 2 -0.000493 0.013522 -0.001908 0.000000 0.000000 0.000000
# 3 0.001006 -0.001908 0.011325 0.000000 0.000000 0.000003
# 4 0.000000 0.000000 0.000000 0.050468 0.000000 0.000005
# 5 0.000000 0.000000 0.000000 0.000000 0.059553 0.000001
# 6 0.000001 0.000000 0.000003 0.000005 0.000001 6.599710
#
#
# Mechanical properties :
#
#
# Convention : Reuss Voigt Hill
#
# Bulk Modulus (GPa) = 25.00144 26.80297 25.90220
# Shear Modulus (GPa) = 0.73870 21.57908 11.15889
#
# Velocity S-wave (km/s) = 0.57311 3.09757 2.22748
# Velocity P-wave (km/s) = 3.39920 4.97100 4.25825
#
# Compressibility (1/GPa) = 0.03999770
#
# Stress axis : x y z
#
# Youngs Moduli (GPa) = 55.74342 73.95179 88.29683
#
# Poissons Ratio (x) = 0.03643 -0.08885
# Poissons Ratio (y) = 0.02746 0.16850
# Poissons Ratio (z) = -0.05609 0.14113
#
# Static dielectric constant tensor:
#      x y z
#    x 1.868640 0.000000 0.000000 
#    y 0.000000 1.839420 0.000000 
#    z 0.000000 0.000000 1.854650 
# 
# From -- ./inp_files/11143.got.cif
#   From: 2010.05.17/outbox.cif.g08.bks.cpg/sg44_6_cif.got.tgz:11143.got - 2010.06.03 19:37:08.
