data_PCOD9374383
_publ_section_title
;
Structure prediction by ZEFSAII (Michael W. Deem and Ramdas Pophale) SiO2 
 PCOD9374383
Probable space group: I M M 2
;
_chemical_formula_sum "Si O2"
_cell_formula_units_Z 58
_cell_length_a 7.448772
_cell_length_b 27.044526
_cell_length_c 13.456811
_cell_angle_alpha 90.000000
_cell_angle_beta 90.000000
_cell_angle_gamma 90.000000
_cell_volume 2710.854499
_symmetry_space_group_name_H-M "I M M 2"
_symmetry_group_IT_number 44
_symmetry_cell_setting 'orthorhombic'
loop_
_space_group_symop_operation_xyz
x,y,z
-x,-y,z
-x,y,z
x,-y,z
1/2+x,1/2+y,1/2+z
1/2-x,1/2-y,1/2+z
1/2-x,1/2+y,1/2+z
1/2+x,1/2-y,1/2+z
loop_
_atom_site_type_symbol
_atom_site_label
_atom_site_fract_x
_atom_site_fract_y
_atom_site_fract_z
Si Si1 0.500000 0.500000 0.492870
Si Si2 0.791871 0.554721 0.190840
Si Si3 0.716843 0.841891 0.776690
Si Si4 0.781867 0.315301 0.496150
Si Si5 0.784486 0.554535 0.798986
Si Si6 0.209236 0.891349 0.495668
Si Si7 0.212286 0.788888 0.575310
Si Si8 0.717438 0.077078 0.071072
O O1 0.340445 0.542991 0.502138
O O2 0.712090 0.500000 0.207263
O O3 0.715959 0.603069 0.246840
O O4 0.000000 0.551706 0.220788
O O5 0.788560 0.569456 0.074017
O O6 0.500000 0.845009 0.778949
O O7 0.779369 0.823414 0.883227
O O8 0.764184 0.803627 0.689914
O O9 0.714951 0.264360 0.543973
O O10 0.740467 0.365452 0.554299
O O11 0.000000 0.313047 0.494269
O O12 0.718915 0.500000 0.827959
O O13 0.726559 0.592842 0.882250
O O14 0.734416 0.563926 0.685047
O O15 0.000000 0.554369 0.800591
O O16 0.285665 0.836816 0.516853
O O17 0.000000 0.890253 0.521880
O O18 0.000000 0.786941 0.554152
O O19 0.500000 0.069433 0.056933
#
# Coordination Sequence:
#
# PCOD9374383 Si02
#       8
#     2   8   8   8   8   8   8   8
#     4  12  22  40  64  86 124 154 198 244 290 346
#     4   9  17  31  49  73 104 138 183 235 283 343
#     4   9  18  35  58  82 106 142 190 237 285 347
#     4   9  19  39  62  81 111 151 191 231 286 351
#     4  10  20  34  52  77 111 151 193 236 288 349
#     4  10  20  30  49  77 109 146 190 234 292 348
#     4   9  19  37  56  79 113 151 184 238 299 345
#     4  10  22  40  61  86 119 160 196 239 294 349
#
# _framework density 21.395468000000001
#
# number of rings (size 3 to 8) (size 9 to 14) (size 15 to 20)
#    0.000    2.483    0.690    1.034    0.966    3.862 
#    3.724    0.000    0.000    0.000    0.000    0.000 
#    0.000    0.000    0.000    0.000    0.000    0.000 
#
# Total GULP energy -161590.526697 kJ/mol
# GULP energy per Si atom -5572.087127 kJ/mol
# Density = 2.134677 g / cm^3
# Si number density = 21.395468 Si / 1000 Ang^3
#
#
#
# Elastic Constant Matrix: (Units=GPa)
#
#
# Indices 1 2 3 4 5 6 
#
# 1 73.2103 20.3194 -4.7198 0.0000 0.0000 0.0000
# 2 20.3194 182.3582 47.7105 0.0000 0.0000 0.0000
# 3 -4.7198 47.7105 43.7037 0.0000 0.0000 0.0000
# 4 0.0000 0.0000 0.0000 12.1664 0.0000 0.0000
# 5 0.0000 0.0000 0.0000 0.0000 -0.4337 0.0000
# 6 0.0000 0.0000 0.0000 0.0000 0.0000 15.1495
#
#
#
# Elastic Compliance Matrix: (Units=1/GPa)
#
#
# Indices 1 2 3 4 5 6 
#
# 1 0.014767 -0.002887 0.004747 0.000000 0.000000 0.000000
# 2 -0.002887 0.008241 -0.009308 0.000000 -0.000001 0.000000
# 3 0.004747 -0.009308 0.033555 0.000000 0.000003 0.000000
# 4 0.000000 0.000000 0.000000 0.082194 0.000004 0.000000
# 5 0.000000 -0.000001 0.000003 0.000004 -2.305872 -0.000001
# 6 0.000000 0.000000 0.000000 0.000000 -0.000001 0.066009
#
#
# Mechanical properties :
#
#
# Convention : Reuss Voigt Hill
#
# Bulk Modulus (GPa) = 24.00062 47.32137 35.66100
# Shear Modulus (GPa) = -2.41275 21.10725 9.34725
#
# Velocity S-wave (km/s) = -1.06308 3.14431 2.09243
# Velocity P-wave (km/s) = 3.12011 5.94540 4.74778
#
# Compressibility (1/GPa) = 0.04166559
#
# Stress axis : x y z
#
# Youngs Moduli (GPa) = 67.72012 121.34903 29.80146
#
# Poissons Ratio (x) = 0.35037 -0.14146
# Poissons Ratio (y) = 0.19553 0.27739
# Poissons Ratio (z) = -0.32145 1.12952
#
# Static dielectric constant tensor:
#      x y z
#    x 1.846520 0.000000 0.000000 
#    y 0.000000 1.780280 0.000000 
#    z 0.000000 0.000000 1.750650 
# 
# From -- ./inp_files/16749.got.cif
#   From: 2010.05.17/outbox.cif.g08.bks.cpg/sg44_9_cif.got.tgz:16749.got - 2010.06.03 19:37:08.
