data_PCOD9374170
_publ_section_title
;
Structure prediction by ZEFSAII (Michael W. Deem and Ramdas Pophale) SiO2 
 PCOD9374170
Probable space group: I M M 2
;
_chemical_formula_sum "Si O2"
_cell_formula_units_Z 48
_cell_length_a 7.577209
_cell_length_b 29.225336
_cell_length_c 10.464291
_cell_angle_alpha 90.000000
_cell_angle_beta 90.000000
_cell_angle_gamma 90.000000
_cell_volume 2317.280397
_symmetry_space_group_name_H-M "I M M 2"
_symmetry_group_IT_number 44
_symmetry_cell_setting 'orthorhombic'
loop_
_space_group_symop_operation_xyz
x,y,z
-x,-y,z
-x,y,z
x,-y,z
1/2+x,1/2+y,1/2+z
1/2-x,1/2-y,1/2+z
1/2-x,1/2+y,1/2+z
1/2+x,1/2-y,1/2+z
loop_
_atom_site_type_symbol
_atom_site_label
_atom_site_fract_x
_atom_site_fract_y
_atom_site_fract_z
Si Si1 0.715696 0.948716 0.841040
Si Si2 0.213006 0.551309 0.045834
Si Si3 0.205929 0.640681 0.472438
Si Si4 0.206246 0.850848 0.457789
Si Si5 0.795701 0.699698 0.702223
Si Si6 0.714955 0.303431 0.219894
O O1 0.500000 0.947407 0.839908
O O2 0.770279 0.941139 0.693417
O O3 0.781591 0.908433 0.931685
O O4 0.768016 0.000000 0.878356
O O5 0.270796 0.500000 0.007621
O O6 0.000000 0.551230 0.045192
O O7 0.271813 0.594484 0.963473
O O8 0.285346 0.668251 0.591185
O O9 0.217242 0.671739 0.346250
O O10 0.000000 0.632200 0.503638
O O11 0.290210 0.826897 0.335661
O O12 0.272526 0.829957 0.591880
O O13 0.000000 0.839818 0.450350
O O14 0.722947 0.750892 0.714626
O O15 0.000000 0.707087 0.664966
O O16 0.500000 0.304959 0.226289
#
# Coordination Sequence:
#
# PCOD9374170 Si02
#       6
#     8   8   8   8   8   8
#     4   8  14  27  51  81 105 128 167 218 264 307
#     4   9  17  32  56  83 108 138 180 224 265 315
#     4  10  19  34  57  80 104 137 178 224 270 316
#     4  11  22  36  55  81 112 144 179 221 272 324
#     4  10  22  37  52  75 109 144 179 221 269 322
#     4  10  21  36  53  76 106 140 181 225 268 320
#
# _framework density 20.713937000000001
#
# number of rings (size 3 to 8) (size 9 to 14) (size 15 to 20)
#    0.000    2.333    1.667    2.500    0.000    3.667 
#    0.000    0.833    0.000    3.500    0.000    0.000 
#    0.000    0.000    0.000    0.000    0.000    0.000 
#
# Total GULP energy -133981.353966 kJ/mol
# GULP energy per Si atom -5582.556415 kJ/mol
# Density = 2.066679 g / cm^3
# Si number density = 20.713937 Si / 1000 Ang^3
#
#
#
# Elastic Constant Matrix: (Units=GPa)
#
#
# Indices 1 2 3 4 5 6 
#
# 1 44.5541 -14.0001 -15.5566 -0.0002 0.0000 0.0000
# 2 -14.0001 163.7031 44.1429 -0.0010 -0.0001 0.0002
# 3 -15.5566 44.1429 80.5998 -0.0013 -0.0001 0.0003
# 4 -0.0002 -0.0010 -0.0013 -3.3708 -0.0001 0.0000
# 5 0.0000 -0.0001 -0.0001 -0.0001 10.8496 0.0000
# 6 0.0000 0.0002 0.0003 0.0000 0.0000 24.4507
#
#
#
# Elastic Compliance Matrix: (Units=1/GPa)
#
#
# Indices 1 2 3 4 5 6 
#
# 1 0.024192 0.000950 0.004149 -0.000003 0.000000 0.000000
# 2 0.000950 0.007204 -0.003762 -0.000001 0.000000 0.000000
# 3 0.004149 -0.003762 0.015268 -0.000005 0.000000 0.000000
# 4 -0.000003 -0.000001 -0.000005 -0.296666 -0.000002 0.000000
# 5 0.000000 0.000000 0.000000 -0.000002 0.092169 0.000000
# 6 0.000000 0.000000 0.000000 0.000000 0.000000 0.040899
#
#
# Mechanical properties :
#
#
# Convention : Reuss Voigt Hill
#
# Bulk Modulus (GPa) = 20.26836 35.33659 27.80247
# Shear Modulus (GPa) = -48.46778 24.67064 -11.89857
#
# Velocity S-wave (km/s) = -4.84246 3.45485 -2.39931
# Velocity P-wave (km/s) = 4.63247 5.74553 2.40326
#
# Compressibility (1/GPa) = 0.04933797
#
# Stress axis : x y z
#
# Youngs Moduli (GPa) = 41.33631 138.80418 65.49519
#
# Poissons Ratio (x) = -0.13189 -0.27173
# Poissons Ratio (y) = -0.03928 0.24641
# Poissons Ratio (z) = -0.17150 0.52222
#
# Static dielectric constant tensor:
#      x y z
#    x 1.798880 0.000000 0.000000 
#    y 0.000000 1.751590 0.000000 
#    z 0.000000 0.000000 1.695510 
# 
# From -- ./inp_files/4882.got.cif
#   From: 2010.05.17/outbox.cif.g08.bks.cpg/sg44_3_cif.got.tgz:4882.got - 2010.06.03 19:37:08.
