data_PCOD9374607
_publ_section_title
;
Structure prediction by ZEFSAII (Michael W. Deem and Ramdas Pophale) SiO2 
 PCOD9374607
Probable space group: I M M 2
;
_chemical_formula_sum "Si O2"
_cell_formula_units_Z 64
_cell_length_a 21.897876
_cell_length_b 12.877131
_cell_length_c 9.771109
_cell_angle_alpha 90.000000
_cell_angle_beta 90.000000
_cell_angle_gamma 90.000000
_cell_volume 2755.275078
_symmetry_space_group_name_H-M "I M M 2"
_symmetry_group_IT_number 44
_symmetry_cell_setting 'orthorhombic'
loop_
_space_group_symop_operation_xyz
x,y,z
-x,-y,z
-x,y,z
x,-y,z
1/2+x,1/2+y,1/2+z
1/2-x,1/2-y,1/2+z
1/2-x,1/2+y,1/2+z
1/2+x,1/2-y,1/2+z
loop_
_atom_site_type_symbol
_atom_site_label
_atom_site_fract_x
_atom_site_fract_y
_atom_site_fract_z
Si Si1 0.372751 0.180208 0.650800
Si Si2 0.662693 0.884646 0.179476
Si Si3 0.570173 0.384596 0.297314
Si Si4 0.070096 0.877448 0.243670
Si Si5 0.572601 0.123051 0.941696
Si Si6 0.434413 0.158209 0.397939
Si Si7 0.767696 0.373617 0.932176
Si Si8 0.365647 0.624396 0.014841
O O1 0.383033 0.303627 0.666454
O O2 0.389587 0.138120 0.800580
O O3 0.425217 0.131787 0.554295
O O4 0.313153 0.157822 0.557386
O O5 0.614397 0.893034 0.302423
O O6 0.715851 0.835416 0.276326
O O7 0.683169 0.000000 0.133118
O O8 0.620079 0.836351 0.059629
O O9 0.500000 0.386661 0.246021
O O10 0.581640 0.500000 0.357248
O O11 0.573989 0.283135 0.389565
O O12 0.614480 0.364862 0.170898
O O13 0.082146 0.850935 0.403657
O O14 0.000000 0.853382 0.206249
O O15 0.079441 0.000000 0.222071
O O16 0.500000 0.157375 0.940306
O O17 0.568715 0.000000 0.969091
O O18 0.500000 0.131759 0.343037
O O19 0.769138 0.500000 0.925611
O O20 0.700550 0.334540 0.972012
O O21 0.359027 0.500000 0.999119
#
# Coordination Sequence:
#
# PCOD9374607 Si02
#       8
#     8   8   8   8   8   8   8   8
#     4  11  22  37  54  87 120 157 196 245 299 364
#     4   9  19  35  55  81 114 152 193 240 292 351
#     4   9  18  33  56  86 116 148 192 248 300 346
#     4  10  21  37  59  87 119 157 202 253 306 355
#     4  10  20  34  55  84 117 155 201 253 306 356
#     4  10  20  33  52  80 114 152 192 235 291 356
#     4   9  19  39  63  85 118 161 199 242 302 368
#     4   9  18  36  61  85 113 152 200 250 299 355
#
# _framework density 23.228171
#
# number of rings (size 3 to 8) (size 9 to 14) (size 15 to 20)
#    0.000    2.375    0.000    2.250    1.750    3.250 
#    4.500    1.250    0.000    0.000    0.000    0.000 
#    0.000    0.000    0.000    0.000    0.000    0.000 
#
# Total GULP energy -178278.424222 kJ/mol
# GULP energy per Si atom -5571.200757 kJ/mol
# Density = 2.317530 g / cm^3
# Si number density = 23.228171 Si / 1000 Ang^3
#
#
#
# Elastic Constant Matrix: (Units=GPa)
#
#
# Indices 1 2 3 4 5 6 
#
# 1 92.4933 23.8471 40.1671 0.0000 0.0000 0.0000
# 2 23.8471 76.6718 5.5210 0.0000 0.0000 0.0000
# 3 40.1671 5.5210 127.8653 0.0000 0.0000 0.0000
# 4 0.0000 0.0000 0.0000 8.4594 0.0000 0.0000
# 5 0.0000 0.0000 0.0000 0.0000 22.3509 0.0000
# 6 0.0000 0.0000 0.0000 0.0000 0.0000 39.8271
#
#
#
# Elastic Compliance Matrix: (Units=1/GPa)
#
#
# Indices 1 2 3 4 5 6 
#
# 1 0.013610 -0.003937 -0.004105 0.000000 0.000000 0.000000
# 2 -0.003937 0.014222 0.000623 0.000000 0.000000 0.000000
# 3 -0.004105 0.000623 0.009083 0.000000 0.000000 0.000000
# 4 0.000000 0.000000 0.000000 0.118212 0.000000 0.000000
# 5 0.000000 0.000000 0.000000 0.000000 0.044741 0.000000
# 6 0.000000 0.000000 0.000000 0.000000 0.000000 0.025109
#
#
# Mechanical properties :
#
#
# Convention : Reuss Voigt Hill
#
# Bulk Modulus (GPa) = 45.29860 48.45563 46.87712
# Shear Modulus (GPa) = 20.22858 29.29382 24.76120
#
# Velocity S-wave (km/s) = 2.95424 3.55510 3.26851
# Velocity P-wave (km/s) = 5.58396 6.14472 5.87104
#
# Compressibility (1/GPa) = 0.02207574
#
# Stress axis : x y z
#
# Youngs Moduli (GPa) = 73.47796 70.31171 110.09048
#
# Poissons Ratio (x) = 0.27684 0.45195
# Poissons Ratio (y) = 0.28931 -0.06856
# Poissons Ratio (z) = 0.30164 -0.04379
#
# Static dielectric constant tensor:
#      x y z
#    x 1.937630 0.000000 0.000000 
#    y 0.000000 1.981580 0.000000 
#    z 0.000000 0.000000 1.869600 
# 
# From -- ./inp_files/9466.got.cif
#   From: 2010.05.17/outbox.cif.g08.bks.cpg/sg44_5_cif.got.tgz:9466.got - 2010.06.03 19:37:08.
