data_PCOD9374991
_publ_section_title
;
Structure prediction by ZEFSAII (Michael W. Deem and Ramdas Pophale) SiO2 
 PCOD9374991
Probable space group: I M M 2
;
_chemical_formula_sum "Si O2"
_cell_formula_units_Z 48
_cell_length_a 7.821510
_cell_length_b 19.060069
_cell_length_c 15.517273
_cell_angle_alpha 90.000000
_cell_angle_beta 90.000000
_cell_angle_gamma 90.000000
_cell_volume 2313.292098
_symmetry_space_group_name_H-M "I M M 2"
_symmetry_group_IT_number 44
_symmetry_cell_setting 'orthorhombic'
loop_
_space_group_symop_operation_xyz
x,y,z
-x,-y,z
-x,y,z
x,-y,z
1/2+x,1/2+y,1/2+z
1/2-x,1/2-y,1/2+z
1/2-x,1/2+y,1/2+z
1/2+x,1/2-y,1/2+z
loop_
_atom_site_type_symbol
_atom_site_label
_atom_site_fract_x
_atom_site_fract_y
_atom_site_fract_z
Si Si1 0.793825 0.723587 0.625000
Si Si2 0.312422 0.500000 0.212891
Si Si3 0.291010 0.075716 0.047515
Si Si4 0.693839 0.000000 0.529622
Si Si5 0.207445 0.739288 0.822398
Si Si6 0.200172 0.396787 0.354999
Si Si7 0.793643 0.345620 0.988041
O O1 0.731490 0.648348 0.589322
O O2 0.734588 0.730315 0.723796
O O3 0.749623 0.788851 0.562645
O O4 0.000000 0.721011 0.626489
O O5 0.500000 0.500000 0.173777
O O6 0.187007 0.500000 0.133194
O O7 0.289994 0.433670 0.275063
O O8 0.500000 0.077638 0.048939
O O9 0.239468 0.000000 0.085584
O O10 0.238213 0.077163 0.947596
O O11 0.771992 0.924641 0.504225
O O12 0.500000 0.000000 0.494145
O O13 0.273022 0.814319 0.853054
O O14 0.000000 0.739984 0.822103
O O15 0.262289 0.683511 0.894740
O O16 0.000000 0.413965 0.347747
O O17 0.000000 0.348941 0.988106
#
# Coordination Sequence:
#
# PCOD9374991 Si02
#       7
#     8   4   8   4   8   8   8
#     4  10  20  36  58  83 110 145 188 232 282 343
#     4  12  24  36  54  85 118 146 183 240 299 342
#     4   9  17  32  54  80 107 138 179 226 269 325
#     4  10  22  40  58  79 112 154 197 234 283 348
#     4  10  21  36  55  84 116 146 187 239 291 338
#     4  11  20  34  57  82 111 148 189 227 277 348
#     4  10  21  38  58  81 114 151 189 239 289 339
#
# _framework density 20.749649999999999
#
# number of rings (size 3 to 8) (size 9 to 14) (size 15 to 20)
#    0.000    1.833    2.500    2.250    0.000    4.000 
#    1.500    0.000    0.000    0.000    0.000    0.000 
#    0.000    0.000    0.000    0.000    0.000    0.000 
#
# Total GULP energy -133960.875710 kJ/mol
# GULP energy per Si atom -5581.703155 kJ/mol
# Density = 2.070242 g / cm^3
# Si number density = 20.749650 Si / 1000 Ang^3
#
#
#
# Elastic Constant Matrix: (Units=GPa)
#
#
# Indices 1 2 3 4 5 6 
#
# 1 32.5153 5.8484 7.6088 0.0000 0.0000 0.0000
# 2 5.8484 205.8708 76.7307 0.0000 0.0000 0.0000
# 3 7.6088 76.7307 117.2407 0.0000 0.0000 0.0000
# 4 0.0000 0.0000 0.0000 43.2168 0.0000 0.0000
# 5 0.0000 0.0000 0.0000 0.0000 14.6555 0.0000
# 6 0.0000 0.0000 0.0000 0.0000 0.0000 21.7986
#
#
#
# Elastic Compliance Matrix: (Units=1/GPa)
#
#
# Indices 1 2 3 4 5 6 
#
# 1 0.031234 -0.000174 -0.001913 0.000000 0.000000 0.000000
# 2 -0.000174 0.006426 -0.004194 0.000000 0.000000 0.000000
# 3 -0.001913 -0.004194 0.011398 0.000000 0.000000 0.000000
# 4 0.000000 0.000000 0.000000 0.023139 0.000000 0.000000
# 5 0.000000 0.000000 0.000000 0.000000 0.068234 0.000000
# 6 0.000000 0.000000 0.000000 0.000000 0.000000 0.045875
#
#
# Mechanical properties :
#
#
# Convention : Reuss Voigt Hill
#
# Bulk Modulus (GPa) = 27.40085 59.55585 43.47835
# Shear Modulus (GPa) = 23.69297 33.63008 28.66153
#
# Velocity S-wave (km/s) = 3.38279 4.03023 3.72062
# Velocity P-wave (km/s) = 5.33777 7.10080 6.28145
#
# Compressibility (1/GPa) = 0.03649522
#
# Stress axis : x y z
#
# Youngs Moduli (GPa) = 32.01662 155.62914 87.73103
#
# Poissons Ratio (x) = 0.02713 0.16782
# Poissons Ratio (y) = 0.00558 0.36795
# Poissons Ratio (z) = 0.06125 0.65271
#
# Static dielectric constant tensor:
#      x y z
#    x 1.766500 0.000000 0.000000 
#    y 0.000000 1.755280 0.000000 
#    z 0.000000 0.000000 1.713930 
# 
# From -- ./inp_files/16109.got.cif
#   From: 2010.05.17/outbox.cif.g08.bks.cpg/sg44_9_cif.got.tgz:16109.got - 2010.06.03 19:37:08.
