data_PCOD9374988
_publ_section_title
;
Structure prediction by ZEFSAII (Michael W. Deem and Ramdas Pophale) SiO2 
 PCOD9374988
Probable space group: I M M 2
;
_chemical_formula_sum "Si O2"
_cell_formula_units_Z 56
_cell_length_a 20.109733
_cell_length_b 14.543104
_cell_length_c 9.767839
_cell_angle_alpha 90.000000
_cell_angle_beta 90.000000
_cell_angle_gamma 90.000000
_cell_volume 2856.682057
_symmetry_space_group_name_H-M "I M M 2"
_symmetry_group_IT_number 44
_symmetry_cell_setting 'orthorhombic'
loop_
_space_group_symop_operation_xyz
x,y,z
-x,-y,z
-x,y,z
x,-y,z
1/2+x,1/2+y,1/2+z
1/2-x,1/2-y,1/2+z
1/2-x,1/2+y,1/2+z
1/2+x,1/2-y,1/2+z
loop_
_atom_site_type_symbol
_atom_site_label
_atom_site_fract_x
_atom_site_fract_y
_atom_site_fract_z
Si Si1 0.921140 0.892828 0.227250
Si Si2 0.574754 0.896066 0.338775
Si Si3 0.172731 0.893314 0.727655
Si Si4 0.206222 0.397708 0.436914
Si Si5 0.720120 0.104537 0.243274
Si Si6 0.676592 0.697454 0.932661
Si Si7 0.577623 0.701000 0.446929
O O1 0.881156 0.857674 0.356902
O O2 0.000000 0.880730 0.246246
O O3 0.907743 0.000000 0.203638
O O4 0.899947 0.837629 0.092349
O O5 0.500000 0.887024 0.276779
O O6 0.639881 0.886259 0.244484
O O7 0.581718 0.811539 0.442441
O O8 0.578226 0.000000 0.396422
O O9 0.239971 0.895452 0.816613
O O10 0.182742 0.838010 0.587304
O O11 0.118753 0.843131 0.823289
O O12 0.154088 0.000000 0.700022
O O13 0.174816 0.500000 0.438025
O O14 0.241222 0.386745 0.585722
O O15 0.163006 0.306113 0.424220
O O16 0.756630 0.173114 0.346206
O O17 0.735606 0.000000 0.289244
O O18 0.500000 0.675695 0.430413
#
# Coordination Sequence:
#
# PCOD9374988 Si02
#       7
#     8   8   8   8   8   8   8
#     4  10  22  40  60  83 113 150 189 228 278 342
#     4   9  18  33  55  85 117 148 189 238 280 324
#     4  11  23  37  55  85 118 145 183 239 293 331
#     4  10  22  38  56  80 112 148 186 229 278 335
#     4  10  20  36  58  82 110 150 193 229 276 336
#     4  12  22  37  59  84 115 148 188 234 282 333
#     4  10  20  36  58  82 111 151 193 231 279 339
#
# _framework density 19.603161
#
# number of rings (size 3 to 8) (size 9 to 14) (size 15 to 20)
#    0.000    1.714    0.000    5.143    0.000    3.714 
#    0.000    2.857    0.000    2.143    0.000    1.000 
#    0.000    5.714    0.000    0.000    0.000    0.000 
#
# Total GULP energy -156249.797293 kJ/mol
# GULP energy per Si atom -5580.349903 kJ/mol
# Density = 1.955854 g / cm^3
# Si number density = 19.603161 Si / 1000 Ang^3
#
#
#
# Elastic Constant Matrix: (Units=GPa)
#
#
# Indices 1 2 3 4 5 6 
#
# 1 59.4957 29.8266 30.2705 0.0000 0.0000 0.0000
# 2 29.8266 122.0969 40.2305 0.0000 0.0000 0.0000
# 3 30.2705 40.2305 118.8906 0.0000 0.0000 0.0000
# 4 0.0000 0.0000 0.0000 27.5095 0.0000 0.0000
# 5 0.0000 0.0000 0.0000 0.0000 15.9733 0.0000
# 6 0.0000 0.0000 0.0000 0.0000 0.0000 21.6945
#
#
#
# Elastic Compliance Matrix: (Units=1/GPa)
#
#
# Indices 1 2 3 4 5 6 
#
# 1 0.020724 -0.003741 -0.004011 0.000000 0.000000 0.000000
# 2 -0.003741 0.009893 -0.002395 0.000000 0.000000 0.000000
# 3 -0.004011 -0.002395 0.010243 0.000000 0.000000 0.000000
# 4 0.000000 0.000000 0.000000 0.036351 0.000000 0.000000
# 5 0.000000 0.000000 0.000000 0.000000 0.062605 0.000000
# 6 0.000000 0.000000 0.000000 0.000000 0.000000 0.046095
#
#
# Mechanical properties :
#
#
# Convention : Reuss Voigt Hill
#
# Bulk Modulus (GPa) = 48.62342 55.68206 52.15274
# Shear Modulus (GPa) = 23.46763 26.37916 24.92339
#
# Velocity S-wave (km/s) = 3.46372 3.67230 3.56953
# Velocity P-wave (km/s) = 6.39173 6.81523 6.60687
#
# Compressibility (1/GPa) = 0.02056622
#
# Stress axis : x y z
#
# Youngs Moduli (GPa) = 48.25335 101.07815 97.63038
#
# Poissons Ratio (x) = 0.37814 0.39155
# Poissons Ratio (y) = 0.18052 0.23385
# Poissons Ratio (z) = 0.19352 0.24210
#
# Static dielectric constant tensor:
#      x y z
#    x 1.707470 0.000000 0.000000 
#    y 0.000000 1.730460 0.000000 
#    z 0.000000 0.000000 1.653410 
# 
# From -- ./inp_files/7374.got.cif
#   From: 2010.05.17/outbox.cif.g08.bks.cpg/sg44_4_cif.got.tgz:7374.got - 2010.06.03 19:37:08.
