data_PCOD9374145
_publ_section_title
;
Structure prediction by ZEFSAII (Michael W. Deem and Ramdas Pophale) SiO2 
 PCOD9374145
Probable space group: I M M 2
;
_chemical_formula_sum "Si O2"
_cell_formula_units_Z 40
_cell_length_a 29.217919
_cell_length_b 7.384694
_cell_length_c 8.096987
_cell_angle_alpha 90.000000
_cell_angle_beta 90.000000
_cell_angle_gamma 90.000000
_cell_volume 1747.049567
_symmetry_space_group_name_H-M "I M M 2"
_symmetry_group_IT_number 44
_symmetry_cell_setting 'orthorhombic'
loop_
_space_group_symop_operation_xyz
x,y,z
-x,-y,z
-x,y,z
x,-y,z
1/2+x,1/2+y,1/2+z
1/2-x,1/2-y,1/2+z
1/2-x,1/2+y,1/2+z
1/2+x,1/2-y,1/2+z
loop_
_atom_site_type_symbol
_atom_site_label
_atom_site_fract_x
_atom_site_fract_y
_atom_site_fract_z
Si Si1 0.708143 0.717999 0.415130
Si Si2 0.806594 0.287703 0.299005
Si Si3 0.385697 0.721980 0.271693
Si Si4 0.552349 0.278901 0.579660
Si Si5 0.405680 0.295022 0.917349
O O1 0.709740 0.500000 0.403242
O O2 0.758596 0.784885 0.369287
O O3 0.695296 0.766027 0.601852
O O4 0.667019 0.779110 0.296318
O O5 0.809939 0.500000 0.339067
O O6 0.852033 0.199100 0.370261
O O7 0.385638 0.500000 0.267155
O O8 0.414491 0.778171 0.431637
O O9 0.407262 0.786261 0.099920
O O10 0.500000 0.228325 0.549511
O O11 0.554874 0.500000 0.582726
O O12 0.569289 0.213132 0.758694
O O13 0.423766 0.500000 0.932233
#
# Coordination Sequence:
#
# PCOD9374145 Si02
#       5
#     8   8   8   8   8
#     4  10  20  35  52  74 108 145 183 223 269 323
#     4  11  22  34  53  81 110 142 186 228 267 326
#     4   9  17  31  52  77 106 142 179 221 271 323
#     4   9  17  30  52  83 112 140 182 232 274 318
#     4  10  19  34  56  78 111 149 178 221 279 326
#
# _framework density 22.895743
#
# number of rings (size 3 to 8) (size 9 to 14) (size 15 to 20)
#    0.000    2.200    2.000    1.800    0.000    4.000 
#    0.000    5.000    0.000    0.600    0.000    0.000 
#    0.000    0.000    0.000    0.000    0.000    0.000 
#
# Total GULP energy -111797.466675 kJ/mol
# GULP energy per Si atom -5589.873334 kJ/mol
# Density = 2.284363 g / cm^3
# Si number density = 22.895743 Si / 1000 Ang^3
#
#
#
# Elastic Constant Matrix: (Units=GPa)
#
#
# Indices 1 2 3 4 5 6 
#
# 1 78.8507 -4.7132 -1.7356 0.0000 0.0000 0.0000
# 2 -4.7132 85.2726 -11.7864 0.0000 0.0000 0.0000
# 3 -1.7356 -11.7864 101.1917 0.0000 0.0000 0.0000
# 4 0.0000 0.0000 0.0000 -8.6805 0.0000 0.0000
# 5 0.0000 0.0000 0.0000 0.0000 30.3182 0.0000
# 6 0.0000 0.0000 0.0000 0.0000 0.0000 6.4866
#
#
#
# Elastic Compliance Matrix: (Units=1/GPa)
#
#
# Indices 1 2 3 4 5 6 
#
# 1 0.012734 0.000746 0.000305 0.000000 0.000000 0.000000
# 2 0.000746 0.011963 0.001406 0.000000 0.000000 0.000000
# 3 0.000305 0.001406 0.010051 0.000000 0.000000 0.000000
# 4 0.000000 0.000000 0.000000 -0.115201 0.000000 0.000000
# 5 0.000000 0.000000 0.000000 0.000000 0.032983 0.000000
# 6 0.000000 0.000000 0.000000 0.000000 0.000000 0.154165
#
#
# Mechanical properties :
#
#
# Convention : Reuss Voigt Hill
#
# Bulk Modulus (GPa) = 25.21281 25.42717 25.31999
# Shear Modulus (GPa) = 43.47792 24.52819 34.00306
#
# Velocity S-wave (km/s) = 4.36242 3.27662 3.85791
# Velocity P-wave (km/s) = 6.03409 5.04428 5.56125
#
# Compressibility (1/GPa) = 0.03966239
#
# Stress axis : x y z
#
# Youngs Moduli (GPa) = 78.53292 83.59322 99.49006
#
# Poissons Ratio (x) = -0.06236 -0.03037
# Poissons Ratio (y) = -0.05859 -0.13990
# Poissons Ratio (z) = -0.02398 -0.11755
#
# Static dielectric constant tensor:
#      x y z
#    x 1.807040 0.000000 0.000000 
#    y 0.000000 1.870330 0.000000 
#    z 0.000000 0.000000 1.821470 
# 
# From -- ./inp_files/4442.got.cif
#   From: 2010.05.17/outbox.cif.g08.bks.cpg/sg44_3_cif.got.tgz:4442.got - 2010.06.03 19:37:08.
