data_PCOD9374597
_publ_section_title
;
Structure prediction by ZEFSAII (Michael W. Deem and Ramdas Pophale) SiO2 
 PCOD9374597
Probable space group: I M M 2
;
_chemical_formula_sum "Si O2"
_cell_formula_units_Z 56
_cell_length_a 21.112757
_cell_length_b 9.000964
_cell_length_c 14.206229
_cell_angle_alpha 90.000000
_cell_angle_beta 90.000000
_cell_angle_gamma 90.000000
_cell_volume 2699.683082
_symmetry_space_group_name_H-M "I M M 2"
_symmetry_group_IT_number 44
_symmetry_cell_setting 'orthorhombic'
loop_
_space_group_symop_operation_xyz
x,y,z
-x,-y,z
-x,y,z
x,-y,z
1/2+x,1/2+y,1/2+z
1/2-x,1/2-y,1/2+z
1/2-x,1/2+y,1/2+z
1/2+x,1/2-y,1/2+z
loop_
_atom_site_type_symbol
_atom_site_label
_atom_site_fract_x
_atom_site_fract_y
_atom_site_fract_z
Si Si1 0.599732 0.175411 0.763930
Si Si2 0.429434 0.322793 0.569961
Si Si3 0.070244 0.321723 0.475201
Si Si4 0.666732 0.832121 0.433371
Si Si5 0.426883 0.163259 0.258352
Si Si6 0.750020 0.324422 0.282079
Si Si7 0.155335 0.827519 0.622298
O O1 0.574336 0.269471 0.677451
O O2 0.573294 0.219661 0.865549
O O3 0.675526 0.192452 0.770228
O O4 0.585656 0.000000 0.748348
O O5 0.500000 0.277473 0.533143
O O6 0.425457 0.500000 0.562571
O O7 0.369056 0.252190 0.516932
O O8 0.074308 0.500000 0.479485
O O9 0.130198 0.255167 0.530106
O O10 0.000000 0.278891 0.513223
O O11 0.613049 0.838250 0.352871
O O12 0.723713 0.754504 0.376172
O O13 0.684046 0.000000 0.462247
O O14 0.500000 0.176922 0.278606
O O15 0.402182 0.295485 0.194235
O O16 0.416329 0.000000 0.211227
O O17 0.734850 0.500000 0.290595
O O18 0.714317 0.271147 0.186159
O O19 0.164935 0.000000 0.601832
#
# Coordination Sequence:
#
# PCOD9374597 Si02
#       7
#     8   8   8   8   8   8   8
#     4  10  22  41  63  83 109 150 197 243 287 339
#     4  11  24  40  59  86 119 153 191 242 301 351
#     4  10  21  37  57  81 108 141 184 232 279 327
#     4  10  20  35  58  85 114 151 192 233 281 344
#     4   9  17  30  49  75 107 142 182 227 272 323
#     4   9  20  39  59  85 119 150 186 233 286 340
#     4  10  20  33  52  79 112 146 178 219 274 335
#
# _framework density 20.743175000000001
#
# number of rings (size 3 to 8) (size 9 to 14) (size 15 to 20)
#    0.000    2.143    0.000    2.571    0.000    8.000 
#    0.000    2.857    0.000    0.000    0.000    0.000 
#    0.000    0.000    0.000    0.000    0.000    0.000 
#
# Total GULP energy -156240.244516 kJ/mol
# GULP energy per Si atom -5580.008733 kJ/mol
# Density = 2.069596 g / cm^3
# Si number density = 20.743175 Si / 1000 Ang^3
#
#
#
# Elastic Constant Matrix: (Units=GPa)
#
#
# Indices 1 2 3 4 5 6 
#
# 1 75.2223 24.1789 12.9527 0.0000 0.0000 0.0000
# 2 24.1789 47.7717 24.7966 0.0000 0.0000 0.0000
# 3 12.9527 24.7966 83.4075 0.0000 0.0000 0.0000
# 4 0.0000 0.0000 0.0000 32.5367 0.0000 0.0000
# 5 0.0000 0.0000 0.0000 0.0000 25.9128 0.0000
# 6 0.0000 0.0000 0.0000 0.0000 0.0000 16.9080
#
#
#
# Elastic Compliance Matrix: (Units=1/GPa)
#
#
# Indices 1 2 3 4 5 6 
#
# 1 0.015877 -0.007989 -0.000091 0.000000 0.000000 0.000000
# 2 -0.007989 0.028772 -0.007313 0.000000 0.000000 0.000000
# 3 -0.000091 -0.007313 0.014178 0.000000 0.000000 0.000000
# 4 0.000000 0.000000 0.000000 0.030735 0.000000 0.000000
# 5 0.000000 0.000000 0.000000 0.000000 0.038591 0.000000
# 6 0.000000 0.000000 0.000000 0.000000 0.000000 0.059144
#
#
# Mechanical properties :
#
#
# Convention : Reuss Voigt Hill
#
# Bulk Modulus (GPa) = 35.66115 36.69530 36.17823
# Shear Modulus (GPa) = 21.98481 24.70305 23.34393
#
# Velocity S-wave (km/s) = 3.25908 3.45469 3.35831
# Velocity P-wave (km/s) = 5.60278 5.80016 5.70233
#
# Compressibility (1/GPa) = 0.02804172
#
# Stress axis : x y z
#
# Youngs Moduli (GPa) = 62.98224 34.75544 70.53389
#
# Poissons Ratio (x) = 0.27767 0.00639
# Poissons Ratio (y) = 0.50317 0.51583
# Poissons Ratio (z) = 0.00570 0.25417
#
# Static dielectric constant tensor:
#      x y z
#    x 1.753380 0.000000 0.000000 
#    y 0.000000 1.773300 0.000000 
#    z 0.000000 0.000000 1.762510 
# 
# From -- ./inp_files/19174.got.cif
#   From: 2010.05.17/outbox.cif.g08.bks.cpg/sg44_10_cif.got.tgz:19174.got - 2010.06.03 19:37:08.
