data_PCOD9374644
_publ_section_title
;
Structure prediction by ZEFSAII (Michael W. Deem and Ramdas Pophale) SiO2 
 PCOD9374644
Probable space group: I M M 2
;
_chemical_formula_sum "Si O2"
_cell_formula_units_Z 58
_cell_length_a 9.110865
_cell_length_b 15.101735
_cell_length_c 24.467866
_cell_angle_alpha 90.000000
_cell_angle_beta 90.000000
_cell_angle_gamma 90.000000
_cell_volume 3366.530474
_symmetry_space_group_name_H-M "I M M 2"
_symmetry_group_IT_number 44
_symmetry_cell_setting 'orthorhombic'
loop_
_space_group_symop_operation_xyz
x,y,z
-x,-y,z
-x,y,z
x,-y,z
1/2+x,1/2+y,1/2+z
1/2-x,1/2-y,1/2+z
1/2-x,1/2+y,1/2+z
1/2+x,1/2-y,1/2+z
loop_
_atom_site_type_symbol
_atom_site_label
_atom_site_fract_x
_atom_site_fract_y
_atom_site_fract_z
Si Si1 0.000000 0.000000 0.672811
Si Si2 0.676823 0.260850 0.050100
Si Si3 0.674145 0.104530 0.339841
Si Si4 0.174436 0.739286 0.279166
Si Si5 0.674168 0.395939 0.954712
Si Si6 0.663081 0.683808 0.171170
Si Si7 0.176148 0.897713 0.989288
Si Si8 0.674982 0.604728 0.362295
O O1 0.125550 0.920694 0.672307
O O2 0.500000 0.254925 0.049168
O O3 0.717773 0.336105 0.005962
O O4 0.718054 0.288284 0.111391
O O5 0.746402 0.170061 0.029424
O O6 0.500000 0.120191 0.338015
O O7 0.756491 0.167471 0.297676
O O8 0.735429 0.125865 0.400358
O O9 0.701444 0.000000 0.330448
O O10 0.231807 0.712381 0.219603
O O11 0.236278 0.666453 0.321693
O O12 0.000000 0.742754 0.281652
O O13 0.500000 0.382471 0.943959
O O14 0.694726 0.500000 0.967107
O O15 0.500000 0.726183 0.179919
O O16 0.000000 0.890834 0.994048
O O17 0.216734 0.000000 0.999364
O O18 0.212257 0.877217 0.925736
O O19 0.500000 0.620115 0.354846
O O20 0.699951 0.500000 0.352118
#
# Coordination Sequence:
#
# PCOD9374644 Si02
#       8
#     2   8   8   8   8   8   8   8
#     4   8  20  40  66  76 106 148 198 220 260 318
#     4  10  20  33  55  83 109 141 183 226 269 320
#     4  10  21  38  58  80 108 146 188 228 270 327
#     4  12  24  36  54  82 114 142 182 232 284 331
#     4   9  18  31  53  84 117 145 175 218 277 331
#     4   9  21  38  59  80 105 146 189 220 264 322
#     4   9  19  36  55  78 108 146 184 223 271 326
#     4   9  19  35  57  81 110 149 189 223 270 332
#
# _framework density 17.22842
#
# number of rings (size 3 to 8) (size 9 to 14) (size 15 to 20)
#    0.414    1.931    0.000    3.310    1.931    5.241 
#    0.000    2.069    0.000    0.828    0.000    0.000 
#    0.000    0.000    0.000    0.000    0.000    0.000 
#
# Total GULP energy -161504.421702 kJ/mol
# GULP energy per Si atom -5569.117990 kJ/mol
# Density = 1.718921 g / cm^3
# Si number density = 17.228420 Si / 1000 Ang^3
#
#
#
# Elastic Constant Matrix: (Units=GPa)
#
#
# Indices 1 2 3 4 5 6 
#
# 1 65.3947 61.7481 70.3382 0.0000 0.0000 0.0000
# 2 61.7481 104.9471 98.3469 0.0000 0.0000 0.0000
# 3 70.3382 98.3469 135.4118 0.0000 0.0000 0.0000
# 4 0.0000 0.0000 0.0000 0.5982 0.0000 0.0000
# 5 0.0000 0.0000 0.0000 0.0000 11.6873 0.0000
# 6 0.0000 0.0000 0.0000 0.0000 0.0000 29.8994
#
#
#
# Elastic Compliance Matrix: (Units=1/GPa)
#
#
# Indices 1 2 3 4 5 6 
#
# 1 0.039267 -0.012491 -0.011325 0.000000 0.000000 0.000000
# 2 -0.012491 0.033807 -0.018065 0.000000 0.000000 0.000000
# 3 -0.011325 -0.018065 0.026388 0.000000 0.000000 0.000000
# 4 0.000000 0.000000 0.000000 1.671622 0.000000 0.000000
# 5 0.000000 0.000000 0.000000 0.000000 0.085563 0.000000
# 6 0.000000 0.000000 0.000000 0.000000 0.000000 0.033445
#
#
# Mechanical properties :
#
#
# Convention : Reuss Voigt Hill
#
# Bulk Modulus (GPa) = 63.69435 85.17999 74.43717
# Shear Modulus (GPa) = 2.52642 13.45835 7.99238
#
# Velocity S-wave (km/s) = 1.21227 2.79798 2.15619
# Velocity P-wave (km/s) = 6.24582 7.74514 7.03553
#
# Compressibility (1/GPa) = 0.01569998
#
# Stress axis : x y z
#
# Youngs Moduli (GPa) = 25.46638 29.57992 37.89665
#
# Poissons Ratio (x) = 0.36949 0.42918
# Poissons Ratio (y) = 0.31811 0.68459
# Poissons Ratio (z) = 0.28841 0.53435
#
# Static dielectric constant tensor:
#      x y z
#    x 1.573020 0.000000 0.000000 
#    y 0.000000 1.577620 0.000000 
#    z 0.000000 0.000000 1.574110 
# 
# From -- ./inp_files/25033.got.cif
#   From: 2010.05.17/outbox.cif.g08.bks.cpg/sg44_13_cif.got.tgz:25033.got - 2010.06.03 19:37:08.
