data_PCOD9374521
_publ_section_title
;
Structure prediction by ZEFSAII (Michael W. Deem and Ramdas Pophale) SiO2 
 PCOD9374521
Probable space group: I M M 2
;
_chemical_formula_sum "Si O2"
_cell_formula_units_Z 64
_cell_length_a 8.574324
_cell_length_b 28.947751
_cell_length_c 14.659809
_cell_angle_alpha 90.000000
_cell_angle_beta 90.000000
_cell_angle_gamma 90.000000
_cell_volume 3638.673020
_symmetry_space_group_name_H-M "I M M 2"
_symmetry_group_IT_number 44
_symmetry_cell_setting 'orthorhombic'
loop_
_space_group_symop_operation_xyz
x,y,z
-x,-y,z
-x,y,z
x,-y,z
1/2+x,1/2+y,1/2+z
1/2-x,1/2-y,1/2+z
1/2-x,1/2+y,1/2+z
1/2+x,1/2-y,1/2+z
loop_
_atom_site_type_symbol
_atom_site_label
_atom_site_fract_x
_atom_site_fract_y
_atom_site_fract_z
Si Si1 0.180705 0.236820 0.343360
Si Si2 0.316334 0.858305 0.992160
Si Si3 0.181882 0.234376 0.030123
Si Si4 0.180866 0.830736 0.797884
Si Si5 0.688115 0.552970 0.588971
Si Si6 0.310123 0.448183 0.800558
Si Si7 0.817748 0.331499 0.108650
Si Si8 0.188834 0.140361 0.411680
O O1 0.201160 0.251028 0.449437
O O2 0.283935 0.275706 0.296320
O O3 0.231434 0.183501 0.345464
O O4 0.000000 0.240792 0.314768
O O5 0.500000 0.852151 0.003177
O O6 0.226410 0.818325 0.049688
O O7 0.271497 0.850451 0.885803
O O8 0.264117 0.908245 0.026642
O O9 0.000000 0.235502 0.999152
O O10 0.197144 0.275493 0.101971
O O11 0.233605 0.848867 0.699481
O O12 0.000000 0.839166 0.812946
O O13 0.500000 0.556837 0.583401
O O14 0.729409 0.500000 0.565060
O O15 0.733128 0.560342 0.695110
O O16 0.500000 0.448097 0.802596
O O17 0.258885 0.500000 0.826046
O O18 0.257905 0.407460 0.867005
O O19 0.000000 0.341957 0.115536
O O20 0.754268 0.350968 0.012839
O O21 0.000000 0.141113 0.417287
#
# Coordination Sequence:
#
# PCOD9374521 Si02
#       8
#     8   8   8   8   8   8   8   8
#     4   9  16  27  43  66  97 128 161 201 242 283
#     4  11  21  33  51  75 104 134 167 209 255 301
#     4   9  17  30  47  66  92 128 167 202 239 287
#     4  11  21  33  50  71  99 135 173 209 247 297
#     4   9  18  34  55  77 101 131 168 207 250 303
#     4   8  15  30  53  78 101 127 162 203 245 292
#     4  10  20  33  49  71 101 136 171 208 249 293
#     4   9  17  30  50  75 101 131 167 205 245 292
#
# _framework density 17.588830000000002
#
# number of rings (size 3 to 8) (size 9 to 14) (size 15 to 20)
#    0.000    2.500    0.000    5.625    0.000    3.250 
#    0.000    3.125    0.000    1.875    0.000    1.750 
#    0.000    0.000    0.000    0.000    0.000    0.000 
#
# Total GULP energy -178294.029345 kJ/mol
# GULP energy per Si atom -5571.688417 kJ/mol
# Density = 1.754880 g / cm^3
# Si number density = 17.588830 Si / 1000 Ang^3
#
#
#
# Elastic Constant Matrix: (Units=GPa)
#
#
# Indices 1 2 3 4 5 6 
#
# 1 41.3780 23.3220 15.5193 0.0000 0.0000 0.0000
# 2 23.3220 119.3578 50.7718 0.0000 0.0000 0.0000
# 3 15.5193 50.7718 67.2201 0.0001 0.0000 0.0000
# 4 0.0000 0.0000 0.0001 19.9404 0.0000 0.0000
# 5 0.0000 0.0000 0.0000 0.0000 16.2281 0.0000
# 6 0.0000 0.0000 0.0000 0.0000 0.0000 20.9890
#
#
#
# Elastic Compliance Matrix: (Units=1/GPa)
#
#
# Indices 1 2 3 4 5 6 
#
# 1 0.027675 -0.003963 -0.003396 0.000000 0.000000 0.000000
# 2 -0.003963 0.012912 -0.008837 0.000000 0.000000 0.000000
# 3 -0.003396 -0.008837 0.022336 0.000000 0.000000 0.000000
# 4 0.000000 0.000000 0.000000 0.050149 0.000000 0.000000
# 5 0.000000 0.000000 0.000000 0.000000 0.061621 0.000000
# 6 0.000000 0.000000 0.000000 0.000000 0.000000 0.047644
#
#
# Mechanical properties :
#
#
# Convention : Reuss Voigt Hill
#
# Bulk Modulus (GPa) = 32.75556 45.24248 38.99902
# Shear Modulus (GPa) = 18.87462 20.65437 19.76449
#
# Velocity S-wave (km/s) = 3.27938 3.43051 3.35579
# Velocity P-wave (km/s) = 5.74478 6.43967 6.10212
#
# Compressibility (1/GPa) = 0.03052916
#
# Stress axis : x y z
#
# Youngs Moduli (GPa) = 36.13389 77.44911 44.77177
#
# Poissons Ratio (x) = 0.30692 0.15205
# Poissons Ratio (y) = 0.14320 0.39566
# Poissons Ratio (z) = 0.12272 0.68445
#
# Static dielectric constant tensor:
#      x y z
#    x 1.591120 0.000000 0.000000 
#    y 0.000000 1.620020 0.000000 
#    z 0.000000 0.000000 1.607390 
# 
# From -- ./inp_files/16892.got.cif
#   From: 2010.05.17/outbox.cif.g08.bks.cpg/sg44_9_cif.got.tgz:16892.got - 2010.06.03 19:37:08.
