data_PCOD9374619
_publ_section_title
;
Structure prediction by ZEFSAII (Michael W. Deem and Ramdas Pophale) SiO2 
 PCOD9374619
Probable space group: I M M 2
;
_chemical_formula_sum "Si O2"
_cell_formula_units_Z 48
_cell_length_a 7.510724
_cell_length_b 8.082428
_cell_length_c 39.051078
_cell_angle_alpha 90.000000
_cell_angle_beta 90.000000
_cell_angle_gamma 90.000000
_cell_volume 2370.591237
_symmetry_space_group_name_H-M "I M M 2"
_symmetry_group_IT_number 44
_symmetry_cell_setting 'orthorhombic'
loop_
_space_group_symop_operation_xyz
x,y,z
-x,-y,z
-x,y,z
x,-y,z
1/2+x,1/2+y,1/2+z
1/2-x,1/2-y,1/2+z
1/2-x,1/2+y,1/2+z
1/2+x,1/2-y,1/2+z
loop_
_atom_site_type_symbol
_atom_site_label
_atom_site_fract_x
_atom_site_fract_y
_atom_site_fract_z
Si Si1 0.790758 0.822147 0.547210
Si Si2 0.285011 0.688679 0.620012
Si Si3 0.000000 0.303400 0.824203
Si Si4 0.296667 0.199987 0.694876
Si Si5 0.219069 0.500000 0.507732
Si Si6 0.715542 0.000000 0.929109
Si Si7 0.000000 0.802218 0.746303
Si Si8 0.213235 0.805340 0.380771
O O1 0.775280 0.795310 0.587879
O O2 0.717736 0.663062 0.527643
O O3 0.000000 0.826911 0.538863
O O4 0.712599 0.000000 0.537785
O O5 0.500000 0.694831 0.620251
O O6 0.227861 0.500000 0.614110
O O7 0.227301 0.746343 0.657571
O O8 0.826735 0.262045 0.847002
O O9 0.000000 0.500000 0.820177
O O10 0.000000 0.232062 0.786348
O O11 0.500000 0.258936 0.698662
O O12 0.172157 0.260085 0.725559
O O13 0.299938 0.000000 0.695042
O O14 0.275322 0.500000 0.468305
O O15 0.000000 0.500000 0.508609
O O16 0.765460 0.168533 0.909102
O O17 0.500000 0.000000 0.929742
O O18 0.000000 0.000000 0.742312
O O19 0.000000 0.792974 0.375214
O O20 0.250733 0.000000 0.389555
#
# Coordination Sequence:
#
# PCOD9374619 Si02
#       8
#     8   8   4   8   4   4   4   8
#     4  10  20  33  53  80 110 148 189 233 290 342
#     4  10  20  34  54  77 104 144 192 241 287 340
#     4  10  22  38  58  84 118 152 188 237 291 354
#     4   9  19  36  53  75 110 147 189 239 290 344
#     4   9  18  34  52  82 120 143 187 243 284 341
#     4   9  18  33  59  87 112 151 191 236 291 351
#     4  10  22  36  54  82 112 148 192 236 292 353
#     4   9  19  36  58  87 117 148 194 239 282 345
#
# _framework density 20.248114000000001
#
# number of rings (size 3 to 8) (size 9 to 14) (size 15 to 20)
#    0.000    2.500    0.833    0.500    2.333    3.000 
#    0.000    3.333    3.667    0.000    0.000    0.000 
#    0.000    0.000    0.000    0.000    0.000    0.000 
#
# Total GULP energy -133933.681362 kJ/mol
# GULP energy per Si atom -5580.570057 kJ/mol
# Density = 2.020203 g / cm^3
# Si number density = 20.248114 Si / 1000 Ang^3
#
#
#
# Elastic Constant Matrix: (Units=GPa)
#
#
# Indices 1 2 3 4 5 6 
#
# 1 68.4810 32.6275 37.1442 0.0000 0.0000 0.0000
# 2 32.6275 115.9248 77.3082 0.0000 0.0000 0.0000
# 3 37.1442 77.3082 162.9141 0.0000 0.0000 0.0000
# 4 0.0000 0.0000 0.0000 33.9782 0.0000 0.0000
# 5 0.0000 0.0000 0.0000 0.0000 46.4443 0.0000
# 6 0.0000 0.0000 0.0000 0.0000 0.0000 0.1110
#
#
#
# Elastic Compliance Matrix: (Units=1/GPa)
#
#
# Indices 1 2 3 4 5 6 
#
# 1 0.017491 -0.003311 -0.002417 0.000000 0.000000 0.000000
# 2 -0.003311 0.013247 -0.005531 0.000000 0.000000 0.000000
# 3 -0.002417 -0.005531 0.009314 0.000000 0.000000 0.000000
# 4 0.000000 0.000000 0.000000 0.029431 0.000000 0.000000
# 5 0.000000 0.000000 0.000000 0.000000 0.021531 0.000000
# 6 0.000000 0.000000 0.000000 0.000000 0.000000 9.009518
#
#
# Mechanical properties :
#
#
# Convention : Reuss Voigt Hill
#
# Bulk Modulus (GPa) = 57.03300 71.27551 64.15426
# Shear Modulus (GPa) = 0.54771 29.45602 15.00186
#
# Velocity S-wave (km/s) = 0.52066 3.81826 2.72490
# Velocity P-wave (km/s) = 5.34693 7.39705 6.45391
#
# Compressibility (1/GPa) = 0.01753371
#
# Stress axis : x y z
#
# Youngs Moduli (GPa) = 57.17216 75.48953 107.36675
#
# Poissons Ratio (x) = 0.24997 0.25946
# Poissons Ratio (y) = 0.18932 0.59386
# Poissons Ratio (z) = 0.13816 0.41754
#
# Static dielectric constant tensor:
#      x y z
#    x 1.741990 0.000000 0.000000 
#    y 0.000000 1.709150 0.000000 
#    z 0.000000 0.000000 1.672040 
# 
# From -- ./inp_files/27070.got.cif
#   From: 2010.05.17/outbox.cif.g08.bks.cpg/sg44_14_cif.got.tgz:27070.got - 2010.06.03 19:37:08.
