data_PCOD9374408
_publ_section_title
;
Structure prediction by ZEFSAII (Michael W. Deem and Ramdas Pophale) SiO2 
 PCOD9374408
Probable space group: I M M 2
;
_chemical_formula_sum "Si O2"
_cell_formula_units_Z 58
_cell_length_a 26.086233
_cell_length_b 8.896824
_cell_length_c 12.108134
_cell_angle_alpha 90.000000
_cell_angle_beta 90.000000
_cell_angle_gamma 90.000000
_cell_volume 2810.111725
_symmetry_space_group_name_H-M "I M M 2"
_symmetry_group_IT_number 44
_symmetry_cell_setting 'orthorhombic'
loop_
_space_group_symop_operation_xyz
x,y,z
-x,-y,z
-x,y,z
x,-y,z
1/2+x,1/2+y,1/2+z
1/2-x,1/2-y,1/2+z
1/2-x,1/2+y,1/2+z
1/2+x,1/2-y,1/2+z
loop_
_atom_site_type_symbol
_atom_site_label
_atom_site_fract_x
_atom_site_fract_y
_atom_site_fract_z
Si Si1 0.312962 0.825169 0.683830
Si Si2 0.444714 0.327874 0.956304
Si Si3 0.211873 0.322533 0.623498
Si Si4 0.147599 0.825409 0.808409
Si Si5 0.831907 0.824844 0.405420
Si Si6 0.500000 0.500000 0.542370
Si Si7 0.607904 0.664699 0.553642
Si Si8 0.441636 0.828214 0.186429
O O1 0.270365 0.731174 0.617923
O O2 0.307400 0.774975 0.810613
O O3 0.369320 0.782705 0.639328
O O4 0.302779 0.000000 0.670733
O O5 0.500000 0.310858 0.898508
O O6 0.443663 0.500000 0.001155
O O7 0.393266 0.313737 0.888063
O O8 0.442424 0.212885 0.057326
O O9 0.207027 0.500000 0.609020
O O10 0.188780 0.273203 0.742185
O O11 0.181233 0.236633 0.526738
O O12 0.133544 0.796343 0.935611
O O13 0.094770 0.788916 0.745414
O O14 0.161785 0.000000 0.797066
O O15 0.817144 0.000000 0.396537
O O16 0.547012 0.629989 0.543100
O O17 0.628841 0.500000 0.589434
O O18 0.500000 0.816078 0.226756
O O19 0.423871 0.000000 0.202563
#
# Coordination Sequence:
#
# PCOD9374408 Si02
#       8
#     8   8   8   8   8   2   8   8
#     4  12  27  47  70  99 137 182 235 291 350 424
#     4   9  18  35  58  88 123 167 216 265 325 396
#     4  12  26  44  68  98 138 184 233 291 357 420
#     4  11  22  37  64  95 134 173 230 282 347 415
#     4  11  23  43  69  98 136 177 229 285 344 417
#     4   8  20  48  78 104 134 192 238 308 350 426
#     4   9  22  44  72  99 133 180 235 290 348 417
#     4  10  20  31  50  83 127 171 213 270 333 397
#
# _framework density 20.639747
#
# number of rings (size 3 to 8) (size 9 to 14) (size 15 to 20)
#    0.414    1.103    1.379    3.724    2.897    2.483 
#    1.241    0.345    0.000    0.000    0.000    0.000 
#    0.000    0.000    0.000    0.000    0.000    0.000 
#
# Total GULP energy -161524.905736 kJ/mol
# GULP energy per Si atom -5569.824336 kJ/mol
# Density = 2.059277 g / cm^3
# Si number density = 20.639747 Si / 1000 Ang^3
#
#
#
# Elastic Constant Matrix: (Units=GPa)
#
#
# Indices 1 2 3 4 5 6 
#
# 1 90.0631 10.6692 16.3007 0.0000 0.0000 0.0000
# 2 10.6692 58.8933 22.3018 0.0000 0.0000 0.0000
# 3 16.3007 22.3018 32.2660 0.0000 0.0000 0.0000
# 4 0.0000 0.0000 0.0000 20.2425 0.0000 0.0000
# 5 0.0000 0.0000 0.0000 0.0000 12.8996 0.0000
# 6 0.0000 0.0000 0.0000 0.0000 0.0000 21.9316
#
#
#
# Elastic Compliance Matrix: (Units=1/GPa)
#
#
# Indices 1 2 3 4 5 6 
#
# 1 0.012222 0.000168 -0.006291 0.000000 0.000000 0.000000
# 2 0.000168 0.023002 -0.015984 0.000000 0.000000 0.000000
# 3 -0.006291 -0.015984 0.045218 0.000000 0.000000 0.000000
# 4 0.000000 0.000000 0.000000 0.049401 0.000000 0.000000
# 5 0.000000 0.000000 0.000000 0.000000 0.077522 0.000000
# 6 0.000000 0.000000 0.000000 0.000000 0.000000 0.045596
#
#
# Mechanical properties :
#
#
# Convention : Reuss Voigt Hill
#
# Bulk Modulus (GPa) = 27.60171 31.08510 29.34340
# Shear Modulus (GPa) = 16.16813 19.81144 17.98979
#
# Velocity S-wave (km/s) = 2.80187 3.10154 2.95551
# Velocity P-wave (km/s) = 4.88564 5.28389 5.08866
#
# Compressibility (1/GPa) = 0.03622964
#
# Stress axis : x y z
#
# Youngs Moduli (GPa) = 81.81984 43.47434 22.11513
#
# Poissons Ratio (x) = -0.00730 0.13912
# Poissons Ratio (y) = -0.01374 0.35348
# Poissons Ratio (z) = 0.51470 0.69487
#
# Static dielectric constant tensor:
#      x y z
#    x 1.782410 0.000000 0.000000 
#    y 0.000000 1.705140 0.000000 
#    z 0.000000 0.000000 1.746460 
# 
# From -- ./inp_files/14868.got.cif
#   From: 2010.05.17/outbox.cif.g08.bks.cpg/sg44_8_cif.got.tgz:14868.got - 2010.06.03 19:37:08.
