data_PCOD9374684
_publ_section_title
;
Structure prediction by ZEFSAII (Michael W. Deem and Ramdas Pophale) SiO2 
 PCOD9374684
Probable space group: I M M 2
;
_chemical_formula_sum "Si O2"
_cell_formula_units_Z 56
_cell_length_a 9.650420
_cell_length_b 15.364153
_cell_length_c 18.545700
_cell_angle_alpha 90.000000
_cell_angle_beta 90.000000
_cell_angle_gamma 90.000000
_cell_volume 2749.780757
_symmetry_space_group_name_H-M "I M M 2"
_symmetry_group_IT_number 44
_symmetry_cell_setting 'orthorhombic'
loop_
_space_group_symop_operation_xyz
x,y,z
-x,-y,z
-x,y,z
x,-y,z
1/2+x,1/2+y,1/2+z
1/2-x,1/2-y,1/2+z
1/2-x,1/2+y,1/2+z
1/2+x,1/2-y,1/2+z
loop_
_atom_site_type_symbol
_atom_site_label
_atom_site_fract_x
_atom_site_fract_y
_atom_site_fract_z
Si Si1 0.157846 0.397339 0.307250
Si Si2 0.342784 0.648207 0.698879
Si Si3 0.658409 0.152188 0.653114
Si Si4 0.661062 0.394836 0.861173
Si Si5 0.345168 0.101298 0.071519
Si Si6 0.341014 0.607066 0.440349
Si Si7 0.839917 0.394667 0.997296
O O1 0.144518 0.500000 0.320661
O O2 0.217971 0.386712 0.226870
O O3 0.257046 0.363232 0.369760
O O4 0.000000 0.359813 0.309466
O O5 0.500000 0.611442 0.691975
O O6 0.347175 0.746004 0.669358
O O7 0.305220 0.644708 0.783017
O O8 0.230150 0.603842 0.648338
O O9 0.500000 0.116829 0.649073
O O10 0.720259 0.133795 0.574901
O O11 0.500000 0.376133 0.876386
O O12 0.675266 0.500000 0.853953
O O13 0.754749 0.365240 0.927654
O O14 0.500000 0.139866 0.072502
O O15 0.359879 0.000000 0.051879
O O16 0.242542 0.138208 0.010755
O O17 0.500000 0.636002 0.441395
O O18 0.344620 0.500000 0.440418
O O19 0.839232 0.500000 0.997049
O O20 0.000000 0.365212 0.992373
#
# Coordination Sequence:
#
# PCOD9374684 Si02
#       7
#     8   8   8   8   8   8   8
#     4   9  16  29  51  75 101 136 177 218 255 296
#     4  10  20  35  53  74 105 140 172 210 262 320
#     4   9  18  33  52  76 106 138 174 213 260 317
#     4   9  18  33  53  76 101 133 174 217 263 315
#     4  10  20  34  53  76 101 131 171 217 259 303
#     4   9  17  30  49  74 102 131 166 206 250 301
#     4   9  17  32  56  81 103 133 176 223 265 306
#
# _framework density 20.365259999999999
#
# number of rings (size 3 to 8) (size 9 to 14) (size 15 to 20)
#    0.000    2.714    0.000    1.714    0.000    5.429 
#    2.571    3.571    0.000    3.429    0.000    0.000 
#    0.000    0.000    0.000    0.000    0.000    0.000 
#
# Total GULP energy -156140.974113 kJ/mol
# GULP energy per Si atom -5576.463361 kJ/mol
# Density = 2.031891 g / cm^3
# Si number density = 20.365260 Si / 1000 Ang^3
#
#
#
# Elastic Constant Matrix: (Units=GPa)
#
#
# Indices 1 2 3 4 5 6 
#
# 1 116.5466 9.4000 105.5768 0.0000 0.0000 0.0000
# 2 9.4000 20.2256 10.0248 0.0000 0.0000 0.0000
# 3 105.5768 10.0248 210.6269 0.0000 0.0000 0.0000
# 4 0.0000 0.0000 0.0000 14.6290 0.0000 0.0000
# 5 0.0000 0.0000 0.0000 0.0000 28.2375 0.0000
# 6 0.0000 0.0000 0.0000 0.0000 0.0000 5.4175
#
#
#
# Elastic Compliance Matrix: (Units=1/GPa)
#
#
# Indices 1 2 3 4 5 6 
#
# 1 0.015960 -0.003536 -0.007832 0.000000 0.000000 0.000000
# 2 -0.003536 0.051420 -0.000675 0.000000 0.000000 0.000000
# 3 -0.007832 -0.000675 0.008705 0.000000 0.000000 0.000000
# 4 0.000000 0.000000 0.000000 0.068358 0.000000 0.000000
# 5 0.000000 0.000000 0.000000 0.000000 0.035414 0.000000
# 6 0.000000 0.000000 0.000000 0.000000 0.000000 0.184588
#
#
# Mechanical properties :
#
#
# Convention : Reuss Voigt Hill
#
# Bulk Modulus (GPa) = 19.23053 66.37804 42.80429
# Shear Modulus (GPa) = 12.31942 24.48330 18.40136
#
# Velocity S-wave (km/s) = 2.46219 3.47105 3.00920
# Velocity P-wave (km/s) = 4.18885 6.98060 5.75653
#
# Compressibility (1/GPa) = 0.05200064
#
# Stress axis : x y z
#
# Youngs Moduli (GPa) = 62.65693 19.44766 114.87025
#
# Poissons Ratio (x) = 0.06876 0.89962
# Poissons Ratio (y) = 0.22154 0.07755
# Poissons Ratio (z) = 0.49071 0.01313
#
# Static dielectric constant tensor:
#      x y z
#    x 1.721900 0.000000 0.000000 
#    y 0.000000 2.267700 0.000000 
#    z 0.000000 0.000000 1.720460 
# 
# From -- ./inp_files/20652.got.cif
#   From: 2010.05.17/outbox.cif.g08.bks.cpg/sg44_11_cif.got.tgz:20652.got - 2010.06.03 19:37:08.
