data_PCOD9374175
_publ_section_title
;
Structure prediction by ZEFSAII (Michael W. Deem and Ramdas Pophale) SiO2 
 PCOD9374175
Probable space group: I M M 2
;
_chemical_formula_sum "Si O2"
_cell_formula_units_Z 64
_cell_length_a 8.765226
_cell_length_b 20.035308
_cell_length_c 21.168724
_cell_angle_alpha 90.000000
_cell_angle_beta 90.000000
_cell_angle_gamma 90.000000
_cell_volume 3717.524352
_symmetry_space_group_name_H-M "I M M 2"
_symmetry_group_IT_number 44
_symmetry_cell_setting 'orthorhombic'
loop_
_space_group_symop_operation_xyz
x,y,z
-x,-y,z
-x,y,z
x,-y,z
1/2+x,1/2+y,1/2+z
1/2-x,1/2-y,1/2+z
1/2-x,1/2+y,1/2+z
1/2+x,1/2-y,1/2+z
loop_
_atom_site_type_symbol
_atom_site_label
_atom_site_fract_x
_atom_site_fract_y
_atom_site_fract_z
Si Si1 0.681770 0.075544 0.398800
Si Si2 0.683163 0.286627 0.702677
Si Si3 0.681139 0.709740 0.322914
Si Si4 0.819095 0.211776 0.441729
Si Si5 0.184499 0.713792 0.073856
Si Si6 0.185257 0.573892 0.129086
Si Si7 0.818460 0.925365 0.259714
Si Si8 0.316668 0.923800 0.777483
O O1 0.500000 0.082557 0.406062
O O2 0.763695 0.135288 0.434456
O O3 0.727523 0.082221 0.325099
O O4 0.724365 0.000000 0.418467
O O5 0.500000 0.277340 0.708619
O O6 0.759612 0.246293 0.759623
O O7 0.726951 0.258055 0.634600
O O8 0.717827 0.364595 0.713426
O O9 0.500000 0.713865 0.325893
O O10 0.751029 0.746949 0.383274
O O11 0.735901 0.633416 0.317094
O O12 0.757098 0.236984 0.508720
O O13 0.000000 0.214749 0.438912
O O14 0.234984 0.637794 0.089543
O O15 0.000000 0.714240 0.068163
O O16 0.238106 0.500000 0.108987
O O17 0.224284 0.583596 0.203075
O O18 0.000000 0.573124 0.126480
O O19 0.000000 0.920918 0.274604
O O20 0.789230 0.000000 0.234759
O O21 0.500000 0.915468 0.781628
O O22 0.279941 0.000000 0.795777
#
# Coordination Sequence:
#
# PCOD9374175 Si02
#       8
#     8   8   8   8   8   8   8   8
#     4  10  20  34  53  79 110 144 182 223 272 330
#     4  10  19  34  57  82 110 145 182 225 276 334
#     4  12  23  35  56  83 112 144 184 232 279 324
#     4  12  25  39  54  75 109 149 192 234 279 327
#     4  10  20  35  54  77 108 145 186 225 273 329
#     4   8  14  27  50  78 107 141 178 212 253 318
#     4   9  17  30  52  82 112 143 179 220 267 323
#     4   9  17  33  58  85 112 144 181 220 270 329
#
# _framework density 17.215758000000001
#
# number of rings (size 3 to 8) (size 9 to 14) (size 15 to 20)
#    0.000    2.000    2.500    3.375    0.000    2.000 
#    0.000    1.250    0.000    0.750    0.000    1.750 
#    0.000    0.000    0.000    0.000    0.000    0.000 
#
# Total GULP energy -178601.588588 kJ/mol
# GULP energy per Si atom -5581.299643 kJ/mol
# Density = 1.717657 g / cm^3
# Si number density = 17.215758 Si / 1000 Ang^3
#
#
#
# Elastic Constant Matrix: (Units=GPa)
#
#
# Indices 1 2 3 4 5 6 
#
# 1 53.6404 46.0101 48.3228 0.0000 0.0000 0.0000
# 2 46.0101 104.6644 63.8167 0.0000 0.0000 0.0000
# 3 48.3228 63.8167 115.9439 0.0000 0.0000 0.0000
# 4 0.0000 0.0000 0.0000 20.3511 0.0000 0.0000
# 5 0.0000 0.0000 0.0000 0.0000 22.0195 0.0000
# 6 0.0000 0.0000 0.0000 0.0000 0.0000 15.0068
#
#
#
# Elastic Compliance Matrix: (Units=1/GPa)
#
#
# Indices 1 2 3 4 5 6 
#
# 1 0.035611 -0.009941 -0.009370 0.000000 0.000000 0.000000
# 2 -0.009941 0.017156 -0.005299 0.000000 0.000000 0.000000
# 3 -0.009370 -0.005299 0.015447 0.000000 0.000000 0.000000
# 4 0.000000 0.000000 0.000000 0.049137 0.000000 0.000000
# 5 0.000000 0.000000 0.000000 0.000000 0.045414 0.000000
# 6 0.000000 0.000000 0.000000 0.000000 0.000000 0.066636
#
#
# Mechanical properties :
#
#
# Convention : Reuss Voigt Hill
#
# Bulk Modulus (GPa) = 52.65330 65.61642 59.13486
# Shear Modulus (GPa) = 17.54669 19.21541 18.38105
#
# Velocity S-wave (km/s) = 3.19599 3.34451 3.27109
# Velocity P-wave (km/s) = 6.65356 7.28775 6.97786
#
# Compressibility (1/GPa) = 0.01899216
#
# Stress axis : x y z
#
# Youngs Moduli (GPa) = 28.08117 58.28974 64.73793
#
# Poissons Ratio (x) = 0.57948 0.60660
# Poissons Ratio (y) = 0.27916 0.34307
# Poissons Ratio (z) = 0.26312 0.30890
#
# Static dielectric constant tensor:
#      x y z
#    x 1.576870 0.000000 0.000000 
#    y 0.000000 1.607080 0.000000 
#    z 0.000000 0.000000 1.563730 
# 
# From -- ./inp_files/20803.got.cif
#   From: 2010.05.17/outbox.cif.g08.bks.cpg/sg44_11_cif.got.tgz:20803.got - 2010.06.03 19:37:08.
