data_PCOD9374510
_publ_section_title
;
Structure prediction by ZEFSAII (Michael W. Deem and Ramdas Pophale) SiO2 
 PCOD9374510
Probable space group: I M M 2
;
_chemical_formula_sum "Si O2"
_cell_formula_units_Z 64
_cell_length_a 7.414071
_cell_length_b 17.141710
_cell_length_c 23.288137
_cell_angle_alpha 90.000000
_cell_angle_beta 90.000000
_cell_angle_gamma 90.000000
_cell_volume 2959.685955
_symmetry_space_group_name_H-M "I M M 2"
_symmetry_group_IT_number 44
_symmetry_cell_setting 'orthorhombic'
loop_
_space_group_symop_operation_xyz
x,y,z
-x,-y,z
-x,y,z
x,-y,z
1/2+x,1/2+y,1/2+z
1/2-x,1/2-y,1/2+z
1/2-x,1/2+y,1/2+z
1/2+x,1/2-y,1/2+z
loop_
_atom_site_type_symbol
_atom_site_label
_atom_site_fract_x
_atom_site_fract_y
_atom_site_fract_z
Si Si1 0.791276 0.246340 0.120690
Si Si2 0.719201 0.585009 0.829519
Si Si3 0.216908 0.087978 0.461501
Si Si4 0.281470 0.416248 0.158376
Si Si5 0.779652 0.912582 0.915936
Si Si6 0.207495 0.111754 0.786975
Si Si7 0.284569 0.732057 0.496100
Si Si8 0.780354 0.780540 0.247284
O O1 0.785074 0.340656 0.125192
O O2 0.714201 0.219519 0.181754
O O3 0.000000 0.222060 0.120594
O O4 0.711986 0.218610 0.060618
O O5 0.500000 0.589190 0.831373
O O6 0.771176 0.500000 0.809266
O O7 0.777391 0.593974 0.895107
O O8 0.781446 0.648050 0.784932
O O9 0.258328 0.174830 0.485222
O O10 0.000000 0.083661 0.464149
O O11 0.278017 0.000000 0.482167
O O12 0.500000 0.410896 0.159228
O O13 0.231802 0.500000 0.133093
O O14 0.217204 0.414399 0.224954
O O15 0.716826 0.909029 0.849258
O O16 0.719438 0.835147 0.951438
O O17 0.000000 0.909407 0.914651
O O18 0.731929 0.000000 0.938369
O O19 0.215943 0.204167 0.780072
O O20 0.000000 0.085517 0.787281
O O21 0.500000 0.722111 0.496956
O O22 0.000000 0.777475 0.245768
#
# Coordination Sequence:
#
# PCOD9374510 Si02
#       8
#     8   8   8   8   8   8   8   8
#     4   9  19  32  43  61  90 120 150 183 219 260
#     4   8  14  26  45  68  90 111 140 181 227 271
#     4   9  18  32  50  72  96 121 151 189 233 280
#     4   9  17  29  46  68  90 112 143 182 221 266
#     4   9  17  30  49  71  94 122 155 191 233 277
#     4   9  16  27  46  70  92 113 141 181 227 272
#     4  10  20  33  48  67  94 127 160 193 227 266
#     4   9  16  28  46  65  88 118 147 178 221 270
#
# _framework density 21.623913999999999
#
# number of rings (size 3 to 8) (size 9 to 14) (size 15 to 20)
#    0.000    3.000    0.000    1.875    0.000    3.000 
#    0.000    3.125    0.000    7.125    0.000    0.000 
#    0.000    3.000    0.000    0.000    0.000    0.000 
#
# Total GULP energy -178260.376739 kJ/mol
# GULP energy per Si atom -5570.636773 kJ/mol
# Density = 2.157470 g / cm^3
# Si number density = 21.623914 Si / 1000 Ang^3
#
#
#
# Elastic Constant Matrix: (Units=GPa)
#
#
# Indices 1 2 3 4 5 6 
#
# 1 73.9761 -0.6793 3.8279 0.0000 0.0000 0.0000
# 2 -0.6793 125.5376 66.3553 0.0000 0.0000 0.0000
# 3 3.8279 66.3553 105.4106 0.0000 0.0000 0.0000
# 4 0.0000 0.0000 0.0000 -10.6526 0.0000 0.0000
# 5 0.0000 0.0000 0.0000 0.0000 0.4394 0.0000
# 6 0.0000 0.0000 0.0000 0.0000 0.0000 11.2807
#
#
#
# Elastic Compliance Matrix: (Units=1/GPa)
#
#
# Indices 1 2 3 4 5 6 
#
# 1 0.013564 0.000500 -0.000807 0.000000 0.000000 0.000000
# 2 0.000500 0.011956 -0.007545 0.000000 0.000000 0.000000
# 3 -0.000807 -0.007545 0.014265 0.000000 0.000000 0.000000
# 4 0.000000 0.000000 0.000000 -0.093874 0.000000 0.000000
# 5 0.000000 0.000000 0.000000 0.000000 2.275791 0.000000
# 6 0.000000 0.000000 0.000000 0.000000 0.000000 0.088647
#
#
# Mechanical properties :
#
#
# Convention : Reuss Voigt Hill
#
# Bulk Modulus (GPa) = 41.52445 49.32577 45.42511
# Shear Modulus (GPa) = 2.14217 15.90819 9.02518
#
# Velocity S-wave (km/s) = 0.99639 2.71528 2.04518
# Velocity P-wave (km/s) = 4.53524 5.71757 5.16038
#
# Compressibility (1/GPa) = 0.02408220
#
# Stress axis : x y z
#
# Youngs Moduli (GPa) = 73.72315 83.63812 70.10024
#
# Poissons Ratio (x) = -0.04183 0.05660
# Poissons Ratio (y) = -0.03688 0.52888
# Poissons Ratio (z) = 0.05953 0.63101
#
# Static dielectric constant tensor:
#      x y z
#    x 1.848080 0.000000 0.000000 
#    y 0.000000 1.805100 0.000000 
#    z 0.000000 0.000000 1.789060 
# 
# From -- ./inp_files/25077.got.cif
#   From: 2010.05.17/outbox.cif.g08.bks.cpg/sg44_13_cif.got.tgz:25077.got - 2010.06.03 19:37:08.
