data_PCOD9374447
_publ_section_title
;
Structure prediction by ZEFSAII (Michael W. Deem and Ramdas Pophale) SiO2 
 PCOD9374447
Probable space group: I M M 2
;
_chemical_formula_sum "Si O2"
_cell_formula_units_Z 64
_cell_length_a 25.157943
_cell_length_b 8.502136
_cell_length_c 12.832252
_cell_angle_alpha 90.000000
_cell_angle_beta 90.000000
_cell_angle_gamma 90.000000
_cell_volume 2744.770619
_symmetry_space_group_name_H-M "I M M 2"
_symmetry_group_IT_number 44
_symmetry_cell_setting 'orthorhombic'
loop_
_space_group_symop_operation_xyz
x,y,z
-x,-y,z
-x,y,z
x,-y,z
1/2+x,1/2+y,1/2+z
1/2-x,1/2-y,1/2+z
1/2-x,1/2+y,1/2+z
1/2+x,1/2-y,1/2+z
loop_
_atom_site_type_symbol
_atom_site_label
_atom_site_fract_x
_atom_site_fract_y
_atom_site_fract_z
Si Si1 0.786146 0.814567 0.807620
Si Si2 0.558786 0.683591 0.757334
Si Si3 0.562904 0.174810 0.533172
Si Si4 0.830479 0.312552 0.251048
Si Si5 0.326014 0.188021 0.096816
Si Si6 0.941416 0.312804 0.593084
Si Si7 0.786871 0.685891 0.025407
Si Si8 0.937165 0.823975 0.821297
O O1 0.724728 0.756547 0.801320
O O2 0.820157 0.725817 0.720286
O O3 0.786311 0.000000 0.782411
O O4 0.802973 0.782969 0.924698
O O5 0.500000 0.751241 0.786546
O O6 0.557549 0.500000 0.779895
O O7 0.565118 0.713839 0.633285
O O8 0.614136 0.753167 0.797670
O O9 0.500000 0.155692 0.516667
O O10 0.584260 0.241182 0.424803
O O11 0.584407 0.000000 0.557877
O O12 0.831492 0.500000 0.260851
O O13 0.821040 0.274317 0.128433
O O14 0.383564 0.243756 0.054152
O O15 0.274421 0.271640 0.050165
O O16 0.321953 0.000000 0.080380
O O17 0.942742 0.500000 0.575931
O O18 0.936385 0.277233 0.716376
O O19 0.000000 0.248823 0.559526
O O20 0.791040 0.500000 0.006023
O O21 0.000000 0.844377 0.840907
O O22 0.914417 0.000000 0.805087
#
# Coordination Sequence:
#
# PCOD9374447 Si02
#       8
#     8   8   8   8   8   8   8   8
#     4  10  21  38  60  85 112 142 181 230 282 333
#     4  10  20  32  48  73 104 138 176 218 265 317
#     4   9  16  26  40  57  83 124 169 209 251 303
#     4   9  20  37  56  81 111 143 182 224 268 327
#     4  10  20  35  57  84 113 146 186 229 275 328
#     4   9  18  32  49  71 103 143 181 216 259 316
#     4  10  21  38  60  85 112 142 181 230 282 333
#     4   9  16  25  38  58  86 122 166 213 256 301
#
# _framework density 23.317066000000001
#
# number of rings (size 3 to 8) (size 9 to 14) (size 15 to 20)
#    0.000    2.500    0.000    3.000    0.000    8.750 
#    0.000    1.250    0.000    0.750    0.000    1.750 
#    0.000    0.000    0.000    0.000    0.000    0.000 
#
# Total GULP energy -178585.871825 kJ/mol
# GULP energy per Si atom -5580.808495 kJ/mol
# Density = 2.326400 g / cm^3
# Si number density = 23.317066 Si / 1000 Ang^3
#
#
#
# Elastic Constant Matrix: (Units=GPa)
#
#
# Indices 1 2 3 4 5 6 
#
# 1 220.1611 14.4665 -3.6581 0.0000 0.0000 0.0000
# 2 14.4665 28.1486 -7.8706 0.0000 0.0000 0.0000
# 3 -3.6581 -7.8706 49.3180 0.0000 0.0000 0.0000
# 4 0.0000 0.0000 0.0000 15.1714 0.0000 0.0000
# 5 0.0000 0.0000 0.0000 0.0000 -16.8485 0.0000
# 6 0.0000 0.0000 0.0000 0.0000 0.0000 22.3441
#
#
#
# Elastic Compliance Matrix: (Units=1/GPa)
#
#
# Indices 1 2 3 4 5 6 
#
# 1 0.004701 -0.002427 -0.000039 0.000000 0.000000 0.000000
# 2 -0.002427 0.038438 0.005954 0.000000 0.000000 0.000000
# 3 -0.000039 0.005954 0.021224 0.000000 0.000000 0.000000
# 4 0.000000 0.000000 0.000000 0.065913 0.000000 0.000000
# 5 0.000000 0.000000 0.000000 0.000000 -0.059352 0.000000
# 6 0.000000 0.000000 0.000000 0.000000 0.000000 0.044755
#
#
# Mechanical properties :
#
#
# Convention : Reuss Voigt Hill
#
# Bulk Modulus (GPa) = 14.01728 33.72257 23.86992
# Shear Modulus (GPa) = 37.74138 23.77940 30.76039
#
# Velocity S-wave (km/s) = 4.02757 3.19694 3.63605
# Velocity P-wave (km/s) = 5.25862 5.30295 5.28083
#
# Compressibility (1/GPa) = 0.07134053
#
# Stress axis : x y z
#
# Youngs Moduli (GPa) = 212.72315 26.01605 47.11658
#
# Poissons Ratio (x) = 0.06313 0.00182
# Poissons Ratio (y) = 0.51623 -0.28054
# Poissons Ratio (z) = 0.00821 -0.15491
#
# Static dielectric constant tensor:
#      x y z
#    x 1.976530 0.000000 0.000000 
#    y 0.000000 1.806890 0.000000 
#    z 0.000000 0.000000 1.863070 
# 
# From -- ./inp_files/19487.got.cif
#   From: 2010.05.17/outbox.cif.g08.bks.cpg/sg44_10_cif.got.tgz:19487.got - 2010.06.03 19:37:08.
