data_PCOD9374892
_publ_section_title
;
Structure prediction by ZEFSAII (Michael W. Deem and Ramdas Pophale) SiO2 
 PCOD9374892
Probable space group: I M M 2
;
_chemical_formula_sum "Si O2"
_cell_formula_units_Z 48
_cell_length_a 8.911783
_cell_length_b 7.977662
_cell_length_c 35.010048
_cell_angle_alpha 90.000000
_cell_angle_beta 90.000000
_cell_angle_gamma 90.000000
_cell_volume 2489.046105
_symmetry_space_group_name_H-M "I M M 2"
_symmetry_group_IT_number 44
_symmetry_cell_setting 'orthorhombic'
loop_
_space_group_symop_operation_xyz
x,y,z
-x,-y,z
-x,y,z
x,-y,z
1/2+x,1/2+y,1/2+z
1/2-x,1/2-y,1/2+z
1/2-x,1/2+y,1/2+z
1/2+x,1/2-y,1/2+z
loop_
_atom_site_type_symbol
_atom_site_label
_atom_site_fract_x
_atom_site_fract_y
_atom_site_fract_z
Si Si1 0.179316 0.697893 0.870360
Si Si2 0.680293 0.816116 0.186837
Si Si3 0.679749 0.000000 0.822212
Si Si4 0.330117 0.298667 0.950076
Si Si5 0.682579 0.500000 0.238109
Si Si6 0.175100 0.697370 0.110263
Si Si7 0.671274 0.301108 0.527755
O O1 0.220057 0.500000 0.863749
O O2 0.228762 0.743406 0.913546
O O3 0.000000 0.711067 0.866413
O O4 0.258297 0.832476 0.843057
O O5 0.500000 0.810599 0.185481
O O6 0.728269 0.664218 0.214000
O O7 0.740607 0.789851 0.144145
O O8 0.726776 0.000000 0.201030
O O9 0.500000 0.000000 0.823130
O O10 0.742434 0.000000 0.779269
O O11 0.500000 0.236697 0.944270
O O12 0.334016 0.500000 0.951888
O O13 0.263947 0.237896 0.990013
O O14 0.500000 0.500000 0.241930
O O15 0.182801 0.500000 0.118297
O O16 0.233400 0.728308 0.067419
O O17 0.000000 0.749610 0.110079
O O18 0.500000 0.236666 0.522715
O O19 0.665192 0.500000 0.532624
#
# Coordination Sequence:
#
# PCOD9374892 Si02
#       7
#     8   8   4   8   4   8   8
#     4  10  22  42  68  94 123 165 212 256 307 373
#     4  10  21  38  62  89 118 156 199 246 301 359
#     4  12  26  42  66  98 132 164 202 258 318 378
#     4  10  21  37  57  83 116 154 198 251 309 363
#     4  10  22  42  62  88 124 160 204 252 300 370
#     4  10  20  35  57  83 114 154 202 252 305 362
#     4  10  21  35  52  78 113 155 202 251 300 359
#
# _framework density 19.284496000000001
#
# number of rings (size 3 to 8) (size 9 to 14) (size 15 to 20)
#    0.000    1.833    0.833    2.750    1.167    6.000 
#    0.000    1.667    0.000    0.000    0.000    0.000 
#    0.000    0.000    0.000    0.000    0.000    0.000 
#
# Total GULP energy -134032.330838 kJ/mol
# GULP energy per Si atom -5584.680452 kJ/mol
# Density = 1.924060 g / cm^3
# Si number density = 19.284496 Si / 1000 Ang^3
#
#
#
# Elastic Constant Matrix: (Units=GPa)
#
#
# Indices 1 2 3 4 5 6 
#
# 1 55.9196 43.3253 40.2642 0.0000 0.0000 0.0000
# 2 43.3253 113.5589 76.5238 0.0000 0.0000 0.0000
# 3 40.2642 76.5238 140.4547 0.0000 0.0000 0.0000
# 4 0.0000 0.0000 0.0000 1.2096 0.0000 0.0000
# 5 0.0000 0.0000 0.0000 0.0000 34.4274 0.0000
# 6 0.0000 0.0000 0.0000 0.0000 0.0000 21.8150
#
#
#
# Elastic Compliance Matrix: (Units=1/GPa)
#
#
# Indices 1 2 3 4 5 6 
#
# 1 0.026308 -0.007829 -0.003276 0.000000 0.000000 0.000000
# 2 -0.007829 0.016245 -0.006606 0.000000 0.000000 0.000000
# 3 -0.003276 -0.006606 0.011658 0.000000 0.000000 0.000000
# 4 0.000000 0.000000 0.000000 0.826709 0.000000 0.000000
# 5 0.000000 0.000000 0.000000 0.000000 0.029047 0.000000
# 6 0.000000 0.000000 0.000000 0.000000 0.000000 0.045840
#
#
# Mechanical properties :
#
#
# Convention : Reuss Voigt Hill
#
# Bulk Modulus (GPa) = 53.22687 70.01775 61.62231
# Shear Modulus (GPa) = 5.01257 21.47840 13.24549
#
# Velocity S-wave (km/s) = 1.61398 3.34093 2.62362
# Velocity P-wave (km/s) = 5.57979 7.16024 6.41884
#
# Compressibility (1/GPa) = 0.01878750
#
# Stress axis : x y z
#
# Youngs Moduli (GPa) = 38.01170 61.55817 85.77743
#
# Poissons Ratio (x) = 0.48197 0.28100
# Poissons Ratio (y) = 0.29761 0.56666
# Poissons Ratio (z) = 0.12452 0.40666
#
# Static dielectric constant tensor:
#      x y z
#    x 1.666330 0.000000 0.000000 
#    y 0.000000 1.700370 0.000000 
#    z 0.000000 0.000000 1.639270 
# 
# From -- ./inp_files/26956.got.cif
#   From: 2010.05.17/outbox.cif.g08.bks.cpg/sg44_14_cif.got.tgz:26956.got - 2010.06.03 19:37:08.
