data_PCOD9374098
_publ_section_title
;
Structure prediction by ZEFSAII (Michael W. Deem and Ramdas Pophale) SiO2 
 PCOD9374098
Probable space group: I M M 2
;
_chemical_formula_sum "Si O2"
_cell_formula_units_Z 56
_cell_length_a 23.661225
_cell_length_b 8.277066
_cell_length_c 14.520963
_cell_angle_alpha 90.000000
_cell_angle_beta 90.000000
_cell_angle_gamma 90.000000
_cell_volume 2843.865564
_symmetry_space_group_name_H-M "I M M 2"
_symmetry_group_IT_number 44
_symmetry_cell_setting 'orthorhombic'
loop_
_space_group_symop_operation_xyz
x,y,z
-x,-y,z
-x,y,z
x,-y,z
1/2+x,1/2+y,1/2+z
1/2-x,1/2-y,1/2+z
1/2-x,1/2+y,1/2+z
1/2+x,1/2-y,1/2+z
loop_
_atom_site_type_symbol
_atom_site_label
_atom_site_fract_x
_atom_site_fract_y
_atom_site_fract_z
Si Si1 0.110189 0.308170 0.331590
Si Si2 0.731320 0.814387 0.488065
Si Si3 0.646925 0.306065 0.031120
Si Si4 0.500000 0.691723 0.725073
Si Si5 0.115474 0.304673 0.924492
Si Si6 0.765076 0.309524 0.295689
Si Si7 0.845062 0.693170 0.721277
Si Si8 0.000000 0.193438 0.015779
O O1 0.105212 0.500000 0.335656
O O2 0.117113 0.246465 0.436581
O O3 0.055970 0.241897 0.279859
O O4 0.169332 0.271037 0.278548
O O5 0.788463 0.737502 0.527066
O O6 0.668134 0.743966 0.487977
O O7 0.745977 0.805141 0.379357
O O8 0.728174 0.000000 0.520738
O O9 0.649290 0.500000 0.030894
O O10 0.623175 0.245928 0.128372
O O11 0.500000 0.500000 0.718554
O O12 0.500000 0.757670 0.620773
O O13 0.118421 0.500000 0.926275
O O14 0.125747 0.255732 0.817816
O O15 0.056095 0.250173 0.963659
O O16 0.762388 0.500000 0.321721
O O17 0.716957 0.276329 0.221404
O O18 0.839267 0.500000 0.721995
O O19 0.000000 0.000000 0.017903
#
# Coordination Sequence:
#
# PCOD9374098 Si02
#       8
#     8   8   8   4   8   8   8   4
#     4  10  21  38  59  83 112 148 189 232 278 332
#     4   8  16  31  51  77 108 142 178 216 263 318
#     4  10  19  33  56  86 119 151 183 224 275 332
#     4  11  25  43  60  81 108 141 183 232 286 335
#     4   9  19  37  58  78 107 147 186 226 272 323
#     4   9  17  30  51  79 109 142 180 221 269 321
#     4  10  20  34  54  83 117 151 187 226 273 331
#     4  11  25  41  58  81 106 135 179 234 284 329
#
# _framework density 19.691507999999999
#
# number of rings (size 3 to 8) (size 9 to 14) (size 15 to 20)
#    0.000    2.429    0.000    3.000    0.000    7.429 
#    0.000    5.000    0.000    2.571    0.000    0.000 
#    0.000    0.000    0.000    0.000    0.000    0.000 
#
# Total GULP energy -156007.722964 kJ/mol
# GULP energy per Si atom -5571.704392 kJ/mol
# Density = 1.964669 g / cm^3
# Si number density = 19.691508 Si / 1000 Ang^3
#
#
#
# Elastic Constant Matrix: (Units=GPa)
#
#
# Indices 1 2 3 4 5 6 
#
# 1 142.3295 27.7988 61.5043 0.0000 0.0000 0.0000
# 2 27.7988 44.6762 17.1072 0.0000 0.0000 0.0000
# 3 61.5043 17.1072 123.5708 0.0000 0.0000 0.0000
# 4 0.0000 0.0000 0.0000 23.7027 0.0000 0.0000
# 5 0.0000 0.0000 0.0000 0.0000 -5.0884 0.0000
# 6 0.0000 0.0000 0.0000 0.0000 0.0000 23.8995
#
#
#
# Elastic Compliance Matrix: (Units=1/GPa)
#
#
# Indices 1 2 3 4 5 6 
#
# 1 0.009716 -0.004428 -0.004223 0.000000 0.000000 0.000000
# 2 -0.004428 0.025655 -0.001348 0.000000 0.000000 0.000000
# 3 -0.004223 -0.001348 0.010381 0.000000 0.000000 0.000000
# 4 0.000000 0.000000 0.000000 0.042189 0.000000 0.000000
# 5 0.000000 0.000000 0.000000 0.000000 -0.196527 0.000000
# 6 0.000000 0.000000 0.000000 0.000000 0.000000 0.041842
#
#
# Mechanical properties :
#
#
# Convention : Reuss Voigt Hill
#
# Bulk Modulus (GPa) = 38.82892 58.15524 48.49208
# Shear Modulus (GPa) = -131.01799 22.11384 -54.45207
#
# Velocity S-wave (km/s) = -8.16576 3.35478 -5.26428
# Velocity P-wave (km/s) = 8.31534 6.67857 3.50297
#
# Compressibility (1/GPa) = 0.02575400
#
# Stress axis : x y z
#
# Youngs Moduli (GPa) = 102.92747 38.97915 96.33179
#
# Poissons Ratio (x) = 0.17262 0.40677
# Poissons Ratio (y) = 0.45580 0.12981
# Poissons Ratio (z) = 0.43462 0.05253
#
# Static dielectric constant tensor:
#      x y z
#    x 1.887950 0.000000 0.000000 
#    y 0.000000 1.690950 0.000000 
#    z 0.000000 0.000000 1.721170 
# 
# From -- ./inp_files/19237.got.cif
#   From: 2010.05.17/outbox.cif.g08.bks.cpg/sg44_10_cif.got.tgz:19237.got - 2010.06.03 19:37:08.
