data_PCOD9374376
_publ_section_title
;
Structure prediction by ZEFSAII (Michael W. Deem and Ramdas Pophale) SiO2 
 PCOD9374376
Probable space group: I M M 2
;
_chemical_formula_sum "Si O2"
_cell_formula_units_Z 34
_cell_length_a 7.580297
_cell_length_b 23.020791
_cell_length_c 8.700277
_cell_angle_alpha 90.000000
_cell_angle_beta 90.000000
_cell_angle_gamma 90.000000
_cell_volume 1518.236904
_symmetry_space_group_name_H-M "I M M 2"
_symmetry_group_IT_number 44
_symmetry_cell_setting 'orthorhombic'
loop_
_space_group_symop_operation_xyz
x,y,z
-x,-y,z
-x,y,z
x,-y,z
1/2+x,1/2+y,1/2+z
1/2-x,1/2-y,1/2+z
1/2-x,1/2+y,1/2+z
1/2+x,1/2-y,1/2+z
loop_
_atom_site_type_symbol
_atom_site_label
_atom_site_fract_x
_atom_site_fract_y
_atom_site_fract_z
Si Si1 0.293166 0.174209 0.417040
Si Si2 0.801213 0.086297 0.955086
Si Si3 0.788004 0.707737 0.581479
Si Si4 0.214511 0.436016 0.101336
Si Si5 0.500000 0.000000 0.061555
O O1 0.500000 0.162013 0.392277
O O2 0.277046 0.229971 0.525821
O O3 0.220062 0.191275 0.250978
O O4 0.219345 0.116812 0.497740
O O5 0.777909 0.069887 0.776236
O O6 0.000000 0.072871 0.004102
O O7 0.769008 0.155082 0.972157
O O8 0.654748 0.050735 0.048381
O O9 0.000000 0.710663 0.582988
O O10 0.261839 0.500000 0.041633
O O11 0.000000 0.433455 0.109054
#
# Coordination Sequence:
#
# PCOD9374376 Si02
#       5
#     8   8   8   8   2
#     4  10  23  40  64  93 128 175 223 271 332 390
#     4  12  23  40  69  98 132 172 221 263 320 391
#     4  11  23  42  61  94 130 170 219 277 329 385
#     4  10  19  39  63  94 132 174 217 270 324 384
#     4  12  22  44  64 100 136 176 208 270 316 390
#
# _framework density 22.394393999999998
#
# number of rings (size 3 to 8) (size 9 to 14) (size 15 to 20)
#    0.000    1.176    3.529    2.471    0.000    6.588 
#    2.118    0.000    0.000    0.000    0.000    0.000 
#    0.000    0.000    0.000    0.000    0.000    0.000 
#
# Total GULP energy -94843.988075 kJ/mol
# GULP energy per Si atom -5579.058122 kJ/mol
# Density = 2.234342 g / cm^3
# Si number density = 22.394394 Si / 1000 Ang^3
#
#
#
# Elastic Constant Matrix: (Units=GPa)
#
#
# Indices 1 2 3 4 5 6 
#
# 1 89.3414 -13.6365 -7.3376 0.0001 0.0001 -0.0001
# 2 -13.6365 172.2635 39.4786 -0.0003 0.0001 0.0000
# 3 -7.3376 39.4786 53.3921 0.0007 0.0002 -0.0004
# 4 0.0001 -0.0003 0.0007 27.7815 -0.0002 0.0000
# 5 0.0001 0.0001 0.0002 -0.0002 10.3969 0.0002
# 6 -0.0001 0.0000 -0.0004 0.0000 0.0002 27.5789
#
#
#
# Elastic Compliance Matrix: (Units=1/GPa)
#
#
# Indices 1 2 3 4 5 6 
#
# 1 0.011382 0.000653 0.001081 0.000000 0.000000 0.000000
# 2 0.000653 0.007027 -0.005106 0.000000 0.000000 0.000000
# 3 0.001081 -0.005106 0.022653 -0.000001 0.000000 0.000000
# 4 0.000000 0.000000 -0.000001 0.035995 0.000001 0.000000
# 5 0.000000 0.000000 0.000000 0.000001 0.096182 -0.000001
# 6 0.000000 0.000000 0.000000 0.000000 -0.000001 0.036260
#
#
# Mechanical properties :
#
#
# Convention : Reuss Voigt Hill
#
# Bulk Modulus (GPa) = 29.13879 39.11176 34.12527
# Shear Modulus (GPa) = 21.96049 32.91763 27.43906
#
# Velocity S-wave (km/s) = 3.13489 3.83809 3.50418
# Velocity P-wave (km/s) = 5.11305 6.09460 5.62528
#
# Compressibility (1/GPa) = 0.03431852
#
# Stress axis : x y z
#
# Youngs Moduli (GPa) = 87.86179 142.30945 44.14358
#
# Poissons Ratio (x) = -0.09296 -0.04773
# Poissons Ratio (y) = -0.05739 0.22540
# Poissons Ratio (z) = -0.09499 0.72663
#
# Static dielectric constant tensor:
#      x y z
#    x 1.845490 0.000000 0.000000 
#    y 0.000000 1.808830 0.000000 
#    z 0.000000 0.000000 1.822020 
# 
# From -- ./inp_files/4279.got.cif
#   From: 2010.05.17/outbox.cif.g08.bks.cpg/sg44_3_cif.got.tgz:4279.got - 2010.06.03 19:37:08.
