data_PCOD9374547
_publ_section_title
;
Structure prediction by ZEFSAII (Michael W. Deem and Ramdas Pophale) SiO2 
 PCOD9374547
Probable space group: I M M 2
;
_chemical_formula_sum "Si O2"
_cell_formula_units_Z 64
_cell_length_a 7.947415
_cell_length_b 20.028342
_cell_length_c 21.436643
_cell_angle_alpha 90.000000
_cell_angle_beta 90.000000
_cell_angle_gamma 90.000000
_cell_volume 3412.146473
_symmetry_space_group_name_H-M "I M M 2"
_symmetry_group_IT_number 44
_symmetry_cell_setting 'orthorhombic'
loop_
_space_group_symop_operation_xyz
x,y,z
-x,-y,z
-x,y,z
x,-y,z
1/2+x,1/2+y,1/2+z
1/2-x,1/2-y,1/2+z
1/2-x,1/2+y,1/2+z
1/2+x,1/2-y,1/2+z
loop_
_atom_site_type_symbol
_atom_site_label
_atom_site_fract_x
_atom_site_fract_y
_atom_site_fract_z
Si Si1 0.195705 0.574205 0.667210
Si Si2 0.704724 0.926533 0.802729
Si Si3 0.305041 0.574979 0.527727
Si Si4 0.303562 0.217105 0.990665
Si Si5 0.698102 0.284396 0.116040
Si Si6 0.296688 0.925340 0.656485
Si Si7 0.303234 0.296970 0.735898
Si Si8 0.292711 0.785806 0.854546
O O1 0.236904 0.500000 0.691239
O O2 0.294480 0.584626 0.602698
O O3 0.224795 0.633007 0.715656
O O4 0.000000 0.575190 0.648891
O O5 0.500000 0.927053 0.804685
O O6 0.750467 0.918585 0.729694
O O7 0.761693 0.861765 0.840066
O O8 0.762391 0.000000 0.824197
O O9 0.500000 0.577775 0.509072
O O10 0.239480 0.500000 0.514505
O O11 0.211064 0.637191 0.497747
O O12 0.500000 0.235575 0.990005
O O13 0.233607 0.235603 0.922965
O O14 0.231454 0.251694 0.052614
O O15 0.500000 0.267810 0.120424
O O16 0.722663 0.363694 0.118757
O O17 0.781308 0.252676 0.177277
O O18 0.500000 0.921324 0.653719
O O19 0.246663 0.000000 0.636255
O O20 0.500000 0.308693 0.745425
O O21 0.236361 0.261425 0.798047
O O22 0.500000 0.786149 0.854265
#
# Coordination Sequence:
#
# PCOD9374547 Si02
#       8
#     8   8   8   8   8   8   8   8
#     4  10  20  34  53  78 107 136 170 215 267 319
#     4   8  13  24  45  72  98 124 161 207 248 291
#     4  10  20  33  50  74 105 141 179 215 254 305
#     4  10  21  35  51  74 105 140 176 213 258 311
#     4  11  21  32  50  77 108 138 170 211 259 312
#     4   9  17  31  53  78 101 127 167 216 259 301
#     4  11  20  33  56  80 103 133 176 224 261 305
#     4   9  18  32  50  75 103 135 175 214 255 306
#
# _framework density 18.756523000000001
#
# number of rings (size 3 to 8) (size 9 to 14) (size 15 to 20)
#    0.000    2.250    2.500    2.250    0.000    2.750 
#    0.000    2.500    0.000    0.750    0.000    5.250 
#    0.000    0.000    0.000    0.000    0.000    0.000 
#
# Total GULP energy -178531.254367 kJ/mol
# GULP energy per Si atom -5579.101699 kJ/mol
# Density = 1.871383 g / cm^3
# Si number density = 18.756523 Si / 1000 Ang^3
#
#
#
# Elastic Constant Matrix: (Units=GPa)
#
#
# Indices 1 2 3 4 5 6 
#
# 1 18.5214 -7.3779 -4.4143 0.0000 0.0000 0.0000
# 2 -7.3779 89.1049 40.7047 0.0000 0.0000 0.0000
# 3 -4.4143 40.7047 101.1438 0.0000 0.0000 0.0000
# 4 0.0000 0.0000 0.0000 20.2160 0.0000 0.0000
# 5 0.0000 0.0000 0.0000 0.0000 7.5501 0.0000
# 6 0.0000 0.0000 0.0000 0.0000 0.0000 22.4898
#
#
#
# Elastic Compliance Matrix: (Units=1/GPa)
#
#
# Indices 1 2 3 4 5 6 
#
# 1 0.055874 0.004304 0.000707 0.000000 0.000000 0.000000
# 2 0.004304 0.014082 -0.005479 0.000000 0.000000 0.000000
# 3 0.000707 -0.005479 0.012123 0.000000 0.000000 0.000000
# 4 0.000000 0.000000 0.000000 0.049466 0.000000 0.000000
# 5 0.000000 0.000000 0.000000 0.000000 0.132449 0.000000
# 6 0.000000 0.000000 0.000000 0.000000 0.000000 0.044465
#
#
# Mechanical properties :
#
#
# Convention : Reuss Voigt Hill
#
# Bulk Modulus (GPa) = 12.32423 29.62168 20.97296
# Shear Modulus (GPa) = 14.86132 22.04168 18.45150
#
# Velocity S-wave (km/s) = 2.81789 3.43176 3.13986
# Velocity P-wave (km/s) = 4.14394 5.61513 4.93467
#
# Compressibility (1/GPa) = 0.08114095
#
# Stress axis : x y z
#
# Youngs Moduli (GPa) = 17.89730 71.01177 82.48835
#
# Poissons Ratio (x) = -0.30561 -0.05829
# Poissons Ratio (y) = -0.07702 0.45199
# Poissons Ratio (z) = -0.01265 0.38911
#
# Static dielectric constant tensor:
#      x y z
#    x 1.676110 0.000000 0.000000 
#    y 0.000000 1.660100 0.000000 
#    z 0.000000 0.000000 1.652950 
# 
# From -- ./inp_files/20730.got.cif
#   From: 2010.05.17/outbox.cif.g08.bks.cpg/sg44_11_cif.got.tgz:20730.got - 2010.06.03 19:37:08.
