data_PCOD9374693
_publ_section_title
;
Structure prediction by ZEFSAII (Michael W. Deem and Ramdas Pophale) SiO2 
 PCOD9374693
Probable space group: I M M 2
;
_chemical_formula_sum "Si O2"
_cell_formula_units_Z 64
_cell_length_a 9.998824
_cell_length_b 18.348863
_cell_length_c 19.246650
_cell_angle_alpha 90.000000
_cell_angle_beta 90.000000
_cell_angle_gamma 90.000000
_cell_volume 3531.126131
_symmetry_space_group_name_H-M "I M M 2"
_symmetry_group_IT_number 44
_symmetry_cell_setting 'orthorhombic'
loop_
_space_group_symop_operation_xyz
x,y,z
-x,-y,z
-x,y,z
x,-y,z
1/2+x,1/2+y,1/2+z
1/2-x,1/2-y,1/2+z
1/2-x,1/2+y,1/2+z
1/2+x,1/2-y,1/2+z
loop_
_atom_site_type_symbol
_atom_site_label
_atom_site_fract_x
_atom_site_fract_y
_atom_site_fract_z
Si Si1 0.649142 0.413487 0.933280
Si Si2 0.849942 0.152732 0.206070
Si Si3 0.655713 0.816760 0.679043
Si Si4 0.848820 0.917185 0.059523
Si Si5 0.339802 0.153278 0.953106
Si Si6 0.848365 0.412255 0.813894
Si Si7 0.837665 0.415165 0.306878
Si Si8 0.345388 0.705251 0.046551
O O1 0.500000 0.398875 0.903790
O O2 0.660760 0.500000 0.943704
O O3 0.763343 0.388687 0.880696
O O4 0.658781 0.369822 0.004149
O O5 0.844644 0.238919 0.218094
O O6 0.831399 0.136156 0.124600
O O7 0.735122 0.113522 0.248118
O O8 0.000000 0.126075 0.224114
O O9 0.500000 0.831293 0.659037
O O10 0.702685 0.877965 0.733858
O O11 0.748171 0.804208 0.611943
O O12 0.000000 0.906535 0.032018
O O13 0.839475 0.000000 0.085758
O O14 0.739489 0.902764 0.001574
O O15 0.500000 0.143698 0.957024
O O16 0.300039 0.134838 0.873567
O O17 0.310452 0.231429 0.989924
O O18 0.851168 0.500000 0.814385
O O19 0.000000 0.385282 0.814212
O O20 0.794367 0.500000 0.314040
O O21 0.000000 0.415703 0.305801
O O22 0.500000 0.719409 0.068552
#
# Coordination Sequence:
#
# PCOD9374693 Si02
#       8
#     8   8   8   8   8   8   8   8
#     4   9  19  36  57  80 108 146 186 223 272 336
#     4  10  20  34  53  76 107 149 189 223 269 333
#     4  10  21  37  59  82 109 146 188 231 277 330
#     4  10  20  34  53  78 109 144 181 222 273 336
#     4  10  20  35  57  82 110 144 184 232 281 330
#     4  10  21  35  52  79 112 142 178 227 276 324
#     4   9  19  36  58  85 113 145 190 237 281 334
#     4  10  21  36  57  84 114 146 186 233 281 335
#
# _framework density 18.124528999999999
#
# number of rings (size 3 to 8) (size 9 to 14) (size 15 to 20)
#    0.000    2.250    1.250    1.125    1.750    4.000 
#    0.000    0.625    0.000    0.750    0.000    0.000 
#    0.000    0.000    0.000    0.000    0.000    0.000 
#
# Total GULP energy -178305.621068 kJ/mol
# GULP energy per Si atom -5572.050658 kJ/mol
# Density = 1.808328 g / cm^3
# Si number density = 18.124529 Si / 1000 Ang^3
#
#
#
# Elastic Constant Matrix: (Units=GPa)
#
#
# Indices 1 2 3 4 5 6 
#
# 1 88.3905 30.8081 58.0474 0.0000 0.0000 0.0000
# 2 30.8081 40.6380 43.8016 0.0000 0.0000 0.0000
# 3 58.0474 43.8016 96.8899 0.0000 0.0000 0.0000
# 4 0.0000 0.0000 0.0000 29.6096 0.0000 0.0000
# 5 0.0000 0.0000 0.0000 0.0000 29.5126 0.0000
# 6 0.0000 0.0000 0.0000 0.0000 0.0000 17.5962
#
#
#
# Elastic Compliance Matrix: (Units=1/GPa)
#
#
# Indices 1 2 3 4 5 6 
#
# 1 0.019007 -0.004165 -0.009504 0.000000 0.000000 0.000000
# 2 -0.004165 0.048906 -0.019614 0.000000 0.000000 0.000000
# 3 -0.009504 -0.019614 0.024882 0.000000 0.000000 0.000000
# 4 0.000000 0.000000 0.000000 0.033773 0.000000 0.000000
# 5 0.000000 0.000000 0.000000 0.000000 0.033884 0.000000
# 6 0.000000 0.000000 0.000000 0.000000 0.000000 0.056830
#
#
# Mechanical properties :
#
#
# Convention : Reuss Voigt Hill
#
# Bulk Modulus (GPa) = 38.12676 54.58142 46.35409
# Shear Modulus (GPa) = 17.08875 21.56110 19.32493
#
# Velocity S-wave (km/s) = 3.07392 3.45281 3.26886
# Velocity P-wave (km/s) = 5.80348 6.78793 6.31491
#
# Compressibility (1/GPa) = 0.02622830
#
# Stress axis : x y z
#
# Youngs Moduli (GPa) = 52.61322 20.44744 40.19001
#
# Poissons Ratio (x) = 0.08517 0.38196
# Poissons Ratio (y) = 0.21915 0.78828
# Poissons Ratio (z) = 0.50003 0.40105
#
# Static dielectric constant tensor:
#      x y z
#    x 1.625960 0.000000 0.000000 
#    y 0.000000 1.638500 0.000000 
#    z 0.000000 0.000000 1.612690 
# 
# From -- ./inp_files/20788.got.cif
#   From: 2010.05.17/outbox.cif.g08.bks.cpg/sg44_11_cif.got.tgz:20788.got - 2010.06.03 19:37:08.
