data_PCOD9374922
_publ_section_title
;
Structure prediction by ZEFSAII (Michael W. Deem and Ramdas Pophale) SiO2 
 PCOD9374922
Probable space group: I M M 2
;
_chemical_formula_sum "Si O2"
_cell_formula_units_Z 64
_cell_length_a 7.862980
_cell_length_b 31.968179
_cell_length_c 12.174629
_cell_angle_alpha 90.000000
_cell_angle_beta 90.000000
_cell_angle_gamma 90.000000
_cell_volume 3060.277471
_symmetry_space_group_name_H-M "I M M 2"
_symmetry_group_IT_number 44
_symmetry_cell_setting 'orthorhombic'
loop_
_space_group_symop_operation_xyz
x,y,z
-x,-y,z
-x,y,z
x,-y,z
1/2+x,1/2+y,1/2+z
1/2-x,1/2-y,1/2+z
1/2-x,1/2+y,1/2+z
1/2+x,1/2-y,1/2+z
loop_
_atom_site_type_symbol
_atom_site_label
_atom_site_fract_x
_atom_site_fract_y
_atom_site_fract_z
Si Si1 0.695928 0.708709 0.803700
Si Si2 0.703985 0.454321 0.805806
Si Si3 0.291982 0.626704 0.190392
Si Si4 0.196704 0.669106 0.584243
Si Si5 0.208526 0.127547 0.437054
Si Si6 0.202280 0.954230 0.823416
Si Si7 0.302767 0.699370 0.352835
Si Si8 0.703898 0.073421 0.064727
O O1 0.500000 0.715655 0.835508
O O2 0.705944 0.693805 0.678202
O O3 0.763559 0.669978 0.876094
O O4 0.788071 0.752575 0.818964
O O5 0.500000 0.454538 0.819279
O O6 0.768690 0.500000 0.842120
O O7 0.767949 0.413877 0.872241
O O8 0.741858 0.448553 0.677005
O O9 0.500000 0.626401 0.189537
O O10 0.231455 0.585314 0.254756
O O11 0.239384 0.667781 0.258440
O O12 0.238428 0.627086 0.063839
O O13 0.208984 0.690820 0.466646
O O14 0.261904 0.621701 0.572163
O O15 0.000000 0.667024 0.619147
O O16 0.000000 0.127418 0.433303
O O17 0.000000 0.955248 0.803432
O O18 0.272640 0.000000 0.793785
O O19 0.228785 0.946419 0.952740
O O20 0.500000 0.688845 0.372734
O O21 0.500000 0.072854 0.058022
#
# Coordination Sequence:
#
# PCOD9374922 Si02
#       8
#     8   8   8   8   8   8   8   8
#     4  11  23  39  62  89 120 156 194 241 297 355
#     4  10  20  35  58  86 115 150 194 240 289 353
#     4   9  19  36  57  83 116 152 189 236 291 345
#     4  11  23  40  62  87 118 156 201 247 294 349
#     4   9  19  36  57  83 116 152 189 236 291 345
#     4  10  20  35  58  86 115 150 194 240 289 353
#     4  11  23  39  62  89 120 156 194 241 297 355
#     4  11  22  36  57  84 118 154 192 243 295 345
#
# _framework density 20.913138
#
# number of rings (size 3 to 8) (size 9 to 14) (size 15 to 20)
#    0.000    1.750    2.500    1.875    1.750    3.500 
#    0.000    2.500    0.000    3.750    0.000    1.750 
#    0.000    0.000    0.000    0.000    0.000    0.000 
#
# Total GULP energy -178816.305890 kJ/mol
# GULP energy per Si atom -5588.009559 kJ/mol
# Density = 2.086554 g / cm^3
# Si number density = 20.913138 Si / 1000 Ang^3
#
#
#
# Elastic Constant Matrix: (Units=GPa)
#
#
# Indices 1 2 3 4 5 6 
#
# 1 25.7945 3.4775 -7.3638 0.0009 0.0000 0.0000
# 2 3.4775 186.9543 80.6810 0.0014 0.0000 0.0001
# 3 -7.3638 80.6810 145.0331 0.0019 0.0001 0.0001
# 4 0.0009 0.0014 0.0019 -64.6234 0.0002 0.0002
# 5 0.0000 0.0000 0.0001 0.0002 -0.3560 0.0000
# 6 0.0000 0.0001 0.0001 0.0002 0.0000 15.7179
#
#
#
# Elastic Compliance Matrix: (Units=1/GPa)
#
#
# Indices 1 2 3 4 5 6 
#
# 1 0.039973 -0.002131 0.003215 0.000001 -0.000004 0.000000
# 2 -0.002131 0.007152 -0.004087 0.000000 -0.000001 0.000000
# 3 0.003215 -0.004087 0.009332 0.000000 0.000001 0.000000
# 4 0.000001 0.000000 0.000000 -0.015474 -0.000009 0.000000
# 5 -0.000004 -0.000001 0.000001 -0.000009 -2.809107 0.000003
# 6 0.000000 0.000000 0.000000 0.000000 0.000003 0.063622
#
#
# Mechanical properties :
#
#
# Convention : Reuss Voigt Hill
#
# Bulk Modulus (GPa) = 19.82109 56.81901 38.32005
# Shear Modulus (GPa) = -1.86450 8.88018 3.50784
#
# Velocity S-wave (km/s) = -0.94524 2.06287 1.29653
# Velocity P-wave (km/s) = 2.88220 5.73602 4.53922
#
# Compressibility (1/GPa) = 0.05045131
#
# Stress axis : x y z
#
# Youngs Moduli (GPa) = 25.01681 139.81542 107.16086
#
# Poissons Ratio (x) = 0.29794 -0.34452
# Poissons Ratio (y) = 0.05331 0.43796
# Poissons Ratio (z) = -0.08043 0.57142
#
# Static dielectric constant tensor:
#      x y z
#    x 1.771400 0.000000 0.000000 
#    y 0.000000 1.752040 0.000000 
#    z 0.000000 0.000000 1.696990 
# 
# From -- ./inp_files/11453.got.cif
#   From: 2010.05.17/outbox.cif.g08.bks.cpg/sg44_6_cif.got.tgz:11453.got - 2010.06.03 19:37:08.
