data_PCOD9374923
_publ_section_title
;
Structure prediction by ZEFSAII (Michael W. Deem and Ramdas Pophale) SiO2 
 PCOD9374923
Probable space group: I M M 2
;
_chemical_formula_sum "Si O2"
_cell_formula_units_Z 56
_cell_length_a 21.499081
_cell_length_b 8.425098
_cell_length_c 14.369228
_cell_angle_alpha 90.000000
_cell_angle_beta 90.000000
_cell_angle_gamma 90.000000
_cell_volume 2602.725057
_symmetry_space_group_name_H-M "I M M 2"
_symmetry_group_IT_number 44
_symmetry_cell_setting 'orthorhombic'
loop_
_space_group_symop_operation_xyz
x,y,z
-x,-y,z
-x,y,z
x,-y,z
1/2+x,1/2+y,1/2+z
1/2-x,1/2-y,1/2+z
1/2-x,1/2+y,1/2+z
1/2+x,1/2-y,1/2+z
loop_
_atom_site_type_symbol
_atom_site_label
_atom_site_fract_x
_atom_site_fract_y
_atom_site_fract_z
Si Si1 0.159134 0.680382 0.984580
Si Si2 0.927551 0.679469 0.808120
Si Si3 0.752373 0.308818 0.333763
Si Si4 0.567925 0.309288 0.032671
Si Si5 0.431483 0.310726 0.634814
Si Si6 0.396456 0.189817 0.835488
Si Si7 0.835957 0.818963 0.674056
O O1 0.175943 0.500000 0.008046
O O2 0.103997 0.682401 0.908494
O O3 0.216045 0.755491 0.926785
O O4 0.127889 0.759040 0.073964
O O5 0.916234 0.500000 0.770031
O O6 0.893732 0.809141 0.745663
O O7 0.000000 0.706330 0.814093
O O8 0.748154 0.500000 0.329800
O O9 0.823862 0.261993 0.335558
O O10 0.718455 0.246859 0.238891
O O11 0.500000 0.251881 0.068865
O O12 0.568991 0.500000 0.044774
O O13 0.630474 0.245544 0.083633
O O14 0.572170 0.267924 0.924700
O O15 0.500000 0.260128 0.596786
O O16 0.431330 0.500000 0.639046
O O17 0.425001 0.241644 0.737921
O O18 0.400456 0.000000 0.844379
O O19 0.817773 0.000000 0.652009
#
# Coordination Sequence:
#
# PCOD9374923 Si02
#       7
#     8   8   8   8   8   8   8
#     4  10  20  35  58  86 116 151 190 234 285 343
#     4   9  17  29  47  76 113 146 177 220 274 330
#     4   9  20  39  59  85 119 151 188 232 283 343
#     4  10  21  37  57  83 113 146 188 236 288 345
#     4  11  24  41  61  86 117 154 195 242 298 354
#     4  11  24  40  59  83 113 152 198 245 287 337
#     4   9  18  34  56  79 107 143 182 226 275 333
#
# _framework density 21.515910999999999
#
# number of rings (size 3 to 8) (size 9 to 14) (size 15 to 20)
#    0.000    2.143    0.000    2.571    0.000    8.000 
#    0.000    1.429    0.000    0.000    0.000    0.000 
#    0.000    0.000    0.000    0.000    0.000    0.000 
#
# Total GULP energy -156207.556569 kJ/mol
# GULP energy per Si atom -5578.841306 kJ/mol
# Density = 2.146694 g / cm^3
# Si number density = 21.515911 Si / 1000 Ang^3
#
#
#
# Elastic Constant Matrix: (Units=GPa)
#
#
# Indices 1 2 3 4 5 6 
#
# 1 106.4023 14.8418 15.7207 0.0000 0.0000 0.0000
# 2 14.8418 17.0094 4.3094 0.0000 0.0000 0.0000
# 3 15.7207 4.3094 74.7254 0.0000 0.0000 0.0000
# 4 0.0000 0.0000 0.0000 20.2722 0.0000 0.0000
# 5 0.0000 0.0000 0.0000 0.0000 20.1621 0.0000
# 6 0.0000 0.0000 0.0000 0.0000 0.0000 17.3033
#
#
#
# Elastic Compliance Matrix: (Units=1/GPa)
#
#
# Indices 1 2 3 4 5 6 
#
# 1 0.010928 -0.009086 -0.001775 0.000000 0.000000 0.000000
# 2 -0.009086 0.067217 -0.001965 0.000000 0.000000 0.000000
# 3 -0.001775 -0.001965 0.013869 0.000000 0.000000 0.000000
# 4 0.000000 0.000000 0.000000 0.049329 0.000000 0.000000
# 5 0.000000 0.000000 0.000000 0.000000 0.049598 0.000000
# 6 0.000000 0.000000 0.000000 0.000000 0.000000 0.057793
#
#
# Mechanical properties :
#
#
# Convention : Reuss Voigt Hill
#
# Bulk Modulus (GPa) = 15.06874 29.76454 22.41664
# Shear Modulus (GPa) = 16.86313 22.43185 19.64749
#
# Velocity S-wave (km/s) = 2.80259 3.23239 3.02513
# Velocity P-wave (km/s) = 4.18228 5.27208 4.75848
#
# Compressibility (1/GPa) = 0.06636256
#
# Stress axis : x y z
#
# Youngs Moduli (GPa) = 91.50899 14.87725 72.10282
#
# Poissons Ratio (x) = 0.13517 0.12799
# Poissons Ratio (y) = 0.83141 0.14168
# Poissons Ratio (z) = 0.16243 0.02923
#
# Static dielectric constant tensor:
#      x y z
#    x 1.802940 0.000000 0.000000 
#    y 0.000000 1.772620 0.000000 
#    z 0.000000 0.000000 1.794850 
# 
# From -- ./inp_files/19177.got.cif
#   From: 2010.05.17/outbox.cif.g08.bks.cpg/sg44_10_cif.got.tgz:19177.got - 2010.06.03 19:37:08.
