data_PCOD9374470
_publ_section_title
;
Structure prediction by ZEFSAII (Michael W. Deem and Ramdas Pophale) SiO2 
 PCOD9374470
Probable space group: I M M 2
;
_chemical_formula_sum "Si O2"
_cell_formula_units_Z 64
_cell_length_a 16.184823
_cell_length_b 8.449611
_cell_length_c 23.980468
_cell_angle_alpha 90.000000
_cell_angle_beta 90.000000
_cell_angle_gamma 90.000000
_cell_volume 3279.459895
_symmetry_space_group_name_H-M "I M M 2"
_symmetry_group_IT_number 44
_symmetry_cell_setting 'orthorhombic'
loop_
_space_group_symop_operation_xyz
x,y,z
-x,-y,z
-x,y,z
x,-y,z
1/2+x,1/2+y,1/2+z
1/2-x,1/2-y,1/2+z
1/2-x,1/2+y,1/2+z
1/2+x,1/2-y,1/2+z
loop_
_atom_site_type_symbol
_atom_site_label
_atom_site_fract_x
_atom_site_fract_y
_atom_site_fract_z
Si Si1 0.364878 0.309208 0.598800
Si Si2 0.094975 0.193763 0.426136
Si Si3 0.089770 0.688716 0.218699
Si Si4 0.097146 0.174161 0.546740
Si Si5 0.262596 0.190589 0.261174
Si Si6 0.406268 0.691240 0.472454
Si Si7 0.771645 0.691514 0.883396
Si Si8 0.314361 0.812175 0.143752
O O1 0.376347 0.500000 0.602177
O O2 0.407138 0.234284 0.653112
O O3 0.391423 0.257927 0.537030
O O4 0.268741 0.271628 0.609648
O O5 0.121196 0.251837 0.488235
O O6 0.174728 0.238271 0.390108
O O7 0.000000 0.244167 0.412471
O O8 0.092220 0.000000 0.428135
O O9 0.097550 0.500000 0.223582
O O10 0.166813 0.768508 0.249381
O O11 0.000000 0.738415 0.241112
O O12 0.113355 0.259691 0.604030
O O13 0.000000 0.157244 0.539732
O O14 0.136358 0.000000 0.550039
O O15 0.294469 0.246650 0.320936
O O16 0.309329 0.253786 0.206214
O O17 0.268715 0.000000 0.261899
O O18 0.500000 0.739926 0.456110
O O19 0.403659 0.500000 0.472645
O O20 0.334579 0.749020 0.430722
O O21 0.773817 0.500000 0.885748
O O22 0.315366 0.000000 0.148886
#
# Coordination Sequence:
#
# PCOD9374470 Si02
#       8
#     8   8   8   8   8   8   8   8
#     4   9  18  33  53  76 103 135 169 205 252 315
#     4   8  15  29  50  77 105 128 155 198 251 306
#     4  10  20  32  49  77 108 134 164 206 255 305
#     4   9  17  29  46  70  98 124 152 191 243 302
#     4   9  20  36  51  70  97 132 173 211 252 305
#     4  10  21  36  54  77 106 141 177 214 264 321
#     4  10  20  35  56  78 100 133 178 222 260 302
#     4   9  17  30  48  70  95 123 159 203 247 292
#
# _framework density 19.515408999999998
#
# number of rings (size 3 to 8) (size 9 to 14) (size 15 to 20)
#    0.000    2.750    0.000    3.000    0.000    5.500 
#    0.000    1.875    0.000    4.875    0.000    0.000 
#    0.000    0.000    0.000    0.000    0.000    0.000 
#
# Total GULP energy -178170.532027 kJ/mol
# GULP energy per Si atom -5567.829126 kJ/mol
# Density = 1.947099 g / cm^3
# Si number density = 19.515409 Si / 1000 Ang^3
#
#
#
# Elastic Constant Matrix: (Units=GPa)
#
#
# Indices 1 2 3 4 5 6 
#
# 1 30.2609 14.5655 30.5141 0.0000 0.0000 0.0000
# 2 14.5655 -16.0019 10.1004 0.0000 0.0000 0.0000
# 3 30.5141 10.1004 96.0058 0.0000 0.0000 0.0000
# 4 0.0000 0.0000 0.0000 18.1969 0.0000 0.0000
# 5 0.0000 0.0000 0.0000 0.0000 10.4339 0.0000
# 6 0.0000 0.0000 0.0000 0.0000 0.0000 15.9468
#
#
#
# Elastic Compliance Matrix: (Units=1/GPa)
#
#
# Indices 1 2 3 4 5 6 
#
# 1 0.035564 0.023665 -0.013793 0.000000 0.000000 0.000000
# 2 0.023665 -0.042854 -0.003013 0.000000 0.000000 0.000000
# 3 -0.013793 -0.003013 0.015117 0.000000 0.000000 0.000000
# 4 0.000000 0.000000 0.000000 0.054954 0.000000 0.000000
# 5 0.000000 0.000000 0.000000 0.000000 0.095841 0.000000
# 6 0.000000 0.000000 0.000000 0.000000 0.000000 0.062708
#
#
# Mechanical properties :
#
#
# Convention : Reuss Voigt Hill
#
# Bulk Modulus (GPa) = 46.41483 24.51386 35.46435
# Shear Modulus (GPa) = 23.27803 12.58785 17.93294
#
# Velocity S-wave (km/s) = 3.45744 2.54248 3.03464
# Velocity P-wave (km/s) = 6.30665 4.60516 5.52184
#
# Compressibility (1/GPa) = 0.02154484
#
# Stress axis : x y z
#
# Youngs Moduli (GPa) = 28.11861 -23.33527 66.15073
#
# Poissons Ratio (x) = 0.55223 0.91242
# Poissons Ratio (y) = -0.66543 0.19932
# Poissons Ratio (z) = 0.38784 -0.07031
#
# Static dielectric constant tensor:
#      x y z
#    x 1.708780 0.000000 0.000000 
#    y 0.000000 1.690020 0.000000 
#    z 0.000000 0.000000 1.715190 
# 
# From -- ./inp_files/23334.got.cif
#   From: 2010.05.17/outbox.cif.g08.bks.cpg/sg44_12_cif.got.tgz:23334.got - 2010.06.03 19:37:08.
