data_PCOD9374564
_publ_section_title
;
Structure prediction by ZEFSAII (Michael W. Deem and Ramdas Pophale) SiO2 
 PCOD9374564
Probable space group: I M M 2
;
_chemical_formula_sum "Si O2"
_cell_formula_units_Z 64
_cell_length_a 19.436681
_cell_length_b 7.829551
_cell_length_c 22.196002
_cell_angle_alpha 90.000000
_cell_angle_beta 90.000000
_cell_angle_gamma 90.000000
_cell_volume 3377.798353
_symmetry_space_group_name_H-M "I M M 2"
_symmetry_group_IT_number 44
_symmetry_cell_setting 'orthorhombic'
loop_
_space_group_symop_operation_xyz
x,y,z
-x,-y,z
-x,y,z
x,-y,z
1/2+x,1/2+y,1/2+z
1/2-x,1/2-y,1/2+z
1/2-x,1/2+y,1/2+z
1/2+x,1/2-y,1/2+z
loop_
_atom_site_type_symbol
_atom_site_label
_atom_site_fract_x
_atom_site_fract_y
_atom_site_fract_z
Si Si1 0.826852 0.797209 0.419060
Si Si2 0.627007 0.796097 0.681035
Si Si3 0.723008 0.793135 0.138534
Si Si4 0.075506 0.696829 0.658409
Si Si5 0.076597 0.201128 0.522627
Si Si6 0.923133 0.704780 0.310807
Si Si7 0.279619 0.705518 0.509184
Si Si8 0.425179 0.298209 0.551581
O O1 0.873566 0.724115 0.473061
O O2 0.861502 0.742689 0.357058
O O3 0.751816 0.752958 0.444571
O O4 0.833322 0.000000 0.420563
O O5 0.707957 0.755917 0.673798
O O6 0.596654 0.732321 0.744097
O O7 0.589500 0.720379 0.622734
O O8 0.617999 0.000000 0.678386
O O9 0.652055 0.728636 0.169284
O O10 0.735975 0.734831 0.068680
O O11 0.718473 0.000000 0.137063
O O12 0.075053 0.500000 0.679101
O O13 0.076490 0.702459 0.585601
O O14 0.000000 0.772515 0.675754
O O15 0.000000 0.207929 0.496913
O O16 0.091322 0.000000 0.535198
O O17 0.927260 0.500000 0.307621
O O18 0.000000 0.767746 0.328614
O O19 0.280478 0.500000 0.513358
O O20 0.357096 0.771810 0.519139
O O21 0.500000 0.223871 0.536925
O O22 0.427339 0.500000 0.537982
#
# Coordination Sequence:
#
# PCOD9374564 Si02
#       8
#     8   8   8   8   8   8   8   8
#     4  11  21  31  46  68  96 128 163 201 240 282
#     4  10  20  33  51  73  97 127 166 208 249 291
#     4   9  17  30  47  69  97 128 163 200 243 294
#     4   9  16  26  42  64  90 122 159 193 227 276
#     4   9  17  27  38  57  88 122 154 189 227 267
#     4  10  22  38  52  68  94 130 170 208 245 288
#     4   9  17  30  47  69  97 128 161 195 236 291
#     4   9  18  33  53  76 101 129 160 197 244 295
#
# _framework density 18.947251999999999
#
# number of rings (size 3 to 8) (size 9 to 14) (size 15 to 20)
#    0.000    2.500    1.250    2.250    0.000    5.500 
#    0.000    1.250    0.000    0.000    0.000    0.875 
#    0.000    1.000    0.000    0.000    0.000    0.000 
#
# Total GULP energy -178183.333558 kJ/mol
# GULP energy per Si atom -5568.229174 kJ/mol
# Density = 1.890413 g / cm^3
# Si number density = 18.947252 Si / 1000 Ang^3
#
#
#
# Elastic Constant Matrix: (Units=GPa)
#
#
# Indices 1 2 3 4 5 6 
#
# 1 135.9318 6.1289 32.0325 0.0000 0.0000 0.0000
# 2 6.1289 26.1698 -1.4662 0.0000 0.0000 0.0000
# 3 32.0325 -1.4662 61.0013 0.0000 0.0000 0.0000
# 4 0.0000 0.0000 0.0000 17.6556 0.0000 0.0000
# 5 0.0000 0.0000 0.0000 0.0000 20.2498 0.0000
# 6 0.0000 0.0000 0.0000 0.0000 0.0000 12.6169
#
#
#
# Elastic Compliance Matrix: (Units=1/GPa)
#
#
# Indices 1 2 3 4 5 6 
#
# 1 0.008526 -0.002251 -0.004531 0.000000 0.000000 0.000000
# 2 -0.002251 0.038858 0.002116 0.000000 0.000000 0.000000
# 3 -0.004531 0.002116 0.018823 0.000000 0.000000 0.000000
# 4 0.000000 0.000000 0.000000 0.056639 0.000000 0.000000
# 5 0.000000 0.000000 0.000000 0.000000 0.049383 0.000000
# 6 0.000000 0.000000 0.000000 0.000000 0.000000 0.079259
#
#
# Mechanical properties :
#
#
# Convention : Reuss Voigt Hill
#
# Bulk Modulus (GPa) = 17.58245 32.94370 25.26308
# Shear Modulus (GPa) = 17.87130 22.53164 20.20147
#
# Velocity S-wave (km/s) = 3.07451 3.45219 3.26881
# Velocity P-wave (km/s) = 4.68010 5.77191 5.25444
#
# Compressibility (1/GPa) = 0.05687489
#
# Stress axis : x y z
#
# Youngs Moduli (GPa) = 117.29006 25.73495 53.12571
#
# Poissons Ratio (x) = 0.05792 0.24072
# Poissons Ratio (y) = 0.26397 -0.11240
# Poissons Ratio (z) = 0.53146 -0.05445
#
# Static dielectric constant tensor:
#      x y z
#    x 1.773930 0.000000 0.000000 
#    y 0.000000 1.685670 0.000000 
#    z 0.000000 0.000000 1.630380 
# 
# From -- ./inp_files/24471.got.cif
#   From: 2010.05.17/outbox.cif.g08.bks.cpg/sg44_13_cif.got.tgz:24471.got - 2010.06.03 19:37:08.
