data_PCOD9374384
_publ_section_title
;
Structure prediction by ZEFSAII (Michael W. Deem and Ramdas Pophale) SiO2 
 PCOD9374384
Probable space group: I M M 2
;
_chemical_formula_sum "Si O2"
_cell_formula_units_Z 48
_cell_length_a 7.497790
_cell_length_b 7.603462
_cell_length_c 40.461803
_cell_angle_alpha 90.000000
_cell_angle_beta 90.000000
_cell_angle_gamma 90.000000
_cell_volume 2306.693456
_symmetry_space_group_name_H-M "I M M 2"
_symmetry_group_IT_number 44
_symmetry_cell_setting 'orthorhombic'
loop_
_space_group_symop_operation_xyz
x,y,z
-x,-y,z
-x,y,z
x,-y,z
1/2+x,1/2+y,1/2+z
1/2-x,1/2-y,1/2+z
1/2-x,1/2+y,1/2+z
1/2+x,1/2-y,1/2+z
loop_
_atom_site_type_symbol
_atom_site_label
_atom_site_fract_x
_atom_site_fract_y
_atom_site_fract_z
Si Si1 0.000000 0.713063 0.617960
Si Si2 0.211754 0.000000 0.800010
Si Si3 0.212268 0.207538 0.171466
Si Si4 0.786762 0.500000 0.222782
Si Si5 0.000000 0.716327 0.542662
Si Si6 0.702224 0.290109 0.492480
Si Si7 0.718942 0.797954 0.348596
Si Si8 0.204543 0.711470 0.920381
O O1 0.826981 0.761456 0.639555
O O2 0.000000 0.500000 0.616183
O O3 0.000000 0.776867 0.580444
O O4 0.279175 0.171881 0.819274
O O5 0.238584 0.000000 0.761025
O O6 0.000000 0.000000 0.805279
O O7 0.270404 0.328055 0.202215
O O8 0.000000 0.230887 0.165983
O O9 0.243538 0.000000 0.177814
O O10 0.000000 0.500000 0.221813
O O11 0.171721 0.774486 0.521680
O O12 0.000000 0.500000 0.542853
O O13 0.500000 0.218075 0.493697
O O14 0.690812 0.500000 0.496046
O O15 0.782361 0.257185 0.455971
O O16 0.500000 0.798809 0.349857
O O17 0.779058 0.731850 0.384914
O O18 0.774002 0.000000 0.343808
O O19 0.200447 0.500000 0.918312
O O20 0.000000 0.777928 0.921972
#
# Coordination Sequence:
#
# PCOD9374384 Si02
#       8
#     4   4   8   4   4   8   8   8
#     4   9  18  33  57  83 108 145 181 224 273 333
#     4  10  20  30  50  80 104 136 176 222 276 327
#     4   9  19  36  58  84 109 140 185 225 269 327
#     4  10  22  38  56  78 112 146 176 225 273 332
#     4   9  18  32  48  76 114 135 169 225 272 315
#     4   9  17  28  47  73  99 135 178 217 266 319
#     4   8  15  28  45  71 104 134 175 226 272 317
#     4   8  14  26  46  67  92 132 175 221 264 306
#
# _framework density 20.809007000000001
#
# number of rings (size 3 to 8) (size 9 to 14) (size 15 to 20)
#    0.000    3.167    0.000    1.000    2.333    1.333 
#    0.000    3.750    5.500    0.000    0.000    0.000 
#    0.000    0.000    0.000    0.000    0.000    0.000 
#
# Total GULP energy -133839.333587 kJ/mol
# GULP energy per Si atom -5576.638899 kJ/mol
# Density = 2.076165 g / cm^3
# Si number density = 20.809007 Si / 1000 Ang^3
#
#
#
# Elastic Constant Matrix: (Units=GPa)
#
#
# Indices 1 2 3 4 5 6 
#
# 1 76.0757 26.0286 57.2295 0.0000 0.0000 0.0000
# 2 26.0286 76.9646 69.0025 0.0000 0.0000 0.0000
# 3 57.2295 69.0025 240.7600 0.0000 0.0000 0.0000
# 4 0.0000 0.0000 0.0000 71.9964 0.0000 0.0000
# 5 0.0000 0.0000 0.0000 0.0000 64.3802 0.0000
# 6 0.0000 0.0000 0.0000 0.0000 0.0000 -2.0334
#
#
#
# Elastic Compliance Matrix: (Units=1/GPa)
#
#
# Indices 1 2 3 4 5 6 
#
# 1 0.016433 -0.002766 -0.003113 0.000000 0.000000 0.000000
# 2 -0.002766 0.017952 -0.004487 0.000000 0.000000 0.000000
# 3 -0.003113 -0.004487 0.006180 0.000000 0.000000 0.000000
# 4 0.000000 0.000000 0.000000 0.013890 0.000000 0.000000
# 5 0.000000 0.000000 0.000000 0.000000 0.015533 0.000000
# 6 0.000000 0.000000 0.000000 0.000000 0.000000 -0.491785
#
#
# Mechanical properties :
#
#
# Convention : Reuss Voigt Hill
#
# Bulk Modulus (GPa) = 50.42735 77.59127 64.00931
# Shear Modulus (GPa) = -12.67576 42.97128 15.14776
#
# Velocity S-wave (km/s) = -2.47077 4.54919 2.70097
# Velocity P-wave (km/s) = 4.01826 8.05989 6.36821
#
# Compressibility (1/GPa) = 0.01983051
#
# Stress axis : x y z
#
# Youngs Moduli (GPa) = 60.85162 55.70495 161.81969
#
# Poissons Ratio (x) = 0.15409 0.50382
# Poissons Ratio (y) = 0.16833 0.72616
# Poissons Ratio (z) = 0.18946 0.24997
#
# Static dielectric constant tensor:
#      x y z
#    x 1.791410 0.000000 0.000000 
#    y 0.000000 1.748770 0.000000 
#    z 0.000000 0.000000 1.729620 
# 
# From -- ./inp_files/27013.got.cif
#   From: 2010.05.17/outbox.cif.g08.bks.cpg/sg44_14_cif.got.tgz:27013.got - 2010.06.03 19:37:08.
