data_PCOD9374742
_publ_section_title
;
Structure prediction by ZEFSAII (Michael W. Deem and Ramdas Pophale) SiO2 
 PCOD9374742
Probable space group: I M M 2
;
_chemical_formula_sum "Si O2"
_cell_formula_units_Z 64
_cell_length_a 8.861291
_cell_length_b 15.197185
_cell_length_c 23.752286
_cell_angle_alpha 90.000000
_cell_angle_beta 90.000000
_cell_angle_gamma 90.000000
_cell_volume 3198.641466
_symmetry_space_group_name_H-M "I M M 2"
_symmetry_group_IT_number 44
_symmetry_cell_setting 'orthorhombic'
loop_
_space_group_symop_operation_xyz
x,y,z
-x,-y,z
-x,y,z
x,-y,z
1/2+x,1/2+y,1/2+z
1/2-x,1/2-y,1/2+z
1/2-x,1/2+y,1/2+z
1/2+x,1/2-y,1/2+z
loop_
_atom_site_type_symbol
_atom_site_label
_atom_site_fract_x
_atom_site_fract_y
_atom_site_fract_z
Si Si1 0.825848 0.138193 0.419960
Si Si2 0.682011 0.224143 0.757640
Si Si3 0.179877 0.402612 0.802610
Si Si4 0.663039 0.397607 0.481637
Si Si5 0.820011 0.396126 0.042034
Si Si6 0.670589 0.161222 0.876776
Si Si7 0.819648 0.777723 0.641601
Si Si8 0.184237 0.102476 0.102286
O O1 0.732950 0.098329 0.367857
O O2 0.751297 0.122975 0.480554
O O3 0.829512 0.241439 0.404351
O O4 0.000000 0.107305 0.419993
O O5 0.500000 0.222584 0.753572
O O6 0.734327 0.323885 0.771441
O O7 0.729052 0.170377 0.813571
O O8 0.758247 0.188357 0.701507
O O9 0.213494 0.500000 0.779318
O O10 0.000000 0.387796 0.799850
O O11 0.500000 0.352778 0.477322
O O12 0.644151 0.500000 0.494655
O O13 0.739567 0.392797 0.422085
O O14 0.739097 0.367563 0.539376
O O15 0.795316 0.500000 0.054355
O O16 0.747568 0.334804 0.090194
O O17 0.000000 0.380309 0.039975
O O18 0.500000 0.128841 0.873738
O O19 0.756743 0.677420 0.640082
O O20 0.000000 0.778024 0.639223
O O21 0.000000 0.107897 0.103186
O O22 0.224110 0.000000 0.114051
#
# Coordination Sequence:
#
# PCOD9374742 Si02
#       8
#     8   8   8   8   8   8   8   8
#     4  10  20  34  55  85 118 148 182 227 280 340
#     4  10  22  40  58  76 104 144 190 234 277 333
#     4  10  20  34  54  83 117 149 183 225 275 334
#     4   9  18  32  52  80 110 139 174 216 264 322
#     4  11  24  41  61  85 114 151 195 241 290 346
#     4   9  19  34  53  79 107 139 178 219 269 326
#     4  12  25  40  60  85 114 149 192 243 295 346
#     4   9  19  37  60  86 118 156 193 227 272 337
#
# _framework density 20.008495
#
# number of rings (size 3 to 8) (size 9 to 14) (size 15 to 20)
#    0.000    2.000    0.000    5.250    0.000   10.000 
#    0.000    1.875    0.000    0.750    0.000    0.000 
#    0.000    0.000    0.000    0.000    0.000    0.000 
#
# Total GULP energy -178490.694740 kJ/mol
# GULP energy per Si atom -5577.834211 kJ/mol
# Density = 1.996295 g / cm^3
# Si number density = 20.008495 Si / 1000 Ang^3
#
#
#
# Elastic Constant Matrix: (Units=GPa)
#
#
# Indices 1 2 3 4 5 6 
#
# 1 62.9679 13.9784 26.0585 0.0000 0.0000 0.0000
# 2 13.9784 30.9420 19.6124 0.0000 0.0000 0.0000
# 3 26.0585 19.6124 118.3802 0.0000 0.0000 0.0000
# 4 0.0000 0.0000 0.0000 15.6298 0.0000 0.0000
# 5 0.0000 0.0000 0.0000 0.0000 34.1469 0.0000
# 6 0.0000 0.0000 0.0000 0.0000 0.0000 34.6550
#
#
#
# Elastic Compliance Matrix: (Units=1/GPa)
#
#
# Indices 1 2 3 4 5 6 
#
# 1 0.018566 -0.006477 -0.003014 0.000000 0.000000 0.000000
# 2 -0.006477 0.038370 -0.004931 0.000000 0.000000 0.000000
# 3 -0.003014 -0.004931 0.009928 0.000000 0.000000 0.000000
# 4 0.000000 0.000000 0.000000 0.063981 0.000000 0.000000
# 5 0.000000 0.000000 0.000000 0.000000 0.029285 0.000000
# 6 0.000000 0.000000 0.000000 0.000000 0.000000 0.028856
#
#
# Mechanical properties :
#
#
# Convention : Reuss Voigt Hill
#
# Bulk Modulus (GPa) = 26.30197 36.84318 31.57258
# Shear Modulus (GPa) = 21.69165 27.06238 24.37701
#
# Velocity S-wave (km/s) = 3.29617 3.68169 3.49425
# Velocity P-wave (km/s) = 5.25930 6.04374 5.66512
#
# Compressibility (1/GPa) = 0.03801997
#
# Stress axis : x y z
#
# Youngs Moduli (GPa) = 53.86128 26.06184 100.72806
#
# Poissons Ratio (x) = 0.16881 0.30357
# Poissons Ratio (y) = 0.34887 0.49670
# Poissons Ratio (z) = 0.16233 0.12851
#
# Static dielectric constant tensor:
#      x y z
#    x 1.699070 0.000000 0.000000 
#    y 0.000000 1.749340 0.000000 
#    z 0.000000 0.000000 1.712480 
# 
# From -- ./inp_files/23327.got.cif
#   From: 2010.05.17/outbox.cif.g08.bks.cpg/sg44_12_cif.got.tgz:23327.got - 2010.06.03 19:37:08.
