data_PCOD9374350
_publ_section_title
;
Structure prediction by ZEFSAII (Michael W. Deem and Ramdas Pophale) SiO2 
 PCOD9374350
Probable space group: I M M 2
;
_chemical_formula_sum "Si O2"
_cell_formula_units_Z 58
_cell_length_a 7.785963
_cell_length_b 14.697469
_cell_length_c 25.692311
_cell_angle_alpha 90.000000
_cell_angle_beta 90.000000
_cell_angle_gamma 90.000000
_cell_volume 2940.072628
_symmetry_space_group_name_H-M "I M M 2"
_symmetry_group_IT_number 44
_symmetry_cell_setting 'orthorhombic'
loop_
_space_group_symop_operation_xyz
x,y,z
-x,-y,z
-x,y,z
x,-y,z
1/2+x,1/2+y,1/2+z
1/2-x,1/2-y,1/2+z
1/2-x,1/2+y,1/2+z
1/2+x,1/2-y,1/2+z
loop_
_atom_site_type_symbol
_atom_site_label
_atom_site_fract_x
_atom_site_fract_y
_atom_site_fract_z
Si Si1 0.000000 0.500000 0.849790
Si Si2 0.798752 0.900244 0.474156
Si Si3 0.791290 0.606062 0.717663
Si Si4 0.192317 0.147210 0.328711
Si Si5 0.793834 0.396360 0.507989
Si Si6 0.704964 0.900998 0.593982
Si Si7 0.205949 0.701734 0.612804
Si Si8 0.807281 0.226876 0.913088
O O1 0.153270 0.420353 0.845476
O O2 0.783787 0.895220 0.536219
O O3 0.700600 0.817976 0.448531
O O4 0.000000 0.893046 0.460703
O O5 0.732084 0.000000 0.458235
O O6 0.745222 0.500000 0.723759
O O7 0.717605 0.658957 0.766978
O O8 0.733273 0.643356 0.661950
O O9 0.000000 0.610662 0.719931
O O10 0.208498 0.240055 0.361846
O O11 0.000000 0.110365 0.337925
O O12 0.729502 0.500000 0.511244
O O13 0.728825 0.336103 0.557042
O O14 0.757273 0.350390 0.452437
O O15 0.000000 0.399082 0.512975
O O16 0.500000 0.901632 0.588070
O O17 0.754069 0.807651 0.621345
O O18 0.756793 0.000000 0.616253
O O19 0.000000 0.692885 0.611193
O O20 0.000000 0.204670 0.897936
#
# Coordination Sequence:
#
# PCOD9374350 Si02
#       8
#     2   8   8   8   8   8   8   8
#     4  12  22  44  60  94 130 164 206 256 308 368
#     4  10  20  32  50  76 107 146 191 237 290 354
#     4  10  19  37  59  88 126 160 197 250 307 364
#     4  12  24  40  63  90 125 169 206 252 311 372
#     4  10  21  39  60  87 119 159 206 253 308 371
#     4  10  20  34  50  75 113 155 192 241 299 351
#     4  10  20  34  60  89 119 160 201 246 304 364
#     4  12  24  38  56  84 121 158 201 250 302 364
#
# _framework density 19.727402999999999
#
# number of rings (size 3 to 8) (size 9 to 14) (size 15 to 20)
#    0.000    1.379    3.448    2.690    0.966    4.138 
#    0.000    0.000    0.000    3.310    0.000    3.862 
#    0.000    0.000    0.000    0.000    0.000    0.000 
#
# Total GULP energy -161644.163864 kJ/mol
# GULP energy per Si atom -5573.936685 kJ/mol
# Density = 1.968250 g / cm^3
# Si number density = 19.727403 Si / 1000 Ang^3
#
#
#
# Elastic Constant Matrix: (Units=GPa)
#
#
# Indices 1 2 3 4 5 6 
#
# 1 82.1301 13.5849 17.0462 0.0000 0.0000 0.0000
# 2 13.5849 101.6806 47.4308 0.0000 0.0000 0.0000
# 3 17.0462 47.4308 105.9197 0.0000 0.0000 0.0000
# 4 0.0000 0.0000 0.0000 -189.8033 0.0000 0.0000
# 5 0.0000 0.0000 0.0000 0.0000 14.0039 0.0000
# 6 0.0000 0.0000 0.0000 0.0000 0.0000 17.6559
#
#
#
# Elastic Compliance Matrix: (Units=1/GPa)
#
#
# Indices 1 2 3 4 5 6 
#
# 1 0.012667 -0.000937 -0.001619 0.000000 0.000000 0.000000
# 2 -0.000937 0.012501 -0.005447 0.000000 0.000000 0.000000
# 3 -0.001619 -0.005447 0.012141 0.000000 0.000000 0.000000
# 4 0.000000 0.000000 0.000000 -0.005269 0.000000 0.000000
# 5 0.000000 0.000000 0.000000 0.000000 0.071409 0.000000
# 6 0.000000 0.000000 0.000000 0.000000 0.000000 0.056638
#
#
# Mechanical properties :
#
#
# Convention : Reuss Voigt Hill
#
# Bulk Modulus (GPa) = 46.94332 49.53936 48.24134
# Shear Modulus (GPa) = 27.29349 -17.51749 4.88800
#
# Velocity S-wave (km/s) = 3.72362 -2.98313 1.57580
# Velocity P-wave (km/s) = 6.50652 3.64706 5.27427
#
# Compressibility (1/GPa) = 0.02130229
#
# Stress axis : x y z
#
# Youngs Moduli (GPa) = 78.94637 79.99493 82.36679
#
# Poissons Ratio (x) = 0.07497 0.13334
# Poissons Ratio (y) = 0.07399 0.44865
# Poissons Ratio (z) = 0.12780 0.43573
#
# Static dielectric constant tensor:
#      x y z
#    x 1.734410 0.000000 0.000000 
#    y 0.000000 1.809510 0.000000 
#    z 0.000000 0.000000 1.719830 
# 
# From -- ./inp_files/26252.got.cif
#   From: 2010.05.17/outbox.cif.g08.bks.cpg/sg44_14_cif.got.tgz:26252.got - 2010.06.03 19:37:08.
