data_PCOD9374718
_publ_section_title
;
Structure prediction by ZEFSAII (Michael W. Deem and Ramdas Pophale) SiO2 
 PCOD9374718
Probable space group: I M M 2
;
_chemical_formula_sum "Si O2"
_cell_formula_units_Z 48
_cell_length_a 9.424790
_cell_length_b 7.770251
_cell_length_c 31.788790
_cell_angle_alpha 90.000000
_cell_angle_beta 90.000000
_cell_angle_gamma 90.000000
_cell_volume 2327.987947
_symmetry_space_group_name_H-M "I M M 2"
_symmetry_group_IT_number 44
_symmetry_cell_setting 'orthorhombic'
loop_
_space_group_symop_operation_xyz
x,y,z
-x,-y,z
-x,y,z
x,-y,z
1/2+x,1/2+y,1/2+z
1/2-x,1/2-y,1/2+z
1/2-x,1/2+y,1/2+z
1/2+x,1/2-y,1/2+z
loop_
_atom_site_type_symbol
_atom_site_label
_atom_site_fract_x
_atom_site_fract_y
_atom_site_fract_z
Si Si1 0.336539 0.211014 0.570470
Si Si2 0.161610 0.204884 0.908900
Si Si3 0.662060 0.206942 0.314623
Si Si4 0.338991 0.292558 0.735028
Si Si5 0.160119 0.205021 0.490022
Si Si6 0.838251 0.792912 0.652113
O O1 0.500000 0.266658 0.571628
O O2 0.256896 0.270565 0.528304
O O3 0.249734 0.267788 0.611545
O O4 0.337670 0.000000 0.570432
O O5 0.210164 0.250786 0.861828
O O6 0.263362 0.267255 0.945664
O O7 0.000000 0.273609 0.914066
O O8 0.155141 0.000000 0.911804
O O9 0.500000 0.271865 0.309779
O O10 0.762626 0.271523 0.277468
O O11 0.656950 0.000000 0.311319
O O12 0.500000 0.227788 0.730730
O O13 0.345649 0.500000 0.737840
O O14 0.244718 0.249888 0.694629
O O15 0.000000 0.275341 0.490647
O O16 0.149941 0.000000 0.496359
O O17 0.000000 0.727594 0.652677
O O18 0.845026 0.000000 0.649019
#
# Coordination Sequence:
#
# PCOD9374718 Si02
#       6
#     8   8   8   8   8   8
#     4   9  17  31  53  79 106 137 174 216 260 307
#     4  10  21  36  54  78 108 139 172 214 264 315
#     4   9  18  34  55  76 101 137 179 219 259 308
#     4  10  21  36  54  78 108 140 175 216 261 310
#     4  10  20  34  54  79 106 138 177 218 259 307
#     4  10  20  34  54  80 109 140 175 216 261 309
#
# _framework density 20.618665
#
# number of rings (size 3 to 8) (size 9 to 14) (size 15 to 20)
#    0.000    2.333    0.000    2.500    0.000    7.333 
#    0.000    4.167    0.000    5.000    0.000    0.000 
#    0.000    0.000    0.000    0.000    0.000    0.000 
#
# Total GULP energy -134054.141408 kJ/mol
# GULP energy per Si atom -5585.589225 kJ/mol
# Density = 2.057174 g / cm^3
# Si number density = 20.618665 Si / 1000 Ang^3
#
#
#
# Elastic Constant Matrix: (Units=GPa)
#
#
# Indices 1 2 3 4 5 6 
#
# 1 206.3947 7.8265 148.4689 0.0000 0.0000 0.0000
# 2 7.8265 26.9763 -2.2485 0.0000 0.0000 0.0000
# 3 148.4689 -2.2485 207.8514 0.0000 0.0000 0.0000
# 4 0.0000 0.0000 0.0000 20.9782 0.0000 0.0000
# 5 0.0000 0.0000 0.0000 0.0000 43.1884 0.0000
# 6 0.0000 0.0000 0.0000 0.0000 0.0000 12.3136
#
#
#
# Elastic Compliance Matrix: (Units=1/GPa)
#
#
# Indices 1 2 3 4 5 6 
#
# 1 0.010305 -0.003606 -0.007400 0.000000 0.000000 0.000000
# 2 -0.003606 0.038365 0.002991 0.000000 0.000000 0.000000
# 3 -0.007400 0.002991 0.010129 0.000000 0.000000 0.000000
# 4 0.000000 0.000000 0.000000 0.047668 0.000000 0.000000
# 5 0.000000 0.000000 0.000000 0.000000 0.023154 0.000000
# 6 0.000000 0.000000 0.000000 0.000000 0.000000 0.081211
#
#
# Mechanical properties :
#
#
# Convention : Reuss Voigt Hill
#
# Bulk Modulus (GPa) = 23.38140 83.25735 53.31938
# Shear Modulus (GPa) = 20.73661 34.44110 27.58885
#
# Velocity S-wave (km/s) = 3.17475 4.09147 3.66191
# Velocity P-wave (km/s) = 4.98029 7.92385 6.61780
#
# Compressibility (1/GPa) = 0.04276903
#
# Stress axis : x y z
#
# Youngs Moduli (GPa) = 97.04185 26.06525 98.72475
#
# Poissons Ratio (x) = 0.09400 0.73054
# Poissons Ratio (y) = 0.34998 -0.29530
# Poissons Ratio (z) = 0.71809 -0.07796
#
# Static dielectric constant tensor:
#      x y z
#    x 1.710840 0.000000 0.000000 
#    y 0.000000 1.772820 0.000000 
#    z 0.000000 0.000000 1.690860 
# 
# From -- ./inp_files/26852.got.cif
#   From: 2010.05.17/outbox.cif.g08.bks.cpg/sg44_14_cif.got.tgz:26852.got - 2010.06.03 19:37:08.
