data_PCOD9374462
_publ_section_title
;
Structure prediction by ZEFSAII (Michael W. Deem and Ramdas Pophale) SiO2 
 PCOD9374462
Probable space group: I M M 2
;
_chemical_formula_sum "Si O2"
_cell_formula_units_Z 48
_cell_length_a 7.608443
_cell_length_b 9.319269
_cell_length_c 36.132177
_cell_angle_alpha 90.000000
_cell_angle_beta 90.000000
_cell_angle_gamma 90.000000
_cell_volume 2561.956599
_symmetry_space_group_name_H-M "I M M 2"
_symmetry_group_IT_number 44
_symmetry_cell_setting 'orthorhombic'
loop_
_space_group_symop_operation_xyz
x,y,z
-x,-y,z
-x,y,z
x,-y,z
1/2+x,1/2+y,1/2+z
1/2-x,1/2-y,1/2+z
1/2-x,1/2+y,1/2+z
1/2+x,1/2-y,1/2+z
loop_
_atom_site_type_symbol
_atom_site_label
_atom_site_fract_x
_atom_site_fract_y
_atom_site_fract_z
Si Si1 0.211139 0.337303 0.509570
Si Si2 0.500000 0.824595 0.725974
Si Si3 0.285194 0.665294 0.364429
Si Si4 0.500000 0.825794 0.641509
Si Si5 0.701354 0.674937 0.282262
Si Si6 0.707349 0.328307 0.083310
Si Si7 0.789308 0.338380 0.935658
O O1 0.279016 0.500000 0.508644
O O2 0.268239 0.252195 0.546199
O O3 0.254438 0.253516 0.472184
O O4 0.000000 0.343281 0.511757
O O5 0.500000 0.774087 0.683694
O O6 0.670021 0.779890 0.749595
O O7 0.500000 0.000000 0.725326
O O8 0.500000 0.664372 0.364266
O O9 0.229171 0.500000 0.369380
O O10 0.234917 0.717242 0.323381
O O11 0.223362 0.760386 0.398615
O O12 0.328356 0.784947 0.617818
O O13 0.500000 0.000000 0.643116
O O14 0.500000 0.721665 0.276863
O O15 0.700174 0.500000 0.283033
O O16 0.500000 0.299576 0.089647
O O17 0.726108 0.500000 0.077779
O O18 0.720744 0.500000 0.939546
O O19 0.000000 0.346410 0.931799
#
# Coordination Sequence:
#
# PCOD9374462 Si02
#       7
#     8   4   8   4   8   8   8
#     4  10  21  36  52  72  98 129 169 213 256 305
#     4   9  16  26  42  71 103 127 161 209 253 305
#     4   8  14  27  45  65  94 131 169 207 248 296
#     4   9  18  30  47  73 103 133 169 209 255 313
#     4   8  14  25  42  64  94 132 166 203 254 300
#     4   9  18  33  51  71 100 136 168 206 257 309
#     4  10  20  32  49  74 102 133 168 208 254 306
#
# _framework density 18.735682000000001
#
# number of rings (size 3 to 8) (size 9 to 14) (size 15 to 20)
#    0.000    3.000    0.000    2.000    1.167    2.667 
#    1.500    3.333    0.000    0.000    0.000    2.333 
#    0.000    5.333    0.000    0.000    0.000    0.000 
#
# Total GULP energy -133822.948681 kJ/mol
# GULP energy per Si atom -5575.956195 kJ/mol
# Density = 1.869304 g / cm^3
# Si number density = 18.735682 Si / 1000 Ang^3
#
#
#
# Elastic Constant Matrix: (Units=GPa)
#
#
# Indices 1 2 3 4 5 6 
#
# 1 71.3372 28.2060 66.2693 0.0000 0.0000 0.0000
# 2 28.2060 63.6899 68.5922 0.0000 0.0000 0.0000
# 3 66.2693 68.5922 221.3645 0.0000 0.0000 0.0000
# 4 0.0000 0.0000 0.0000 21.0855 0.0000 0.0000
# 5 0.0000 0.0000 0.0000 0.0000 44.8115 0.0000
# 6 0.0000 0.0000 0.0000 0.0000 0.0000 8.9639
#
#
#
# Elastic Compliance Matrix: (Units=1/GPa)
#
#
# Indices 1 2 3 4 5 6 
#
# 1 0.019956 -0.003608 -0.004856 0.000000 0.000000 0.000000
# 2 -0.003608 0.024217 -0.006424 0.000000 0.000000 0.000000
# 3 -0.004856 -0.006424 0.007962 0.000000 0.000000 0.000000
# 4 0.000000 0.000000 0.000000 0.047426 0.000000 0.000000
# 5 0.000000 0.000000 0.000000 0.000000 0.022316 0.000000
# 6 0.000000 0.000000 0.000000 0.000000 0.000000 0.111559
#
#
# Mechanical properties :
#
#
# Convention : Reuss Voigt Hill
#
# Bulk Modulus (GPa) = 44.72484 75.83630 60.28057
# Shear Modulus (GPa) = 18.47312 27.86045 23.16678
#
# Velocity S-wave (km/s) = 3.14345 3.86038 3.52021
# Velocity P-wave (km/s) = 6.09084 7.77399 6.98331
#
# Compressibility (1/GPa) = 0.02235894
#
# Stress axis : x y z
#
# Youngs Moduli (GPa) = 50.11147 41.29298 125.60060
#
# Poissons Ratio (x) = 0.14897 0.60994
# Poissons Ratio (y) = 0.18078 0.80685
# Poissons Ratio (z) = 0.24335 0.26526
#
# Static dielectric constant tensor:
#      x y z
#    x 1.684930 0.000000 0.000000 
#    y 0.000000 1.643920 0.000000 
#    z 0.000000 0.000000 1.628720 
# 
# From -- ./inp_files/26952.got.cif
#   From: 2010.05.17/outbox.cif.g08.bks.cpg/sg44_14_cif.got.tgz:26952.got - 2010.06.03 19:37:08.
