data_PCOD9374257
_publ_section_title
;
Structure prediction by ZEFSAII (Michael W. Deem and Ramdas Pophale) SiO2 
 PCOD9374257
Probable space group: I M M 2
;
_chemical_formula_sum "Si O2"
_cell_formula_units_Z 40
_cell_length_a 26.666020
_cell_length_b 8.687420
_cell_length_c 9.289184
_cell_angle_alpha 90.000000
_cell_angle_beta 90.000000
_cell_angle_gamma 90.000000
_cell_volume 2151.922291
_symmetry_space_group_name_H-M "I M M 2"
_symmetry_group_IT_number 44
_symmetry_cell_setting 'orthorhombic'
loop_
_space_group_symop_operation_xyz
x,y,z
-x,-y,z
-x,y,z
x,-y,z
1/2+x,1/2+y,1/2+z
1/2-x,1/2-y,1/2+z
1/2-x,1/2+y,1/2+z
1/2+x,1/2-y,1/2+z
loop_
_atom_site_type_symbol
_atom_site_label
_atom_site_fract_x
_atom_site_fract_y
_atom_site_fract_z
Si Si1 0.390912 0.813658 0.711790
Si Si2 0.801704 0.315476 0.712754
Si Si3 0.106144 0.183499 0.534302
Si Si4 0.500000 0.177012 0.693200
Si Si5 0.298108 0.315403 0.532672
Si Si6 0.000000 0.322708 0.543455
O O1 0.445575 0.756940 0.654506
O O2 0.345729 0.753858 0.615593
O O3 0.391693 0.000000 0.715060
O O4 0.385223 0.753871 0.875034
O O5 0.806650 0.500000 0.716214
O O6 0.850425 0.243765 0.637944
O O7 0.752493 0.276295 0.619493
O O8 0.795552 0.251603 0.872897
O O9 0.051381 0.239971 0.586058
O O10 0.106966 0.000000 0.524642
O O11 0.500000 0.000000 0.642928
O O12 0.500000 0.176596 0.868110
O O13 0.302443 0.500000 0.527498
O O14 0.000000 0.500000 0.590898
#
# Coordination Sequence:
#
# PCOD9374257 Si02
#       6
#     8   8   8   4   8   4
#     4  10  19  35  59  85 116 153 192 232 281 341
#     4  11  24  41  60  82 112 151 190 232 289 350
#     4  11  21  35  58  88 119 150 191 240 283 328
#     4   7  14  29  52  81 110 145 186 224 264 324
#     4  11  24  40  59  85 114 145 189 242 290 339
#     4   9  17  33  56  83 116 153 192 230 278 338
#
# _framework density 18.588031000000001
#
# number of rings (size 3 to 8) (size 9 to 14) (size 15 to 20)
#    0.000    1.800    0.000    6.300    0.000    6.400 
#    0.000    2.500    0.000    1.200    0.000    0.000 
#    0.000    0.000    0.000    0.000    0.000    0.000 
#
# Total GULP energy -111698.189349 kJ/mol
# GULP energy per Si atom -5584.909467 kJ/mol
# Density = 1.854572 g / cm^3
# Si number density = 18.588031 Si / 1000 Ang^3
#
#
#
# Elastic Constant Matrix: (Units=GPa)
#
#
# Indices 1 2 3 4 5 6 
#
# 1 210.2923 83.3813 97.0003 0.0000 0.0000 0.0000
# 2 83.3813 97.5577 52.5164 0.0000 0.0000 0.0000
# 3 97.0003 52.5164 112.4762 0.0000 0.0000 0.0000
# 4 0.0000 0.0000 0.0000 29.8286 0.0000 0.0000
# 5 0.0000 0.0000 0.0000 0.0000 32.4552 0.0000
# 6 0.0000 0.0000 0.0000 0.0000 0.0000 50.1716
#
#
#
# Elastic Compliance Matrix: (Units=1/GPa)
#
#
# Indices 1 2 3 4 5 6 
#
# 1 0.009366 -0.004884 -0.005796 0.000000 0.000000 0.000000
# 2 -0.004884 0.016239 -0.003370 0.000000 0.000000 0.000000
# 3 -0.005796 -0.003370 0.015463 0.000000 0.000000 0.000000
# 4 0.000000 0.000000 0.000000 0.033525 0.000000 0.000000
# 5 0.000000 0.000000 0.000000 0.000000 0.030812 0.000000
# 6 0.000000 0.000000 0.000000 0.000000 0.000000 0.019932
#
#
# Mechanical properties :
#
#
# Convention : Reuss Voigt Hill
#
# Bulk Modulus (GPa) = 77.12244 98.45804 87.79024
# Shear Modulus (GPa) = 31.69386 34.98630 33.34008
#
# Velocity S-wave (km/s) = 4.13373 4.34313 4.23972
# Velocity P-wave (km/s) = 8.02272 8.84499 8.44387
#
# Compressibility (1/GPa) = 0.01296640
#
# Stress axis : x y z
#
# Youngs Moduli (GPa) = 106.77321 61.58012 64.67038
#
# Poissons Ratio (x) = 0.30078 0.37486
# Poissons Ratio (y) = 0.52153 0.21793
# Poissons Ratio (z) = 0.61890 0.20751
#
# Static dielectric constant tensor:
#      x y z
#    x 1.652820 0.000000 0.000000 
#    y 0.000000 1.626820 0.000000 
#    z 0.000000 0.000000 1.607190 
# 
# From -- ./inp_files/9629.got.cif
#   From: 2010.05.17/outbox.cif.g08.bks.cpg/sg44_5_cif.got.tgz:9629.got - 2010.06.03 19:37:08.
