data_PCOD9374980
_publ_section_title
;
Structure prediction by ZEFSAII (Michael W. Deem and Ramdas Pophale) SiO2 
 PCOD9374980
Probable space group: I M M 2
;
_chemical_formula_sum "Si O2"
_cell_formula_units_Z 58
_cell_length_a 25.434092
_cell_length_b 8.058545
_cell_length_c 13.475129
_cell_angle_alpha 90.000000
_cell_angle_beta 90.000000
_cell_angle_gamma 90.000000
_cell_volume 2761.886357
_symmetry_space_group_name_H-M "I M M 2"
_symmetry_group_IT_number 44
_symmetry_cell_setting 'orthorhombic'
loop_
_space_group_symop_operation_xyz
x,y,z
-x,-y,z
-x,y,z
x,-y,z
1/2+x,1/2+y,1/2+z
1/2-x,1/2-y,1/2+z
1/2-x,1/2+y,1/2+z
1/2+x,1/2-y,1/2+z
loop_
_atom_site_type_symbol
_atom_site_label
_atom_site_fract_x
_atom_site_fract_y
_atom_site_fract_z
Si Si1 0.770160 0.308672 0.606870
Si Si2 0.059857 0.801242 0.904950
Si Si3 0.575273 0.688842 0.018271
Si Si4 0.058370 0.302162 0.132385
Si Si5 0.000000 0.500000 0.474566
Si Si6 0.123915 0.301201 0.716565
Si Si7 0.687829 0.316680 0.912819
Si Si8 0.668171 0.810617 0.708034
O O1 0.782072 0.500000 0.585715
O O2 0.816588 0.251846 0.683155
O O3 0.772775 0.216041 0.502268
O O4 0.712784 0.288110 0.650915
O O5 0.103135 0.746015 0.825209
O O6 0.000000 0.751375 0.873715
O O7 0.061007 0.000000 0.911963
O O8 0.067758 0.730261 0.015589
O O9 0.555163 0.500000 0.003637
O O10 0.544410 0.849257 0.979229
O O11 0.585431 0.718744 0.135427
O O12 0.631709 0.691045 0.966204
O O13 0.055488 0.500000 0.149530
O O14 0.109157 0.241178 0.192776
O O15 0.000000 0.233561 0.157582
O O16 0.119971 0.500000 0.707378
O O17 0.696734 0.500000 0.870427
O O18 0.685469 0.193301 0.821953
O O19 0.668262 0.000000 0.671108
#
# Coordination Sequence:
#
# PCOD9374980 Si02
#       8
#     8   8   8   8   2   8   8   8
#     4  10  22  40  63  89 122 157 199 251 305 364
#     4  10  21  34  54  84 119 158 199 248 303 362
#     4  10  22  38  57  87 125 166 212 265 310 374
#     4   9  20  41  61  84 115 154 199 250 298 359
#     4  12  22  36  60  86 124 170 222 252 322 362
#     4  10  20  36  57  84 119 164 205 251 315 371
#     4  10  22  42  64  88 124 160 201 254 310 365
#     4  11  23  39  66  94 120 156 202 246 307 375
#
# _framework density 21.000139999999998
#
# number of rings (size 3 to 8) (size 9 to 14) (size 15 to 20)
#    0.000    1.931    0.690    2.276    2.897    4.690 
#    1.241    1.379    0.000    0.000    0.000    0.000 
#    0.000    0.000    0.000    0.000    0.000    0.000 
#
# Total GULP energy -161531.211397 kJ/mol
# GULP energy per Si atom -5570.041772 kJ/mol
# Density = 2.095234 g / cm^3
# Si number density = 21.000140 Si / 1000 Ang^3
#
#
#
# Elastic Constant Matrix: (Units=GPa)
#
#
# Indices 1 2 3 4 5 6 
#
# 1 79.6163 11.4679 33.9796 0.0000 0.0000 0.0000
# 2 11.4679 80.8226 -3.1483 0.0000 0.0000 0.0000
# 3 33.9796 -3.1483 51.3751 0.0000 0.0000 0.0000
# 4 0.0000 0.0000 0.0000 23.3192 0.0000 0.0000
# 5 0.0000 0.0000 0.0000 0.0000 13.2958 0.0000
# 6 0.0000 0.0000 0.0000 0.0000 0.0000 179.7958
#
#
#
# Elastic Compliance Matrix: (Units=1/GPa)
#
#
# Indices 1 2 3 4 5 6 
#
# 1 0.018227 -0.003063 -0.012243 0.000000 0.000000 0.000000
# 2 -0.003063 0.012917 0.002817 0.000000 0.000000 0.000000
# 3 -0.012243 0.002817 0.027735 0.000000 0.000000 0.000000
# 4 0.000000 0.000000 0.000000 0.042883 0.000000 0.000000
# 5 0.000000 0.000000 0.000000 0.000000 0.075212 0.000000
# 6 0.000000 0.000000 0.000000 0.000000 0.000000 0.005562
#
#
# Mechanical properties :
#
#
# Convention : Reuss Voigt Hill
#
# Bulk Modulus (GPa) = 29.49700 32.93469 31.21585
# Shear Modulus (GPa) = 22.85061 54.58316 38.71689
#
# Velocity S-wave (km/s) = 3.30224 5.10375 4.29843
# Velocity P-wave (km/s) = 5.34942 7.10268 6.28746
#
# Compressibility (1/GPa) = 0.03390175
#
# Stress axis : x y z
#
# Youngs Moduli (GPa) = 54.86504 77.41649 36.05587
#
# Poissons Ratio (x) = 0.23713 0.44142
# Poissons Ratio (y) = 0.16805 -0.10159
# Poissons Ratio (z) = 0.67170 -0.21812
#
# Static dielectric constant tensor:
#      x y z
#    x 1.773350 0.000000 0.000000 
#    y 0.000000 1.728380 0.000000 
#    z 0.000000 0.000000 1.748630 
# 
# From -- ./inp_files/11296.got.cif
#   From: 2010.05.17/outbox.cif.g08.bks.cpg/sg44_6_cif.got.tgz:11296.got - 2010.06.03 19:37:08.
