data_PCOD9374067
_publ_section_title
;
Structure prediction by ZEFSAII (Michael W. Deem and Ramdas Pophale) SiO2 
 PCOD9374067
Probable space group: I M M 2
;
_chemical_formula_sum "Si O2"
_cell_formula_units_Z 56
_cell_length_a 14.880517
_cell_length_b 8.446245
_cell_length_c 23.219031
_cell_angle_alpha 90.000000
_cell_angle_beta 90.000000
_cell_angle_gamma 90.000000
_cell_volume 2918.272123
_symmetry_space_group_name_H-M "I M M 2"
_symmetry_group_IT_number 44
_symmetry_cell_setting 'orthorhombic'
loop_
_space_group_symop_operation_xyz
x,y,z
-x,-y,z
-x,y,z
x,-y,z
1/2+x,1/2+y,1/2+z
1/2-x,1/2-y,1/2+z
1/2-x,1/2+y,1/2+z
1/2+x,1/2-y,1/2+z
loop_
_atom_site_type_symbol
_atom_site_label
_atom_site_fract_x
_atom_site_fract_y
_atom_site_fract_z
Si Si1 0.104891 0.188376 0.479330
Si Si2 0.787134 0.191539 0.591704
Si Si3 0.399241 0.809909 0.851495
Si Si4 0.897347 0.688661 0.700890
Si Si5 0.399461 0.192997 0.549133
Si Si6 0.712959 0.312334 0.308870
Si Si7 0.894113 0.311560 0.916059
O O1 0.165420 0.243577 0.532248
O O2 0.121162 0.268747 0.418015
O O3 0.000000 0.212659 0.494225
O O4 0.119571 0.000000 0.471773
O O5 0.842317 0.249553 0.646195
O O6 0.683213 0.243681 0.588711
O O7 0.788889 0.000000 0.592157
O O8 0.500000 0.748712 0.838450
O O9 0.315827 0.752308 0.813350
O O10 0.401720 0.000000 0.846315
O O11 0.901397 0.500000 0.697627
O O12 0.845403 0.735325 0.758786
O O13 0.000000 0.750606 0.701168
O O14 0.500000 0.247579 0.564442
O O15 0.380091 0.236583 0.482512
O O16 0.401493 0.000000 0.549671
O O17 0.714836 0.500000 0.298776
O O18 0.665968 0.277173 0.369918
O O19 0.875528 0.500000 0.911945
O O20 0.000000 0.288651 0.903341
#
# Coordination Sequence:
#
# PCOD9374067 Si02
#       7
#     8   8   8   8   8   8   8
#     4   9  17  29  49  79 109 136 170 212 257 303
#     4  10  19  33  55  79 104 137 175 215 255 295
#     4   9  19  35  53  76 107 139 171 208 252 304
#     4  11  25  42  57  74  99 133 171 211 258 312
#     4   8  15  29  51  80 110 139 172 207 247 301
#     4  11  22  35  54  78 103 135 174 216 259 300
#     4   9  17  31  53  80 110 142 172 205 250 305
#
# _framework density 19.189437999999999
#
# number of rings (size 3 to 8) (size 9 to 14) (size 15 to 20)
#    0.000    2.429    0.000    3.429    0.000    6.571 
#    0.000    2.857    0.000    5.571    0.000    0.000 
#    0.000    0.000    0.000    0.000    0.000    0.000 
#
# Total GULP energy -156254.092032 kJ/mol
# GULP energy per Si atom -5580.503287 kJ/mol
# Density = 1.914576 g / cm^3
# Si number density = 19.189438 Si / 1000 Ang^3
#
#
#
# Elastic Constant Matrix: (Units=GPa)
#
#
# Indices 1 2 3 4 5 6 
#
# 1 164.9974 25.3774 92.7465 0.0000 0.0000 0.0000
# 2 25.3774 9.1445 8.4579 0.0000 0.0000 0.0000
# 3 92.7465 8.4579 62.6461 0.0000 0.0000 0.0000
# 4 0.0000 0.0000 0.0000 10.5880 0.0000 0.0000
# 5 0.0000 0.0000 0.0000 0.0000 32.8791 0.0000
# 6 0.0000 0.0000 0.0000 0.0000 0.0000 16.7758
#
#
#
# Elastic Compliance Matrix: (Units=1/GPa)
#
#
# Indices 1 2 3 4 5 6 
#
# 1 0.142122 -0.228309 -0.179586 0.000000 0.000000 0.000000
# 2 -0.228309 0.491720 0.271620 0.000000 0.000000 0.000000
# 3 -0.179586 0.271620 0.245165 0.000000 0.000000 0.000000
# 4 0.000000 0.000000 0.000000 0.094446 0.000000 0.000000
# 5 0.000000 0.000000 0.000000 0.000000 0.030414 0.000000
# 6 0.000000 0.000000 0.000000 0.000000 0.000000 0.059610
#
#
# Mechanical properties :
#
#
# Convention : Reuss Voigt Hill
#
# Bulk Modulus (GPa) = 1.64892 54.43904 28.04398
# Shear Modulus (GPa) = 3.25060 19.39566 11.32313
#
# Velocity S-wave (km/s) = 1.30293 3.18267 2.43177
# Velocity P-wave (km/s) = 1.76767 6.47586 4.74665
#
# Compressibility (1/GPa) = 0.60645787
#
# Stress axis : x y z
#
# Youngs Moduli (GPa) = 7.03619 2.03368 4.07888
#
# Poissons Ratio (x) = 0.46431 0.73251
# Poissons Ratio (y) = 1.60642 -1.10791
# Poissons Ratio (z) = 1.26360 -0.55239
#
# Static dielectric constant tensor:
#      x y z
#    x 1.713780 0.000000 0.000000 
#    y 0.000000 1.663440 0.000000 
#    z 0.000000 0.000000 1.626150 
# 
# From -- ./inp_files/23041.got.cif
#   From: 2010.05.17/outbox.cif.g08.bks.cpg/sg44_12_cif.got.tgz:23041.got - 2010.06.03 19:37:08.
