data_PCOD9374830
_publ_section_title
;
Structure prediction by ZEFSAII (Michael W. Deem and Ramdas Pophale) SiO2 
 PCOD9374830
Probable space group: I M M 2
;
_chemical_formula_sum "Si O2"
_cell_formula_units_Z 40
_cell_length_a 18.916317
_cell_length_b 8.736701
_cell_length_c 13.973400
_cell_angle_alpha 90.000000
_cell_angle_beta 90.000000
_cell_angle_gamma 90.000000
_cell_volume 2309.330798
_symmetry_space_group_name_H-M "I M M 2"
_symmetry_group_IT_number 44
_symmetry_cell_setting 'orthorhombic'
loop_
_space_group_symop_operation_xyz
x,y,z
-x,-y,z
-x,y,z
x,-y,z
1/2+x,1/2+y,1/2+z
1/2-x,1/2-y,1/2+z
1/2-x,1/2+y,1/2+z
1/2+x,1/2-y,1/2+z
loop_
_atom_site_type_symbol
_atom_site_label
_atom_site_fract_x
_atom_site_fract_y
_atom_site_fract_z
Si Si1 0.212091 0.184264 0.762960
Si Si2 0.640000 0.816535 0.860857
Si Si3 0.500000 0.682424 0.765277
Si Si4 0.000000 0.314160 0.051658
Si Si5 0.643190 0.183832 0.445848
Si Si6 0.209241 0.815117 0.544807
O O1 0.291128 0.228524 0.797618
O O2 0.158357 0.248751 0.841396
O O3 0.198365 0.233490 0.654270
O O4 0.209371 0.000000 0.765330
O O5 0.569731 0.743001 0.818716
O O6 0.634039 0.000000 0.858255
O O7 0.657362 0.760389 0.967928
O O8 0.500000 0.500000 0.763855
O O9 0.500000 0.747055 0.657664
O O10 0.000000 0.500000 0.058830
O O11 0.070431 0.266734 0.994725
O O12 0.710963 0.224683 0.511291
O O13 0.641812 0.000000 0.438614
O O14 0.202596 0.000000 0.539414
#
# Coordination Sequence:
#
# PCOD9374830 Si02
#       6
#     8   8   4   4   8   8
#     4   9  18  33  54  77 104 137 173 212 256 302
#     4  10  20  35  54  77 104 136 173 212 253 305
#     4  12  24  36  53  78 105 134 167 210 260 308
#     4  10  20  36  55  76 105 140 171 206 254 306
#     4   9  18  32  52  76 103 134 173 216 256 301
#     4   9  17  32  52  75 102 134 172 216 260 301
#
# _framework density 17.321034999999998
#
# number of rings (size 3 to 8) (size 9 to 14) (size 15 to 20)
#    0.000    2.400    0.000    2.700    0.000    5.600 
#    0.000    5.000    0.000    4.800    0.000    0.000 
#    0.000    0.000    0.000    0.000    0.000    0.000 
#
# Total GULP energy -111608.457034 kJ/mol
# GULP energy per Si atom -5580.422852 kJ/mol
# Density = 1.728161 g / cm^3
# Si number density = 17.321035 Si / 1000 Ang^3
#
#
#
# Elastic Constant Matrix: (Units=GPa)
#
#
# Indices 1 2 3 4 5 6 
#
# 1 140.0258 41.9221 98.9061 0.0000 0.0000 0.0000
# 2 41.9221 32.0865 46.0132 0.0000 0.0000 0.0000
# 3 98.9061 46.0132 194.9734 0.0000 0.0000 0.0000
# 4 0.0000 0.0000 0.0000 33.8713 0.0000 0.0000
# 5 0.0000 0.0000 0.0000 0.0000 18.1973 0.0000
# 6 0.0000 0.0000 0.0000 0.0000 0.0000 19.4897
#
#
#
# Elastic Compliance Matrix: (Units=1/GPa)
#
#
# Indices 1 2 3 4 5 6 
#
# 1 0.013589 -0.011895 -0.004086 0.000000 0.000000 0.000000
# 2 -0.011895 0.057520 -0.007541 0.000000 0.000000 0.000000
# 3 -0.004086 -0.007541 0.008981 0.000000 0.000000 0.000000
# 4 0.000000 0.000000 0.000000 0.029523 0.000000 0.000000
# 5 0.000000 0.000000 0.000000 0.000000 0.054953 0.000000
# 6 0.000000 0.000000 0.000000 0.000000 0.000000 0.051309
#
#
# Mechanical properties :
#
#
# Convention : Reuss Voigt Hill
#
# Bulk Modulus (GPa) = 30.25969 82.30764 56.28366
# Shear Modulus (GPa) = 18.25248 26.32793 22.29020
#
# Velocity S-wave (km/s) = 3.24971 3.90294 3.59121
# Velocity P-wave (km/s) = 5.62038 8.24213 7.05412
#
# Compressibility (1/GPa) = 0.03304727
#
# Stress axis : x y z
#
# Youngs Moduli (GPa) = 73.58903 17.38524 111.34088
#
# Poissons Ratio (x) = 0.20679 0.45498
# Poissons Ratio (y) = 0.87531 0.83959
# Poissons Ratio (z) = 0.30071 0.13110
#
# Static dielectric constant tensor:
#      x y z
#    x 1.569230 0.000000 0.000000 
#    y 0.000000 1.584520 0.000000 
#    z 0.000000 0.000000 1.570190 
# 
# From -- ./inp_files/11002.got.cif
#   From: 2010.05.17/outbox.cif.g08.bks.cpg/sg44_6_cif.got.tgz:11002.got - 2010.06.03 19:37:08.
