data_PCOD9374270
_publ_section_title
;
Structure prediction by ZEFSAII (Michael W. Deem and Ramdas Pophale) SiO2 
 PCOD9374270
Probable space group: I M M 2
;
_chemical_formula_sum "Si O2"
_cell_formula_units_Z 64
_cell_length_a 14.539530
_cell_length_b 24.044460
_cell_length_c 10.296794
_cell_angle_alpha 90.000000
_cell_angle_beta 90.000000
_cell_angle_gamma 90.000000
_cell_volume 3599.709217
_symmetry_space_group_name_H-M "I M M 2"
_symmetry_group_IT_number 44
_symmetry_cell_setting 'orthorhombic'
loop_
_space_group_symop_operation_xyz
x,y,z
-x,-y,z
-x,y,z
x,-y,z
1/2+x,1/2+y,1/2+z
1/2-x,1/2-y,1/2+z
1/2-x,1/2+y,1/2+z
1/2+x,1/2-y,1/2+z
loop_
_atom_site_type_symbol
_atom_site_label
_atom_site_fract_x
_atom_site_fract_y
_atom_site_fract_z
Si Si1 0.661343 0.732227 0.016910
Si Si2 0.397630 0.144256 0.972555
Si Si3 0.301887 0.756799 0.298566
Si Si4 0.300724 0.630755 0.364723
Si Si5 0.222222 0.934427 0.360326
Si Si6 0.608287 0.433745 0.601774
Si Si7 0.605628 0.388255 0.096272
Si Si8 0.103378 0.368908 0.775785
O O1 0.721364 0.746820 0.146425
O O2 0.607035 0.677308 0.057564
O O3 0.606663 0.788549 0.986071
O O4 0.721127 0.720145 0.889406
O O5 0.500000 0.128150 0.926954
O O6 0.309653 0.127328 0.886632
O O7 0.384903 0.122194 0.120159
O O8 0.324580 0.696555 0.357704
O O9 0.380879 0.803047 0.298578
O O10 0.349519 0.601008 0.484311
O O11 0.339524 0.606154 0.231113
O O12 0.162471 0.919703 0.233095
O O13 0.161698 0.919336 0.484816
O O14 0.317861 0.901654 0.351086
O O15 0.240281 0.000000 0.357334
O O16 0.500000 0.422600 0.616485
O O17 0.619387 0.500000 0.577886
O O18 0.500000 0.406741 0.107809
O O19 0.000000 0.384813 0.811424
#
# Coordination Sequence:
#
# PCOD9374270 Si02
#       8
#     8   8   8   8   8   8   8   8
#     4   9  17  31  52  79 113 148 187 223 271 332
#     4   9  17  32  57  86 114 149 186 225 276 333
#     4   9  18  31  55  82 115 147 182 224 274 336
#     4  10  20  35  58  87 117 148 186 231 280 340
#     4  11  23  40  58  80 110 147 196 241 280 332
#     4  10  21  38  59  82 111 146 188 239 286 327
#     4  11  22  35  55  81 114 152 188 228 284 344
#     4  10  19  35  60  86 112 147 188 231 282 333
#
# _framework density 17.779215000000001
#
# number of rings (size 3 to 8) (size 9 to 14) (size 15 to 20)
#    0.000    2.125    2.500    1.125    0.000    5.000 
#    0.000    0.625    0.000    1.125    0.000    0.000 
#    0.000    0.000    0.000    0.000    0.000    0.000 
#
# Total GULP energy -178392.155553 kJ/mol
# GULP energy per Si atom -5574.754861 kJ/mol
# Density = 1.773875 g / cm^3
# Si number density = 17.779215 Si / 1000 Ang^3
#
#
#
# Elastic Constant Matrix: (Units=GPa)
#
#
# Indices 1 2 3 4 5 6 
#
# 1 151.1537 37.3650 67.6315 -0.0001 0.0000 0.0000
# 2 37.3650 29.2933 31.7690 -0.0001 0.0000 0.0000
# 3 67.6315 31.7690 100.8941 0.0005 0.0000 -0.0001
# 4 -0.0001 -0.0001 0.0005 26.0843 0.0000 0.0000
# 5 0.0000 0.0000 0.0000 0.0000 21.6775 0.0000
# 6 0.0000 0.0000 -0.0001 0.0000 0.0000 15.8602
#
#
#
# Elastic Compliance Matrix: (Units=1/GPa)
#
#
# Indices 1 2 3 4 5 6 
#
# 1 0.010819 -0.009013 -0.004414 0.000000 0.000000 0.000000
# 2 -0.009013 0.059348 -0.012646 0.000000 0.000000 0.000000
# 3 -0.004414 -0.012646 0.016852 0.000000 0.000000 0.000000
# 4 0.000000 0.000000 0.000000 0.038337 0.000000 0.000000
# 5 0.000000 0.000000 0.000000 0.000000 0.046131 0.000000
# 6 0.000000 0.000000 0.000000 0.000000 0.000000 0.063051
#
#
# Mechanical properties :
#
#
# Convention : Reuss Voigt Hill
#
# Bulk Modulus (GPa) = 28.67488 61.65244 45.16366
# Shear Modulus (GPa) = 16.76119 22.36275 19.56197
#
# Velocity S-wave (km/s) = 3.07374 3.55040 3.32063
# Velocity P-wave (km/s) = 5.36288 7.18047 6.33718
#
# Compressibility (1/GPa) = 0.03487373
#
# Stress axis : x y z
#
# Youngs Moduli (GPa) = 92.43213 16.84974 59.33944
#
# Poissons Ratio (x) = 0.15186 0.26194
# Poissons Ratio (y) = 0.83305 0.75040
# Poissons Ratio (z) = 0.40802 0.21308
#
# Static dielectric constant tensor:
#      x y z
#    x 1.596900 0.000000 0.000000 
#    y 0.000000 1.615580 0.000000 
#    z 0.000000 0.000000 1.598810 
# 
# From -- ./inp_files/7549.got.cif
#   From: 2010.05.17/outbox.cif.g08.bks.cpg/sg44_4_cif.got.tgz:7549.got - 2010.06.03 19:37:08.
