data_PCOD9374052
_publ_section_title
;
Structure prediction by ZEFSAII (Michael W. Deem and Ramdas Pophale) SiO2 
 PCOD9374052
Probable space group: I M M 2
;
_chemical_formula_sum "Si O2"
_cell_formula_units_Z 64
_cell_length_a 16.099744
_cell_length_b 7.661109
_cell_length_c 24.434843
_cell_angle_alpha 90.000000
_cell_angle_beta 90.000000
_cell_angle_gamma 90.000000
_cell_volume 3013.839807
_symmetry_space_group_name_H-M "I M M 2"
_symmetry_group_IT_number 44
_symmetry_cell_setting 'orthorhombic'
loop_
_space_group_symop_operation_xyz
x,y,z
-x,-y,z
-x,y,z
x,-y,z
1/2+x,1/2+y,1/2+z
1/2-x,1/2-y,1/2+z
1/2-x,1/2+y,1/2+z
1/2+x,1/2-y,1/2+z
loop_
_atom_site_type_symbol
_atom_site_label
_atom_site_fract_x
_atom_site_fract_y
_atom_site_fract_z
Si Si1 0.591871 0.296423 0.351880
Si Si2 0.845734 0.788790 0.477357
Si Si3 0.755780 0.205491 0.285971
Si Si4 0.909080 0.293511 0.596573
Si Si5 0.748572 0.714988 0.661654
Si Si6 0.908585 0.790551 0.090948
Si Si7 0.092166 0.213668 0.359255
Si Si8 0.345710 0.791683 0.470811
O O1 0.500000 0.221098 0.340531
O O2 0.589654 0.500000 0.338115
O O3 0.669214 0.221440 0.318270
O O4 0.611122 0.279483 0.416448
O O5 0.888935 0.727735 0.532577
O O6 0.890792 0.733084 0.421814
O O7 0.749768 0.729773 0.475121
O O8 0.845665 0.000000 0.478547
O O9 0.751866 0.274597 0.224373
O O10 0.832141 0.277298 0.321733
O O11 0.772778 0.000000 0.280305
O O12 0.912399 0.500000 0.608142
O O13 0.831536 0.223442 0.630869
O O14 0.000000 0.218629 0.608964
O O15 0.748900 0.500000 0.660568
O O16 0.667383 0.773439 0.628128
O O17 0.000000 0.723404 0.106066
O O18 0.909882 0.000000 0.096865
O O19 0.890604 0.751923 0.027408
O O20 0.000000 0.267098 0.341482
O O21 0.093993 0.000000 0.359070
O O22 0.343910 0.000000 0.464365
#
# Coordination Sequence:
#
# PCOD9374052 Si02
#       8
#     8   8   8   8   8   8   8   8
#     4  11  24  40  58  82 113 148 183 227 287 343
#     4  10  19  33  54  80 109 141 176 217 273 330
#     4  10  20  37  59  83 109 145 192 234 274 322
#     4  10  20  34  53  78 107 142 182 221 268 324
#     4   9  19  35  55  79 110 145 184 230 270 314
#     4  10  20  35  56  83 115 150 184 221 275 335
#     4   9  17  31  53  81 111 138 171 221 275 325
#     4  11  21  35  58  86 112 143 186 229 274 333
#
# _framework density 21.235367
#
# number of rings (size 3 to 8) (size 9 to 14) (size 15 to 20)
#    0.000    2.000    2.500    1.500    0.000    5.000 
#    0.000    5.000    0.000    0.375    0.000    0.000 
#    0.000    0.000    0.000    0.000    0.000    0.000 
#
# Total GULP energy -178776.917131 kJ/mol
# GULP energy per Si atom -5586.778660 kJ/mol
# Density = 2.118703 g / cm^3
# Si number density = 21.235367 Si / 1000 Ang^3
#
#
#
# Elastic Constant Matrix: (Units=GPa)
#
#
# Indices 1 2 3 4 5 6 
#
# 1 197.4525 1.5201 79.4832 0.0000 0.0000 0.0000
# 2 1.5201 36.3200 -7.4701 0.0000 0.0000 0.0000
# 3 79.4832 -7.4701 148.3826 0.0000 0.0000 0.0000
# 4 0.0000 0.0000 0.0000 18.4614 0.0000 0.0000
# 5 0.0000 0.0000 0.0000 0.0000 37.7255 0.0000
# 6 0.0000 0.0000 0.0000 0.0000 0.0000 -9.3254
#
#
#
# Elastic Compliance Matrix: (Units=1/GPa)
#
#
# Indices 1 2 3 4 5 6 
#
# 1 0.006492 -0.000997 -0.003528 0.000000 0.000000 0.000000
# 2 -0.000997 0.027974 0.001943 0.000000 0.000000 0.000000
# 3 -0.003528 0.001943 0.008727 0.000000 0.000000 0.000000
# 4 0.000000 0.000000 0.000000 0.054167 0.000000 0.000000
# 5 0.000000 0.000000 0.000000 0.000000 0.026507 0.000000
# 6 0.000000 0.000000 0.000000 0.000000 0.000000 -0.107234
#
#
# Mechanical properties :
#
#
# Convention : Reuss Voigt Hill
#
# Bulk Modulus (GPa) = 26.29628 58.80239 42.54934
# Shear Modulus (GPa) = 145.03118 29.94708 87.48913
#
# Velocity S-wave (km/s) = 8.27317 3.75940 6.42566
# Velocity P-wave (km/s) = 10.18187 6.82605 8.66791
#
# Compressibility (1/GPa) = 0.03802819
#
# Stress axis : x y z
#
# Youngs Moduli (GPa) = 154.02793 35.74707 114.58811
#
# Poissons Ratio (x) = 0.03565 0.40426
# Poissons Ratio (y) = 0.15362 -0.22259
# Poissons Ratio (z) = 0.54340 -0.06944
#
# Static dielectric constant tensor:
#      x y z
#    x 1.772590 0.000000 0.000000 
#    y 0.000000 1.807830 0.000000 
#    z 0.000000 0.000000 1.716790 
# 
# From -- ./inp_files/25107.got.cif
#   From: 2010.05.17/outbox.cif.g08.bks.cpg/sg44_13_cif.got.tgz:25107.got - 2010.06.03 19:37:08.
