data_PCOD9374207
_publ_section_title
;
Structure prediction by ZEFSAII (Michael W. Deem and Ramdas Pophale) SiO2 
 PCOD9374207
Probable space group: I M M 2
;
_chemical_formula_sum "Si O2"
_cell_formula_units_Z 64
_cell_length_a 16.520218
_cell_length_b 22.811144
_cell_length_c 8.864416
_cell_angle_alpha 90.000000
_cell_angle_beta 90.000000
_cell_angle_gamma 90.000000
_cell_volume 3340.511483
_symmetry_space_group_name_H-M "I M M 2"
_symmetry_group_IT_number 44
_symmetry_cell_setting 'orthorhombic'
loop_
_space_group_symop_operation_xyz
x,y,z
-x,-y,z
-x,y,z
x,-y,z
1/2+x,1/2+y,1/2+z
1/2-x,1/2-y,1/2+z
1/2-x,1/2+y,1/2+z
1/2+x,1/2-y,1/2+z
loop_
_atom_site_type_symbol
_atom_site_label
_atom_site_fract_x
_atom_site_fract_y
_atom_site_fract_z
Si Si1 0.828046 0.643839 0.048870
Si Si2 0.747014 0.567519 0.497477
Si Si3 0.594441 0.328679 0.813674
Si Si4 0.410364 0.222214 0.293616
Si Si5 0.906531 0.430217 0.312013
Si Si6 0.210529 0.931998 0.349688
Si Si7 0.852796 0.825543 0.966234
Si Si8 0.294321 0.255772 0.036111
O O1 0.881063 0.612596 0.175815
O O2 0.760071 0.690793 0.102890
O O3 0.882139 0.680317 0.929789
O O4 0.777561 0.594481 0.960261
O O5 0.729481 0.500000 0.461294
O O6 0.837061 0.580272 0.436932
O O7 0.742366 0.574833 0.677899
O O8 0.677377 0.609328 0.430438
O O9 0.500000 0.322556 0.846089
O O10 0.630836 0.391839 0.859255
O O11 0.610238 0.322452 0.634565
O O12 0.647677 0.282513 0.908205
O O13 0.500000 0.206430 0.242916
O O14 0.408483 0.289365 0.353564
O O15 0.345535 0.222118 0.160972
O O16 0.901278 0.500000 0.270896
O O17 0.000000 0.419522 0.357481
O O18 0.195304 0.000000 0.378764
O O19 0.769917 0.788755 0.969031
#
# Coordination Sequence:
#
# PCOD9374207 Si02
#       8
#     8   8   8   8   8   8   8   8
#     4  10  20  35  54  76 103 139 179 215 258 318
#     4   9  18  34  55  76 100 133 173 213 258 316
#     4  10  20  34  53  79 108 134 170 219 265 308
#     4  11  21  33  51  75 103 132 167 213 260 303
#     4  10  20  34  52  76 106 137 174 222 268 309
#     4   9  18  34  56  78 103 138 176 213 259 318
#     4  10  19  35  53  74 101 135 171 208 253 309
#     4  10  20  35  53  73 102 138 172 208 255 314
#
# _framework density 19.158742
#
# number of rings (size 3 to 8) (size 9 to 14) (size 15 to 20)
#    0.000    2.125    0.000    5.250    0.000    1.250 
#    0.000    6.250    0.000    4.125    0.000    0.000 
#    0.000    0.000    0.000    0.000    0.000    0.000 
#
# Total GULP energy -178612.560973 kJ/mol
# GULP energy per Si atom -5581.642530 kJ/mol
# Density = 1.911514 g / cm^3
# Si number density = 19.158742 Si / 1000 Ang^3
#
#
#
# Elastic Constant Matrix: (Units=GPa)
#
#
# Indices 1 2 3 4 5 6 
#
# 1 103.5962 20.0908 12.1470 0.0000 0.0000 0.0000
# 2 20.0908 59.4688 7.2134 0.0000 0.0000 0.0000
# 3 12.1470 7.2134 18.7726 0.0000 0.0000 0.0000
# 4 0.0000 0.0000 0.0000 29.2669 0.0000 0.0000
# 5 0.0000 0.0000 0.0000 0.0000 19.3050 0.0000
# 6 0.0000 0.0000 0.0000 0.0000 0.0000 19.7719
#
#
#
# Elastic Compliance Matrix: (Units=1/GPa)
#
#
# Indices 1 2 3 4 5 6 
#
# 1 0.010924 -0.002972 -0.005927 0.000000 0.000000 0.000000
# 2 -0.002972 0.018446 -0.005165 0.000000 0.000000 0.000000
# 3 -0.005927 -0.005165 0.059089 0.000000 0.000000 0.000000
# 4 0.000000 0.000000 0.000000 0.034168 0.000000 0.000000
# 5 0.000000 0.000000 0.000000 0.000000 0.051800 0.000000
# 6 0.000000 0.000000 0.000000 0.000000 0.000000 0.050577
#
#
# Mechanical properties :
#
#
# Convention : Reuss Voigt Hill
#
# Bulk Modulus (GPa) = 16.57495 28.97111 22.77303
# Shear Modulus (GPa) = 18.29884 23.16118 20.73001
#
# Velocity S-wave (km/s) = 3.09385 3.48071 3.29297
# Velocity P-wave (km/s) = 4.62955 5.59538 5.13522
#
# Compressibility (1/GPa) = 0.06033200
#
# Stress axis : x y z
#
# Youngs Moduli (GPa) = 91.54074 54.21237 16.92373
#
# Poissons Ratio (x) = 0.16110 0.10030
# Poissons Ratio (y) = 0.27203 0.08741
# Poissons Ratio (z) = 0.54253 0.28001
#
# Static dielectric constant tensor:
#      x y z
#    x 1.645830 0.000000 0.000000 
#    y 0.000000 1.689850 0.000000 
#    z 0.000000 0.000000 1.677410 
# 
# From -- ./inp_files/7530.got.cif
#   From: 2010.05.17/outbox.cif.g08.bks.cpg/sg44_4_cif.got.tgz:7530.got - 2010.06.03 19:37:08.
