data_PCOD9374346
_publ_section_title
;
Structure prediction by ZEFSAII (Michael W. Deem and Ramdas Pophale) SiO2 
 PCOD9374346
Probable space group: I M M 2
;
_chemical_formula_sum "Si O2"
_cell_formula_units_Z 40
_cell_length_a 14.153870
_cell_length_b 18.360073
_cell_length_c 7.592504
_cell_angle_alpha 90.000000
_cell_angle_beta 90.000000
_cell_angle_gamma 90.000000
_cell_volume 1973.034301
_symmetry_space_group_name_H-M "I M M 2"
_symmetry_group_IT_number 44
_symmetry_cell_setting 'orthorhombic'
loop_
_space_group_symop_operation_xyz
x,y,z
-x,-y,z
-x,y,z
x,-y,z
1/2+x,1/2+y,1/2+z
1/2-x,1/2-y,1/2+z
1/2-x,1/2+y,1/2+z
1/2+x,1/2-y,1/2+z
loop_
_atom_site_type_symbol
_atom_site_label
_atom_site_fract_x
_atom_site_fract_y
_atom_site_fract_z
Si Si1 0.606359 0.211924 0.202310
Si Si2 0.199895 0.148592 0.246466
Si Si3 0.110812 0.694749 0.275797
Si Si4 0.611207 0.628291 0.386208
Si Si5 0.241201 0.919320 0.600723
O O1 0.500000 0.191355 0.250338
O O2 0.687949 0.158851 0.262468
O O3 0.624682 0.290412 0.295691
O O4 0.614527 0.204940 0.989286
O O5 0.152435 0.227613 0.219104
O O6 0.183077 0.111481 0.432503
O O7 0.164543 0.112207 0.069009
O O8 0.177308 0.633452 0.185665
O O9 0.000000 0.685964 0.228721
O O10 0.500000 0.619367 0.410055
O O11 0.660997 0.577497 0.247396
O O12 0.279391 0.000000 0.561325
#
# Coordination Sequence:
#
# PCOD9374346 Si02
#       5
#     8   8   8   8   8
#     4  10  19  36  68 102 128 165 221 281 331 386
#     4  12  21  41  69 100 127 176 232 278 327 409
#     4  11  21  40  71 100 130 175 228 278 330 401
#     4  11  23  41  66  96 131 170 221 283 343 398
#     4  12  27  44  65  98 142 182 220 281 354 416
#
# _framework density 20.273342
#
# number of rings (size 3 to 8) (size 9 to 14) (size 15 to 20)
#    0.000    0.800    6.000    1.800    0.000    4.800 
#    0.000    0.000    0.000    0.000    0.000    0.000 
#    0.000    0.000    0.000    0.000    0.000    0.000 
#
# Total GULP energy -111433.362235 kJ/mol
# GULP energy per Si atom -5571.668112 kJ/mol
# Density = 2.022720 g / cm^3
# Si number density = 20.273342 Si / 1000 Ang^3
#
#
#
# Elastic Constant Matrix: (Units=GPa)
#
#
# Indices 1 2 3 4 5 6 
#
# 1 75.9724 23.5257 43.1637 0.0000 0.0000 0.0000
# 2 23.5257 82.6295 50.4594 0.0000 0.0000 0.0000
# 3 43.1637 50.4594 142.1025 0.0000 0.0000 0.0000
# 4 0.0000 0.0000 0.0000 -60.7452 0.0000 0.0000
# 5 0.0000 0.0000 0.0000 0.0000 21.5400 0.0000
# 6 0.0000 0.0000 0.0000 0.0000 0.0000 1.6548
#
#
#
# Elastic Compliance Matrix: (Units=1/GPa)
#
#
# Indices 1 2 3 4 5 6 
#
# 1 0.016175 -0.002049 -0.004186 0.000000 0.000000 0.000000
# 2 -0.002049 0.015713 -0.004957 0.000000 0.000000 0.000000
# 3 -0.004186 -0.004957 0.010069 0.000000 0.000000 0.000000
# 4 0.000000 0.000000 0.000000 -0.016462 0.000000 0.000000
# 5 0.000000 0.000000 0.000000 0.000000 0.046425 0.000000
# 6 0.000000 0.000000 0.000000 0.000000 0.000000 0.604294
#
#
# Mechanical properties :
#
#
# Convention : Reuss Voigt Hill
#
# Bulk Modulus (GPa) = 51.09065 59.44466 55.26766
# Shear Modulus (GPa) = 7.09097 4.72696 5.90897
#
# Velocity S-wave (km/s) = 1.87224 1.52862 1.70909
# Velocity P-wave (km/s) = 5.47077 5.70095 5.58704
#
# Compressibility (1/GPa) = 0.01957305
#
# Stress axis : x y z
#
# Youngs Moduli (GPa) = 61.82267 63.64249 99.31751
#
# Poissons Ratio (x) = 0.13042 0.41570
# Poissons Ratio (y) = 0.12670 0.49232
# Poissons Ratio (z) = 0.25876 0.31547
#
# Static dielectric constant tensor:
#      x y z
#    x 1.724760 0.000000 0.000000 
#    y 0.000000 1.774210 0.000000 
#    z 0.000000 0.000000 1.816580 
# 
# From -- ./inp_files/6829.got.cif
#   From: 2010.05.17/outbox.cif.g08.bks.cpg/sg44_4_cif.got.tgz:6829.got - 2010.06.03 19:37:08.
