data_PCOD9374171
_publ_section_title
;
Structure prediction by ZEFSAII (Michael W. Deem and Ramdas Pophale) SiO2 
 PCOD9374171
Probable space group: I M M 2
;
_chemical_formula_sum "Si O2"
_cell_formula_units_Z 48
_cell_length_a 29.344100
_cell_length_b 7.942978
_cell_length_c 10.623592
_cell_angle_alpha 90.000000
_cell_angle_beta 90.000000
_cell_angle_gamma 90.000000
_cell_volume 2476.141944
_symmetry_space_group_name_H-M "I M M 2"
_symmetry_group_IT_number 44
_symmetry_cell_setting 'orthorhombic'
loop_
_space_group_symop_operation_xyz
x,y,z
-x,-y,z
-x,y,z
x,-y,z
1/2+x,1/2+y,1/2+z
1/2-x,1/2-y,1/2+z
1/2-x,1/2+y,1/2+z
1/2+x,1/2-y,1/2+z
loop_
_atom_site_type_symbol
_atom_site_label
_atom_site_fract_x
_atom_site_fract_y
_atom_site_fract_z
Si Si1 0.449434 0.205381 0.146710
Si Si2 0.194367 0.203297 0.008378
Si Si3 0.354951 0.796639 0.251788
Si Si4 0.352670 0.699471 0.763739
Si Si5 0.050864 0.296819 0.353815
Si Si6 0.702050 0.798938 0.011882
O O1 0.500000 0.261304 0.186137
O O2 0.406661 0.263100 0.228309
O O3 0.449718 0.000000 0.148344
O O4 0.442575 0.253985 0.000279
O O5 0.169953 0.265730 0.135498
O O6 0.195813 0.000000 0.014415
O O7 0.166495 0.249137 0.884244
O O8 0.246432 0.266822 0.000397
O O9 0.355829 0.000000 0.244668
O O10 0.323940 0.733629 0.135621
O O11 0.346190 0.500000 0.765817
O O12 0.406325 0.736231 0.774336
O O13 0.327294 0.768103 0.887110
O O14 0.051264 0.500000 0.351766
O O15 0.000000 0.241198 0.314726
O O16 0.705343 0.000000 0.027456
#
# Coordination Sequence:
#
# PCOD9374171 Si02
#       6
#     8   8   8   8   8   8
#     4   8  14  28  53  81 104 129 167 217 265 307
#     4  10  23  38  51  74 112 149 178 217 270 325
#     4  10  19  34  57  81 105 136 177 224 270 317
#     4  11  22  36  55  81 113 145 178 220 273 325
#     4   9  17  33  58  83 107 139 180 223 266 315
#     4  10  20  37  58  78 103 139 186 230 266 313
#
# _framework density 19.384996000000001
#
# number of rings (size 3 to 8) (size 9 to 14) (size 15 to 20)
#    0.000    2.333    1.667    2.500    0.000    4.333 
#    0.000    0.833    0.000    3.500    0.000    0.000 
#    0.000    0.000    0.000    0.000    0.000    0.000 
#
# Total GULP energy -133936.739800 kJ/mol
# GULP energy per Si atom -5580.697492 kJ/mol
# Density = 1.934087 g / cm^3
# Si number density = 19.384996 Si / 1000 Ang^3
#
#
#
# Elastic Constant Matrix: (Units=GPa)
#
#
# Indices 1 2 3 4 5 6 
#
# 1 182.1558 3.5932 81.1735 0.0000 0.0000 0.0000
# 2 3.5932 10.5917 -2.1564 0.0000 0.0000 0.0000
# 3 81.1735 -2.1564 129.4104 0.0000 0.0000 0.0000
# 4 0.0000 0.0000 0.0000 23.9529 0.0000 0.0000
# 5 0.0000 0.0000 0.0000 0.0000 -4.5968 0.0000
# 6 0.0000 0.0000 0.0000 0.0000 0.0000 25.8525
#
#
#
# Elastic Compliance Matrix: (Units=1/GPa)
#
#
# Indices 1 2 3 4 5 6 
#
# 1 0.007757 -0.003634 -0.004926 0.000000 0.000000 0.000000
# 2 -0.003634 0.096438 0.003887 0.000000 0.000000 0.000000
# 3 -0.004926 0.003887 0.010882 0.000000 0.000000 0.000000
# 4 0.000000 0.000000 0.000000 0.041749 0.000000 0.000000
# 5 0.000000 0.000000 0.000000 0.000000 -0.217544 0.000000
# 6 0.000000 0.000000 0.000000 0.000000 0.000000 0.038681
#
#
# Mechanical properties :
#
#
# Convention : Reuss Voigt Hill
#
# Bulk Modulus (GPa) = 9.45810 54.15316 31.80563
# Shear Modulus (GPa) = 221.70308 25.01157 123.35733
#
# Velocity S-wave (km/s) = 10.70592 3.59591 7.98584
# Velocity P-wave (km/s) = 12.55834 6.72584 10.07345
#
# Compressibility (1/GPa) = 0.10572953
#
# Stress axis : x y z
#
# Youngs Moduli (GPa) = 128.92186 10.36933 91.89518
#
# Poissons Ratio (x) = 0.03769 0.45267
# Poissons Ratio (y) = 0.46854 -0.35716
# Poissons Ratio (z) = 0.63506 -0.04030
#
# Static dielectric constant tensor:
#      x y z
#    x 1.695500 0.000000 0.000000 
#    y 0.000000 1.709430 0.000000 
#    z 0.000000 0.000000 1.635600 
# 
# From -- ./inp_files/4862.got.cif
#   From: 2010.05.17/outbox.cif.g08.bks.cpg/sg44_3_cif.got.tgz:4862.got - 2010.06.03 19:37:08.
