data_PCOD9374347
_publ_section_title
;
Structure prediction by ZEFSAII (Michael W. Deem and Ramdas Pophale) SiO2 
 PCOD9374347
Probable space group: I M M 2
;
_chemical_formula_sum "Si O2"
_cell_formula_units_Z 48
_cell_length_a 22.116011
_cell_length_b 12.829523
_cell_length_c 8.011330
_cell_angle_alpha 90.000000
_cell_angle_beta 90.000000
_cell_angle_gamma 90.000000
_cell_volume 2273.117724
_symmetry_space_group_name_H-M "I M M 2"
_symmetry_group_IT_number 44
_symmetry_cell_setting 'orthorhombic'
loop_
_space_group_symop_operation_xyz
x,y,z
-x,-y,z
-x,y,z
x,-y,z
1/2+x,1/2+y,1/2+z
1/2-x,1/2-y,1/2+z
1/2-x,1/2+y,1/2+z
1/2+x,1/2-y,1/2+z
loop_
_atom_site_type_symbol
_atom_site_label
_atom_site_fract_x
_atom_site_fract_y
_atom_site_fract_z
Si Si1 0.591716 0.885455 0.275180
Si Si2 0.932573 0.168808 0.592194
Si Si3 0.212170 0.709643 0.722982
Si Si4 0.837312 0.766551 0.364036
Si Si5 0.569644 0.215858 0.623313
Si Si6 0.862893 0.115724 0.909870
O O1 0.571125 0.791142 0.153770
O O2 0.664744 0.876864 0.283021
O O3 0.569926 0.858741 0.461845
O O4 0.572954 0.000000 0.221971
O O5 0.885504 0.153548 0.443103
O O6 0.910140 0.110923 0.756296
O O7 0.000000 0.142571 0.545513
O O8 0.196446 0.725071 0.529246
O O9 0.282635 0.692330 0.751461
O O10 0.310506 0.688262 0.327872
O O11 0.881290 0.686889 0.264976
O O12 0.500000 0.227270 0.679742
O O13 0.600252 0.322091 0.551525
O O14 0.843104 0.000000 0.956739
#
# Coordination Sequence:
#
# PCOD9374347 Si02
#       6
#     8   8   8   8   8   8
#     4   9  18  34  57  81 106 137 172 212 257 310
#     4   9  19  34  55  81 107 139 172 208 259 311
#     4   9  19  36  57  78 102 137 176 217 264 305
#     4  10  19  37  56  74 107 139 173 222 261 304
#     4  10  20  33  52  79 109 141 173 209 258 310
#     4   9  18  34  57  81 106 137 172 212 257 310
#
# _framework density 21.116374
#
# number of rings (size 3 to 8) (size 9 to 14) (size 15 to 20)
#    0.000    3.333    0.000    4.500    0.000    2.667 
#    0.000   21.667    0.000    8.000    0.000    0.000 
#    0.000    0.000    0.000    0.000    0.000    0.000 
#
# Total GULP energy -133607.174848 kJ/mol
# GULP energy per Si atom -5566.965619 kJ/mol
# Density = 2.106831 g / cm^3
# Si number density = 21.116374 Si / 1000 Ang^3
#
#
#
# Elastic Constant Matrix: (Units=GPa)
#
#
# Indices 1 2 3 4 5 6 
#
# 1 195.7682 -7.2567 43.8992 0.0000 0.0000 0.0000
# 2 -7.2567 94.7002 -10.9221 0.0000 0.0000 0.0000
# 3 43.8992 -10.9221 80.1356 0.0000 0.0000 0.0000
# 4 0.0000 0.0000 0.0000 -4.3948 0.0000 0.0000
# 5 0.0000 0.0000 0.0000 0.0000 29.5117 0.0000
# 6 0.0000 0.0000 0.0000 0.0000 0.0000 -5.9990
#
#
#
# Elastic Compliance Matrix: (Units=1/GPa)
#
#
# Indices 1 2 3 4 5 6 
#
# 1 0.005824 0.000080 -0.003180 0.000000 0.000000 0.000000
# 2 0.000080 0.010729 0.001419 0.000000 0.000000 0.000000
# 3 -0.003180 0.001419 0.014414 0.000000 0.000000 0.000000
# 4 0.000000 0.000000 0.000000 -0.227544 0.000000 0.000000
# 5 0.000000 0.000000 0.000000 0.000000 0.033885 0.000000
# 6 0.000000 0.000000 0.000000 0.000000 0.000000 -0.166696
#
#
# Mechanical properties :
#
#
# Convention : Reuss Voigt Hill
#
# Bulk Modulus (GPa) = 36.22546 46.89385 41.55966
# Shear Modulus (GPa) = -15.78169 26.81584 5.51708
#
# Velocity S-wave (km/s) = -2.73677 3.56744 1.61814
# Velocity P-wave (km/s) = 2.68437 6.26294 4.81821
#
# Compressibility (1/GPa) = 0.02760489
#
# Stress axis : x y z
#
# Youngs Moduli (GPa) = 171.70235 93.20216 69.37669
#
# Poissons Ratio (x) = -0.00742 0.22059
# Poissons Ratio (y) = -0.01366 -0.09843
# Poissons Ratio (z) = 0.54595 -0.13223
#
# Static dielectric constant tensor:
#      x y z
#    x 1.820640 0.000000 0.000000 
#    y 0.000000 1.736640 0.000000 
#    z 0.000000 0.000000 1.848270 
# 
# From -- ./inp_files/8858.got.cif
#   From: 2010.05.17/outbox.cif.g08.bks.cpg/sg44_5_cif.got.tgz:8858.got - 2010.06.03 19:37:08.
