data_PCOD9374690
_publ_section_title
;
Structure prediction by ZEFSAII (Michael W. Deem and Ramdas Pophale) SiO2 
 PCOD9374690
Probable space group: I M M 2
;
_chemical_formula_sum "Si O2"
_cell_formula_units_Z 48
_cell_length_a 8.606112
_cell_length_b 30.346513
_cell_length_c 10.446505
_cell_angle_alpha 90.000000
_cell_angle_beta 90.000000
_cell_angle_gamma 90.000000
_cell_volume 2728.266594
_symmetry_space_group_name_H-M "I M M 2"
_symmetry_group_IT_number 44
_symmetry_cell_setting 'orthorhombic'
loop_
_space_group_symop_operation_xyz
x,y,z
-x,-y,z
-x,y,z
x,-y,z
1/2+x,1/2+y,1/2+z
1/2-x,1/2-y,1/2+z
1/2-x,1/2+y,1/2+z
1/2+x,1/2-y,1/2+z
loop_
_atom_site_type_symbol
_atom_site_label
_atom_site_fract_x
_atom_site_fract_y
_atom_site_fract_z
Si Si1 0.812530 0.949341 0.776460
Si Si2 0.313119 0.882163 0.276918
Si Si3 0.313372 0.715722 0.776703
Si Si4 0.813372 0.715722 0.497465
Si Si5 0.813119 0.117837 0.997244
Si Si6 0.312530 0.050659 0.497705
O O1 0.750002 0.936301 0.637082
O O2 0.000000 0.948715 0.772519
O O3 0.763136 0.000000 0.800753
O O4 0.762281 0.916340 0.888146
O O5 0.500000 0.881165 0.272534
O O6 0.251798 0.833011 0.304162
O O7 0.249996 0.894911 0.137082
O O8 0.262282 0.916341 0.386017
O O9 0.500000 0.713502 0.770806
O O10 0.250003 0.729020 0.637083
O O11 0.268125 0.750000 0.887083
O O12 0.748209 0.666990 0.470003
O O13 0.000000 0.713504 0.503366
O O14 0.000000 0.118837 0.001622
O O15 0.500000 0.051285 0.501648
O O16 0.263138 0.000000 0.473411
#
# Coordination Sequence:
#
# PCOD9374690 Si02
#       6
#     8   8   8   8   8   8
#     4   9  19  35  53  75 103 134 169 208 250 297
#     4  10  20  34  53  76 103 134 168 208 251 297
#     4  10  21  36  54  76 102 133 169 208 251 300
#     4  10  21  36  54  76 102 133 169 208 251 300
#     4  10  20  34  53  76 103 134 168 208 251 297
#     4   9  19  35  53  75 103 134 169 208 250 297
#
# _framework density 17.593589000000001
#
# number of rings (size 3 to 8) (size 9 to 14) (size 15 to 20)
#    0.000    2.333    0.000    4.000    0.000    7.333 
#    0.000    6.667    0.000    0.000    0.000    0.000 
#    0.000    0.000    0.000    0.000    0.000    0.000 
#
# Total GULP energy -133934.981420 kJ/mol
# GULP energy per Si atom -5580.624226 kJ/mol
# Density = 1.755354 g / cm^3
# Si number density = 17.593589 Si / 1000 Ang^3
#
#
#
# Elastic Constant Matrix: (Units=GPa)
#
#
# Indices 1 2 3 4 5 6 
#
# 1 39.4348 35.0218 44.6811 0.0000 0.0001 0.0011
# 2 35.0218 112.0958 139.5194 -0.0002 0.0000 -0.0003
# 3 44.6811 139.5194 197.6807 -0.0003 0.0003 0.0036
# 4 0.0000 -0.0002 -0.0003 44.8564 0.0000 0.0008
# 5 0.0001 0.0000 0.0003 0.0000 29.5703 0.0011
# 6 0.0011 -0.0003 0.0036 0.0008 0.0011 -18.3434
#
#
#
# Elastic Compliance Matrix: (Units=1/GPa)
#
#
# Indices 1 2 3 4 5 6 
#
# 1 0.035157 -0.008997 -0.001597 0.000000 0.000000 0.000002
# 2 -0.008997 0.075693 -0.051390 0.000000 0.000001 -0.000012
# 3 -0.001597 -0.051390 0.041689 0.000000 0.000000 0.000009
# 4 0.000000 0.000000 0.000000 0.022293 0.000000 0.000001
# 5 0.000000 0.000001 0.000000 0.000000 0.033818 0.000002
# 6 0.000002 -0.000012 0.000009 0.000001 0.000002 -0.054516
#
#
# Mechanical properties :
#
#
# Convention : Reuss Voigt Hill
#
# Bulk Modulus (GPa) = 34.99663 87.51731 61.25697
# Shear Modulus (GPa) = 17.38364 19.88260 18.63312
#
# Velocity S-wave (km/s) = 3.14676 3.36535 3.25789
# Velocity P-wave (km/s) = 5.75654 8.05932 7.00323
#
# Compressibility (1/GPa) = 0.02857418
#
# Stress axis : x y z
#
# Youngs Moduli (GPa) = 28.44349 13.21118 23.98690
#
# Poissons Ratio (x) = 0.11886 0.03830
# Poissons Ratio (y) = 0.25590 1.23268
# Poissons Ratio (z) = 0.04542 0.67892
#
# Static dielectric constant tensor:
#      x y z
#    x 1.597800 0.000000 0.000000 
#    y 0.000000 1.586260 0.000000 
#    z 0.000000 0.000000 1.577910 
# 
# From -- ./inp_files/11213.got.cif
#   From: 2010.05.17/outbox.cif.g08.bks.cpg/sg44_6_cif.got.tgz:11213.got - 2010.06.03 19:37:08.
