data_PCOD9374370
_publ_section_title
;
Structure prediction by ZEFSAII (Michael W. Deem and Ramdas Pophale) SiO2 
 PCOD9374370
Probable space group: I M M 2
;
_chemical_formula_sum "Si O2"
_cell_formula_units_Z 44
_cell_length_a 31.565043
_cell_length_b 8.345616
_cell_length_c 9.190619
_cell_angle_alpha 90.000000
_cell_angle_beta 90.000000
_cell_angle_gamma 90.000000
_cell_volume 2421.082262
_symmetry_space_group_name_H-M "I M M 2"
_symmetry_group_IT_number 44
_symmetry_cell_setting 'orthorhombic'
loop_
_space_group_symop_operation_xyz
x,y,z
-x,-y,z
-x,y,z
x,-y,z
1/2+x,1/2+y,1/2+z
1/2-x,1/2-y,1/2+z
1/2-x,1/2+y,1/2+z
1/2+x,1/2-y,1/2+z
loop_
_atom_site_type_symbol
_atom_site_label
_atom_site_fract_x
_atom_site_fract_y
_atom_site_fract_z
Si Si1 0.676943 0.000000 0.097360
Si Si2 0.821859 0.749610 0.338702
Si Si3 0.817364 0.500000 0.091080
Si Si4 0.417309 0.000000 0.564930
Si Si5 0.081837 0.820622 0.253833
Si Si6 0.248068 0.500000 0.832855
Si Si7 0.950102 0.818709 0.579336
Si Si8 0.586429 0.000000 0.231435
O O1 0.721442 0.000000 0.182879
O O2 0.637381 0.000000 0.207970
O O3 0.672982 0.148661 0.986338
O O4 0.810519 0.647583 0.197183
O O5 0.868294 0.818100 0.299342
O O6 0.780815 0.856933 0.354649
O O7 0.866511 0.500000 0.052248
O O8 0.787114 0.500000 0.956021
O O9 0.427698 0.834922 0.652754
O O10 0.430873 0.000000 0.396858
O O11 0.057148 0.803493 0.405936
O O12 0.072727 0.000000 0.192332
O O13 0.929106 0.664760 0.655250
O O14 0.000000 0.814212 0.610475
O O15 0.934307 0.000000 0.619841
#
# Coordination Sequence:
#
# PCOD9374370 Si02
#       8
#     4   8   4   4   8   4   8   4
#     4  11  22  36  55  82 118 155 199 255 292 367
#     4  10  20  35  54  77 110 150 193 245 298 343
#     4   9  20  35  48  74 110 143 184 240 284 333
#     4  10  22  36  58  83 124 158 192 240 294 362
#     4  10  19  38  63  86 114 158 202 246 297 360
#     4  12  20  34  55  80 111 152 193 244 299 352
#     4  10  22  40  66  96 120 150 203 258 302 365
#     4  12  21  39  62  89 128 166 198 245 317 364
#
# _framework density 18.173689
#
# number of rings (size 3 to 8) (size 9 to 14) (size 15 to 20)
#    0.000    1.636    3.636    2.455    0.000    0.727 
#    0.000    1.818    0.000    2.182    0.000    0.000 
#    0.000    0.000    0.000    0.000    0.000    0.000 
#
# Total GULP energy -122504.867248 kJ/mol
# GULP energy per Si atom -5568.403057 kJ/mol
# Density = 1.813233 g / cm^3
# Si number density = 18.173689 Si / 1000 Ang^3
#
#
#
# Elastic Constant Matrix: (Units=GPa)
#
#
# Indices 1 2 3 4 5 6 
#
# 1 31.4462 22.3551 -1.3620 0.0000 0.0000 0.0000
# 2 22.3551 144.1130 53.9154 0.0000 0.0000 0.0000
# 3 -1.3620 53.9154 85.5896 0.0000 0.0000 0.0000
# 4 0.0000 0.0000 0.0000 12.6894 0.0000 0.0000
# 5 0.0000 0.0000 0.0000 0.0000 14.8335 0.0000
# 6 0.0000 0.0000 0.0000 0.0000 0.0000 47.8030
#
#
#
# Elastic Compliance Matrix: (Units=1/GPa)
#
#
# Indices 1 2 3 4 5 6 
#
# 1 0.037689 -0.007943 0.005603 0.000000 0.000000 0.000000
# 2 -0.007943 0.010752 -0.006900 0.000000 0.000000 0.000000
# 3 0.005603 -0.006900 0.016119 0.000000 0.000000 0.000000
# 4 0.000000 0.000000 0.000000 0.078806 0.000000 0.000000
# 5 0.000000 0.000000 0.000000 0.000000 0.067415 0.000000
# 6 0.000000 0.000000 0.000000 0.000000 0.000000 0.020919
#
#
# Mechanical properties :
#
#
# Convention : Reuss Voigt Hill
#
# Bulk Modulus (GPa) = 21.70020 45.66286 33.68153
# Shear Modulus (GPa) = 18.82954 27.48121 23.15538
#
# Velocity S-wave (km/s) = 3.22232 3.89285 3.57335
# Velocity P-wave (km/s) = 5.08044 6.73692 5.96644
#
# Compressibility (1/GPa) = 0.04608252
#
# Stress axis : x y z
#
# Youngs Moduli (GPa) = 26.53262 93.00277 62.03816
#
# Poissons Ratio (x) = 0.73869 -0.34761
# Poissons Ratio (y) = 0.21074 0.42804
# Poissons Ratio (z) = -0.14867 0.64168
#
# Static dielectric constant tensor:
#      x y z
#    x 1.604350 0.000000 0.000000 
#    y 0.000000 1.494590 0.000000 
#    z 0.000000 0.000000 1.597690 
# 
# From -- ./inp_files/9954.got.cif
#   From: 2010.05.17/outbox.cif.g08.bks.cpg/sg44_5_cif.got.tgz:9954.got - 2010.06.03 19:37:08.
