data_PCOD9374846
_publ_section_title
;
Structure prediction by ZEFSAII (Michael W. Deem and Ramdas Pophale) SiO2 
 PCOD9374846
Probable space group: I M M 2
;
_chemical_formula_sum "Si O2"
_cell_formula_units_Z 48
_cell_length_a 7.968853
_cell_length_b 9.141403
_cell_length_c 35.370646
_cell_angle_alpha 90.000000
_cell_angle_beta 90.000000
_cell_angle_gamma 90.000000
_cell_volume 2576.627648
_symmetry_space_group_name_H-M "I M M 2"
_symmetry_group_IT_number 44
_symmetry_cell_setting 'orthorhombic'
loop_
_space_group_symop_operation_xyz
x,y,z
-x,-y,z
-x,y,z
x,-y,z
1/2+x,1/2+y,1/2+z
1/2-x,1/2-y,1/2+z
1/2-x,1/2+y,1/2+z
1/2+x,1/2-y,1/2+z
loop_
_atom_site_type_symbol
_atom_site_label
_atom_site_fract_x
_atom_site_fract_y
_atom_site_fract_z
Si Si1 0.302303 0.329267 0.208300
Si Si2 0.801460 0.322429 0.949767
Si Si3 0.500000 0.177735 0.083863
Si Si4 0.814323 0.824015 0.133810
Si Si5 0.000000 0.322933 0.495719
Si Si6 0.300936 0.834336 0.789374
Si Si7 0.798125 0.665871 0.864213
O O1 0.500000 0.324137 0.200308
O O2 0.248013 0.500000 0.208282
O O3 0.210756 0.242949 0.175270
O O4 0.272479 0.269615 0.250598
O O5 0.786737 0.500000 0.952227
O O6 0.757156 0.279555 0.906356
O O7 0.000000 0.287871 0.956612
O O8 0.667185 0.244115 0.976508
O O9 0.334360 0.227339 0.106326
O O10 0.500000 0.218045 0.040038
O O11 0.500000 0.000000 0.084930
O O12 0.000000 0.786413 0.119419
O O13 0.803154 0.000000 0.136623
O O14 0.000000 0.500000 0.492272
O O15 0.500000 0.838715 0.784248
O O16 0.262793 0.754572 0.828315
O O17 0.234251 0.000000 0.792415
O O18 0.734554 0.500000 0.861170
O O19 0.000000 0.662152 0.862859
#
# Coordination Sequence:
#
# PCOD9374846 Si02
#       7
#     8   8   4   8   4   8   8
#     4  10  20  35  55  78 108 148 188 228 281 336
#     4   9  20  40  62  84 116 158 198 240 294 352
#     4   9  20  39  57  83 119 149 183 233 289 343
#     4  10  20  36  60  84 108 145 188 230 279 334
#     4  11  23  37  61  93 121 151 193 245 301 359
#     4  10  21  34  49  75 111 146 182 228 280 334
#     4   9  19  36  56  77 103 141 189 234 278 329
#
# _framework density 18.629003000000001
#
# number of rings (size 3 to 8) (size 9 to 14) (size 15 to 20)
#    0.000    2.333    0.833    2.250    1.167    4.667 
#    0.000    5.000    0.000    0.000    0.000    0.000 
#    0.000    0.000    0.000    0.000    0.000    0.000 
#
# Total GULP energy -133860.309870 kJ/mol
# GULP energy per Si atom -5577.512911 kJ/mol
# Density = 1.858660 g / cm^3
# Si number density = 18.629003 Si / 1000 Ang^3
#
#
#
# Elastic Constant Matrix: (Units=GPa)
#
#
# Indices 1 2 3 4 5 6 
#
# 1 111.1736 33.7724 79.2334 0.0000 0.0000 0.0000
# 2 33.7724 26.7117 42.2106 0.0000 0.0000 0.0000
# 3 79.2334 42.2106 153.1798 0.0000 0.0000 0.0000
# 4 0.0000 0.0000 0.0000 31.0406 0.0000 0.0000
# 5 0.0000 0.0000 0.0000 0.0000 16.1309 0.0000
# 6 0.0000 0.0000 0.0000 0.0000 0.0000 9.5124
#
#
#
# Elastic Compliance Matrix: (Units=1/GPa)
#
#
# Indices 1 2 3 4 5 6 
#
# 1 0.016464 -0.013034 -0.004924 0.000000 0.000000 0.000000
# 2 -0.013034 0.076632 -0.014375 0.000000 0.000000 0.000000
# 3 -0.004924 -0.014375 0.013037 0.000000 0.000000 0.000000
# 4 0.000000 0.000000 0.000000 0.032216 0.000000 0.000000
# 5 0.000000 0.000000 0.000000 0.000000 0.061993 0.000000
# 6 0.000000 0.000000 0.000000 0.000000 0.000000 0.105126
#
#
# Mechanical properties :
#
#
# Convention : Reuss Voigt Hill
#
# Bulk Modulus (GPa) = 24.11640 66.83310 45.47475
# Shear Modulus (GPa) = 13.02232 20.39336 16.70784
#
# Velocity S-wave (km/s) = 2.64680 3.31223 2.99803
# Velocity P-wave (km/s) = 4.72381 7.11207 6.03722
#
# Compressibility (1/GPa) = 0.04146556
#
# Stress axis : x y z
#
# Youngs Moduli (GPa) = 60.73790 13.04940 76.70703
#
# Poissons Ratio (x) = 0.17009 0.37774
# Poissons Ratio (y) = 0.79168 1.10264
# Poissons Ratio (z) = 0.29910 0.18758
#
# Static dielectric constant tensor:
#      x y z
#    x 1.660700 0.000000 0.000000 
#    y 0.000000 1.644590 0.000000 
#    z 0.000000 0.000000 1.630600 
# 
# From -- ./inp_files/26929.got.cif
#   From: 2010.05.17/outbox.cif.g08.bks.cpg/sg44_14_cif.got.tgz:26929.got - 2010.06.03 19:37:08.
