data_PCOD9374622
_publ_section_title
;
Structure prediction by ZEFSAII (Michael W. Deem and Ramdas Pophale) SiO2 
 PCOD9374622
Probable space group: I M M 2
;
_chemical_formula_sum "Si O2"
_cell_formula_units_Z 64
_cell_length_a 8.825903
_cell_length_b 21.207353
_cell_length_c 20.100471
_cell_angle_alpha 90.000000
_cell_angle_beta 90.000000
_cell_angle_gamma 90.000000
_cell_volume 3762.286372
_symmetry_space_group_name_H-M "I M M 2"
_symmetry_group_IT_number 44
_symmetry_cell_setting 'orthorhombic'
loop_
_space_group_symop_operation_xyz
x,y,z
-x,-y,z
-x,y,z
x,-y,z
1/2+x,1/2+y,1/2+z
1/2-x,1/2-y,1/2+z
1/2-x,1/2+y,1/2+z
1/2+x,1/2-y,1/2+z
loop_
_atom_site_type_symbol
_atom_site_label
_atom_site_fract_x
_atom_site_fract_y
_atom_site_fract_z
Si Si1 0.818952 0.237166 0.196830
Si Si2 0.679334 0.384225 0.052297
Si Si3 0.681128 0.311518 0.840221
Si Si4 0.816939 0.123413 0.700378
Si Si5 0.819435 0.428648 0.917050
Si Si6 0.182016 0.806731 0.920076
Si Si7 0.179140 0.732505 0.556503
Si Si8 0.815826 0.069220 0.841058
O O1 0.781627 0.196842 0.262306
O O2 0.756859 0.307903 0.208264
O O3 0.744845 0.214248 0.128276
O O4 0.000000 0.239379 0.189427
O O5 0.500000 0.396702 0.043267
O O6 0.723473 0.402995 0.127519
O O7 0.701509 0.308345 0.048867
O O8 0.770049 0.416052 0.993131
O O9 0.500000 0.308523 0.848023
O O10 0.741499 0.375772 0.871933
O O11 0.752481 0.252602 0.879592
O O12 0.775608 0.082144 0.764080
O O13 0.000000 0.131706 0.699871
O O14 0.776177 0.500000 0.898539
O O15 0.000000 0.422217 0.911783
O O16 0.233887 0.871688 0.885372
O O17 0.000000 0.803909 0.917765
O O18 0.238699 0.800838 0.995397
O O19 0.000000 0.721117 0.554043
O O20 0.000000 0.068986 0.843743
O O21 0.762366 0.000000 0.862181
#
# Coordination Sequence:
#
# PCOD9374622 Si02
#       8
#     8   8   8   8   8   8   8   8
#     4  10  20  33  53  81 110 137 174 222 271 321
#     4   9  18  31  50  76 106 142 179 219 262 316
#     4  11  22  36  56  81 108 141 180 224 271 324
#     4   9  17  31  51  76 106 143 184 219 260 312
#     4  11  24  38  53  76 107 144 184 226 272 323
#     4  11  20  32  56  82 107 143 183 226 271 314
#     4  10  20  34  54  80 110 139 176 223 271 322
#     4   9  18  32  51  78 110 144 183 223 264 315
#
# _framework density 17.010933000000001
#
# number of rings (size 3 to 8) (size 9 to 14) (size 15 to 20)
#    0.000    2.000    2.500    2.625    0.000    5.000 
#    0.000    1.250    0.000    4.125    0.000    1.750 
#    0.000    0.000    0.000    0.000    0.000    0.000 
#
# Total GULP energy -178598.862959 kJ/mol
# GULP energy per Si atom -5581.214467 kJ/mol
# Density = 1.697221 g / cm^3
# Si number density = 17.010933 Si / 1000 Ang^3
#
#
#
# Elastic Constant Matrix: (Units=GPa)
#
#
# Indices 1 2 3 4 5 6 
#
# 1 44.1226 41.8995 46.2396 0.0000 0.0000 0.0000
# 2 41.8995 112.9728 74.4099 0.0000 0.0000 0.0000
# 3 46.2396 74.4099 128.1853 0.0000 0.0000 0.0000
# 4 0.0000 0.0000 0.0000 17.9506 0.0000 0.0000
# 5 0.0000 0.0000 0.0000 0.0000 27.2349 0.0000
# 6 0.0000 0.0000 0.0000 0.0000 0.0000 0.5614
#
#
#
# Elastic Compliance Matrix: (Units=1/GPa)
#
#
# Indices 1 2 3 4 5 6 
#
# 1 0.041334 -0.008920 -0.009732 0.000000 0.000000 0.000000
# 2 -0.008920 0.016256 -0.006219 0.000000 0.000000 0.000000
# 3 -0.009732 -0.006219 0.014922 0.000000 0.000000 0.000000
# 4 0.000000 0.000000 0.000000 0.055708 0.000000 0.000000
# 5 0.000000 0.000000 0.000000 0.000000 0.036718 0.000000
# 6 0.000000 0.000000 0.000000 0.000000 0.000000 1.781274
#
#
# Mechanical properties :
#
#
# Convention : Reuss Voigt Hill
#
# Bulk Modulus (GPa) = 43.91776 67.81985 55.86881
# Shear Modulus (GPa) = 2.49558 17.33148 9.91353
#
# Velocity S-wave (km/s) = 1.21253 3.19540 2.41669
# Velocity P-wave (km/s) = 5.27577 7.31909 6.37976
#
# Compressibility (1/GPa) = 0.02276983
#
# Stress axis : x y z
#
# Youngs Moduli (GPa) = 24.19331 61.51633 67.01607
#
# Poissons Ratio (x) = 0.54871 0.65222
# Poissons Ratio (y) = 0.21580 0.41676
# Poissons Ratio (z) = 0.23546 0.38255
#
# Static dielectric constant tensor:
#      x y z
#    x 1.566680 0.000000 0.000000 
#    y 0.000000 1.562360 0.000000 
#    z 0.000000 0.000000 1.580930 
# 
# From -- ./inp_files/20749.got.cif
#   From: 2010.05.17/outbox.cif.g08.bks.cpg/sg44_11_cif.got.tgz:20749.got - 2010.06.03 19:37:08.
