data_PCOD9374639
_publ_section_title
;
Structure prediction by ZEFSAII (Michael W. Deem and Ramdas Pophale) SiO2 
 PCOD9374639
Probable space group: I M M 2
;
_chemical_formula_sum "Si O2"
_cell_formula_units_Z 64
_cell_length_a 8.669489
_cell_length_b 20.158844
_cell_length_c 21.193779
_cell_angle_alpha 90.000000
_cell_angle_beta 90.000000
_cell_angle_gamma 90.000000
_cell_volume 3703.970553
_symmetry_space_group_name_H-M "I M M 2"
_symmetry_group_IT_number 44
_symmetry_cell_setting 'orthorhombic'
loop_
_space_group_symop_operation_xyz
x,y,z
-x,-y,z
-x,y,z
x,-y,z
1/2+x,1/2+y,1/2+z
1/2-x,1/2-y,1/2+z
1/2-x,1/2+y,1/2+z
1/2+x,1/2-y,1/2+z
loop_
_atom_site_type_symbol
_atom_site_label
_atom_site_fract_x
_atom_site_fract_y
_atom_site_fract_z
Si Si1 0.184484 0.924556 0.523830
Si Si2 0.685898 0.074625 0.903063
Si Si3 0.186119 0.574036 0.165391
Si Si4 0.315440 0.787590 0.722024
Si Si5 0.183929 0.789654 0.855420
Si Si6 0.684963 0.208957 0.479826
Si Si7 0.314387 0.786926 0.100867
Si Si8 0.187181 0.573015 0.551355
O O1 0.242479 0.916686 0.595950
O O2 0.261461 0.867112 0.482918
O O3 0.000000 0.712493 0.984915
O O4 0.223790 0.000000 0.504534
O O5 0.500000 0.079764 0.897846
O O6 0.761380 0.135020 0.866718
O O7 0.729236 0.000000 0.882667
O O8 0.726786 0.081141 0.977359
O O9 0.228618 0.500000 0.188211
O O10 0.232201 0.635769 0.208575
O O11 0.000000 0.575889 0.159184
O O12 0.500000 0.785125 0.721977
O O13 0.252736 0.765595 0.789492
O O14 0.251849 0.744678 0.664214
O O15 0.000000 0.787295 0.852505
O O16 0.234166 0.746308 0.915929
O O17 0.757726 0.245439 0.540348
O O18 0.000000 0.082723 0.522726
O O19 0.500000 0.784854 0.102639
O O20 0.261841 0.862929 0.089970
O O21 0.241426 0.500000 0.572152
O O22 0.000000 0.572273 0.553580
#
# Coordination Sequence:
#
# PCOD9374639 Si02
#       8
#     8   8   8   8   8   8   8   8
#     4  10  20  33  54  84 111 137 175 224 274 322
#     4   9  17  32  54  79 109 146 186 220 262 324
#     4   9  18  33  52  75 106 144 181 217 261 318
#     4  11  23  37  54  77 110 148 186 225 272 327
#     4  11  24  38  53  77 111 147 188 231 271 318
#     4  11  22  36  55  80 110 145 183 224 271 324
#     4  11  20  33  58  84 109 141 181 228 273 319
#     4   8  15  29  52  82 110 138 176 220 265 318
#
# _framework density 17.278755
#
# number of rings (size 3 to 8) (size 9 to 14) (size 15 to 20)
#    0.000    2.000    2.500    2.625    0.000    3.500 
#    0.000    1.250    0.000    2.250    0.000    1.750 
#    0.000    0.000    0.000    0.000    0.000    0.000 
#
# Total GULP energy -178592.684177 kJ/mol
# GULP energy per Si atom -5581.021381 kJ/mol
# Density = 1.723943 g / cm^3
# Si number density = 17.278755 Si / 1000 Ang^3
#
#
#
# Elastic Constant Matrix: (Units=GPa)
#
#
# Indices 1 2 3 4 5 6 
#
# 1 29.1624 27.4225 32.4459 0.0000 0.0000 0.0000
# 2 27.4225 113.8736 66.2885 0.0000 0.0000 0.0000
# 3 32.4459 66.2885 118.4361 0.0000 0.0000 0.0000
# 4 0.0000 0.0000 0.0000 20.3244 0.0000 0.0000
# 5 0.0000 0.0000 0.0000 0.0000 25.0448 0.0000
# 6 0.0000 0.0000 0.0000 0.0000 0.0000 18.0225
#
#
#
# Elastic Compliance Matrix: (Units=1/GPa)
#
#
# Indices 1 2 3 4 5 6 
#
# 1 0.052202 -0.006298 -0.010776 0.000000 0.000000 0.000000
# 2 -0.006298 0.013785 -0.005990 0.000000 0.000000 0.000000
# 3 -0.010776 -0.005990 0.014748 0.000000 0.000000 0.000000
# 4 0.000000 0.000000 0.000000 0.049202 0.000000 0.000000
# 5 0.000000 0.000000 0.000000 0.000000 0.039928 0.000000
# 6 0.000000 0.000000 0.000000 0.000000 0.000000 0.055486
#
#
# Mechanical properties :
#
#
# Convention : Reuss Voigt Hill
#
# Bulk Modulus (GPa) = 28.89571 57.08733 42.99152
# Shear Modulus (GPa) = 17.66677 21.69934 19.68306
#
# Velocity S-wave (km/s) = 3.20106 3.54763 3.37879
# Velocity P-wave (km/s) = 5.51561 7.06340 6.33694
#
# Compressibility (1/GPa) = 0.03460721
#
# Stress axis : x y z
#
# Youngs Moduli (GPa) = 19.15624 72.54015 67.80495
#
# Poissons Ratio (x) = 0.45688 0.73066
# Poissons Ratio (y) = 0.12065 0.40617
# Poissons Ratio (z) = 0.20642 0.43454
#
# Static dielectric constant tensor:
#      x y z
#    x 1.581880 0.000000 0.000000 
#    y 0.000000 1.611710 0.000000 
#    z 0.000000 0.000000 1.562170 
# 
# From -- ./inp_files/20726.got.cif
#   From: 2010.05.17/outbox.cif.g08.bks.cpg/sg44_11_cif.got.tgz:20726.got - 2010.06.03 19:37:08.
