data_PCOD9374299
_publ_section_title
;
Structure prediction by ZEFSAII (Michael W. Deem and Ramdas Pophale) SiO2 
 PCOD9374299
Probable space group: I M M 2
;
_chemical_formula_sum "Si O2"
_cell_formula_units_Z 58
_cell_length_a 8.005320
_cell_length_b 25.740945
_cell_length_c 13.865502
_cell_angle_alpha 90.000000
_cell_angle_beta 90.000000
_cell_angle_gamma 90.000000
_cell_volume 2857.187762
_symmetry_space_group_name_H-M "I M M 2"
_symmetry_group_IT_number 44
_symmetry_cell_setting 'orthorhombic'
loop_
_space_group_symop_operation_xyz
x,y,z
-x,-y,z
-x,y,z
x,-y,z
1/2+x,1/2+y,1/2+z
1/2-x,1/2-y,1/2+z
1/2-x,1/2+y,1/2+z
1/2+x,1/2-y,1/2+z
loop_
_atom_site_type_symbol
_atom_site_label
_atom_site_fract_x
_atom_site_fract_y
_atom_site_fract_z
Si Si1 0.000000 0.500000 0.390760
Si Si2 0.301313 0.871624 0.112651
Si Si3 0.802447 0.676265 0.328031
Si Si4 0.700015 0.662900 0.112876
Si Si5 0.699036 0.559255 0.787074
Si Si6 0.813709 0.925032 0.925439
Si Si7 0.202223 0.735382 0.511631
Si Si8 0.800264 0.441620 0.009214
O O1 0.150510 0.456456 0.394565
O O2 0.500000 0.873887 0.094440
O O3 0.268924 0.895604 0.217972
O O4 0.246915 0.812900 0.082098
O O5 0.211941 0.910082 0.037429
O O6 0.767906 0.680566 0.216098
O O7 0.699373 0.627631 0.365687
O O8 0.754173 0.721989 0.401452
O O9 0.000000 0.667114 0.342854
O O10 0.500000 0.663744 0.116461
O O11 0.762569 0.707935 0.041183
O O12 0.749338 0.605281 0.078975
O O13 0.500000 0.559155 0.775462
O O14 0.760533 0.500000 0.762959
O O15 0.739205 0.568032 0.899795
O O16 0.000000 0.946254 0.911841
O O17 0.000000 0.736682 0.517839
O O18 0.740888 0.500000 0.037809
O O19 0.000000 0.443024 0.007552
#
# Coordination Sequence:
#
# PCOD9374299 Si02
#       8
#     2   8   8   8   8   8   8   8
#     4  12  22  40  56  90 124 170 218 264 318 362
#     4  10  19  36  57  85 125 167 204 252 314 368
#     4  10  20  42  63  85 123 165 203 254 316 369
#     4  11  22  39  65  94 119 155 202 251 310 377
#     4  10  21  35  55  84 119 159 203 252 303 362
#     4  11  22  38  59  87 124 169 214 263 315 377
#     4   8  19  38  61  87 122 159 198 252 307 360
#     4  10  22  42  61  83 114 155 199 252 308 368
#
# _framework density 20.299681
#
# number of rings (size 3 to 8) (size 9 to 14) (size 15 to 20)
#    0.000    1.931    1.379    3.103    0.966    2.759 
#    1.241   11.034    0.000    0.000    0.000    0.000 
#    0.000    0.000    0.000    0.000    0.000    0.000 
#
# Total GULP energy -161463.976385 kJ/mol
# GULP energy per Si atom -5567.723324 kJ/mol
# Density = 2.025348 g / cm^3
# Si number density = 20.299681 Si / 1000 Ang^3
#
#
#
# Elastic Constant Matrix: (Units=GPa)
#
#
# Indices 1 2 3 4 5 6 
#
# 1 99.6846 21.9647 12.4622 0.0000 0.0000 0.0000
# 2 21.9647 114.1911 72.4550 -0.0001 0.0000 0.0001
# 3 12.4622 72.4550 99.8074 -0.0003 0.0000 0.0002
# 4 0.0000 -0.0001 -0.0003 11.9327 0.0000 0.0001
# 5 0.0000 0.0000 0.0000 0.0000 30.1584 0.0000
# 6 0.0000 0.0001 0.0002 0.0001 0.0000 92.5781
#
#
#
# Elastic Compliance Matrix: (Units=1/GPa)
#
#
# Indices 1 2 3 4 5 6 
#
# 1 0.010480 -0.002198 0.000287 0.000000 0.000000 0.000000
# 2 -0.002198 0.016697 -0.011847 0.000000 0.000000 0.000000
# 3 0.000287 -0.011847 0.018583 0.000000 0.000000 0.000000
# 4 0.000000 0.000000 0.000000 0.083803 0.000000 0.000000
# 5 0.000000 0.000000 0.000000 0.000000 0.033158 0.000000
# 6 0.000000 0.000000 0.000000 0.000000 0.000000 0.010802
#
#
# Mechanical properties :
#
#
# Convention : Reuss Voigt Hill
#
# Bulk Modulus (GPa) = 54.80861 58.60522 56.70692
# Shear Modulus (GPa) = 24.14062 40.72061 32.43061
#
# Velocity S-wave (km/s) = 3.45224 4.48367 4.00133
# Velocity P-wave (km/s) = 6.55354 7.46573 7.02446
#
# Compressibility (1/GPa) = 0.01824531
#
# Stress axis : x y z
#
# Youngs Moduli (GPa) = 95.41930 59.89195 53.81144
#
# Poissons Ratio (x) = 0.13164 -0.01545
# Poissons Ratio (y) = 0.20973 0.63748
# Poissons Ratio (z) = -0.02739 0.70951
#
# Static dielectric constant tensor:
#      x y z
#    x 1.720580 0.000000 0.000000 
#    y 0.000000 1.720940 0.000000 
#    z 0.000000 0.000000 1.766910 
# 
# From -- ./inp_files/11288.got.cif
#   From: 2010.05.17/outbox.cif.g08.bks.cpg/sg44_6_cif.got.tgz:11288.got - 2010.06.03 19:37:08.
