data_PCOD9374297
_publ_section_title
;
Structure prediction by ZEFSAII (Michael W. Deem and Ramdas Pophale) SiO2 
 PCOD9374297
Probable space group: I M M 2
;
_chemical_formula_sum "Si O2"
_cell_formula_units_Z 48
_cell_length_a 10.600337
_cell_length_b 8.583361
_cell_length_c 29.092508
_cell_angle_alpha 90.000000
_cell_angle_beta 90.000000
_cell_angle_gamma 90.000000
_cell_volume 2647.026038
_symmetry_space_group_name_H-M "I M M 2"
_symmetry_group_IT_number 44
_symmetry_cell_setting 'orthorhombic'
loop_
_space_group_symop_operation_xyz
x,y,z
-x,-y,z
-x,y,z
x,-y,z
1/2+x,1/2+y,1/2+z
1/2-x,1/2-y,1/2+z
1/2-x,1/2+y,1/2+z
1/2+x,1/2-y,1/2+z
loop_
_atom_site_type_symbol
_atom_site_label
_atom_site_fract_x
_atom_site_fract_y
_atom_site_fract_z
Si Si1 0.000000 0.687038 0.966570
Si Si2 0.741825 0.686593 0.412198
Si Si3 0.500000 0.189877 0.572935
Si Si4 0.000000 0.312902 0.566756
Si Si5 0.352442 0.814126 0.318539
Si Si6 0.500000 0.189827 0.960389
Si Si7 0.258225 0.311222 0.121302
Si Si8 0.148191 0.812815 0.719719
O O1 0.876026 0.746920 0.940662
O O2 0.000000 0.500000 0.965190
O O3 0.000000 0.738913 0.019734
O O4 0.737238 0.500000 0.414369
O O5 0.725779 0.739435 0.359679
O O6 0.873080 0.740763 0.434615
O O7 0.373191 0.240337 0.598891
O O8 0.500000 0.000000 0.573163
O O9 0.123936 0.251049 0.592353
O O10 0.000000 0.500000 0.567969
O O11 0.000000 0.261238 0.513562
O O12 0.500000 0.765223 0.323715
O O13 0.311592 0.762389 0.267721
O O14 0.347855 0.000000 0.322380
O O15 0.500000 0.000000 0.960056
O O16 0.262844 0.500000 0.120207
O O17 0.275983 0.263828 0.174448
O O18 0.000000 0.773875 0.712205
O O19 0.156529 0.000000 0.724115
#
# Coordination Sequence:
#
# PCOD9374297 Si02
#       8
#     4   8   4   4   8   4   8   8
#     4  11  21  35  54  83 114 143 184 227 266 319
#     4  11  21  37  59  80 107 145 184 225 270 320
#     4   9  20  35  56  81 112 148 182 222 270 317
#     4  11  21  35  56  81 110 145 184 227 270 317
#     4  10  20  34  54  81 112 139 174 224 273 323
#     4   9  22  39  54  79 112 144 184 226 268 321
#     4  10  19  36  57  82 111 144 184 225 265 317
#     4   9  17  31  53  79 106 139 182 225 265 316
#
# _framework density 18.133558000000001
#
# number of rings (size 3 to 8) (size 9 to 14) (size 15 to 20)
#    0.000    2.000    1.667    2.500    0.000    1.333 
#    0.000    6.250    0.000    3.000    0.000    0.000 
#    0.000    0.000    0.000    0.000    0.000    0.000 
#
# Total GULP energy -134014.935790 kJ/mol
# GULP energy per Si atom -5583.955658 kJ/mol
# Density = 1.809229 g / cm^3
# Si number density = 18.133558 Si / 1000 Ang^3
#
#
#
# Elastic Constant Matrix: (Units=GPa)
#
#
# Indices 1 2 3 4 5 6 
#
# 1 148.6115 28.5133 98.0524 0.0000 0.0000 0.0000
# 2 28.5133 27.5347 38.3533 0.0000 0.0000 0.0000
# 3 98.0524 38.3533 190.2588 0.0000 0.0000 0.0000
# 4 0.0000 0.0000 0.0000 27.9391 0.0000 0.0000
# 5 0.0000 0.0000 0.0000 0.0000 0.1901 0.0000
# 6 0.0000 0.0000 0.0000 0.0000 0.0000 0.1335
#
#
#
# Elastic Compliance Matrix: (Units=1/GPa)
#
#
# Indices 1 2 3 4 5 6 
#
# 1 0.010614 -0.004688 -0.004525 0.000000 0.000000 0.000000
# 2 -0.004688 0.052568 -0.008181 0.000000 0.000001 0.000001
# 3 -0.004525 -0.008181 0.009237 0.000000 0.000000 0.000000
# 4 0.000000 0.000000 0.000000 0.035792 0.000000 0.000001
# 5 0.000000 0.000001 0.000000 0.000000 5.260432 0.000059
# 6 0.000000 0.000001 0.000000 0.000001 0.000059 7.491594
#
#
# Mechanical properties :
#
#
# Convention : Reuss Voigt Hill
#
# Bulk Modulus (GPa) = 26.57391 77.36031 51.96711
# Shear Modulus (GPa) = 0.38737 19.08493 9.73615
#
# Velocity S-wave (km/s) = 0.46269 3.24769 2.31965
# Velocity P-wave (km/s) = 3.86934 7.53773 5.99121
#
# Compressibility (1/GPa) = 0.03763089
#
# Stress axis : x y z
#
# Youngs Moduli (GPa) = 94.21500 19.02307 108.25915
#
# Poissons Ratio (x) = 0.08919 0.48987
# Poissons Ratio (y) = 0.44172 0.88563
# Poissons Ratio (z) = 0.42632 0.15562
#
# Static dielectric constant tensor:
#      x y z
#    x 1.594790 0.000000 0.000000 
#    y 0.000000 1.616300 0.000000 
#    z 0.000000 0.000000 1.613730 
# 
# From -- ./inp_files/27048.got.cif
#   From: 2010.05.17/outbox.cif.g08.bks.cpg/sg44_14_cif.got.tgz:27048.got - 2010.06.03 19:37:08.
