data_PCOD9374137
_publ_section_title
;
Structure prediction by ZEFSAII (Michael W. Deem and Ramdas Pophale) SiO2 
 PCOD9374137
Probable space group: I M M 2
;
_chemical_formula_sum "Si O2"
_cell_formula_units_Z 64
_cell_length_a 7.696439
_cell_length_b 27.853753
_cell_length_c 13.543127
_cell_angle_alpha 90.000000
_cell_angle_beta 90.000000
_cell_angle_gamma 90.000000
_cell_volume 2903.303935
_symmetry_space_group_name_H-M "I M M 2"
_symmetry_group_IT_number 44
_symmetry_cell_setting 'orthorhombic'
loop_
_space_group_symop_operation_xyz
x,y,z
-x,-y,z
-x,y,z
x,-y,z
1/2+x,1/2+y,1/2+z
1/2-x,1/2-y,1/2+z
1/2-x,1/2+y,1/2+z
1/2+x,1/2-y,1/2+z
loop_
_atom_site_type_symbol
_atom_site_label
_atom_site_fract_x
_atom_site_fract_y
_atom_site_fract_z
Si Si1 0.286325 0.618598 0.278350
Si Si2 0.206006 0.554079 0.858947
Si Si3 0.800405 0.282557 0.031732
Si Si4 0.209255 0.054659 0.964116
Si Si5 0.707268 0.217556 0.194925
Si Si6 0.698228 0.610752 0.054537
Si Si7 0.208838 0.610695 0.665735
Si Si8 0.207832 0.780850 0.868744
O O1 0.500000 0.619581 0.273445
O O2 0.234091 0.580859 0.363099
O O3 0.225901 0.607689 0.166273
O O4 0.226347 0.670705 0.318752
O O5 0.277711 0.500000 0.863741
O O6 0.275302 0.582749 0.763129
O O7 0.000000 0.550368 0.841919
O O8 0.225951 0.581192 0.963118
O O9 0.500000 0.289316 0.377207
O O10 0.725164 0.236166 0.974206
O O11 0.794535 0.262170 0.141139
O O12 0.705906 0.332958 0.026638
O O13 0.000000 0.053287 0.959759
O O14 0.274134 0.000000 0.970704
O O15 0.254272 0.083918 0.063187
O O16 0.500000 0.220388 0.177008
O O17 0.775148 0.165401 0.166911
O O18 0.733181 0.231645 0.308272
O O19 0.500000 0.594636 0.062291
O O20 0.000000 0.614340 0.675172
O O21 0.000000 0.708812 0.001390
#
# Coordination Sequence:
#
# PCOD9374137 Si02
#       8
#     8   8   8   8   8   8   8   8
#     4   9  18  35  58  81 111 154 196 237 289 346
#     4  10  22  41  63  86 116 156 200 248 304 360
#     4  11  21  34  56  84 115 153 192 233 283 345
#     4  10  21  37  59  86 114 147 194 250 298 347
#     4  10  19  34  55  80 110 146 188 230 277 336
#     4  11  22  38  61  86 118 157 198 246 293 349
#     4  10  21  38  61  87 118 155 195 242 298 363
#     4   9  17  32  54  76 105 147 188 224 275 337
#
# _framework density 22.043852000000001
#
# number of rings (size 3 to 8) (size 9 to 14) (size 15 to 20)
#    0.000    2.000    1.250    2.625    0.000    5.500 
#    0.000    5.000    0.000    0.000    0.000    0.000 
#    0.000    0.000    0.000    0.000    0.000    0.000 
#
# Total GULP energy -178499.668351 kJ/mol
# GULP energy per Si atom -5578.114636 kJ/mol
# Density = 2.199368 g / cm^3
# Si number density = 22.043852 Si / 1000 Ang^3
#
#
#
# Elastic Constant Matrix: (Units=GPa)
#
#
# Indices 1 2 3 4 5 6 
#
# 1 31.6781 2.8597 -0.4456 0.0000 0.0000 0.0000
# 2 2.8597 107.6947 12.8066 -0.0001 0.0000 0.0000
# 3 -0.4456 12.8066 71.9174 -0.0001 0.0000 0.0000
# 4 0.0000 -0.0001 -0.0001 32.1096 0.0000 0.0000
# 5 0.0000 0.0000 0.0000 0.0000 22.0026 0.0000
# 6 0.0000 0.0000 0.0000 0.0000 0.0000 14.8350
#
#
#
# Elastic Compliance Matrix: (Units=1/GPa)
#
#
# Indices 1 2 3 4 5 6 
#
# 1 0.031652 -0.000882 0.000353 0.000000 0.000000 0.000000
# 2 -0.000882 0.009511 -0.001699 0.000000 0.000000 0.000000
# 3 0.000353 -0.001699 0.014210 0.000000 0.000000 0.000000
# 4 0.000000 0.000000 0.000000 0.031143 0.000000 0.000000
# 5 0.000000 0.000000 0.000000 0.000000 0.045449 0.000000
# 6 0.000000 0.000000 0.000000 0.000000 0.000000 0.067408
#
#
# Mechanical properties :
#
#
# Convention : Reuss Voigt Hill
#
# Bulk Modulus (GPa) = 19.64017 26.85907 23.24962
# Shear Modulus (GPa) = 22.64468 26.86073 24.75271
#
# Velocity S-wave (km/s) = 3.20856 3.49451 3.35458
# Velocity P-wave (km/s) = 4.75977 5.33788 5.05709
#
# Compressibility (1/GPa) = 0.05091605
#
# Stress axis : x y z
#
# Youngs Moduli (GPa) = 31.59339 105.14153 70.37498
#
# Poissons Ratio (x) = 0.09279 -0.02486
# Poissons Ratio (y) = 0.02788 0.11958
# Poissons Ratio (z) = -0.01116 0.17865
#
# Static dielectric constant tensor:
#      x y z
#    x 1.867760 0.000000 0.000000 
#    y 0.000000 1.780000 0.000000 
#    z 0.000000 0.000000 1.803000 
# 
# From -- ./inp_files/11498.got.cif
#   From: 2010.05.17/outbox.cif.g08.bks.cpg/sg44_6_cif.got.tgz:11498.got - 2010.06.03 19:37:08.
