data_PCOD9374850
_publ_section_title
;
Structure prediction by ZEFSAII (Michael W. Deem and Ramdas Pophale) SiO2 
 PCOD9374850
Probable space group: I M M 2
;
_chemical_formula_sum "Si O2"
_cell_formula_units_Z 64
_cell_length_a 13.856248
_cell_length_b 21.282570
_cell_length_c 10.014386
_cell_angle_alpha 90.000000
_cell_angle_beta 90.000000
_cell_angle_gamma 90.000000
_cell_volume 2953.208062
_symmetry_space_group_name_H-M "I M M 2"
_symmetry_group_IT_number 44
_symmetry_cell_setting 'orthorhombic'
loop_
_space_group_symop_operation_xyz
x,y,z
-x,-y,z
-x,y,z
x,-y,z
1/2+x,1/2+y,1/2+z
1/2-x,1/2-y,1/2+z
1/2-x,1/2+y,1/2+z
1/2+x,1/2-y,1/2+z
loop_
_atom_site_type_symbol
_atom_site_label
_atom_site_fract_x
_atom_site_fract_y
_atom_site_fract_z
Si Si1 0.891927 0.702109 0.005300
Si Si2 0.604143 0.066802 0.127485
Si Si3 0.393772 0.675750 0.317754
Si Si4 0.762609 0.370149 0.805789
Si Si5 0.246134 0.925188 0.763116
Si Si6 0.610243 0.165076 0.888696
Si Si7 0.789528 0.743734 0.604054
Si Si8 0.113293 0.073840 0.496070
O O1 0.808122 0.716098 0.108797
O O2 0.000000 0.687321 0.047236
O O3 0.894298 0.768336 0.924986
O O4 0.845505 0.650322 0.909765
O O5 0.500000 0.071570 0.199088
O O6 0.692883 0.071830 0.226546
O O7 0.605064 0.121263 0.020172
O O8 0.606995 0.000000 0.056652
O O9 0.500000 0.648801 0.306886
O O10 0.322531 0.619015 0.355319
O O11 0.366569 0.712928 0.181306
O O12 0.762793 0.315153 0.696625
O O13 0.664190 0.384793 0.881755
O O14 0.185087 0.921090 0.624402
O O15 0.255901 0.000000 0.791791
O O16 0.344195 0.884449 0.781495
O O17 0.500000 0.184837 0.856453
O O18 0.673767 0.222554 0.955464
O O19 0.000000 0.089715 0.519789
O O20 0.115202 0.000000 0.458470
#
# Coordination Sequence:
#
# PCOD9374850 Si02
#       8
#     8   8   8   8   8   8   8   8
#     4  10  20  35  55  81 118 152 183 235 300 355
#     4   9  17  31  55  87 119 151 188 234 291 357
#     4  10  20  36  58  82 116 158 198 243 295 357
#     4  10  20  35  60  84 113 150 198 242 298 360
#     4  11  22  37  59  86 119 160 204 250 301 358
#     4  10  20  37  60  90 123 155 198 248 303 365
#     4  10  20  37  62  90 117 155 200 248 310 366
#     4  10  22  40  60  82 114 159 208 256 303 358
#
# _framework density 21.671347000000001
#
# number of rings (size 3 to 8) (size 9 to 14) (size 15 to 20)
#    0.000    2.000    1.250    2.625    0.000    5.000 
#    0.000    3.750    0.000    1.500    0.000    0.000 
#    0.000    0.000    0.000    0.000    0.000    0.000 
#
# Total GULP energy -178231.087983 kJ/mol
# GULP energy per Si atom -5569.721499 kJ/mol
# Density = 2.162202 g / cm^3
# Si number density = 21.671347 Si / 1000 Ang^3
#
#
#
# Elastic Constant Matrix: (Units=GPa)
#
#
# Indices 1 2 3 4 5 6 
#
# 1 132.8746 15.9731 26.6862 -0.0001 0.0000 -0.0001
# 2 15.9731 89.8814 18.2463 -0.0001 0.0000 -0.0001
# 3 26.6862 18.2463 55.9316 -0.0001 0.0000 -0.0002
# 4 -0.0001 -0.0001 -0.0001 19.9286 0.0000 0.0000
# 5 0.0000 0.0000 0.0000 0.0000 22.9866 0.0000
# 6 -0.0001 -0.0001 -0.0002 0.0000 0.0000 8.1938
#
#
#
# Elastic Compliance Matrix: (Units=1/GPa)
#
#
# Indices 1 2 3 4 5 6 
#
# 1 0.008367 -0.000725 -0.003756 0.000000 0.000000 0.000000
# 2 -0.000725 0.011978 -0.003562 0.000000 0.000000 0.000000
# 3 -0.003756 -0.003562 0.020833 0.000000 0.000000 0.000000
# 4 0.000000 0.000000 0.000000 0.050179 0.000000 0.000000
# 5 0.000000 0.000000 0.000000 0.000000 0.043504 0.000000
# 6 0.000000 0.000000 0.000000 0.000000 0.000000 0.122044
#
#
# Mechanical properties :
#
#
# Convention : Reuss Voigt Hill
#
# Bulk Modulus (GPa) = 39.85081 44.49986 42.17534
# Shear Modulus (GPa) = 17.77128 24.74060 21.25594
#
# Velocity S-wave (km/s) = 2.86673 3.38246 3.13522
# Velocity P-wave (km/s) = 5.42090 5.98609 5.71049
#
# Compressibility (1/GPa) = 0.02509359
#
# Stress axis : x y z
#
# Youngs Moduli (GPa) = 119.51279 83.48937 48.00101
#
# Poissons Ratio (x) = 0.06049 0.18029
# Poissons Ratio (y) = 0.08659 0.17097
# Poissons Ratio (z) = 0.44887 0.29737
#
# Static dielectric constant tensor:
#      x y z
#    x 1.833650 0.000000 0.000000 
#    y 0.000000 1.823010 0.000000 
#    z 0.000000 0.000000 1.857650 
# 
# From -- ./inp_files/12651.got.cif
#   From: 2010.05.17/outbox.cif.g08.bks.cpg/sg44_7_cif.got.tgz:12651.got - 2010.06.03 19:37:08.
