data_PCOD9374113
_publ_section_title
;
Structure prediction by ZEFSAII (Michael W. Deem and Ramdas Pophale) SiO2 
 PCOD9374113
Probable space group: I M M 2
;
_chemical_formula_sum "Si O2"
_cell_formula_units_Z 56
_cell_length_a 8.173372
_cell_length_b 25.699394
_cell_length_c 14.864513
_cell_angle_alpha 90.000000
_cell_angle_beta 90.000000
_cell_angle_gamma 90.000000
_cell_volume 3122.301470
_symmetry_space_group_name_H-M "I M M 2"
_symmetry_group_IT_number 44
_symmetry_cell_setting 'orthorhombic'
loop_
_space_group_symop_operation_xyz
x,y,z
-x,-y,z
-x,y,z
x,-y,z
1/2+x,1/2+y,1/2+z
1/2-x,1/2-y,1/2+z
1/2-x,1/2+y,1/2+z
1/2+x,1/2-y,1/2+z
loop_
_atom_site_type_symbol
_atom_site_label
_atom_site_fract_x
_atom_site_fract_y
_atom_site_fract_z
Si Si1 0.303070 0.683330 0.690780
Si Si2 0.696521 0.211107 0.794328
Si Si3 0.804629 0.000000 0.428924
Si Si4 0.197520 0.783485 0.999937
Si Si5 0.194292 0.000000 0.638174
Si Si6 0.698595 0.834219 0.505057
Si Si7 0.695801 0.106016 0.334001
Si Si8 0.802391 0.610833 0.182102
O O1 0.500000 0.687166 0.689664
O O2 0.243265 0.735331 0.745603
O O3 0.247049 0.683956 0.586727
O O4 0.256009 0.630311 0.741034
O O5 0.500000 0.212211 0.784697
O O6 0.738161 0.207694 0.899660
O O7 0.754735 0.157750 0.746493
O O8 0.750255 0.050518 0.372420
O O9 0.740467 0.000000 0.533341
O O10 0.000000 0.000000 0.434108
O O11 0.244539 0.724433 0.024807
O O12 0.000000 0.786544 0.994638
O O13 0.247429 0.051686 0.691346
O O14 0.000000 0.000000 0.631267
O O15 0.500000 0.835860 0.504346
O O16 0.757181 0.852818 0.408739
O O17 0.754863 0.872499 0.582557
O O18 0.500000 0.106065 0.332320
O O19 0.000000 0.611301 0.184479
#
# Coordination Sequence:
#
# PCOD9374113 Si02
#       8
#     8   8   4   8   4   8   8   8
#     4  10  20  34  53  78 111 146 177 218 273 323
#     4  10  20  33  53  80 108 140 181 225 266 313
#     4  11  23  37  53  78 113 144 175 219 274 324
#     4  10  19  34  53  76 110 149 181 213 264 324
#     4  11  23  35  51  80 111 138 175 225 270 314
#     4   9  16  28  50  78 106 139 179 213 248 312
#     4  11  21  34  55  80 108 143 185 223 260 315
#     4  10  19  35  55  75 106 147 182 214 261 321
#
# _framework density 17.935487999999999
#
# number of rings (size 3 to 8) (size 9 to 14) (size 15 to 20)
#    0.000    1.857    4.286    0.857    0.000    1.714 
#    0.000    0.714    0.000    0.857    0.000    4.000 
#    0.000    0.000    0.000    0.000    0.000    0.000 
#
# Total GULP energy -156065.886322 kJ/mol
# GULP energy per Si atom -5573.781654 kJ/mol
# Density = 1.789467 g / cm^3
# Si number density = 17.935488 Si / 1000 Ang^3
#
#
#
# Elastic Constant Matrix: (Units=GPa)
#
#
# Indices 1 2 3 4 5 6 
#
# 1 17.7314 5.2250 6.4995 0.0000 0.0000 0.0000
# 2 5.2250 70.7389 16.0200 0.0000 0.0000 0.0000
# 3 6.4995 16.0200 70.9856 0.0000 0.0000 0.0000
# 4 0.0000 0.0000 0.0000 24.6314 0.0000 0.0000
# 5 0.0000 0.0000 0.0000 0.0000 21.8503 0.0000
# 6 0.0000 0.0000 0.0000 0.0000 0.0000 11.2672
#
#
#
# Elastic Compliance Matrix: (Units=1/GPa)
#
#
# Indices 1 2 3 4 5 6 
#
# 1 0.059081 -0.003308 -0.004663 0.000000 0.000000 0.000000
# 2 -0.003308 0.015083 -0.003101 0.000000 0.000000 0.000000
# 3 -0.004663 -0.003101 0.015214 0.000000 0.000000 0.000000
# 4 0.000000 0.000000 0.000000 0.040599 0.000000 0.000000
# 5 0.000000 0.000000 0.000000 0.000000 0.045766 0.000000
# 6 0.000000 0.000000 0.000000 0.000000 0.000000 0.088753
#
#
# Mechanical properties :
#
#
# Convention : Reuss Voigt Hill
#
# Bulk Modulus (GPa) = 14.87336 23.88278 19.37807
# Shear Modulus (GPa) = 16.17855 20.33055 18.25455
#
# Velocity S-wave (km/s) = 3.00666 3.37046 3.19374
# Velocity P-wave (km/s) = 4.51265 5.33774 4.94244
#
# Compressibility (1/GPa) = 0.06723430
#
# Stress axis : x y z
#
# Youngs Moduli (GPa) = 16.92593 66.29928 65.72827
#
# Poissons Ratio (x) = 0.21931 0.30649
# Poissons Ratio (y) = 0.05599 0.20383
# Poissons Ratio (z) = 0.07892 0.20560
#
# Static dielectric constant tensor:
#      x y z
#    x 1.632120 0.000000 0.000000 
#    y 0.000000 1.614770 0.000000 
#    z 0.000000 0.000000 1.628580 
# 
# From -- ./inp_files/16583.got.cif
#   From: 2010.05.17/outbox.cif.g08.bks.cpg/sg44_9_cif.got.tgz:16583.got - 2010.06.03 19:37:08.
