data_PCOD9374758
_publ_section_title
;
Structure prediction by ZEFSAII (Michael W. Deem and Ramdas Pophale) SiO2 
 PCOD9374758
Probable space group: I M M 2
;
_chemical_formula_sum "Si O2"
_cell_formula_units_Z 64
_cell_length_a 25.745861
_cell_length_b 8.633123
_cell_length_c 15.491866
_cell_angle_alpha 90.000000
_cell_angle_beta 90.000000
_cell_angle_gamma 90.000000
_cell_volume 3443.333442
_symmetry_space_group_name_H-M "I M M 2"
_symmetry_group_IT_number 44
_symmetry_cell_setting 'orthorhombic'
loop_
_space_group_symop_operation_xyz
x,y,z
-x,-y,z
-x,y,z
x,-y,z
1/2+x,1/2+y,1/2+z
1/2-x,1/2-y,1/2+z
1/2-x,1/2+y,1/2+z
1/2+x,1/2-y,1/2+z
loop_
_atom_site_type_symbol
_atom_site_label
_atom_site_fract_x
_atom_site_fract_y
_atom_site_fract_z
Si Si1 0.060262 0.686881 0.058180
Si Si2 0.647815 0.814616 0.037171
Si Si3 0.236868 0.186102 0.010788
Si Si4 0.635462 0.312419 0.411967
Si Si5 0.162202 0.813783 0.726921
Si Si6 0.058569 0.185049 0.415851
Si Si7 0.607298 0.186801 0.743987
Si Si8 0.279510 0.185784 0.700313
O O1 0.062193 0.500000 0.054706
O O2 0.086474 0.732754 0.149301
O O3 0.000000 0.734827 0.056544
O O4 0.092343 0.751868 0.977618
O O5 0.646244 0.762663 0.136966
O O6 0.647199 0.000000 0.032827
O O7 0.703800 0.759014 0.999732
O O8 0.600418 0.749793 0.982695
O O9 0.191926 0.240826 0.946866
O O10 0.238127 0.000000 0.005044
O O11 0.220349 0.235051 0.106919
O O12 0.634857 0.500000 0.413958
O O13 0.631038 0.264674 0.312055
O O14 0.223613 0.779472 0.741476
O O15 0.157731 0.000000 0.717536
O O16 0.074854 0.238913 0.320453
O O17 0.000000 0.239111 0.434930
O O18 0.059447 0.000000 0.419542
O O19 0.668281 0.229288 0.750510
O O20 0.603063 0.000000 0.750781
O O21 0.281806 0.000000 0.687556
#
# Coordination Sequence:
#
# PCOD9374758 Si02
#       8
#     8   8   8   8   8   8   8   8
#     4  10  21  37  56  80 113 150 189 234 278 324
#     4  10  21  38  61  85 112 146 187 236 286 337
#     4   9  18  32  53  82 116 147 180 224 274 329
#     4  10  20  34  55  82 114 152 189 228 274 329
#     4   9  19  35  56  82 117 153 186 228 279 334
#     4  11  25  42  59  82 112 147 191 240 287 339
#     4  10  20  35  58  85 114 150 188 228 279 338
#     4   9  17  31  54  81 112 149 185 220 269 331
#
# _framework density 18.586641
#
# number of rings (size 3 to 8) (size 9 to 14) (size 15 to 20)
#    0.000    2.250    1.250    1.125    1.750    3.750 
#    0.000    0.625    0.000    0.750    0.000    0.000 
#    0.000    0.000    0.000    0.000    0.000    0.000 
#
# Total GULP energy -178569.386999 kJ/mol
# GULP energy per Si atom -5580.293344 kJ/mol
# Density = 1.854434 g / cm^3
# Si number density = 18.586641 Si / 1000 Ang^3
#
#
#
# Elastic Constant Matrix: (Units=GPa)
#
#
# Indices 1 2 3 4 5 6 
#
# 1 127.4882 29.4084 65.2018 0.0000 0.0000 0.0000
# 2 29.4084 12.7346 21.6112 0.0000 0.0000 0.0000
# 3 65.2018 21.6112 90.8795 0.0000 0.0000 0.0000
# 4 0.0000 0.0000 0.0000 29.4092 0.0000 0.0000
# 5 0.0000 0.0000 0.0000 0.0000 27.7874 0.0000
# 6 0.0000 0.0000 0.0000 0.0000 0.0000 23.9081
#
#
#
# Elastic Compliance Matrix: (Units=1/GPa)
#
#
# Indices 1 2 3 4 5 6 
#
# 1 0.018097 -0.033126 -0.005106 0.000000 0.000000 0.000000
# 2 -0.033126 0.192295 -0.021962 0.000000 0.000000 0.000000
# 3 -0.005106 -0.021962 0.019890 0.000000 0.000000 0.000000
# 4 0.000000 0.000000 0.000000 0.034003 0.000000 0.000000
# 5 0.000000 0.000000 0.000000 0.000000 0.035988 0.000000
# 6 0.000000 0.000000 0.000000 0.000000 0.000000 0.041827
#
#
# Mechanical properties :
#
#
# Convention : Reuss Voigt Hill
#
# Bulk Modulus (GPa) = 9.09969 51.50501 30.30235
# Shear Modulus (GPa) = 10.01769 23.87968 16.94868
#
# Velocity S-wave (km/s) = 2.32410 3.58827 3.02300
# Velocity P-wave (km/s) = 3.47971 6.70362 5.34073
#
# Compressibility (1/GPa) = 0.10989387
#
# Stress axis : x y z
#
# Youngs Moduli (GPa) = 55.25902 5.20034 50.27768
#
# Poissons Ratio (x) = 0.17227 0.25672
# Poissons Ratio (y) = 1.83049 1.10419
# Poissons Ratio (z) = 0.28216 0.11421
#
# Static dielectric constant tensor:
#      x y z
#    x 1.651330 0.000000 0.000000 
#    y 0.000000 1.634280 0.000000 
#    z 0.000000 0.000000 1.623780 
# 
# From -- ./inp_files/16805.got.cif
#   From: 2010.05.17/outbox.cif.g08.bks.cpg/sg44_9_cif.got.tgz:16805.got - 2010.06.03 19:37:08.
