data_PCOD9374670
_publ_section_title
;
Structure prediction by ZEFSAII (Michael W. Deem and Ramdas Pophale) SiO2 
 PCOD9374670
Probable space group: I M M 2
;
_chemical_formula_sum "Si O2"
_cell_formula_units_Z 64
_cell_length_a 18.430232
_cell_length_b 9.251356
_cell_length_c 21.339938
_cell_angle_alpha 90.000000
_cell_angle_beta 90.000000
_cell_angle_gamma 90.000000
_cell_volume 3638.558391
_symmetry_space_group_name_H-M "I M M 2"
_symmetry_group_IT_number 44
_symmetry_cell_setting 'orthorhombic'
loop_
_space_group_symop_operation_xyz
x,y,z
-x,-y,z
-x,y,z
x,-y,z
1/2+x,1/2+y,1/2+z
1/2-x,1/2-y,1/2+z
1/2-x,1/2+y,1/2+z
1/2+x,1/2-y,1/2+z
loop_
_atom_site_type_symbol
_atom_site_label
_atom_site_fract_x
_atom_site_fract_y
_atom_site_fract_z
Si Si1 0.585498 0.672032 0.853250
Si Si2 0.588392 0.833529 0.978652
Si Si3 0.588325 0.333178 0.486063
Si Si4 0.916567 0.824138 0.847425
Si Si5 0.178360 0.174274 0.727698
Si Si6 0.914894 0.172065 0.604241
Si Si7 0.667024 0.326551 0.724368
Si Si8 0.087616 0.668275 0.111101
O O1 0.500000 0.704982 0.844035
O O2 0.591425 0.500000 0.863886
O O3 0.611931 0.754695 0.915066
O O4 0.628307 0.709263 0.790334
O O5 0.500000 0.827559 0.978532
O O6 0.610638 0.000000 0.978686
O O7 0.611378 0.754384 0.042292
O O8 0.500000 0.334431 0.484586
O O9 0.611508 0.500000 0.495144
O O10 0.610164 0.280506 0.416721
O O11 0.610703 0.235315 0.544307
O O12 0.866051 0.782039 0.789876
O O13 0.000000 0.775843 0.838246
O O14 0.918489 0.000000 0.848662
O O15 0.130677 0.205664 0.666086
O O16 0.253688 0.257147 0.724199
O O17 0.189670 0.000000 0.729964
O O18 0.000000 0.206994 0.614745
O O19 0.910552 0.000000 0.592969
O O20 0.669524 0.500000 0.718498
O O21 0.621890 0.258708 0.667338
O O22 0.108110 0.500000 0.115631
O O23 0.000000 0.677828 0.114442
#
# Coordination Sequence:
#
# PCOD9374670 Si02
#       8
#     8   8   8   8   8   8   8   8
#     4   9  18  34  55  75  95 125 167 210 251 300
#     4   9  17  29  49  78 106 129 159 205 255 299
#     4   8  14  27  50  78 104 130 164 207 253 301
#     4   8  14  28  53  81 104 130 168 210 250 297
#     4  10  20  34  52  75 104 136 172 213 253 294
#     4   9  17  31  53  78 103 134 170 207 250 301
#     4  11  23  37  52  72 102 138 173 208 251 304
#     4  10  20  34  54  79 104 131 167 211 255 299
#
# _framework density 17.589383999999999
#
# number of rings (size 3 to 8) (size 9 to 14) (size 15 to 20)
#    0.000    2.750    0.000    2.625    0.000    5.750 
#    0.000    3.125    0.000    4.875    0.000    0.000 
#    0.000    0.000    0.000    0.000    0.000    0.000 
#
# Total GULP energy -178434.438028 kJ/mol
# GULP energy per Si atom -5576.076188 kJ/mol
# Density = 1.754935 g / cm^3
# Si number density = 17.589384 Si / 1000 Ang^3
#
#
#
# Elastic Constant Matrix: (Units=GPa)
#
#
# Indices 1 2 3 4 5 6 
#
# 1 48.8038 41.9457 62.2876 0.0000 0.0000 0.0000
# 2 41.9457 63.6128 85.7129 0.0000 0.0000 0.0000
# 3 62.2876 85.7129 199.4414 0.0000 0.0000 0.0000
# 4 0.0000 0.0000 0.0000 13.5281 0.0000 0.0000
# 5 0.0000 0.0000 0.0000 0.0000 -6.2306 0.0000
# 6 0.0000 0.0000 0.0000 0.0000 0.0000 20.7120
#
#
#
# Elastic Compliance Matrix: (Units=1/GPa)
#
#
# Indices 1 2 3 4 5 6 
#
# 1 0.048196 -0.027317 -0.003312 0.000000 0.000000 0.000000
# 2 -0.027317 0.052830 -0.014173 0.000000 0.000000 0.000000
# 3 -0.003312 -0.014173 0.012139 0.000000 0.000000 0.000000
# 4 0.000000 0.000000 0.000000 0.073920 0.000000 0.000000
# 5 0.000000 0.000000 0.000000 0.000000 -0.160498 0.000000
# 6 0.000000 0.000000 0.000000 0.000000 0.000000 0.048281
#
#
# Mechanical properties :
#
#
# Convention : Reuss Voigt Hill
#
# Bulk Modulus (GPa) = 42.44377 76.86115 59.65246
# Shear Modulus (GPa) = 29.01479 13.72935 21.37207
#
# Velocity S-wave (km/s) = 4.06589 2.79686 3.48955
# Velocity P-wave (km/s) = 6.79887 7.36357 7.08685
#
# Compressibility (1/GPa) = 0.02356058
#
# Stress axis : x y z
#
# Youngs Moduli (GPa) = 20.74867 18.92878 82.37635
#
# Poissons Ratio (x) = 0.51708 0.27284
# Poissons Ratio (y) = 0.56679 1.16751
# Poissons Ratio (z) = 0.06872 0.26828
#
# Static dielectric constant tensor:
#      x y z
#    x 1.578930 0.000000 0.000000 
#    y 0.000000 1.586220 0.000000 
#    z 0.000000 0.000000 1.592510 
# 
# From -- ./inp_files/24357.got.cif
#   From: 2010.05.17/outbox.cif.g08.bks.cpg/sg44_13_cif.got.tgz:24357.got - 2010.06.03 19:37:08.
