data_PCOD9374357
_publ_section_title
;
Structure prediction by ZEFSAII (Michael W. Deem and Ramdas Pophale) SiO2 
 PCOD9374357
Probable space group: I M M 2
;
_chemical_formula_sum "Si O2"
_cell_formula_units_Z 40
_cell_length_a 8.719644
_cell_length_b 9.911522
_cell_length_c 26.335178
_cell_angle_alpha 90.000000
_cell_angle_beta 90.000000
_cell_angle_gamma 90.000000
_cell_volume 2276.016266
_symmetry_space_group_name_H-M "I M M 2"
_symmetry_group_IT_number 44
_symmetry_cell_setting 'orthorhombic'
loop_
_space_group_symop_operation_xyz
x,y,z
-x,-y,z
-x,y,z
x,-y,z
1/2+x,1/2+y,1/2+z
1/2-x,1/2-y,1/2+z
1/2-x,1/2+y,1/2+z
1/2+x,1/2-y,1/2+z
loop_
_atom_site_type_symbol
_atom_site_label
_atom_site_fract_x
_atom_site_fract_y
_atom_site_fract_z
Si Si1 0.815368 0.000000 0.934820
Si Si2 0.818020 0.000000 0.660040
Si Si3 0.183705 0.500000 0.829764
Si Si4 0.816531 0.500000 0.272201
Si Si5 0.684038 0.000000 0.210717
Si Si6 0.685907 0.500000 0.551115
Si Si7 0.316374 0.784873 0.858265
Si Si8 0.684369 0.715260 0.634227
O O1 0.753707 0.870368 0.904412
O O2 0.761789 0.000000 0.993205
O O3 0.000000 0.000000 0.933509
O O4 0.748786 0.865086 0.635735
O O5 0.770386 0.000000 0.719327
O O6 0.000000 0.000000 0.655473
O O7 0.224795 0.500000 0.769901
O O8 0.250681 0.635532 0.854053
O O9 0.000000 0.500000 0.833867
O O10 0.779450 0.370160 0.307051
O O11 0.000000 0.500000 0.262521
O O12 0.751917 0.870113 0.181867
O O13 0.500000 0.000000 0.205983
O O14 0.500000 0.500000 0.550027
O O15 0.731257 0.630388 0.584271
O O16 0.500000 0.783140 0.862836
O O17 0.500000 0.717194 0.637136
#
# Coordination Sequence:
#
# PCOD9374357 Si02
#       8
#     4   4   4   4   4   4   8   8
#     4  10  19  37  62  82 102 131 172 219 267 316
#     4  12  23  33  49  79 114 142 175 221 266 301
#     4  11  22  34  51  78 111 145 177 214 261 308
#     4   9  19  35  54  75 104 146 185 211 250 313
#     4  10  20  34  53  80 111 141 177 218 259 304
#     4   8  18  37  61  82  98 129 176 219 259 316
#     4  10  21  36  54  79 108 139 178 218 259 311
#     4  10  20  36  56  78 106 142 181 213 254 315
#
# _framework density 17.574566999999998
#
# number of rings (size 3 to 8) (size 9 to 14) (size 15 to 20)
#    0.000    2.000    0.000    5.400    0.000    7.200 
#    0.000    7.000    0.000    2.400    0.000    0.000 
#    0.000    0.000    0.000    0.000    0.000    0.000 
#
# Total GULP energy -111711.917788 kJ/mol
# GULP energy per Si atom -5585.595889 kJ/mol
# Density = 1.753457 g / cm^3
# Si number density = 17.574567 Si / 1000 Ang^3
#
#
#
# Elastic Constant Matrix: (Units=GPa)
#
#
# Indices 1 2 3 4 5 6 
#
# 1 69.0740 57.7571 51.7335 0.0000 0.0000 0.0000
# 2 57.7571 195.5096 86.0314 0.0000 0.0000 0.0000
# 3 51.7335 86.0314 140.2136 0.0000 0.0000 0.0000
# 4 0.0000 0.0000 0.0000 0.6673 0.0000 0.0000
# 5 0.0000 0.0000 0.0000 0.0000 23.3277 0.0000
# 6 0.0000 0.0000 0.0000 0.0000 0.0000 32.8426
#
#
#
# Elastic Compliance Matrix: (Units=1/GPa)
#
#
# Indices 1 2 3 4 5 6 
#
# 1 0.022102 -0.004029 -0.005683 0.000000 0.000000 0.000000
# 2 -0.004029 0.007741 -0.003263 0.000000 0.000000 0.000000
# 3 -0.005683 -0.003263 0.011231 0.000000 0.000000 0.000000
# 4 0.000000 0.000000 0.000000 1.498606 0.000000 0.000000
# 5 0.000000 0.000000 0.000000 0.000000 0.042868 0.000000
# 6 0.000000 0.000000 0.000000 0.000000 0.000000 0.030448
#
#
# Mechanical properties :
#
#
# Convention : Reuss Voigt Hill
#
# Bulk Modulus (GPa) = 66.11839 88.42681 77.27260
# Shear Modulus (GPa) = 3.04139 25.31918 14.18029
#
# Velocity S-wave (km/s) = 1.31694 3.79974 2.84362
# Velocity P-wave (km/s) = 6.32580 8.34716 7.40577
#
# Compressibility (1/GPa) = 0.01512439
#
# Stress axis : x y z
#
# Youngs Moduli (GPa) = 45.24446 129.18379 89.03937
#
# Poissons Ratio (x) = 0.52044 0.50601
# Poissons Ratio (y) = 0.18227 0.29055
# Poissons Ratio (z) = 0.25712 0.42155
#
# Static dielectric constant tensor:
#      x y z
#    x 1.586140 0.000000 0.000000 
#    y 0.000000 1.583050 0.000000 
#    z 0.000000 0.000000 1.580990 
# 
# From -- ./inp_files/26007.got.cif
#   From: 2010.05.17/outbox.cif.g08.bks.cpg/sg44_14_cif.got.tgz:26007.got - 2010.06.03 19:37:08.
