data_PCOD9374984
_publ_section_title
;
Structure prediction by ZEFSAII (Michael W. Deem and Ramdas Pophale) SiO2 
 PCOD9374984
Probable space group: I M M 2
;
_chemical_formula_sum "Si O2"
_cell_formula_units_Z 64
_cell_length_a 25.637433
_cell_length_b 8.750579
_cell_length_c 15.260976
_cell_angle_alpha 90.000000
_cell_angle_beta 90.000000
_cell_angle_gamma 90.000000
_cell_volume 3423.683720
_symmetry_space_group_name_H-M "I M M 2"
_symmetry_group_IT_number 44
_symmetry_cell_setting 'orthorhombic'
loop_
_space_group_symop_operation_xyz
x,y,z
-x,-y,z
-x,y,z
x,-y,z
1/2+x,1/2+y,1/2+z
1/2-x,1/2-y,1/2+z
1/2-x,1/2+y,1/2+z
1/2+x,1/2-y,1/2+z
loop_
_atom_site_type_symbol
_atom_site_label
_atom_site_fract_x
_atom_site_fract_y
_atom_site_fract_z
Si Si1 0.361379 0.818103 0.099170
Si Si2 0.235035 0.820597 0.501386
Si Si3 0.851765 0.683525 0.966386
Si Si4 0.221298 0.179439 0.291985
Si Si5 0.559805 0.316999 0.589975
Si Si6 0.667171 0.318940 0.276115
Si Si7 0.389891 0.183747 0.762192
Si Si8 0.440228 0.813928 0.947575
O O1 0.365144 0.737683 0.192722
O O2 0.365208 0.000000 0.110283
O O3 0.305633 0.776178 0.056637
O O4 0.404994 0.765669 0.029538
O O5 0.295573 0.773457 0.508654
O O6 0.221146 0.806627 0.398131
O O7 0.230320 0.000000 0.525374
O O8 0.853905 0.500000 0.966599
O O9 0.850706 0.741857 0.866669
O O10 0.899360 0.752320 0.020012
O O11 0.273135 0.265199 0.261018
O O12 0.168487 0.251248 0.255643
O O13 0.225055 0.000000 0.270688
O O14 0.500000 0.277013 0.568583
O O15 0.564137 0.500000 0.593765
O O16 0.575437 0.247326 0.683613
O O17 0.665185 0.500000 0.284920
O O18 0.413907 0.231829 0.855856
O O19 0.388427 0.000000 0.758622
O O20 0.500000 0.762203 0.952869
O O21 0.440409 0.000000 0.947874
#
# Coordination Sequence:
#
# PCOD9374984 Si02
#       8
#     8   8   8   8   8   8   8   8
#     4  11  21  35  58  87 120 160 204 247 297 355
#     4   9  19  35  56  84 119 153 190 241 297 358
#     4  10  22  42  65  89 117 154 202 253 308 363
#     4  10  20  36  57  85 122 159 198 243 296 359
#     4  11  25  43  62  88 122 160 203 252 306 362
#     4  11  23  39  60  86 122 160 199 249 308 365
#     4  11  21  36  60  90 122 160 203 246 300 359
#     4   9  19  36  58  86 120 157 200 247 291 344
#
# _framework density 18.693315999999999
#
# number of rings (size 3 to 8) (size 9 to 14) (size 15 to 20)
#    0.000    1.750    1.250    4.125    1.750    4.000 
#    0.000    0.625    0.000    6.000    0.000    0.000 
#    0.000    0.000    0.000    0.000    0.000    0.000 
#
# Total GULP energy -178851.325085 kJ/mol
# GULP energy per Si atom -5589.103909 kJ/mol
# Density = 1.865077 g / cm^3
# Si number density = 18.693316 Si / 1000 Ang^3
#
#
#
# Elastic Constant Matrix: (Units=GPa)
#
#
# Indices 1 2 3 4 5 6 
#
# 1 114.8928 25.8119 48.3084 0.0000 0.0000 0.0000
# 2 25.8119 50.8449 10.6724 0.0000 0.0000 0.0000
# 3 48.3084 10.6724 70.5187 0.0000 0.0000 0.0000
# 4 0.0000 0.0000 0.0000 31.6158 0.0000 0.0000
# 5 0.0000 0.0000 0.0000 0.0000 28.5700 0.0000
# 6 0.0000 0.0000 0.0000 0.0000 0.0000 24.6861
#
#
#
# Elastic Compliance Matrix: (Units=1/GPa)
#
#
# Indices 1 2 3 4 5 6 
#
# 1 0.013361 -0.005021 -0.008393 0.000000 0.000000 0.000000
# 2 -0.005021 0.022200 0.000080 0.000000 0.000000 0.000000
# 3 -0.008393 0.000080 0.019918 0.000000 0.000000 0.000000
# 4 0.000000 0.000000 0.000000 0.031630 0.000000 0.000000
# 5 0.000000 0.000000 0.000000 0.000000 0.035002 0.000000
# 6 0.000000 0.000000 0.000000 0.000000 0.000000 0.040509
#
#
# Mechanical properties :
#
#
# Convention : Reuss Voigt Hill
#
# Bulk Modulus (GPa) = 34.70937 45.09355 39.90146
# Shear Modulus (GPa) = 25.13953 27.07196 26.10575
#
# Velocity S-wave (km/s) = 3.67119 3.80967 3.74107
# Velocity P-wave (km/s) = 6.04800 6.59747 6.32870
#
# Compressibility (1/GPa) = 0.02881066
#
# Stress axis : x y z
#
# Youngs Moduli (GPa) = 74.84668 45.04530 50.20594
#
# Poissons Ratio (x) = 0.22617 0.42137
# Poissons Ratio (y) = 0.37581 -0.00401
# Poissons Ratio (z) = 0.62817 -0.00360
#
# Static dielectric constant tensor:
#      x y z
#    x 1.628310 0.000000 0.000000 
#    y 0.000000 1.626050 0.000000 
#    z 0.000000 0.000000 1.644810 
# 
# From -- ./inp_files/16775.got.cif
#   From: 2010.05.17/outbox.cif.g08.bks.cpg/sg44_9_cif.got.tgz:16775.got - 2010.06.03 19:37:08.
