data_PCOD9374269
_publ_section_title
;
Structure prediction by ZEFSAII (Michael W. Deem and Ramdas Pophale) SiO2 
 PCOD9374269
Probable space group: I M M 2
;
_chemical_formula_sum "Si O2"
_cell_formula_units_Z 48
_cell_length_a 18.721427
_cell_length_b 8.659967
_cell_length_c 15.240415
_cell_angle_alpha 90.000000
_cell_angle_beta 90.000000
_cell_angle_gamma 90.000000
_cell_volume 2470.881848
_symmetry_space_group_name_H-M "I M M 2"
_symmetry_group_IT_number 44
_symmetry_cell_setting 'orthorhombic'
loop_
_space_group_symop_operation_xyz
x,y,z
-x,-y,z
-x,y,z
x,-y,z
1/2+x,1/2+y,1/2+z
1/2-x,1/2-y,1/2+z
1/2-x,1/2+y,1/2+z
1/2+x,1/2-y,1/2+z
loop_
_atom_site_type_symbol
_atom_site_label
_atom_site_fract_x
_atom_site_fract_y
_atom_site_fract_z
Si Si1 0.076989 0.811844 0.854910
Si Si2 0.734893 0.819526 0.101314
Si Si3 0.000000 0.686687 0.386021
Si Si4 0.234868 0.813755 0.795157
Si Si5 0.395847 0.679742 0.550270
Si Si6 0.500000 0.817629 0.686308
Si Si7 0.652952 0.315649 0.940107
O O1 0.152991 0.763648 0.815858
O O2 0.000000 0.763776 0.815663
O O3 0.078082 0.000000 0.853744
O O4 0.078295 0.761898 0.956411
O O5 0.746723 0.743465 0.196118
O O6 0.811082 0.811446 0.053053
O O7 0.715705 0.000000 0.111711
O O8 0.680510 0.735500 0.036147
O O9 0.073670 0.748459 0.426359
O O10 0.000000 0.500000 0.389359
O O11 0.000000 0.742428 0.284817
O O12 0.292177 0.748465 0.865297
O O13 0.238912 0.000000 0.799824
O O14 0.415938 0.500000 0.557235
O O15 0.431854 0.764353 0.631050
O O16 0.500000 0.000000 0.691701
O O17 0.651865 0.500000 0.933433
#
# Coordination Sequence:
#
# PCOD9374269 Si02
#       7
#     8   8   4   8   8   4   8
#     4   9  17  34  60  87 116 157 202 249 304 365
#     4  11  23  41  64  92 124 166 216 264 319 381
#     4  11  25  45  65  88 125 168 211 265 326 381
#     4  11  22  40  65  94 127 167 215 266 319 381
#     4  10  19  35  60  85 116 160 204 246 303 376
#     4  11  23  35  55  92 127 156 195 257 324 375
#     4  12  25  43  67  95 128 168 215 267 325 391
#
# _framework density 19.426262999999999
#
# number of rings (size 3 to 8) (size 9 to 14) (size 15 to 20)
#    0.000    1.333    2.500    4.000    0.000    5.333 
#    1.500    0.000    0.000    0.000    0.000    0.000 
#    0.000    0.000    0.000    0.000    0.000    0.000 
#
# Total GULP energy -134001.044539 kJ/mol
# GULP energy per Si atom -5583.376856 kJ/mol
# Density = 1.938205 g / cm^3
# Si number density = 19.426263 Si / 1000 Ang^3
#
#
#
# Elastic Constant Matrix: (Units=GPa)
#
#
# Indices 1 2 3 4 5 6 
#
# 1 135.0126 36.5043 22.7836 0.0000 0.0000 0.0000
# 2 36.5043 82.9242 21.4933 0.0000 0.0000 0.0000
# 3 22.7836 21.4933 60.0644 0.0000 0.0000 0.0000
# 4 0.0000 0.0000 0.0000 28.0766 0.0000 0.0000
# 5 0.0000 0.0000 0.0000 0.0000 21.8009 0.0000
# 6 0.0000 0.0000 0.0000 0.0000 0.0000 24.8698
#
#
#
# Elastic Compliance Matrix: (Units=1/GPa)
#
#
# Indices 1 2 3 4 5 6 
#
# 1 0.008644 -0.003258 -0.002113 0.000000 0.000000 0.000000
# 2 -0.003258 0.014520 -0.003960 0.000000 0.000000 0.000000
# 3 -0.002113 -0.003960 0.018867 0.000000 0.000000 0.000000
# 4 0.000000 0.000000 0.000000 0.035617 0.000000 0.000000
# 5 0.000000 0.000000 0.000000 0.000000 0.045870 0.000000
# 6 0.000000 0.000000 0.000000 0.000000 0.000000 0.040209
#
#
# Mechanical properties :
#
#
# Convention : Reuss Voigt Hill
#
# Bulk Modulus (GPa) = 42.79061 48.84041 45.81551
# Shear Modulus (GPa) = 26.29112 28.09748 27.19430
#
# Velocity S-wave (km/s) = 3.68282 3.80724 3.74555
# Velocity P-wave (km/s) = 6.33713 6.67254 6.50700
#
# Compressibility (1/GPa) = 0.02336962
#
# Stress axis : x y z
#
# Youngs Moduli (GPa) = 115.68615 68.87238 53.00140
#
# Poissons Ratio (x) = 0.22435 0.11200
# Poissons Ratio (y) = 0.37685 0.20989
# Poissons Ratio (z) = 0.24447 0.27274
#
# Static dielectric constant tensor:
#      x y z
#    x 1.729350 0.000000 0.000000 
#    y 0.000000 1.664290 0.000000 
#    z 0.000000 0.000000 1.665090 
# 
# From -- ./inp_files/18831.got.cif
#   From: 2010.05.17/outbox.cif.g08.bks.cpg/sg44_10_cif.got.tgz:18831.got - 2010.06.03 19:37:08.
