data_PCOD9374343
_publ_section_title
;
Structure prediction by ZEFSAII (Michael W. Deem and Ramdas Pophale) SiO2 
 PCOD9374343
Probable space group: I M M 2
;
_chemical_formula_sum "Si O2"
_cell_formula_units_Z 48
_cell_length_a 28.119642
_cell_length_b 8.004807
_cell_length_c 9.784325
_cell_angle_alpha 90.000000
_cell_angle_beta 90.000000
_cell_angle_gamma 90.000000
_cell_volume 2202.376288
_symmetry_space_group_name_H-M "I M M 2"
_symmetry_group_IT_number 44
_symmetry_cell_setting 'orthorhombic'
loop_
_space_group_symop_operation_xyz
x,y,z
-x,-y,z
-x,y,z
x,-y,z
1/2+x,1/2+y,1/2+z
1/2-x,1/2-y,1/2+z
1/2-x,1/2+y,1/2+z
1/2+x,1/2-y,1/2+z
loop_
_atom_site_type_symbol
_atom_site_label
_atom_site_fract_x
_atom_site_fract_y
_atom_site_fract_z
Si Si1 0.627940 0.703317 0.516770
Si Si2 0.413541 0.188289 0.022839
Si Si3 0.691896 0.302042 0.949158
Si Si4 0.446999 0.693854 0.302607
Si Si5 0.448536 0.700201 0.740219
Si Si6 0.774951 0.797202 0.146235
O O1 0.631193 0.500000 0.509683
O O2 0.597725 0.765059 0.387289
O O3 0.594850 0.748992 0.644753
O O4 0.681012 0.760256 0.550367
O O5 0.432880 0.300763 0.144613
O O6 0.418659 0.000000 0.072153
O O7 0.359027 0.222923 0.982173
O O8 0.443316 0.217360 0.886436
O O9 0.683894 0.500000 0.935336
O O10 0.714142 0.244602 0.803114
O O11 0.727464 0.267593 0.074425
O O12 0.500000 0.767223 0.322556
O O13 0.450350 0.500000 0.346887
O O14 0.500000 0.738471 0.677384
O O15 0.445655 0.500000 0.758204
O O16 0.773037 0.000000 0.146235
#
# Coordination Sequence:
#
# PCOD9374343 Si02
#       6
#     8   8   8   8   8   8
#     4   9  18  37  63  91 121 153 198 251 299 356
#     4  12  25  40  59  86 124 163 205 250 299 355
#     4  11  24  43  66  91 122 158 201 248 305 366
#     4  10  21  38  62  92 123 161 207 250 301 361
#     4  10  19  36  64  92 118 153 198 248 303 362
#     4  10  22  41  64  93 125 156 198 250 304 360
#
# _framework density 21.794640000000001
#
# number of rings (size 3 to 8) (size 9 to 14) (size 15 to 20)
#    0.000    1.667    1.667    3.000    2.333    6.000 
#    0.000    0.833    0.000    2.000    0.000    0.000 
#    0.000    0.000    0.000    0.000    0.000    0.000 
#
# Total GULP energy -134066.217214 kJ/mol
# GULP energy per Si atom -5586.092384 kJ/mol
# Density = 2.174503 g / cm^3
# Si number density = 21.794640 Si / 1000 Ang^3
#
#
#
# Elastic Constant Matrix: (Units=GPa)
#
#
# Indices 1 2 3 4 5 6 
#
# 1 86.8451 -2.5282 -10.4649 0.0000 0.0000 0.0000
# 2 -2.5282 19.3031 -9.1418 0.0000 0.0000 0.0000
# 3 -10.4649 -9.1418 50.8491 0.0000 0.0000 0.0000
# 4 0.0000 0.0000 0.0000 1.9121 0.0000 0.0000
# 5 0.0000 0.0000 0.0000 0.0000 44.2929 0.0000
# 6 0.0000 0.0000 0.0000 0.0000 0.0000 25.9473
#
#
#
# Elastic Compliance Matrix: (Units=1/GPa)
#
#
# Indices 1 2 3 4 5 6 
#
# 1 0.011963 0.002987 0.002999 0.000000 0.000000 0.000000
# 2 0.002987 0.057372 0.010929 0.000000 0.000000 0.000000
# 3 0.002999 0.010929 0.022248 0.000000 0.000000 0.000000
# 4 0.000000 0.000000 0.000000 0.522980 0.000000 0.000000
# 5 0.000000 0.000000 0.000000 0.000000 0.022577 0.000000
# 6 0.000000 0.000000 0.000000 0.000000 0.000000 0.038540
#
#
# Mechanical properties :
#
#
# Convention : Reuss Voigt Hill
#
# Bulk Modulus (GPa) = 7.97354 12.52529 10.24941
# Shear Modulus (GPa) = 7.31364 26.37261 16.84313
#
# Velocity S-wave (km/s) = 1.83385 3.48235 2.78296
# Velocity P-wave (km/s) = 2.85489 4.68278 3.87807
#
# Compressibility (1/GPa) = 0.12541486
#
# Stress axis : x y z
#
# Youngs Moduli (GPa) = 83.59029 17.42997 44.94758
#
# Poissons Ratio (x) = -0.05207 -0.13480
# Poissons Ratio (y) = -0.24970 -0.49125
# Poissons Ratio (z) = -0.25069 -0.19050
#
# Static dielectric constant tensor:
#      x y z
#    x 1.683740 0.000000 0.000000 
#    y 0.000000 1.799080 0.000000 
#    z 0.000000 0.000000 1.772170 
# 
# From -- ./inp_files/4896.got.cif
#   From: 2010.05.17/outbox.cif.g08.bks.cpg/sg44_3_cif.got.tgz:4896.got - 2010.06.03 19:37:08.
