data_PCOD9374084
_publ_section_title
;
Structure prediction by ZEFSAII (Michael W. Deem and Ramdas Pophale) SiO2 
 PCOD9374084
Probable space group: I M M 2
;
_chemical_formula_sum "Si O2"
_cell_formula_units_Z 48
_cell_length_a 29.132197
_cell_length_b 9.963225
_cell_length_c 7.674610
_cell_angle_alpha 90.000000
_cell_angle_beta 90.000000
_cell_angle_gamma 90.000000
_cell_volume 2227.560414
_symmetry_space_group_name_H-M "I M M 2"
_symmetry_group_IT_number 44
_symmetry_cell_setting 'orthorhombic'
loop_
_space_group_symop_operation_xyz
x,y,z
-x,-y,z
-x,y,z
x,-y,z
1/2+x,1/2+y,1/2+z
1/2-x,1/2-y,1/2+z
1/2-x,1/2+y,1/2+z
1/2+x,1/2-y,1/2+z
loop_
_atom_site_type_symbol
_atom_site_label
_atom_site_fract_x
_atom_site_fract_y
_atom_site_fract_z
Si Si1 0.500000 0.839838 0.984620
Si Si2 0.094089 0.350214 0.963025
Si Si3 0.162675 0.656595 0.252497
Si Si4 0.732226 0.656655 0.582815
Si Si5 0.396909 0.225370 0.084935
Si Si6 0.500000 0.157062 0.565920
Si Si7 0.307186 0.351915 0.189613
O O1 0.500000 0.839077 0.774173
O O2 0.500000 0.000000 0.038266
O O3 0.548108 0.770894 0.045109
O O4 0.088666 0.500000 0.036943
O O5 0.105919 0.358188 0.762567
O O6 0.132691 0.296040 0.086562
O O7 0.045799 0.278545 0.990306
O O8 0.177830 0.500000 0.238100
O O9 0.204081 0.759779 0.227280
O O10 0.128250 0.667192 0.415296
O O11 0.736986 0.500000 0.626228
O O12 0.707121 0.662777 0.393654
O O13 0.781411 0.730652 0.591719
O O14 0.361571 0.343642 0.143949
O O15 0.500000 0.000000 0.506347
O O16 0.290651 0.500000 0.134251
#
# Coordination Sequence:
#
# PCOD9374084 Si02
#       7
#     4   8   8   8   8   4   8
#     4  11  21  35  58  96 136 175 229 282 329 393
#     4  10  19  33  55  87 129 175 215 267 331 384
#     4  11  22  38  63  98 136 173 218 271 329 399
#     4  11  25  46  71 100 135 176 223 278 339 404
#     4  12  23  39  65  97 133 181 225 277 332 397
#     4   9  17  33  55  84 132 177 221 280 335 383
#     4  11  26  47  69  99 136 177 225 277 337 410
#
# _framework density 21.548237
#
# number of rings (size 3 to 8) (size 9 to 14) (size 15 to 20)
#    0.000    1.167    3.333    3.500    0.000    7.333 
#    0.000    0.417    0.000    0.000    0.000    0.583 
#    0.000    0.000    0.000    0.000    0.000    0.000 
#
# Total GULP energy -133635.555500 kJ/mol
# GULP energy per Si atom -5568.148146 kJ/mol
# Density = 2.149919 g / cm^3
# Si number density = 21.548237 Si / 1000 Ang^3
#
#
#
# Elastic Constant Matrix: (Units=GPa)
#
#
# Indices 1 2 3 4 5 6 
#
# 1 155.3847 59.5283 38.6486 0.0000 0.0000 0.0000
# 2 59.5283 107.6808 37.9233 0.0000 0.0000 0.0000
# 3 38.6486 37.9233 113.9296 0.0000 0.0000 0.0000
# 4 0.0000 0.0000 0.0000 4.1335 0.0000 0.0000
# 5 0.0000 0.0000 0.0000 0.0000 42.5055 0.0000
# 6 0.0000 0.0000 0.0000 0.0000 0.0000 35.1700
#
#
#
# Elastic Compliance Matrix: (Units=1/GPa)
#
#
# Indices 1 2 3 4 5 6 
#
# 1 0.008378 -0.004113 -0.001473 0.000000 0.000000 0.000000
# 2 -0.004113 0.012539 -0.002779 0.000000 0.000000 0.000000
# 3 -0.001473 -0.002779 0.010202 0.000000 0.000000 0.000000
# 4 0.000000 0.000000 0.000000 0.241923 0.000000 0.000000
# 5 0.000000 0.000000 0.000000 0.000000 0.023526 0.000000
# 6 0.000000 0.000000 0.000000 0.000000 0.000000 0.028433
#
#
# Mechanical properties :
#
#
# Convention : Reuss Voigt Hill
#
# Bulk Modulus (GPa) = 69.49299 72.13285 70.81292
# Shear Modulus (GPa) = 14.42894 32.42147 23.42521
#
# Velocity S-wave (km/s) = 2.59049 3.88313 3.30071
# Velocity P-wave (km/s) = 6.42398 7.32479 6.88913
#
# Compressibility (1/GPa) = 0.01438994
#
# Stress axis : x y z
#
# Youngs Moduli (GPa) = 119.36677 79.75256 98.02044
#
# Poissons Ratio (x) = 0.32798 0.14439
# Poissons Ratio (y) = 0.49090 0.27236
# Poissons Ratio (z) = 0.17583 0.22160
#
# Static dielectric constant tensor:
#      x y z
#    x 1.975100 0.000000 0.000000 
#    y 0.000000 1.773290 0.000000 
#    z 0.000000 0.000000 1.793700 
# 
# From -- ./inp_files/10008.got.cif
#   From: 2010.05.17/outbox.cif.g08.bks.cpg/sg44_6_cif.got.tgz:10008.got - 2010.06.03 19:37:08.
