data_PCOD9374836
_publ_section_title
;
Structure prediction by ZEFSAII (Michael W. Deem and Ramdas Pophale) SiO2 
 PCOD9374836
Probable space group: I M M 2
;
_chemical_formula_sum "Si O2"
_cell_formula_units_Z 56
_cell_length_a 12.978042
_cell_length_b 15.892844
_cell_length_c 14.395055
_cell_angle_alpha 90.000000
_cell_angle_beta 90.000000
_cell_angle_gamma 90.000000
_cell_volume 2969.095210
_symmetry_space_group_name_H-M "I M M 2"
_symmetry_group_IT_number 44
_symmetry_cell_setting 'orthorhombic'
loop_
_space_group_symop_operation_xyz
x,y,z
-x,-y,z
-x,y,z
x,-y,z
1/2+x,1/2+y,1/2+z
1/2-x,1/2-y,1/2+z
1/2-x,1/2+y,1/2+z
1/2+x,1/2-y,1/2+z
loop_
_atom_site_type_symbol
_atom_site_label
_atom_site_fract_x
_atom_site_fract_y
_atom_site_fract_z
Si Si1 0.114467 0.900229 0.235910
Si Si2 0.115302 0.599994 0.431956
Si Si3 0.618890 0.754731 0.437110
Si Si4 0.311156 0.404438 0.320908
Si Si5 0.737912 0.810152 0.096018
Si Si6 0.775774 0.903397 0.423335
Si Si7 0.623003 0.641907 0.119913
O O1 0.206519 0.859698 0.177713
O O2 0.138041 0.888915 0.344753
O O3 0.000000 0.867698 0.212520
O O4 0.115013 0.000000 0.217002
O O5 0.107634 0.500000 0.441979
O O6 0.191494 0.614733 0.345122
O O7 0.172752 0.635453 0.522353
O O8 0.000000 0.635268 0.421528
O O9 0.500000 0.777275 0.444315
O O10 0.630135 0.671657 0.372326
O O11 0.669624 0.729545 0.535229
O O12 0.687535 0.834172 0.405800
O O13 0.333359 0.500000 0.356657
O O14 0.337299 0.402991 0.212745
O O15 0.661843 0.737684 0.130554
O O16 0.824939 0.890899 0.525168
O O17 0.739355 0.000000 0.414418
O O18 0.500000 0.635446 0.113765
#
# Coordination Sequence:
#
# PCOD9374836 Si02
#       7
#     8   8   8   8   8   8   8
#     4  10  20  35  56  81 111 148 188 235 289 336
#     4   9  18  35  58  82 110 143 180 227 281 334
#     4  10  21  37  56  80 111 145 182 229 285 340
#     4  10  21  36  56  84 114 144 183 229 277 334
#     4  10  20  35  54  82 112 143 185 231 276 337
#     4  10  22  39  58  81 110 147 194 240 280 331
#     4  11  22  36  56  81 112 150 189 232 280 329
#
# _framework density 18.860965
#
# number of rings (size 3 to 8) (size 9 to 14) (size 15 to 20)
#    0.000    2.000    0.000    3.429    0.000    3.429 
#    0.000    9.286    0.000    5.143    0.000    0.000 
#    0.000    0.000    0.000    0.000    0.000    0.000 
#
# Total GULP energy -156191.711781 kJ/mol
# GULP energy per Si atom -5578.275421 kJ/mol
# Density = 1.881804 g / cm^3
# Si number density = 18.860965 Si / 1000 Ang^3
#
#
#
# Elastic Constant Matrix: (Units=GPa)
#
#
# Indices 1 2 3 4 5 6 
#
# 1 125.8544 43.4947 31.8174 0.0000 0.0000 0.0000
# 2 43.4947 67.1611 27.5240 0.0000 0.0000 0.0000
# 3 31.8174 27.5240 70.7738 0.0000 0.0000 0.0000
# 4 0.0000 0.0000 0.0000 24.7174 0.0000 0.0000
# 5 0.0000 0.0000 0.0000 0.0000 13.5464 0.0000
# 6 0.0000 0.0000 0.0000 0.0000 0.0000 19.1150
#
#
#
# Elastic Compliance Matrix: (Units=1/GPa)
#
#
# Indices 1 2 3 4 5 6 
#
# 1 0.010594 -0.005840 -0.002492 0.000000 0.000000 0.000000
# 2 -0.005840 0.020932 -0.005515 0.000000 0.000000 0.000000
# 3 -0.002492 -0.005515 0.017394 0.000000 0.000000 0.000000
# 4 0.000000 0.000000 0.000000 0.040457 0.000000 0.000000
# 5 0.000000 0.000000 0.000000 0.000000 0.073820 0.000000
# 6 0.000000 0.000000 0.000000 0.000000 0.000000 0.052315
#
#
# Mechanical properties :
#
#
# Convention : Reuss Voigt Hill
#
# Bulk Modulus (GPa) = 47.10894 52.16238 49.63566
# Shear Modulus (GPa) = 19.97759 22.20597 21.09178
#
# Velocity S-wave (km/s) = 3.25807 3.43498 3.34769
# Velocity P-wave (km/s) = 6.25976 6.59154 6.42779
#
# Compressibility (1/GPa) = 0.02122740
#
# Stress axis : x y z
#
# Youngs Moduli (GPa) = 94.39554 47.77471 57.48963
#
# Poissons Ratio (x) = 0.27899 0.14324
# Poissons Ratio (y) = 0.55123 0.31706
# Poissons Ratio (z) = 0.23519 0.26348
#
# Static dielectric constant tensor:
#      x y z
#    x 1.642350 0.000000 0.000000 
#    y 0.000000 1.682330 0.000000 
#    z 0.000000 0.000000 1.646480 
# 
# From -- ./inp_files/17763.got.cif
#   From: 2010.05.17/outbox.cif.g08.bks.cpg/sg44_9_cif.got.tgz:17763.got - 2010.06.03 19:37:08.
