data_PCOD9374686
_publ_section_title
;
Structure prediction by ZEFSAII (Michael W. Deem and Ramdas Pophale) SiO2 
 PCOD9374686
Probable space group: I M M 2
;
_chemical_formula_sum "Si O2"
_cell_formula_units_Z 64
_cell_length_a 8.757521
_cell_length_b 20.354846
_cell_length_c 20.784016
_cell_angle_alpha 90.000000
_cell_angle_beta 90.000000
_cell_angle_gamma 90.000000
_cell_volume 3704.916943
_symmetry_space_group_name_H-M "I M M 2"
_symmetry_group_IT_number 44
_symmetry_cell_setting 'orthorhombic'
loop_
_space_group_symop_operation_xyz
x,y,z
-x,-y,z
-x,y,z
x,-y,z
1/2+x,1/2+y,1/2+z
1/2-x,1/2-y,1/2+z
1/2-x,1/2+y,1/2+z
1/2+x,1/2-y,1/2+z
loop_
_atom_site_type_symbol
_atom_site_label
_atom_site_fract_x
_atom_site_fract_y
_atom_site_fract_z
Si Si1 0.317297 0.825676 0.763990
Si Si2 0.184117 0.075877 0.512059
Si Si3 0.816684 0.824542 0.624115
Si Si4 0.683293 0.673829 0.768333
Si Si5 0.817434 0.575918 0.873048
Si Si6 0.816145 0.923367 0.868731
Si Si7 0.684731 0.319583 0.620739
Si Si8 0.685935 0.574696 0.515857
O O1 0.500000 0.827500 0.758639
O O2 0.246596 0.842289 0.694548
O O3 0.273569 0.750100 0.779958
O O4 0.260197 0.875152 0.818176
O O5 0.232082 0.123905 0.569452
O O6 0.252326 0.094857 0.443003
O O7 0.000000 0.078405 0.507613
O O8 0.227979 0.000000 0.524956
O O9 0.754926 0.751891 0.608661
O O10 0.000000 0.823581 0.626484
O O11 0.500000 0.668751 0.774299
O O12 0.758307 0.624304 0.818127
O O13 0.723969 0.659831 0.693820
O O14 0.769484 0.500000 0.860854
O O15 0.000000 0.577793 0.875287
O O16 0.769812 0.908807 0.942561
O O17 0.000000 0.916879 0.864713
O O18 0.779403 0.000000 0.856144
O O19 0.500000 0.313903 0.618138
O O20 0.736225 0.372687 0.568400
O O21 0.500000 0.574235 0.516823
O O22 0.735497 0.500000 0.530120
#
# Coordination Sequence:
#
# PCOD9374686 Si02
#       8
#     8   8   8   8   8   8   8   8
#     4  10  21  36  53  75 103 134 172 214 252 295
#     4   9  19  36  55  74  99 132 168 205 247 299
#     4  10  20  34  53  76 102 132 166 206 254 305
#     4   9  19  34  51  73 102 135 169 208 253 302
#     4  10  21  35  52  76 103 131 167 211 255 300
#     4   9  18  33  53  77 105 137 172 208 249 300
#     4   9  18  33  53  77 103 131 167 209 250 295
#     4   8  15  30  52  76 101 131 169 209 246 291
#
# _framework density 17.274342000000001
#
# number of rings (size 3 to 8) (size 9 to 14) (size 15 to 20)
#    0.000    2.750    0.000    2.625    0.000    6.500 
#    0.000    5.625    0.000    1.125    0.000    0.000 
#    0.000    0.000    0.000    0.000    0.000    0.000 
#
# Total GULP energy -178458.950387 kJ/mol
# GULP energy per Si atom -5576.842200 kJ/mol
# Density = 1.723502 g / cm^3
# Si number density = 17.274342 Si / 1000 Ang^3
#
#
#
# Elastic Constant Matrix: (Units=GPa)
#
#
# Indices 1 2 3 4 5 6 
#
# 1 23.4237 38.5075 44.7047 0.0000 0.0000 0.0000
# 2 38.5075 119.6101 131.8560 0.0000 0.0000 0.0000
# 3 44.7047 131.8560 172.1548 0.0000 0.0000 0.0000
# 4 0.0000 0.0000 0.0000 43.0870 0.0000 0.0000
# 5 0.0000 0.0000 0.0000 0.0000 23.7610 0.0000
# 6 0.0000 0.0000 0.0000 0.0000 0.0000 29.4097
#
#
#
# Elastic Compliance Matrix: (Units=1/GPa)
#
#
# Indices 1 2 3 4 5 6 
#
# 1 0.092278 -0.021149 -0.007764 0.000000 0.000000 0.000000
# 2 -0.021149 0.058554 -0.039355 0.000000 0.000000 0.000000
# 3 -0.007764 -0.039355 0.037968 0.000000 0.000000 0.000000
# 4 0.000000 0.000000 0.000000 0.023209 0.000000 0.000000
# 5 0.000000 0.000000 0.000000 0.000000 0.042086 0.000000
# 6 0.000000 0.000000 0.000000 0.000000 0.000000 0.034002
#
#
# Mechanical properties :
#
#
# Convention : Reuss Voigt Hill
#
# Bulk Modulus (GPa) = 19.13415 82.81389 50.97402
# Shear Modulus (GPa) = 11.31080 25.92623 18.61852
#
# Velocity S-wave (km/s) = 2.56163 3.87829 3.28657
# Velocity P-wave (km/s) = 4.45533 8.25223 6.63134
#
# Compressibility (1/GPa) = 0.05226257
#
# Stress axis : x y z
#
# Youngs Moduli (GPa) = 10.83678 17.07825 26.33815
#
# Poissons Ratio (x) = 0.36119 0.20449
# Poissons Ratio (y) = 0.22919 1.03655
# Poissons Ratio (z) = 0.08414 0.67212
#
# Static dielectric constant tensor:
#      x y z
#    x 1.584590 0.000000 0.000000 
#    y 0.000000 1.572450 0.000000 
#    z 0.000000 0.000000 1.564780 
# 
# From -- ./inp_files/23258.got.cif
#   From: 2010.05.17/outbox.cif.g08.bks.cpg/sg44_12_cif.got.tgz:23258.got - 2010.06.03 19:37:08.
