data_PCOD9374601
_publ_section_title
;
Structure prediction by ZEFSAII (Michael W. Deem and Ramdas Pophale) SiO2 
 PCOD9374601
Probable space group: I M M 2
;
_chemical_formula_sum "Si O2"
_cell_formula_units_Z 48
_cell_length_a 9.695079
_cell_length_b 23.635748
_cell_length_c 12.049067
_cell_angle_alpha 90.000000
_cell_angle_beta 90.000000
_cell_angle_gamma 90.000000
_cell_volume 2761.049054
_symmetry_space_group_name_H-M "I M M 2"
_symmetry_group_IT_number 44
_symmetry_cell_setting 'orthorhombic'
loop_
_space_group_symop_operation_xyz
x,y,z
-x,-y,z
-x,y,z
x,-y,z
1/2+x,1/2+y,1/2+z
1/2-x,1/2-y,1/2+z
1/2-x,1/2+y,1/2+z
1/2+x,1/2-y,1/2+z
loop_
_atom_site_type_symbol
_atom_site_label
_atom_site_fract_x
_atom_site_fract_y
_atom_site_fract_z
Si Si1 0.840173 0.858266 0.625000
Si Si2 0.832963 0.934764 0.196916
Si Si3 0.665286 0.621174 0.462200
Si Si4 0.342530 0.933046 0.769340
Si Si5 0.163353 0.839134 0.365266
Si Si6 0.660940 0.729718 0.323720
O O1 0.734087 0.905317 0.665378
O O2 0.818507 0.843499 0.497330
O O3 0.821204 0.806241 0.710522
O O4 0.000000 0.877011 0.638702
O O5 0.791281 0.896254 0.301587
O O6 0.000000 0.938182 0.199083
O O7 0.782350 0.000000 0.195765
O O8 0.798037 0.899731 0.085246
O O9 0.500000 0.612686 0.446757
O O10 0.751993 0.584500 0.375403
O O11 0.692689 0.686070 0.425106
O O12 0.500000 0.912248 0.780112
O O13 0.344645 0.000000 0.759409
O O14 0.245313 0.784584 0.324321
O O15 0.000000 0.831895 0.342977
O O16 0.500000 0.745288 0.332682
#
# Coordination Sequence:
#
# PCOD9374601 Si02
#       6
#     8   8   8   8   8   8
#     4   9  20  37  53  75 106 140 182 220 261 324
#     4   9  18  33  54  81 110 141 182 227 268 317
#     4   9  18  34  56  80 107 142 181 222 268 321
#     4  10  20  33  52  80 109 137 175 223 271 316
#     4  10  21  35  55  81 106 139 181 224 268 320
#     4   9  19  34  52  76 107 140 177 223 272 324
#
# _framework density 17.384696999999999
#
# number of rings (size 3 to 8) (size 9 to 14) (size 15 to 20)
#    0.000    2.667    0.000    2.000    2.333    6.000 
#    0.000    2.500    0.000    1.500    0.000    0.000 
#    0.000    0.000    0.000    0.000    0.000    0.000 
#
# Total GULP energy -133744.454389 kJ/mol
# GULP energy per Si atom -5572.685600 kJ/mol
# Density = 1.734513 g / cm^3
# Si number density = 17.384697 Si / 1000 Ang^3
#
#
#
# Elastic Constant Matrix: (Units=GPa)
#
#
# Indices 1 2 3 4 5 6 
#
# 1 37.0384 33.9094 28.8789 0.0000 0.0001 0.0000
# 2 33.9094 100.5104 52.2540 -0.0001 0.0000 0.0000
# 3 28.8789 52.2540 89.2235 0.0004 0.0001 0.0000
# 4 0.0000 -0.0001 0.0004 12.0598 0.0000 0.0000
# 5 0.0001 0.0000 0.0001 0.0000 3.5088 0.0000
# 6 0.0000 0.0000 0.0000 0.0000 0.0000 32.3705
#
#
#
# Elastic Compliance Matrix: (Units=1/GPa)
#
#
# Indices 1 2 3 4 5 6 
#
# 1 0.042447 -0.010320 -0.007695 0.000000 0.000000 0.000000
# 2 -0.010320 0.016814 -0.006507 0.000000 0.000000 0.000000
# 3 -0.007695 -0.006507 0.017509 -0.000001 0.000000 0.000000
# 4 0.000000 0.000000 -0.000001 0.082920 0.000000 0.000000
# 5 0.000000 0.000000 0.000000 0.000000 0.285000 0.000000
# 6 0.000000 0.000000 0.000000 0.000000 0.000000 0.030892
#
#
# Mechanical properties :
#
#
# Convention : Reuss Voigt Hill
#
# Bulk Modulus (GPa) = 36.06651 50.76187 43.41419
# Shear Modulus (GPa) = 9.36563 17.03649 13.20106
#
# Velocity S-wave (km/s) = 2.32357 3.13384 2.75862
# Velocity P-wave (km/s) = 5.29054 6.50824 5.93073
#
# Compressibility (1/GPa) = 0.02772655
#
# Stress axis : x y z
#
# Youngs Moduli (GPa) = 23.55892 59.47560 57.11331
#
# Poissons Ratio (x) = 0.61378 0.43948
# Poissons Ratio (y) = 0.24313 0.37162
# Poissons Ratio (z) = 0.18128 0.38699
#
# Static dielectric constant tensor:
#      x y z
#    x 1.585010 0.000000 0.000000 
#    y 0.000000 1.579610 0.000000 
#    z 0.000000 0.000000 1.593960 
# 
# From -- ./inp_files/11135.got.cif
#   From: 2010.05.17/outbox.cif.g08.bks.cpg/sg44_6_cif.got.tgz:11135.got - 2010.06.03 19:37:08.
