data_PCOD9374674
_publ_section_title
;
Structure prediction by ZEFSAII (Michael W. Deem and Ramdas Pophale) SiO2 
 PCOD9374674
Probable space group: I M M 2
;
_chemical_formula_sum "Si O2"
_cell_formula_units_Z 64
_cell_length_a 8.966521
_cell_length_b 34.883961
_cell_length_c 12.054731
_cell_angle_alpha 90.000000
_cell_angle_beta 90.000000
_cell_angle_gamma 90.000000
_cell_volume 3770.572414
_symmetry_space_group_name_H-M "I M M 2"
_symmetry_group_IT_number 44
_symmetry_cell_setting 'orthorhombic'
loop_
_space_group_symop_operation_xyz
x,y,z
-x,-y,z
-x,y,z
x,-y,z
1/2+x,1/2+y,1/2+z
1/2-x,1/2-y,1/2+z
1/2-x,1/2+y,1/2+z
1/2+x,1/2-y,1/2+z
loop_
_atom_site_type_symbol
_atom_site_label
_atom_site_fract_x
_atom_site_fract_y
_atom_site_fract_z
Si Si1 0.672001 0.887356 0.434810
Si Si2 0.821670 0.229946 0.483182
Si Si3 0.825767 0.670423 0.143670
Si Si4 0.178481 0.958044 0.534189
Si Si5 0.821384 0.682886 0.530193
Si Si6 0.320302 0.818550 0.288614
Si Si7 0.820541 0.128114 0.854472
Si Si8 0.681294 0.543209 0.291534
O O1 0.500000 0.897896 0.419309
O O2 0.681790 0.860655 0.544213
O O3 0.765706 0.924709 0.456738
O O4 0.720479 0.860599 0.333894
O O5 0.749946 0.207947 0.589027
O O6 0.786799 0.274952 0.483027
O O7 0.758424 0.210967 0.371340
O O8 0.000000 0.225159 0.489177
O O9 0.745577 0.651717 0.249520
O O10 0.000000 0.677854 0.168854
O O11 0.226702 0.952482 0.662236
O O12 0.000000 0.957757 0.536469
O O13 0.230222 0.000000 0.498168
O O14 0.783306 0.684748 0.660202
O O15 0.737513 0.650002 0.462923
O O16 0.000000 0.676738 0.520843
O O17 0.500000 0.814189 0.302274
O O18 0.772727 0.083089 0.849582
O O19 0.000000 0.129149 0.848105
O O20 0.500000 0.542533 0.295074
O O21 0.729778 0.500000 0.328270
#
# Coordination Sequence:
#
# PCOD9374674 Si02
#       8
#     8   8   8   8   8   8   8   8
#     4   9  17  30  50  73  98 134 172 210 255 305
#     4  10  21  36  56  81 103 134 179 223 265 311
#     4  10  20  34  52  76 109 143 173 212 265 317
#     4   9  16  27  46  73 105 137 166 204 259 315
#     4  10  23  40  55  75 107 143 177 218 269 318
#     4   9  20  39  56  72 101 142 177 212 264 317
#     4  11  21  33  55  83 109 141 182 224 267 318
#     4   8  15  29  49  75 108 141 173 215 268 320
#
# _framework density 16.973548999999998
#
# number of rings (size 3 to 8) (size 9 to 14) (size 15 to 20)
#    0.000    2.500    1.250    2.625    1.750    3.750 
#    0.000    0.000    0.000    2.250    0.000    3.500 
#    0.000    0.000    0.000    0.000    0.000    0.000 
#
# Total GULP energy -178357.484719 kJ/mol
# GULP energy per Si atom -5573.671397 kJ/mol
# Density = 1.693492 g / cm^3
# Si number density = 16.973549 Si / 1000 Ang^3
#
#
#
# Elastic Constant Matrix: (Units=GPa)
#
#
# Indices 1 2 3 4 5 6 
#
# 1 40.6317 50.9266 31.9805 -0.0004 0.0000 0.0000
# 2 50.9266 148.6493 62.0728 -0.0003 0.0000 0.0000
# 3 31.9805 62.0728 79.4181 -0.0012 -0.0002 0.0000
# 4 -0.0004 -0.0003 -0.0012 20.3320 -0.0002 0.0000
# 5 0.0000 0.0000 -0.0002 -0.0002 24.8329 0.0000
# 6 0.0000 0.0000 0.0000 0.0000 0.0000 24.9347
#
#
#
# Elastic Compliance Matrix: (Units=1/GPa)
#
#
# Indices 1 2 3 4 5 6 
#
# 1 0.047532 -0.012309 -0.009520 0.000000 0.000000 0.000000
# 2 -0.012309 0.013174 -0.005340 0.000000 0.000000 0.000000
# 3 -0.009520 -0.005340 0.020599 0.000001 0.000000 0.000000
# 4 0.000000 0.000000 0.000001 0.049184 0.000000 0.000000
# 5 0.000000 0.000000 0.000000 0.000000 0.040269 0.000000
# 6 0.000000 0.000000 0.000000 0.000000 0.000000 0.040105
#
#
# Mechanical properties :
#
#
# Convention : Reuss Voigt Hill
#
# Bulk Modulus (GPa) = 37.08220 62.07321 49.57771
# Shear Modulus (GPa) = 18.23554 22.26786 20.25170
#
# Velocity S-wave (km/s) = 3.28128 3.62597 3.45792
# Velocity P-wave (km/s) = 6.02082 7.36071 6.72422
#
# Compressibility (1/GPa) = 0.02696711
#
# Stress axis : x y z
#
# Youngs Moduli (GPa) = 21.03846 75.90571 48.54602
#
# Poissons Ratio (x) = 0.93432 0.46215
# Poissons Ratio (y) = 0.25896 0.25925
# Poissons Ratio (z) = 0.20028 0.40536
#
# Static dielectric constant tensor:
#      x y z
#    x 1.577740 0.000000 0.000000 
#    y 0.000000 1.584110 0.000000 
#    z 0.000000 0.000000 1.554360 
# 
# From -- ./inp_files/11485.got.cif
#   From: 2010.05.17/outbox.cif.g08.bks.cpg/sg44_6_cif.got.tgz:11485.got - 2010.06.03 19:37:08.
