data_PCOD9374093
_publ_section_title
;
Structure prediction by ZEFSAII (Michael W. Deem and Ramdas Pophale) SiO2 
 PCOD9374093
Probable space group: I M M 2
;
_chemical_formula_sum "Si O2"
_cell_formula_units_Z 64
_cell_length_a 29.287703
_cell_length_b 8.253880
_cell_length_c 12.871462
_cell_angle_alpha 90.000000
_cell_angle_beta 90.000000
_cell_angle_gamma 90.000000
_cell_volume 3111.511004
_symmetry_space_group_name_H-M "I M M 2"
_symmetry_group_IT_number 44
_symmetry_cell_setting 'orthorhombic'
loop_
_space_group_symop_operation_xyz
x,y,z
-x,-y,z
-x,y,z
x,-y,z
1/2+x,1/2+y,1/2+z
1/2-x,1/2-y,1/2+z
1/2-x,1/2+y,1/2+z
1/2+x,1/2-y,1/2+z
loop_
_atom_site_type_symbol
_atom_site_label
_atom_site_fract_x
_atom_site_fract_y
_atom_site_fract_z
Si Si1 0.047712 0.691882 0.121190
Si Si2 0.447419 0.696532 0.957510
Si Si3 0.408736 0.305512 0.179749
Si Si4 0.069763 0.185565 0.902589
Si Si5 0.692776 0.809835 0.226960
Si Si6 0.665183 0.812997 0.455163
Si Si7 0.207854 0.805868 0.168192
Si Si8 0.377991 0.194206 0.778727
O O1 0.047810 0.500000 0.139751
O O2 0.091970 0.755606 0.180044
O O3 0.000000 0.760765 0.163791
O O4 0.048507 0.721731 0.998877
O O5 0.500000 0.748718 0.935915
O O6 0.446964 0.500000 0.954856
O O7 0.431933 0.749700 0.073210
O O8 0.409159 0.757449 0.876742
O O9 0.412932 0.500000 0.183345
O O10 0.432825 0.245036 0.286062
O O11 0.354822 0.265560 0.187940
O O12 0.054077 0.000000 0.903483
O O13 0.123196 0.195738 0.931264
O O14 0.695576 0.799297 0.352163
O O15 0.740508 0.744929 0.184382
O O16 0.689495 0.000000 0.200666
O O17 0.688822 0.769932 0.562220
O O18 0.648192 0.000000 0.460464
O O19 0.172627 0.763017 0.261009
O O20 0.209013 0.000000 0.158970
O O21 0.374009 0.000000 0.776388
#
# Coordination Sequence:
#
# PCOD9374093 Si02
#       8
#     8   8   8   8   8   8   8   8
#     4  10  21  36  54  79 113 148 183 230 288 346
#     4  10  22  41  63  86 119 163 205 250 304 360
#     4   9  20  38  60  86 117 153 197 245 295 351
#     4  10  19  33  56  84 111 144 186 235 287 343
#     4   9  21  38  57  84 118 155 196 245 298 353
#     4  10  19  35  56  78 110 151 187 230 290 348
#     4  11  22  37  58  86 117 152 198 247 296 354
#     4  11  23  39  59  84 115 154 199 247 297 353
#
# _framework density 20.568784000000001
#
# number of rings (size 3 to 8) (size 9 to 14) (size 15 to 20)
#    0.000    2.000    1.250    1.875    0.000    5.500 
#    0.000    5.000    0.000    0.000    0.000    0.000 
#    0.000    0.000    0.000    0.000    0.000    0.000 
#
# Total GULP energy -178494.281298 kJ/mol
# GULP energy per Si atom -5577.946291 kJ/mol
# Density = 2.052197 g / cm^3
# Si number density = 20.568784 Si / 1000 Ang^3
#
#
#
# Elastic Constant Matrix: (Units=GPa)
#
#
# Indices 1 2 3 4 5 6 
#
# 1 63.7667 0.9476 14.4352 0.0000 0.0000 0.0000
# 2 0.9476 27.8053 2.2177 0.0000 0.0000 0.0000
# 3 14.4352 2.2177 90.2704 0.0000 0.0000 0.0000
# 4 0.0000 0.0000 0.0000 26.6751 0.0000 0.0000
# 5 0.0000 0.0000 0.0000 0.0000 -5.7460 0.0000
# 6 0.0000 0.0000 0.0000 0.0000 0.0000 -5.5993
#
#
#
# Elastic Compliance Matrix: (Units=1/GPa)
#
#
# Indices 1 2 3 4 5 6 
#
# 1 0.016275 -0.000348 -0.002594 0.000000 0.000000 0.000000
# 2 -0.000348 0.036042 -0.000830 0.000000 0.000000 0.000000
# 3 -0.002594 -0.000830 0.011513 0.000000 0.000000 0.000000
# 4 0.000000 0.000000 0.000000 0.037488 0.000000 0.000000
# 5 0.000000 0.000000 0.000000 0.000000 -0.174035 0.000000
# 6 0.000000 0.000000 0.000000 0.000000 0.000000 -0.178593
#
#
# Mechanical properties :
#
#
# Convention : Reuss Voigt Hill
#
# Bulk Modulus (GPa) = 17.76612 24.11593 20.94102
# Shear Modulus (GPa) = -22.22171 14.01542 -4.10314
#
# Velocity S-wave (km/s) = -3.29045 2.61318 -1.41392
# Velocity P-wave (km/s) = 2.40415 4.56672 2.74545
#
# Compressibility (1/GPa) = 0.05628692
#
# Stress axis : x y z
#
# Youngs Moduli (GPa) = 61.44564 27.74505 86.85825
#
# Poissons Ratio (x) = 0.00965 0.22530
# Poissons Ratio (y) = 0.02137 0.07208
# Poissons Ratio (z) = 0.15939 0.02302
#
# Static dielectric constant tensor:
#      x y z
#    x 1.790220 0.000000 0.000000 
#    y 0.000000 1.727690 0.000000 
#    z 0.000000 0.000000 1.748280 
# 
# From -- ./inp_files/11561.got.cif
#   From: 2010.05.17/outbox.cif.g08.bks.cpg/sg44_6_cif.got.tgz:11561.got - 2010.06.03 19:37:08.
