data_PCOD9374733
_publ_section_title
;
Structure prediction by ZEFSAII (Michael W. Deem and Ramdas Pophale) SiO2 
 PCOD9374733
Probable space group: I M M 2
;
_chemical_formula_sum "Si O2"
_cell_formula_units_Z 64
_cell_length_a 18.669512
_cell_length_b 8.960999
_cell_length_c 21.464230
_cell_angle_alpha 90.000000
_cell_angle_beta 90.000000
_cell_angle_gamma 90.000000
_cell_volume 3590.911554
_symmetry_space_group_name_H-M "I M M 2"
_symmetry_group_IT_number 44
_symmetry_cell_setting 'orthorhombic'
loop_
_space_group_symop_operation_xyz
x,y,z
-x,-y,z
-x,y,z
x,-y,z
1/2+x,1/2+y,1/2+z
1/2-x,1/2-y,1/2+z
1/2-x,1/2+y,1/2+z
1/2+x,1/2-y,1/2+z
loop_
_atom_site_type_symbol
_atom_site_label
_atom_site_fract_x
_atom_site_fract_y
_atom_site_fract_z
Si Si1 0.087058 0.172715 0.606730
Si Si2 0.087107 0.327757 0.097462
Si Si3 0.584856 0.319964 0.968252
Si Si4 0.172585 0.320466 0.355659
Si Si5 0.914259 0.824150 0.969227
Si Si6 0.917475 0.681693 0.234725
Si Si7 0.170790 0.679342 0.856238
Si Si8 0.082827 0.679169 0.734165
O O1 0.109235 0.226166 0.538015
O O2 0.110139 0.260951 0.667860
O O3 0.000000 0.177606 0.605563
O O4 0.108118 0.000000 0.613217
O O5 0.110127 0.500000 0.089310
O O6 0.109033 0.271360 0.166014
O O7 0.000000 0.328634 0.099581
O O8 0.108412 0.232211 0.037770
O O9 0.500000 0.288021 0.961992
O O10 0.593090 0.500000 0.964258
O O11 0.628241 0.239464 0.914475
O O12 0.175702 0.500000 0.357066
O O13 0.131646 0.273592 0.292269
O O14 0.251246 0.251637 0.357155
O O15 0.873921 0.734631 0.915642
O O16 0.000000 0.799275 0.963838
O O17 0.900691 0.000000 0.962744
O O18 0.918784 0.500000 0.232825
O O19 0.000000 0.730711 0.243943
O O20 0.175794 0.500000 0.857090
O O21 0.129484 0.726284 0.793175
O O22 0.082575 0.500000 0.732227
O O23 0.000000 0.728942 0.742296
#
# Coordination Sequence:
#
# PCOD9374733 Si02
#       8
#     8   8   8   8   8   8   8   8
#     4   8  15  29  51  78 105 132 164 205 252 303
#     4   8  14  28  52  78 102 131 168 208 252 305
#     4   9  18  34  55  79 107 139 175 211 251 306
#     4  11  22  35  52  76 106 138 176 220 262 301
#     4  10  20  34  54  81 108 132 166 214 261 304
#     4   8  15  30  53  79 104 132 169 210 252 304
#     4  11  23  38  53  71 102 142 179 212 254 310
#     4   9  18  33  54  78 100 126 167 216 260 305
#
# _framework density 17.822773000000002
#
# number of rings (size 3 to 8) (size 9 to 14) (size 15 to 20)
#    0.000    2.750    0.000    3.375    0.000    3.500 
#    0.000    5.000    0.000    7.500    0.000    0.000 
#    0.000    0.000    0.000    0.000    0.000    0.000 
#
# Total GULP energy -178407.555799 kJ/mol
# GULP energy per Si atom -5575.236119 kJ/mol
# Density = 1.778221 g / cm^3
# Si number density = 17.822773 Si / 1000 Ang^3
#
#
#
# Elastic Constant Matrix: (Units=GPa)
#
#
# Indices 1 2 3 4 5 6 
#
# 1 60.8028 38.6701 70.1798 0.0000 0.0000 0.0000
# 2 38.6701 41.0324 56.5226 0.0000 0.0000 0.0000
# 3 70.1798 56.5226 194.5651 0.0000 0.0000 0.0000
# 4 0.0000 0.0000 0.0000 24.5585 0.0000 0.0000
# 5 0.0000 0.0000 0.0000 0.0000 -6.7325 0.0000
# 6 0.0000 0.0000 0.0000 0.0000 0.0000 17.8637
#
#
#
# Elastic Compliance Matrix: (Units=1/GPa)
#
#
# Indices 1 2 3 4 5 6 
#
# 1 0.045644 -0.033905 -0.006614 0.000000 0.000000 0.000000
# 2 -0.033905 0.065816 -0.006890 0.000000 0.000000 0.000000
# 3 -0.006614 -0.006890 0.009527 0.000000 0.000000 0.000000
# 4 0.000000 0.000000 0.000000 0.040719 0.000000 0.000000
# 5 0.000000 0.000000 0.000000 0.000000 -0.148533 0.000000
# 6 0.000000 0.000000 0.000000 0.000000 0.000000 0.055979
#
#
# Mechanical properties :
#
#
# Convention : Reuss Voigt Hill
#
# Bulk Modulus (GPa) = 38.21523 69.68282 53.94903
# Shear Modulus (GPa) = 28.95275 15.87314 22.41295
#
# Velocity S-wave (km/s) = 4.03486 2.98755 3.55004
# Velocity P-wave (km/s) = 6.57230 7.14724 6.86579
#
# Compressibility (1/GPa) = 0.02616758
#
# Stress axis : x y z
#
# Youngs Moduli (GPa) = 21.90853 15.19390 104.96376
#
# Poissons Ratio (x) = 0.51515 0.69425
# Poissons Ratio (y) = 0.74282 0.72323
# Poissons Ratio (z) = 0.14491 0.10469
#
# Static dielectric constant tensor:
#      x y z
#    x 1.586560 0.000000 0.000000 
#    y 0.000000 1.599200 0.000000 
#    z 0.000000 0.000000 1.616920 
# 
# From -- ./inp_files/23335.got.cif
#   From: 2010.05.17/outbox.cif.g08.bks.cpg/sg44_12_cif.got.tgz:23335.got - 2010.06.03 19:37:08.
