data_PCOD9374793
_publ_section_title
;
Structure prediction by ZEFSAII (Michael W. Deem and Ramdas Pophale) SiO2 
 PCOD9374793
Probable space group: I M M 2
;
_chemical_formula_sum "Si O2"
_cell_formula_units_Z 40
_cell_length_a 14.473882
_cell_length_b 9.345611
_cell_length_c 15.014196
_cell_angle_alpha 90.000000
_cell_angle_beta 90.000000
_cell_angle_gamma 90.000000
_cell_volume 2030.929317
_symmetry_space_group_name_H-M "I M M 2"
_symmetry_group_IT_number 44
_symmetry_cell_setting 'orthorhombic'
loop_
_space_group_symop_operation_xyz
x,y,z
-x,-y,z
-x,y,z
x,-y,z
1/2+x,1/2+y,1/2+z
1/2-x,1/2-y,1/2+z
1/2-x,1/2+y,1/2+z
1/2+x,1/2-y,1/2+z
loop_
_atom_site_type_symbol
_atom_site_label
_atom_site_fract_x
_atom_site_fract_y
_atom_site_fract_z
Si Si1 0.000000 0.325211 0.573850
Si Si2 0.607705 0.658207 0.539382
Si Si3 0.607997 0.841386 0.381380
Si Si4 0.638609 0.667758 0.203489
Si Si5 0.859873 0.666731 0.214053
Si Si6 0.000000 0.327976 0.366599
O O1 0.911679 0.257061 0.625394
O O2 0.000000 0.500000 0.581766
O O3 0.000000 0.281073 0.469484
O O4 0.500000 0.641640 0.514702
O O5 0.650145 0.500000 0.540964
O O6 0.652333 0.760664 0.465343
O O7 0.608137 0.732719 0.634502
O O8 0.500000 0.861235 0.402506
O O9 0.610051 0.741100 0.295791
O O10 0.647471 0.000000 0.364835
O O11 0.612720 0.500000 0.198174
O O12 0.749462 0.674961 0.208665
O O13 0.885590 0.500000 0.197806
O O14 0.910208 0.710361 0.306260
O O15 0.000000 0.500000 0.372471
#
# Coordination Sequence:
#
# PCOD9374793 Si02
#       6
#     4   8   8   8   8   4
#     4  11  23  41  64  89 122 169 213 254 314 381
#     4  10  20  34  56  87 119 151 190 242 302 357
#     4  10  20  35  58  85 114 152 195 239 296 365
#     4  11  23  38  60  91 124 158 203 260 316 370
#     4  10  21  39  63  89 119 159 206 257 312 368
#     4   9  20  41  66  87 116 161 213 258 302 371
#
# _framework density 19.695416999999999
#
# number of rings (size 3 to 8) (size 9 to 14) (size 15 to 20)
#    0.000    1.800    2.000    2.100    0.000    4.800 
#    0.000    4.000    0.000    0.000    0.000    0.000 
#    0.000    0.000    0.000    0.000    0.000    0.000 
#
# Total GULP energy -111449.371439 kJ/mol
# GULP energy per Si atom -5572.468572 kJ/mol
# Density = 1.965059 g / cm^3
# Si number density = 19.695417 Si / 1000 Ang^3
#
#
#
# Elastic Constant Matrix: (Units=GPa)
#
#
# Indices 1 2 3 4 5 6 
#
# 1 81.5204 33.3632 32.5431 0.0000 0.0000 0.0000
# 2 33.3632 141.4746 74.7059 0.0000 0.0000 0.0000
# 3 32.5431 74.7059 171.7114 0.0000 0.0000 0.0000
# 4 0.0000 0.0000 0.0000 -19.0182 0.0000 0.0000
# 5 0.0000 0.0000 0.0000 0.0000 -8.6974 0.0000
# 6 0.0000 0.0000 0.0000 0.0000 0.0000 19.6970
#
#
#
# Elastic Compliance Matrix: (Units=1/GPa)
#
#
# Indices 1 2 3 4 5 6 
#
# 1 0.013895 -0.002449 -0.001568 0.000000 0.000000 0.000000
# 2 -0.002449 0.009608 -0.003716 0.000000 0.000000 0.000000
# 3 -0.001568 -0.003716 0.007738 0.000000 0.000000 0.000000
# 4 0.000000 0.000000 0.000000 -0.052581 0.000000 0.000000
# 5 0.000000 0.000000 0.000000 0.000000 -0.114977 0.000000
# 6 0.000000 0.000000 0.000000 0.000000 0.000000 0.050769
#
#
# Mechanical properties :
#
#
# Convention : Reuss Voigt Hill
#
# Bulk Modulus (GPa) = 63.39132 75.10341 69.24737
# Shear Modulus (GPa) = -77.13234 15.33588 -30.89823
#
# Velocity S-wave (km/s) = -6.26479 2.79346 -3.96511
# Velocity P-wave (km/s) = 4.48045 6.97279 3.77792
#
# Compressibility (1/GPa) = 0.01577503
#
# Stress axis : x y z
#
# Youngs Moduli (GPa) = 71.96820 104.07793 129.23812
#
# Poissons Ratio (x) = 0.25487 0.20265
# Poissons Ratio (y) = 0.17624 0.48026
# Poissons Ratio (z) = 0.11285 0.38676
#
# Static dielectric constant tensor:
#      x y z
#    x 1.665290 0.000000 0.000000 
#    y 0.000000 1.738050 0.000000 
#    z 0.000000 0.000000 1.666030 
# 
# From -- ./inp_files/15811.got.cif
#   From: 2010.05.17/outbox.cif.g08.bks.cpg/sg44_8_cif.got.tgz:15811.got - 2010.06.03 19:37:08.
