data_PCOD9374643
_publ_section_title
;
Structure prediction by ZEFSAII (Michael W. Deem and Ramdas Pophale) SiO2 
 PCOD9374643
Probable space group: I M M 2
;
_chemical_formula_sum "Si O2"
_cell_formula_units_Z 58
_cell_length_a 26.885458
_cell_length_b 7.738036
_cell_length_c 13.485286
_cell_angle_alpha 90.000000
_cell_angle_beta 90.000000
_cell_angle_gamma 90.000000
_cell_volume 2805.487555
_symmetry_space_group_name_H-M "I M M 2"
_symmetry_group_IT_number 44
_symmetry_cell_setting 'orthorhombic'
loop_
_space_group_symop_operation_xyz
x,y,z
-x,-y,z
-x,y,z
x,-y,z
1/2+x,1/2+y,1/2+z
1/2-x,1/2-y,1/2+z
1/2-x,1/2+y,1/2+z
1/2+x,1/2-y,1/2+z
loop_
_atom_site_type_symbol
_atom_site_label
_atom_site_fract_x
_atom_site_fract_y
_atom_site_fract_z
Si Si1 0.945312 0.707141 0.994580
Si Si2 0.000000 0.000000 0.295305
Si Si3 0.381716 0.702126 0.311834
Si Si4 0.924672 0.710235 0.225218
Si Si5 0.318786 0.796274 0.805730
Si Si6 0.715026 0.801713 0.212294
Si Si7 0.943832 0.792068 0.622670
Si Si8 0.343321 0.791295 0.021614
O O1 0.944941 0.500000 0.985622
O O2 0.904112 0.775511 0.920203
O O3 0.000000 0.772495 0.964344
O O4 0.937796 0.745587 0.110207
O O5 0.042785 0.844051 0.288528
O O6 0.374075 0.500000 0.292438
O O7 0.328859 0.789561 0.293277
O O8 0.421083 0.767325 0.228735
O O9 0.932894 0.500000 0.242736
O O10 0.866937 0.753589 0.242619
O O11 0.266358 0.769386 0.753250
O O12 0.324005 0.000000 0.819124
O O13 0.324249 0.722150 0.916645
O O14 0.689978 0.723164 0.113244
O O15 0.725497 0.000000 0.189851
O O16 0.901280 0.747470 0.543181
O O17 0.000000 0.726934 0.605234
O O18 0.946942 0.000000 0.625595
O O19 0.339633 0.000000 0.024058
#
# Coordination Sequence:
#
# PCOD9374643 Si02
#       8
#     8   2   8   8   8   8   8   8
#     4  10  20  35  54  82 120 158 196 246 301 349
#     4  12  22  40  68  86 124 166 210 240 310 350
#     4  10  20  33  55  82 114 155 200 238 296 360
#     4  10  23  41  61  90 126 162 203 251 299 362
#     4  10  22  42  63  84 116 153 193 241 300 355
#     4  10  21  38  60  85 115 146 195 251 296 354
#     4   9  18  34  52  80 116 151 189 241 289 341
#     4   9  20  39  60  83 110 149 192 235 291 355
#
# _framework density 20.673767999999999
#
# number of rings (size 3 to 8) (size 9 to 14) (size 15 to 20)
#    0.000    2.207    0.690    1.448    1.931    3.862 
#    1.241    2.759    0.000    0.000    0.000    0.000 
#    0.000    0.000    0.000    0.000    0.000    0.000 
#
# Total GULP energy -161514.934084 kJ/mol
# GULP energy per Si atom -5569.480486 kJ/mol
# Density = 2.062671 g / cm^3
# Si number density = 20.673768 Si / 1000 Ang^3
#
#
#
# Elastic Constant Matrix: (Units=GPa)
#
#
# Indices 1 2 3 4 5 6 
#
# 1 171.4809 7.7024 45.8083 0.0000 0.0000 0.0000
# 2 7.7024 39.1654 8.6684 0.0000 0.0000 0.0000
# 3 45.8083 8.6684 43.4992 0.0000 0.0000 0.0000
# 4 0.0000 0.0000 0.0000 7.5335 0.0000 0.0000
# 5 0.0000 0.0000 0.0000 0.0000 10.1046 0.0000
# 6 0.0000 0.0000 0.0000 0.0000 0.0000 32.2157
#
#
#
# Elastic Compliance Matrix: (Units=1/GPa)
#
#
# Indices 1 2 3 4 5 6 
#
# 1 0.008118 0.000309 -0.008610 0.000000 0.000000 0.000000
# 2 0.000309 0.026723 -0.005651 0.000000 0.000000 0.000000
# 3 -0.008610 -0.005651 0.033182 0.000000 0.000000 0.000000
# 4 0.000000 0.000000 0.000000 0.132740 0.000000 0.000000
# 5 0.000000 0.000000 0.000000 0.000000 0.098965 0.000000
# 6 0.000000 0.000000 0.000000 0.000000 0.000000 0.031041
#
#
# Mechanical properties :
#
#
# Convention : Reuss Voigt Hill
#
# Bulk Modulus (GPa) = 24.92590 42.05595 33.49092
# Shear Modulus (GPa) = 13.43922 22.76852 18.10387
#
# Velocity S-wave (km/s) = 2.55240 3.32222 2.96242
# Velocity P-wave (km/s) = 4.55733 5.92478 5.28547
#
# Compressibility (1/GPa) = 0.04011892
#
# Stress axis : x y z
#
# Youngs Moduli (GPa) = 123.18664 37.42146 30.13647
#
# Poissons Ratio (x) = -0.01157 0.25948
# Poissons Ratio (y) = -0.03809 0.17030
# Poissons Ratio (z) = 1.06067 0.21146
#
# Static dielectric constant tensor:
#      x y z
#    x 1.724580 0.000000 0.000000 
#    y 0.000000 1.770380 0.000000 
#    z 0.000000 0.000000 1.779000 
# 
# From -- ./inp_files/14847.got.cif
#   From: 2010.05.17/outbox.cif.g08.bks.cpg/sg44_8_cif.got.tgz:14847.got - 2010.06.03 19:37:08.
