data_PCOD9374978
_publ_section_title
;
Structure prediction by ZEFSAII (Michael W. Deem and Ramdas Pophale) SiO2 
 PCOD9374978
Probable space group: I M M 2
;
_chemical_formula_sum "Si O2"
_cell_formula_units_Z 48
_cell_length_a 7.749217
_cell_length_b 17.610561
_cell_length_c 17.280731
_cell_angle_alpha 90.000000
_cell_angle_beta 90.000000
_cell_angle_gamma 90.000000
_cell_volume 2358.267812
_symmetry_space_group_name_H-M "I M M 2"
_symmetry_group_IT_number 44
_symmetry_cell_setting 'orthorhombic'
loop_
_space_group_symop_operation_xyz
x,y,z
-x,-y,z
-x,y,z
x,-y,z
1/2+x,1/2+y,1/2+z
1/2-x,1/2-y,1/2+z
1/2-x,1/2+y,1/2+z
1/2+x,1/2-y,1/2+z
loop_
_atom_site_type_symbol
_atom_site_label
_atom_site_fract_x
_atom_site_fract_y
_atom_site_fract_z
Si Si1 0.703268 0.314660 0.141620
Si Si2 0.711463 0.148812 0.180236
Si Si3 0.793705 0.684839 0.852568
Si Si4 0.293407 0.585698 0.001203
Si Si5 0.211645 0.500000 0.409225
Si Si6 0.211246 0.500000 0.587593
Si Si7 0.796156 0.646603 0.314254
O O1 0.500000 0.306975 0.125235
O O2 0.772611 0.228632 0.144055
O O3 0.720607 0.347674 0.227981
O O4 0.777121 0.369055 0.075713
O O5 0.500000 0.149200 0.179740
O O6 0.765660 0.150384 0.270148
O O7 0.767423 0.075402 0.132984
O O8 0.737616 0.634684 0.924597
O O9 0.734357 0.772317 0.855109
O O10 0.000000 0.686206 0.850751
O O11 0.500000 0.579643 0.010825
O O12 0.224425 0.500000 0.994891
O O13 0.266719 0.500000 0.498452
O O14 0.268821 0.424391 0.364030
O O15 0.000000 0.500000 0.409867
O O16 0.000000 0.500000 0.587856
O O17 0.000000 0.636665 0.304652
#
# Coordination Sequence:
#
# PCOD9374978 Si02
#       7
#     8   8   8   8   4   4   8
#     4   9  19  36  56  80 108 145 188 230 278 339
#     4   8  16  30  51  77 104 134 175 223 273 325
#     4  10  21  37  56  82 111 146 189 233 284 339
#     4  10  22  37  56  83 113 149 191 234 287 343
#     4   9  20  32  51  84 113 140 182 225 275 335
#     4   9  16  28  50  78 103 132 174 225 269 319
#     4  10  20  36  57  83 113 146 184 231 283 338
#
# _framework density 20.353922000000001
#
# number of rings (size 3 to 8) (size 9 to 14) (size 15 to 20)
#    0.000    2.667    0.000    2.000    4.667    1.000 
#    0.000    1.250    0.000    0.000    0.000    0.000 
#    0.000    0.000    0.000    0.000    0.000    0.000 
#
# Total GULP energy -133953.498031 kJ/mol
# GULP energy per Si atom -5581.395751 kJ/mol
# Density = 2.030760 g / cm^3
# Si number density = 20.353922 Si / 1000 Ang^3
#
#
#
# Elastic Constant Matrix: (Units=GPa)
#
#
# Indices 1 2 3 4 5 6 
#
# 1 22.6216 -7.7067 -13.6183 0.0000 0.0000 0.0000
# 2 -7.7067 202.7264 139.1893 0.0000 0.0000 0.0000
# 3 -13.6183 139.1893 137.2175 0.0000 0.0000 0.0000
# 4 0.0000 0.0000 0.0000 35.6381 0.0000 0.0000
# 5 0.0000 0.0000 0.0000 0.0000 20.4191 0.0000
# 6 0.0000 0.0000 0.0000 0.0000 0.0000 13.0082
#
#
#
# Elastic Compliance Matrix: (Units=1/GPa)
#
#
# Indices 1 2 3 4 5 6 
#
# 1 0.048393 -0.004803 0.009675 0.000000 0.000000 0.000000
# 2 -0.004803 0.016727 -0.017444 0.000000 0.000000 0.000000
# 3 0.009675 -0.017444 0.025943 0.000000 0.000000 0.000000
# 4 0.000000 0.000000 0.000000 0.028060 0.000000 0.000000
# 5 0.000000 0.000000 0.000000 0.000000 0.048974 0.000000
# 6 0.000000 0.000000 0.000000 0.000000 0.000000 0.076874
#
#
# Mechanical properties :
#
#
# Convention : Reuss Voigt Hill
#
# Bulk Modulus (GPa) = 15.17018 66.47713 40.82365
# Shear Modulus (GPa) = 17.11808 30.12649 23.62229
#
# Velocity S-wave (km/s) = 2.90318 3.85142 3.41042
# Velocity P-wave (km/s) = 4.32520 7.24634 5.96728
#
# Compressibility (1/GPa) = 0.06591880
#
# Stress axis : x y z
#
# Youngs Moduli (GPa) = 20.66393 59.78323 38.54647
#
# Poissons Ratio (x) = 0.28713 -0.37293
# Poissons Ratio (y) = 0.09925 0.67241
# Poissons Ratio (z) = -0.19992 1.04287
#
# Static dielectric constant tensor:
#      x y z
#    x 1.750960 0.000000 0.000000 
#    y 0.000000 1.705260 0.000000 
#    z 0.000000 0.000000 1.704500 
# 
# From -- ./inp_files/16168.got.cif
#   From: 2010.05.17/outbox.cif.g08.bks.cpg/sg44_9_cif.got.tgz:16168.got - 2010.06.03 19:37:08.
