data_PCOD9374945
_publ_section_title
;
Structure prediction by ZEFSAII (Michael W. Deem and Ramdas Pophale) SiO2 
 PCOD9374945
Probable space group: I M M 2
;
_chemical_formula_sum "Si O2"
_cell_formula_units_Z 64
_cell_length_a 29.909044
_cell_length_b 8.221748
_cell_length_c 13.465837
_cell_angle_alpha 90.000000
_cell_angle_beta 90.000000
_cell_angle_gamma 90.000000
_cell_volume 3311.311567
_symmetry_space_group_name_H-M "I M M 2"
_symmetry_group_IT_number 44
_symmetry_cell_setting 'orthorhombic'
loop_
_space_group_symop_operation_xyz
x,y,z
-x,-y,z
-x,y,z
x,-y,z
1/2+x,1/2+y,1/2+z
1/2-x,1/2-y,1/2+z
1/2-x,1/2+y,1/2+z
1/2+x,1/2-y,1/2+z
loop_
_atom_site_type_symbol
_atom_site_label
_atom_site_fract_x
_atom_site_fract_y
_atom_site_fract_z
Si Si1 0.551958 0.698038 0.819170
Si Si2 0.710104 0.313955 0.724884
Si Si3 0.616332 0.300073 0.641892
Si Si4 0.792628 0.314223 0.579366
Si Si5 0.052049 0.196314 0.541232
Si Si6 0.139066 0.807271 0.926090
Si Si7 0.260541 0.811959 0.407901
Si Si8 0.122237 0.306514 0.704751
O O1 0.500000 0.744739 0.810378
O O2 0.553656 0.500000 0.819436
O O3 0.579809 0.752310 0.723108
O O4 0.567763 0.749574 0.930120
O O5 0.699071 0.500000 0.757779
O O6 0.664204 0.244171 0.684841
O O7 0.746716 0.325245 0.639878
O O8 0.736927 0.230843 0.813391
O O9 0.615879 0.500000 0.639644
O O10 0.614584 0.245548 0.526686
O O11 0.803856 0.500000 0.546847
O O12 0.778070 0.201276 0.489621
O O13 0.832141 0.251212 0.649517
O O14 0.081950 0.255906 0.632413
O O15 0.000000 0.245437 0.551640
O O16 0.053297 0.000000 0.541854
O O17 0.191952 0.766249 0.934073
O O18 0.121402 0.749604 0.818974
O O19 0.134699 0.000000 0.926670
O O20 0.271617 0.000000 0.385365
O O21 0.124430 0.500000 0.708095
#
# Coordination Sequence:
#
# PCOD9374945 Si02
#       8
#     8   8   8   8   8   8   8   8
#     4   8  15  30  54  83 111 135 167 219 276 328
#     4   9  17  31  48  69 101 140 179 220 267 317
#     4   9  17  30  51  76 103 140 180 219 272 329
#     4  10  20  36  51  70 106 146 184 227 270 320
#     4   9  19  37  61  88 113 136 174 229 281 337
#     4  11  21  35  55  77 108 151 191 229 276 328
#     4  11  21  33  51  76 106 144 185 230 279 328
#     4  11  23  38  56  79 112 150 189 232 279 333
#
# _framework density 19.32769
#
# number of rings (size 3 to 8) (size 9 to 14) (size 15 to 20)
#    0.000    2.250    2.500    1.875    1.750    1.250 
#    0.000    0.625    0.000    3.750    0.000    0.000 
#    0.000    0.000    0.000    0.000    0.000    0.000 
#
# Total GULP energy -178245.559683 kJ/mol
# GULP energy per Si atom -5570.173740 kJ/mol
# Density = 1.928370 g / cm^3
# Si number density = 19.327690 Si / 1000 Ang^3
#
#
#
# Elastic Constant Matrix: (Units=GPa)
#
#
# Indices 1 2 3 4 5 6 
#
# 1 81.1965 8.3382 66.9568 0.0000 0.0000 0.0000
# 2 8.3382 12.8202 17.1838 0.0000 0.0000 0.0000
# 3 66.9568 17.1838 156.1841 0.0000 0.0000 0.0000
# 4 0.0000 0.0000 0.0000 13.6313 0.0000 0.0000
# 5 0.0000 0.0000 0.0000 0.0000 36.2534 0.0000
# 6 0.0000 0.0000 0.0000 0.0000 0.0000 17.1540
#
#
#
# Elastic Compliance Matrix: (Units=1/GPa)
#
#
# Indices 1 2 3 4 5 6 
#
# 1 0.019082 -0.001696 -0.007994 0.000000 0.000000 0.000000
# 2 -0.001696 0.091645 -0.009356 0.000000 0.000000 0.000000
# 3 -0.007994 -0.009356 0.010859 0.000000 0.000000 0.000000
# 4 0.000000 0.000000 0.000000 0.073360 0.000000 0.000000
# 5 0.000000 0.000000 0.000000 0.000000 0.027584 0.000000
# 6 0.000000 0.000000 0.000000 0.000000 0.000000 0.058295
#
#
# Mechanical properties :
#
#
# Convention : Reuss Voigt Hill
#
# Bulk Modulus (GPa) = 11.97686 48.35092 30.16389
# Shear Modulus (GPa) = 14.41966 23.92255 19.17110
#
# Velocity S-wave (km/s) = 2.73438 3.52196 3.15286
# Velocity P-wave (km/s) = 4.02235 6.45056 5.37536
#
# Compressibility (1/GPa) = 0.08349434
#
# Stress axis : x y z
#
# Youngs Moduli (GPa) = 52.40546 10.91167 92.08872
#
# Poissons Ratio (x) = 0.01851 0.73615
# Poissons Ratio (y) = 0.08888 0.86157
# Poissons Ratio (z) = 0.41893 0.10209
#
# Static dielectric constant tensor:
#      x y z
#    x 1.659060 0.000000 0.000000 
#    y 0.000000 1.693570 0.000000 
#    z 0.000000 0.000000 1.744290 
# 
# From -- ./inp_files/15061.got.cif
#   From: 2010.05.17/outbox.cif.g08.bks.cpg/sg44_8_cif.got.tgz:15061.got - 2010.06.03 19:37:08.
