data_PCOD9374865
_publ_section_title
;
Structure prediction by ZEFSAII (Michael W. Deem and Ramdas Pophale) SiO2 
 PCOD9374865
Probable space group: I M M 2
;
_chemical_formula_sum "Si O2"
_cell_formula_units_Z 64
_cell_length_a 8.882346
_cell_length_b 19.894858
_cell_length_c 20.816311
_cell_angle_alpha 90.000000
_cell_angle_beta 90.000000
_cell_angle_gamma 90.000000
_cell_volume 3678.513023
_symmetry_space_group_name_H-M "I M M 2"
_symmetry_group_IT_number 44
_symmetry_cell_setting 'orthorhombic'
loop_
_space_group_symop_operation_xyz
x,y,z
-x,-y,z
-x,y,z
x,-y,z
1/2+x,1/2+y,1/2+z
1/2-x,1/2-y,1/2+z
1/2-x,1/2+y,1/2+z
1/2+x,1/2-y,1/2+z
loop_
_atom_site_type_symbol
_atom_site_label
_atom_site_fract_x
_atom_site_fract_y
_atom_site_fract_z
Si Si1 0.319154 0.824194 0.764920
Si Si2 0.679511 0.171600 0.912670
Si Si3 0.179604 0.079345 0.658487
Si Si4 0.680503 0.670893 0.909157
Si Si5 0.679697 0.422084 0.519921
Si Si6 0.680957 0.077770 0.155997
Si Si7 0.179635 0.420600 0.019813
Si Si8 0.318797 0.177254 0.271018
O O1 0.500000 0.819796 0.759911
O O2 0.282436 0.844559 0.838502
O O3 0.253787 0.875935 0.713646
O O4 0.248081 0.750543 0.755439
O O5 0.500000 0.163554 0.920322
O O6 0.714923 0.250467 0.922830
O O7 0.761799 0.124630 0.963125
O O8 0.249102 0.096379 0.588981
O O9 0.000000 0.089609 0.657215
O O10 0.208675 0.000000 0.669840
O O11 0.500000 0.664165 0.905790
O O12 0.752141 0.655666 0.839754
O O13 0.747666 0.623866 0.964092
O O14 0.500000 0.419674 0.522903
O O15 0.726081 0.500000 0.509404
O O16 0.746767 0.400791 0.588647
O O17 0.500000 0.080255 0.149491
O O18 0.723277 0.125197 0.215080
O O19 0.724168 0.000000 0.167890
O O20 0.208530 0.500000 0.008236
O O21 0.000000 0.410636 0.021774
O O22 0.500000 0.180911 0.275080
#
# Coordination Sequence:
#
# PCOD9374865 Si02
#       8
#     8   8   8   8   8   8   8   8
#     4  10  21  37  56  79 108 142 181 222 266 320
#     4   9  20  37  55  76 104 140 178 215 258 313
#     4  10  21  37  57  81 109 141 178 222 272 324
#     4  10  21  37  56  80 110 142 179 221 267 321
#     4  10  21  35  53  79 107 135 172 218 264 311
#     4   9  19  36  56  77 104 139 176 214 259 313
#     4  10  21  37  57  81 109 142 181 223 267 319
#     4  10  20  35  56  81 109 141 179 223 269 317
#
# _framework density 17.398334999999999
#
# number of rings (size 3 to 8) (size 9 to 14) (size 15 to 20)
#    0.000    2.250    0.000    3.000    0.000    8.250 
#    0.000    5.000    0.000    0.000    0.000    0.000 
#    0.000    0.000    0.000    0.000    0.000    0.000 
#
# Total GULP energy -178647.005333 kJ/mol
# GULP energy per Si atom -5582.718917 kJ/mol
# Density = 1.735874 g / cm^3
# Si number density = 17.398335 Si / 1000 Ang^3
#
#
#
# Elastic Constant Matrix: (Units=GPa)
#
#
# Indices 1 2 3 4 5 6 
#
# 1 67.8325 60.4789 82.6236 0.0000 0.0000 0.0000
# 2 60.4789 90.0234 119.4516 0.0000 0.0000 0.0000
# 3 82.6236 119.4516 190.7210 0.0000 0.0000 0.0000
# 4 0.0000 0.0000 0.0000 42.0548 0.0000 0.0000
# 5 0.0000 0.0000 0.0000 0.0000 35.2811 0.0000
# 6 0.0000 0.0000 0.0000 0.0000 0.0000 28.3317
#
#
#
# Elastic Compliance Matrix: (Units=1/GPa)
#
#
# Indices 1 2 3 4 5 6 
#
# 1 0.037000 -0.021239 -0.002727 0.000000 0.000000 0.000000
# 2 -0.021239 0.077942 -0.039615 0.000000 0.000000 0.000000
# 3 -0.002727 -0.039615 0.031236 0.000000 0.000000 0.000000
# 4 0.000000 0.000000 0.000000 0.023778 0.000000 0.000000
# 5 0.000000 0.000000 0.000000 0.000000 0.028344 0.000000
# 6 0.000000 0.000000 0.000000 0.000000 0.000000 0.035296
#
#
# Mechanical properties :
#
#
# Convention : Reuss Voigt Hill
#
# Bulk Modulus (GPa) = 52.58644 97.07611 74.83128
# Shear Modulus (GPa) = 13.62034 26.86838 20.24436
#
# Velocity S-wave (km/s) = 2.80099 3.93403 3.41483
# Velocity P-wave (km/s) = 6.38367 8.74945 7.65846
#
# Compressibility (1/GPa) = 0.01901631
#
# Stress axis : x y z
#
# Youngs Moduli (GPa) = 27.02698 12.82999 32.01414
#
# Poissons Ratio (x) = 0.27250 0.08729
# Poissons Ratio (y) = 0.57403 1.26825
# Poissons Ratio (z) = 0.07369 0.50826
#
# Static dielectric constant tensor:
#      x y z
#    x 1.579530 0.000000 0.000000 
#    y 0.000000 1.574610 0.000000 
#    z 0.000000 0.000000 1.559560 
# 
# From -- ./inp_files/20751.got.cif
#   From: 2010.05.17/outbox.cif.g08.bks.cpg/sg44_11_cif.got.tgz:20751.got - 2010.06.03 19:37:08.
