data_PCOD9374240
_publ_section_title
;
Structure prediction by ZEFSAII (Michael W. Deem and Ramdas Pophale) SiO2 
 PCOD9374240
Probable space group: I M M 2
;
_chemical_formula_sum "Si O2"
_cell_formula_units_Z 58
_cell_length_a 15.488181
_cell_length_b 7.608743
_cell_length_c 24.447031
_cell_angle_alpha 90.000000
_cell_angle_beta 90.000000
_cell_angle_gamma 90.000000
_cell_volume 2880.974762
_symmetry_space_group_name_H-M "I M M 2"
_symmetry_group_IT_number 44
_symmetry_cell_setting 'orthorhombic'
loop_
_space_group_symop_operation_xyz
x,y,z
-x,-y,z
-x,y,z
x,-y,z
1/2+x,1/2+y,1/2+z
1/2-x,1/2-y,1/2+z
1/2-x,1/2+y,1/2+z
1/2+x,1/2-y,1/2+z
loop_
_atom_site_type_symbol
_atom_site_label
_atom_site_fract_x
_atom_site_fract_y
_atom_site_fract_z
Si Si1 0.263803 0.213928 0.522310
Si Si2 0.597460 0.714322 0.958066
Si Si3 0.500000 0.000000 0.633997
Si Si4 0.099107 0.212717 0.332682
Si Si5 0.402406 0.788940 0.432807
Si Si6 0.646200 0.693745 0.633331
Si Si7 0.097891 0.789031 0.807673
Si Si8 0.239227 0.295453 0.242159
O O1 0.170769 0.271311 0.499916
O O2 0.334964 0.273042 0.477747
O O3 0.291815 0.279316 0.581281
O O4 0.264575 0.000000 0.523475
O O5 0.500000 0.771235 0.971008
O O6 0.597385 0.500000 0.957843
O O7 0.617443 0.766423 0.895339
O O8 0.424627 0.153705 0.633529
O O9 0.167557 0.283797 0.289903
O O10 0.000000 0.264138 0.319549
O O11 0.102783 0.000000 0.330585
O O12 0.500000 0.721632 0.441611
O O13 0.377059 0.748598 0.370527
O O14 0.405543 0.000000 0.437679
O O15 0.606687 0.500000 0.629934
O O16 0.701487 0.705450 0.688778
O O17 0.171414 0.722682 0.766875
O O18 0.000000 0.722045 0.799346
O O19 0.095356 0.000000 0.802114
O O20 0.252347 0.500000 0.228312
#
# Coordination Sequence:
#
# PCOD9374240 Si02
#       8
#     8   8   2   8   8   8   8   8
#     4  10  19  35  58  83 120 162 205 257 305 363
#     4   8  15  30  54  85 118 158 206 256 310 363
#     4  12  26  52  68  90 130 152 210 252 296 364
#     4   9  18  32  54  86 118 153 202 249 302 373
#     4   9  18  30  52  83 116 153 196 248 313 369
#     4  12  27  44  67  93 122 164 203 249 306 361
#     4   9  19  36  57  82 115 157 204 256 309 361
#     4  11  22  38  57  82 120 160 204 258 307 363
#
# _framework density 20.132073999999999
#
# number of rings (size 3 to 8) (size 9 to 14) (size 15 to 20)
#    0.000    2.207    1.379    2.276    1.931    3.034 
#    0.000    1.379    0.000    5.379    0.000    0.000 
#    0.000    0.000    0.000    0.000    0.000    0.000 
#
# Total GULP energy -161719.080175 kJ/mol
# GULP energy per Si atom -5576.520006 kJ/mol
# Density = 2.008625 g / cm^3
# Si number density = 20.132074 Si / 1000 Ang^3
#
#
#
# Elastic Constant Matrix: (Units=GPa)
#
#
# Indices 1 2 3 4 5 6 
#
# 1 130.6288 25.8214 107.9775 0.0000 0.0000 0.0000
# 2 25.8214 84.7101 23.2268 0.0000 0.0000 0.0000
# 3 107.9775 23.2268 129.3927 0.0000 0.0000 0.0000
# 4 0.0000 0.0000 0.0000 25.2903 0.0000 0.0000
# 5 0.0000 0.0000 0.0000 0.0000 -12.0306 0.0000
# 6 0.0000 0.0000 0.0000 0.0000 0.0000 6.5429
#
#
#
# Elastic Compliance Matrix: (Units=1/GPa)
#
#
# Indices 1 2 3 4 5 6 
#
# 1 0.024995 -0.001998 -0.020500 0.000000 0.000000 0.000000
# 2 -0.001998 0.012576 -0.000590 0.000000 0.000000 0.000000
# 3 -0.020500 -0.000590 0.024941 0.000000 0.000000 0.000000
# 4 0.000000 0.000000 0.000000 0.039541 0.000000 0.000000
# 5 0.000000 0.000000 0.000000 0.000000 -0.083122 0.000000
# 6 0.000000 0.000000 0.000000 0.000000 0.000000 0.152837
#
#
# Mechanical properties :
#
#
# Convention : Reuss Voigt Hill
#
# Bulk Modulus (GPa) = 61.21243 73.19811 67.20527
# Shear Modulus (GPa) = 22.38238 16.47424 19.42831
#
# Velocity S-wave (km/s) = 3.33795 2.86371 3.10988
# Velocity P-wave (km/s) = 6.73256 6.88276 6.80807
#
# Compressibility (1/GPa) = 0.01633655
#
# Stress axis : x y z
#
# Youngs Moduli (GPa) = 40.00747 79.51760 40.09423
#
# Poissons Ratio (x) = 0.15889 0.82192
# Poissons Ratio (y) = 0.07994 0.02365
# Poissons Ratio (z) = 0.82014 0.04691
#
# Static dielectric constant tensor:
#      x y z
#    x 1.707690 0.000000 0.000000 
#    y 0.000000 1.750830 0.000000 
#    z 0.000000 0.000000 1.671990 
# 
# From -- ./inp_files/25695.got.cif
#   From: 2010.05.17/outbox.cif.g08.bks.cpg/sg44_13_cif.got.tgz:25695.got - 2010.06.03 19:37:08.
