data_PCOD9374956
_publ_section_title
;
Structure prediction by ZEFSAII (Michael W. Deem and Ramdas Pophale) SiO2 
 PCOD9374956
Probable space group: I M M 2
;
_chemical_formula_sum "Si O2"
_cell_formula_units_Z 64
_cell_length_a 27.884341
_cell_length_b 7.784079
_cell_length_c 13.598993
_cell_angle_alpha 90.000000
_cell_angle_beta 90.000000
_cell_angle_gamma 90.000000
_cell_volume 2951.714646
_symmetry_space_group_name_H-M "I M M 2"
_symmetry_group_IT_number 44
_symmetry_cell_setting 'orthorhombic'
loop_
_space_group_symop_operation_xyz
x,y,z
-x,-y,z
-x,y,z
x,-y,z
1/2+x,1/2+y,1/2+z
1/2-x,1/2-y,1/2+z
1/2-x,1/2+y,1/2+z
1/2+x,1/2-y,1/2+z
loop_
_atom_site_type_symbol
_atom_site_label
_atom_site_fract_x
_atom_site_fract_y
_atom_site_fract_z
Si Si1 0.055291 0.289961 0.856980
Si Si2 0.381734 0.803212 0.175074
Si Si3 0.707699 0.790903 0.515223
Si Si4 0.776124 0.208286 0.355440
Si Si5 0.624124 0.703071 0.947699
Si Si6 0.898509 0.710626 0.064425
Si Si7 0.945529 0.294091 0.269602
Si Si8 0.776564 0.801681 0.676318
O O1 0.058161 0.500000 0.858097
O O2 0.087366 0.226275 0.765038
O O3 0.000000 0.241949 0.843282
O O4 0.073467 0.236355 0.965345
O O5 0.325564 0.791204 0.202473
O O6 0.396768 0.000000 0.169626
O O7 0.386074 0.739449 0.062438
O O8 0.725572 0.746414 0.407232
O O9 0.656256 0.730393 0.549653
O O10 0.752736 0.729633 0.578517
O O11 0.707029 0.000000 0.522317
O O12 0.823906 0.269684 0.410380
O O13 0.768178 0.288188 0.249729
O O14 0.777952 0.000000 0.348492
O O15 0.627360 0.500000 0.939846
O O16 0.584622 0.759404 0.868217
O O17 0.898660 0.500000 0.065834
O O18 0.920478 0.768982 0.168494
O O19 0.947936 0.500000 0.259823
O O20 0.000000 0.228101 0.276916
O O21 0.790204 0.000000 0.661179
#
# Coordination Sequence:
#
# PCOD9374956 Si02
#       8
#     8   8   8   8   8   8   8   8
#     4   9  18  33  56  86 115 147 191 246 303 352
#     4  11  22  37  59  86 120 159 200 244 295 357
#     4   9  17  31  51  77 111 146 179 221 282 342
#     4  10  20  36  55  79 113 151 189 236 288 343
#     4  11  23  40  60  83 119 160 202 251 301 356
#     4   9  16  30  56  87 117 147 186 239 298 358
#     4  10  21  37  59  88 118 150 197 254 304 360
#     4  11  21  35  55  82 116 153 191 234 284 346
#
# _framework density 21.682314000000002
#
# number of rings (size 3 to 8) (size 9 to 14) (size 15 to 20)
#    0.000    2.000    1.250    3.000    0.000    6.250 
#    0.000    1.250    0.000    6.375    0.000    0.000 
#    0.000    0.000    0.000    0.000    0.000    0.000 
#
# Total GULP energy -178497.185949 kJ/mol
# GULP energy per Si atom -5578.037061 kJ/mol
# Density = 2.163296 g / cm^3
# Si number density = 21.682314 Si / 1000 Ang^3
#
#
#
# Elastic Constant Matrix: (Units=GPa)
#
#
# Indices 1 2 3 4 5 6 
#
# 1 126.8908 0.5340 51.2143 0.0000 0.0000 0.0000
# 2 0.5340 25.9822 0.0474 0.0000 0.0000 0.0000
# 3 51.2143 0.0474 115.6654 0.0000 0.0000 0.0000
# 4 0.0000 0.0000 0.0000 9.3433 0.0000 0.0000
# 5 0.0000 0.0000 0.0000 0.0000 37.8019 0.0000
# 6 0.0000 0.0000 0.0000 0.0000 0.0000 13.3442
#
#
#
# Elastic Compliance Matrix: (Units=1/GPa)
#
#
# Indices 1 2 3 4 5 6 
#
# 1 0.009597 -0.000189 -0.004249 0.000000 0.000000 0.000000
# 2 -0.000189 0.038492 0.000068 0.000000 0.000000 0.000000
# 3 -0.004249 0.000068 0.010527 0.000000 0.000000 0.000000
# 4 0.000000 0.000000 0.000000 0.107029 0.000000 0.000000
# 5 0.000000 0.000000 0.000000 0.000000 0.026454 0.000000
# 6 0.000000 0.000000 0.000000 0.000000 0.000000 0.074939
#
#
# Mechanical properties :
#
#
# Convention : Reuss Voigt Hill
#
# Bulk Modulus (GPa) = 20.05040 41.34775 30.69907
# Shear Modulus (GPa) = 17.09973 26.54740 21.82357
#
# Velocity S-wave (km/s) = 2.81134 3.50291 3.17600
# Velocity P-wave (km/s) = 4.45035 5.95581 5.25725
#
# Compressibility (1/GPa) = 0.04987433
#
# Stress axis : x y z
#
# Youngs Moduli (GPa) = 104.20402 25.97966 94.99380
#
# Poissons Ratio (x) = 0.00492 0.40364
# Poissons Ratio (y) = 0.01974 -0.00647
# Poissons Ratio (z) = 0.44277 -0.00177
#
# Static dielectric constant tensor:
#      x y z
#    x 1.768720 0.000000 0.000000 
#    y 0.000000 1.802280 0.000000 
#    z 0.000000 0.000000 1.841060 
# 
# From -- ./inp_files/11488.got.cif
#   From: 2010.05.17/outbox.cif.g08.bks.cpg/sg44_6_cif.got.tgz:11488.got - 2010.06.03 19:37:08.
