data_PCOD9374909
_publ_section_title
;
Structure prediction by ZEFSAII (Michael W. Deem and Ramdas Pophale) SiO2 
 PCOD9374909
Probable space group: I M M 2
;
_chemical_formula_sum "Si O2"
_cell_formula_units_Z 32
_cell_length_a 8.928435
_cell_length_b 7.748796
_cell_length_c 24.743235
_cell_angle_alpha 90.000000
_cell_angle_beta 90.000000
_cell_angle_gamma 90.000000
_cell_volume 1711.851346
_symmetry_space_group_name_H-M "I M M 2"
_symmetry_group_IT_number 44
_symmetry_cell_setting 'orthorhombic'
loop_
_space_group_symop_operation_xyz
x,y,z
-x,-y,z
-x,y,z
x,-y,z
1/2+x,1/2+y,1/2+z
1/2-x,1/2-y,1/2+z
1/2-x,1/2+y,1/2+z
1/2+x,1/2-y,1/2+z
loop_
_atom_site_type_symbol
_atom_site_label
_atom_site_fract_x
_atom_site_fract_y
_atom_site_fract_z
Si Si1 0.817949 0.000000 0.724771
Si Si2 0.179920 0.000000 0.600544
Si Si3 0.177275 0.196090 0.031643
Si Si4 0.826074 0.208668 0.420043
Si Si5 0.680527 0.799306 0.305725
O O1 0.768400 0.000000 0.662818
O O2 0.772322 0.169578 0.758370
O O3 0.000000 0.000000 0.723751
O O4 0.240116 0.833192 0.569201
O O5 0.000000 0.000000 0.598877
O O6 0.000000 0.230686 0.031837
O O7 0.203263 0.000000 0.049956
O O8 0.238243 0.215791 0.970785
O O9 0.753524 0.253999 0.362573
O O10 0.000000 0.259473 0.421882
O O11 0.818321 0.000000 0.424680
O O12 0.500000 0.789921 0.311098
O O13 0.719594 0.000000 0.294986
#
# Coordination Sequence:
#
# PCOD9374909 Si02
#       5
#     4   4   8   8   8
#     4   9  20  37  59  85 113 151 200 241 288 355
#     4  11  23  41  63  89 121 157 200 255 304 349
#     4  11  24  40  60  86 117 159 204 245 297 361
#     4  10  20  35  57  87 122 154 189 242 302 352
#     4   9  18  34  56  82 114 153 192 234 285 348
#
# _framework density 18.693211999999999
#
# number of rings (size 3 to 8) (size 9 to 14) (size 15 to 20)
#    0.000    2.000    1.250    1.875    1.750    4.000 
#    0.000    5.000    0.000    3.000    0.000    0.000 
#    0.000    0.000    0.000    0.000    0.000    0.000 
#
# Total GULP energy -89380.885767 kJ/mol
# GULP energy per Si atom -5586.305360 kJ/mol
# Density = 1.865067 g / cm^3
# Si number density = 18.693212 Si / 1000 Ang^3
#
#
#
# Elastic Constant Matrix: (Units=GPa)
#
#
# Indices 1 2 3 4 5 6 
#
# 1 69.3480 60.7476 54.9347 0.0000 0.0000 0.0000
# 2 60.7476 109.5804 93.8023 0.0000 0.0000 0.0000
# 3 54.9347 93.8023 169.7487 0.0000 0.0000 0.0000
# 4 0.0000 0.0000 0.0000 3.4249 0.0000 0.0000
# 5 0.0000 0.0000 0.0000 0.0000 28.5173 0.0000
# 6 0.0000 0.0000 0.0000 0.0000 0.0000 2.7074
#
#
#
# Elastic Compliance Matrix: (Units=1/GPa)
#
#
# Indices 1 2 3 4 5 6 
#
# 1 0.028109 -0.014794 -0.000922 0.000000 0.000000 0.000000
# 2 -0.014794 0.025103 -0.009084 0.000000 0.000000 0.000000
# 3 -0.000922 -0.009084 0.011209 0.000000 0.000000 0.000000
# 4 0.000000 0.000000 0.000000 0.291980 0.000000 0.000000
# 5 0.000000 0.000000 0.000000 0.000000 0.035066 0.000000
# 6 0.000000 0.000000 0.000000 0.000000 0.000000 0.369355
#
#
# Mechanical properties :
#
#
# Convention : Reuss Voigt Hill
#
# Bulk Modulus (GPa) = 67.46718 85.29405 76.38061
# Shear Modulus (GPa) = 6.13223 16.20943 11.17083
#
# Velocity S-wave (km/s) = 1.81317 2.94790 2.44721
# Velocity P-wave (km/s) = 6.36817 7.57062 6.99528
#
# Compressibility (1/GPa) = 0.01482202
#
# Stress axis : x y z
#
# Youngs Moduli (GPa) = 35.57540 39.83575 89.21127
#
# Poissons Ratio (x) = 0.58932 0.08225
# Poissons Ratio (y) = 0.52629 0.81042
# Poissons Ratio (z) = 0.03280 0.36188
#
# Static dielectric constant tensor:
#      x y z
#    x 1.625930 0.000000 0.000000 
#    y 0.000000 1.661180 0.000000 
#    z 0.000000 0.000000 1.607710 
# 
# From -- ./inp_files/22484.got.cif
#   From: 2010.05.17/outbox.cif.g08.bks.cpg/sg44_12_cif.got.tgz:22484.got - 2010.06.03 19:37:08.
