data_PCOD9374638
_publ_section_title
;
Structure prediction by ZEFSAII (Michael W. Deem and Ramdas Pophale) SiO2 
 PCOD9374638
Probable space group: I M M 2
;
_chemical_formula_sum "Si O2"
_cell_formula_units_Z 64
_cell_length_a 8.224972
_cell_length_b 14.334243
_cell_length_c 25.330962
_cell_angle_alpha 90.000000
_cell_angle_beta 90.000000
_cell_angle_gamma 90.000000
_cell_volume 2986.488688
_symmetry_space_group_name_H-M "I M M 2"
_symmetry_group_IT_number 44
_symmetry_cell_setting 'orthorhombic'
loop_
_space_group_symop_operation_xyz
x,y,z
-x,-y,z
-x,y,z
x,-y,z
1/2+x,1/2+y,1/2+z
1/2-x,1/2-y,1/2+z
1/2-x,1/2+y,1/2+z
1/2+x,1/2-y,1/2+z
loop_
_atom_site_type_symbol
_atom_site_label
_atom_site_fract_x
_atom_site_fract_y
_atom_site_fract_z
Si Si1 0.806965 0.695243 0.292980
Si Si2 0.185311 0.605245 0.786957
Si Si3 0.187514 0.393757 0.002216
Si Si4 0.189671 0.742514 0.100505
Si Si5 0.823859 0.110820 0.396438
Si Si6 0.304079 0.890643 0.902620
Si Si7 0.696531 0.392878 0.520329
Si Si8 0.800138 0.604285 0.188064
O O1 0.773110 0.799573 0.271009
O O2 0.746111 0.670093 0.352123
O O3 0.748108 0.624274 0.248039
O O4 0.000000 0.683177 0.295700
O O5 0.253083 0.500000 0.776058
O O6 0.194159 0.617938 0.850454
O O7 0.000000 0.606427 0.768774
O O8 0.238815 0.500000 0.013042
O O9 0.193607 0.335257 0.054809
O O10 0.000000 0.396311 0.984197
O O11 0.285587 0.350632 0.953664
O O12 0.259430 0.689127 0.151120
O O13 0.000000 0.764530 0.112978
O O14 0.260423 0.831452 0.069389
O O15 0.000000 0.144705 0.376786
O O16 0.834688 0.000000 0.405213
O O17 0.500000 0.886063 0.904300
O O18 0.242657 0.862858 0.960834
O O19 0.258767 0.000000 0.894281
O O20 0.500000 0.388109 0.522590
O O21 0.748749 0.500000 0.525753
O O22 0.751292 0.500000 0.170994
O O23 0.000000 0.605805 0.185690
#
# Coordination Sequence:
#
# PCOD9374638 Si02
#       8
#     8   8   8   8   8   8   8   8
#     4  10  20  33  54  83 109 138 178 224 275 323
#     4  10  21  36  52  71 101 142 182 218 260 314
#     4   9  16  26  42  67  98 131 169 210 254 310
#     4   9  17  29  48  74 102 136 177 219 266 317
#     4   9  17  29  45  67  98 133 168 210 259 307
#     4   9  18  33  52  76 107 141 177 218 267 326
#     4   9  18  32  49  72 104 138 175 223 271 315
#     4   9  17  32  55  82 111 140 175 224 276 325
#
# _framework density 21.429846999999999
#
# number of rings (size 3 to 8) (size 9 to 14) (size 15 to 20)
#    0.000    2.750    0.000    1.500    1.750    5.750 
#    0.000    0.625    0.000    4.875    0.000    1.750 
#    0.000    0.000    0.000    0.000    0.000    0.000 
#
# Total GULP energy -178218.987547 kJ/mol
# GULP energy per Si atom -5569.343361 kJ/mol
# Density = 2.138107 g / cm^3
# Si number density = 21.429847 Si / 1000 Ang^3
#
#
#
# Elastic Constant Matrix: (Units=GPa)
#
#
# Indices 1 2 3 4 5 6 
#
# 1 6.4203 -0.1328 2.9723 0.0000 0.0000 0.0000
# 2 -0.1328 131.8445 44.0505 0.0000 0.0000 0.0000
# 3 2.9723 44.0505 88.6786 0.0000 0.0000 0.0000
# 4 0.0000 0.0000 0.0000 27.0365 0.0000 0.0000
# 5 0.0000 0.0000 0.0000 0.0000 11.8963 0.0000
# 6 0.0000 0.0000 0.0000 0.0000 0.0000 12.0117
#
#
#
# Elastic Compliance Matrix: (Units=1/GPa)
#
#
# Indices 1 2 3 4 5 6 
#
# 1 0.158803 0.002324 -0.006477 0.000000 0.000000 0.000000
# 2 0.002324 0.009128 -0.004612 0.000000 0.000000 0.000000
# 3 -0.006477 -0.004612 0.013785 0.000000 0.000000 0.000000
# 4 0.000000 0.000000 0.000000 0.036987 0.000000 0.000000
# 5 0.000000 0.000000 0.000000 0.000000 0.084060 0.000000
# 6 0.000000 0.000000 0.000000 0.000000 0.000000 0.083252
#
#
# Mechanical properties :
#
#
# Convention : Reuss Voigt Hill
#
# Bulk Modulus (GPa) = 6.09067 35.63595 20.86331
# Shear Modulus (GPa) = 10.91049 22.19245 16.55147
#
# Velocity S-wave (km/s) = 2.25883 3.22154 2.78214
# Velocity P-wave (km/s) = 3.10667 5.52295 4.48076
#
# Compressibility (1/GPa) = 0.16418555
#
# Stress axis : x y z
#
# Youngs Moduli (GPa) = 6.29710 109.55297 72.54344
#
# Poissons Ratio (x) = -0.25461 0.46988
# Poissons Ratio (y) = -0.01464 0.33458
# Poissons Ratio (z) = 0.04079 0.50528
#
# Static dielectric constant tensor:
#      x y z
#    x 1.789700 0.000000 0.000000 
#    y 0.000000 1.873220 0.000000 
#    z 0.000000 0.000000 1.768610 
# 
# From -- ./inp_files/25158.got.cif
#   From: 2010.05.17/outbox.cif.g08.bks.cpg/sg44_13_cif.got.tgz:25158.got - 2010.06.03 19:37:08.
