data_PCOD9374919
_publ_section_title
;
Structure prediction by ZEFSAII (Michael W. Deem and Ramdas Pophale) SiO2 
 PCOD9374919
Probable space group: I M M 2
;
_chemical_formula_sum "Si O2"
_cell_formula_units_Z 64
_cell_length_a 33.156670
_cell_length_b 9.015019
_cell_length_c 12.021112
_cell_angle_alpha 90.000000
_cell_angle_beta 90.000000
_cell_angle_gamma 90.000000
_cell_volume 3593.206666
_symmetry_space_group_name_H-M "I M M 2"
_symmetry_group_IT_number 44
_symmetry_cell_setting 'orthorhombic'
loop_
_space_group_symop_operation_xyz
x,y,z
-x,-y,z
-x,y,z
x,-y,z
1/2+x,1/2+y,1/2+z
1/2-x,1/2-y,1/2+z
1/2-x,1/2+y,1/2+z
1/2+x,1/2-y,1/2+z
loop_
_atom_site_type_symbol
_atom_site_label
_atom_site_fract_x
_atom_site_fract_y
_atom_site_fract_z
Si Si1 0.619142 0.820910 0.620450
Si Si2 0.808933 0.676983 0.284206
Si Si3 0.640393 0.821424 0.365500
Si Si4 0.402279 0.675292 0.163440
Si Si5 0.829857 0.325024 0.538384
Si Si6 0.223215 0.324944 0.746213
Si Si7 0.451896 0.168377 0.984654
Si Si8 0.547644 0.677695 0.752872
O O1 0.656051 0.772135 0.700127
O O2 0.630755 0.786415 0.493144
O O3 0.577883 0.746495 0.662507
O O4 0.614995 0.000000 0.630043
O O5 0.805827 0.500000 0.270997
O O6 0.821434 0.707220 0.410901
O O7 0.765186 0.744976 0.264260
O O8 0.608674 0.745449 0.282399
O O9 0.685496 0.776594 0.324544
O O10 0.638174 0.000000 0.350834
O O11 0.407179 0.500000 0.171328
O O12 0.364522 0.721156 0.086058
O O13 0.438576 0.751386 0.097160
O O14 0.841139 0.500000 0.550238
O O15 0.791875 0.303520 0.619670
O O16 0.228735 0.500000 0.765641
O O17 0.500000 0.162144 0.981881
O O18 0.439673 0.256268 0.873220
O O19 0.435819 0.000000 0.980259
O O20 0.500000 0.714768 0.734504
O O21 0.550945 0.500000 0.754810
#
# Coordination Sequence:
#
# PCOD9374919 Si02
#       8
#     8   8   8   8   8   8   8   8
#     4  10  21  37  58  83 110 150 198 238 279 337
#     4  10  21  34  53  80 107 138 181 231 277 326
#     4   9  20  39  57  75 109 153 193 232 278 337
#     4  11  21  34  56  83 108 138 179 229 282 330
#     4   9  19  36  53  73 105 142 178 218 271 332
#     4   9  19  34  52  74 105 145 183 226 279 329
#     4  10  20  35  58  85 113 147 183 221 272 338
#     4  10  21  37  58  87 121 150 182 234 292 338
#
# _framework density 17.811388999999998
#
# number of rings (size 3 to 8) (size 9 to 14) (size 15 to 20)
#    0.000    2.250    0.000    3.375    1.750    6.000 
#    0.000    0.625    0.000    0.750    0.000    0.000 
#    0.000    0.000    0.000    0.000    0.000    0.000 
#
# Total GULP energy -178543.184638 kJ/mol
# GULP energy per Si atom -5579.474520 kJ/mol
# Density = 1.777085 g / cm^3
# Si number density = 17.811389 Si / 1000 Ang^3
#
#
#
# Elastic Constant Matrix: (Units=GPa)
#
#
# Indices 1 2 3 4 5 6 
#
# 1 77.2785 34.2575 69.4753 0.0000 0.0000 0.0000
# 2 34.2575 52.6187 59.0748 0.0000 0.0000 0.0000
# 3 69.4753 59.0748 149.4262 0.0000 0.0000 0.0000
# 4 0.0000 0.0000 0.0000 17.5764 0.0000 0.0000
# 5 0.0000 0.0000 0.0000 0.0000 12.0668 0.0000
# 6 0.0000 0.0000 0.0000 0.0000 0.0000 32.7946
#
#
#
# Elastic Compliance Matrix: (Units=1/GPa)
#
#
# Indices 1 2 3 4 5 6 
#
# 1 0.023041 -0.005347 -0.008599 0.000000 0.000000 0.000000
# 2 -0.005347 0.035413 -0.011514 0.000000 0.000000 0.000000
# 3 -0.008599 -0.011514 0.015242 0.000000 0.000000 0.000000
# 4 0.000000 0.000000 0.000000 0.056895 0.000000 0.000000
# 5 0.000000 0.000000 0.000000 0.000000 0.082872 0.000000
# 6 0.000000 0.000000 0.000000 0.000000 0.000000 0.030493
#
#
# Mechanical properties :
#
#
# Convention : Reuss Voigt Hill
#
# Bulk Modulus (GPa) = 43.90569 67.21539 55.56054
# Shear Modulus (GPa) = 16.53066 20.25526 18.39296
#
# Velocity S-wave (km/s) = 3.04977 3.37591 3.21698
# Velocity P-wave (km/s) = 6.09141 7.28114 6.71268
#
# Compressibility (1/GPa) = 0.02277609
#
# Stress axis : x y z
#
# Youngs Moduli (GPa) = 43.40025 28.23844 65.60604
#
# Poissons Ratio (x) = 0.15099 0.56416
# Poissons Ratio (y) = 0.23206 0.75540
# Poissons Ratio (z) = 0.37321 0.32514
#
# Static dielectric constant tensor:
#      x y z
#    x 1.615660 0.000000 0.000000 
#    y 0.000000 1.604150 0.000000 
#    z 0.000000 0.000000 1.599350 
# 
# From -- ./inp_files/15084.got.cif
#   From: 2010.05.17/outbox.cif.g08.bks.cpg/sg44_8_cif.got.tgz:15084.got - 2010.06.03 19:37:08.
