data_PCOD9374911
_publ_section_title
;
Structure prediction by ZEFSAII (Michael W. Deem and Ramdas Pophale) SiO2 
 PCOD9374911
Probable space group: I M M 2
;
_chemical_formula_sum "Si O2"
_cell_formula_units_Z 58
_cell_length_a 17.547207
_cell_length_b 27.562346
_cell_length_c 5.483480
_cell_angle_alpha 90.000000
_cell_angle_beta 90.000000
_cell_angle_gamma 90.000000
_cell_volume 2652.042280
_symmetry_space_group_name_H-M "I M M 2"
_symmetry_group_IT_number 44
_symmetry_cell_setting 'orthorhombic'
loop_
_space_group_symop_operation_xyz
x,y,z
-x,-y,z
-x,y,z
x,-y,z
1/2+x,1/2+y,1/2+z
1/2-x,1/2-y,1/2+z
1/2-x,1/2+y,1/2+z
1/2+x,1/2-y,1/2+z
loop_
_atom_site_type_symbol
_atom_site_label
_atom_site_fract_x
_atom_site_fract_y
_atom_site_fract_z
Si Si1 0.281672 0.368014 0.816070
Si Si2 0.815527 0.690296 0.162437
Si Si3 0.082269 0.130352 0.689874
Si Si4 0.591486 0.111476 0.915390
Si Si5 0.337409 0.287613 0.439030
Si Si6 0.092185 0.445046 0.913233
Si Si7 0.500000 0.500000 0.821263
Si Si8 0.632250 0.446388 0.583078
O O1 0.309342 0.323583 0.651041
O O2 0.292045 0.417532 0.663676
O O3 0.208877 0.349039 0.959822
O O4 0.346278 0.375767 0.017391
O O5 0.861781 0.661070 0.367385
O O6 0.736662 0.713603 0.262747
O O7 0.858349 0.735076 0.038822
O O8 0.095401 0.182988 0.811150
O O9 0.000000 0.129390 0.572115
O O10 0.090372 0.088256 0.890997
O O11 0.500000 0.120466 0.915066
O O12 0.609221 0.077851 0.678844
O O13 0.611965 0.085316 0.169380
O O14 0.122453 0.500000 0.897774
O O15 0.000000 0.447420 0.905808
O O16 0.568770 0.458924 0.789204
O O17 0.649166 0.500000 0.477655
#
# Coordination Sequence:
#
# PCOD9374911 Si02
#       8
#     8   8   8   8   8   8   2   8
#     4  10  22  36  60  86 114 163 207 243 299 373
#     4  11  22  40  64  81 117 158 210 255 315 384
#     4  10  20  35  57  89 120 151 201 254 303 362
#     4  10  22  37  64  98 124 162 205 267 322 372
#     4  10  22  39  61  83 108 160 207 250 308 377
#     4   9  18  37  62  92 125 158 198 242 309 389
#     4   8  16  32  58  88 120 174 186 256 294 348
#     4   9  18  35  55  86 123 158 202 243 294 349
#
# _framework density 21.869935999999999
#
# number of rings (size 3 to 8) (size 9 to 14) (size 15 to 20)
#    0.414    1.793    2.069    0.414    2.897    3.310 
#    0.000    2.069    0.000    0.828    0.000    0.000 
#    0.000    0.000    0.000    0.000    0.000    0.000 
#
# Total GULP energy -161439.400294 kJ/mol
# GULP energy per Si atom -5566.875872 kJ/mol
# Density = 2.182016 g / cm^3
# Si number density = 21.869936 Si / 1000 Ang^3
#
#
#
# Elastic Constant Matrix: (Units=GPa)
#
#
# Indices 1 2 3 4 5 6 
#
# 1 26.7624 36.3071 7.4802 -0.0002 0.0001 0.0000
# 2 36.3071 128.7337 26.6423 -0.0002 0.0000 0.0000
# 3 7.4802 26.6423 69.4238 -0.0006 -0.0001 0.0000
# 4 -0.0002 -0.0002 -0.0006 14.8508 -0.0001 0.0000
# 5 0.0001 0.0000 -0.0001 -0.0001 3.6992 0.0001
# 6 0.0000 0.0000 0.0000 0.0000 0.0001 20.4611
#
#
#
# Elastic Compliance Matrix: (Units=1/GPa)
#
#
# Indices 1 2 3 4 5 6 
#
# 1 0.060523 -0.017076 0.000032 0.000000 -0.000002 0.000000
# 2 -0.017076 0.013256 -0.003247 0.000000 0.000000 0.000000
# 3 0.000032 -0.003247 0.015647 0.000001 0.000000 0.000000
# 4 0.000000 0.000000 0.000001 0.067336 0.000001 0.000000
# 5 -0.000002 0.000000 0.000000 0.000001 0.270330 -0.000001
# 6 0.000000 0.000000 0.000000 0.000000 -0.000001 0.048873
#
#
# Mechanical properties :
#
#
# Convention : Reuss Voigt Hill
#
# Bulk Modulus (GPa) = 20.47361 40.64212 30.55787
# Shear Modulus (GPa) = 9.38385 18.10157 13.74271
#
# Velocity S-wave (km/s) = 2.07366 2.88008 2.50948
# Velocity P-wave (km/s) = 3.88784 5.44828 4.73281
#
# Compressibility (1/GPa) = 0.04884337
#
# Stress axis : x y z
#
# Youngs Moduli (GPa) = 16.52262 75.43735 63.90994
#
# Poissons Ratio (x) = 1.28817 -0.00204
# Poissons Ratio (y) = 0.28214 0.20753
# Poissons Ratio (z) = -0.00053 0.24497
#
# Static dielectric constant tensor:
#      x y z
#    x 1.856030 0.000000 0.000000 
#    y 0.000000 1.817190 0.000000 
#    z 0.000000 0.000000 1.871570 
# 
# From -- ./inp_files/2159.got.cif
#   From: 2010.05.17/outbox.cif.g08.bks.cpg/sg44_2_cif.got.tgz:2159.got - 2010.06.03 19:37:08.
