data_PCOD9374086
_publ_section_title
;
Structure prediction by ZEFSAII (Michael W. Deem and Ramdas Pophale) SiO2 
 PCOD9374086
Probable space group: I M M 2
;
_chemical_formula_sum "Si O2"
_cell_formula_units_Z 64
_cell_length_a 8.111302
_cell_length_b 29.862211
_cell_length_c 13.527999
_cell_angle_alpha 90.000000
_cell_angle_beta 90.000000
_cell_angle_gamma 90.000000
_cell_volume 3276.771017
_symmetry_space_group_name_H-M "I M M 2"
_symmetry_group_IT_number 44
_symmetry_cell_setting 'orthorhombic'
loop_
_space_group_symop_operation_xyz
x,y,z
-x,-y,z
-x,y,z
x,-y,z
1/2+x,1/2+y,1/2+z
1/2-x,1/2-y,1/2+z
1/2-x,1/2+y,1/2+z
1/2+x,1/2-y,1/2+z
loop_
_atom_site_type_symbol
_atom_site_label
_atom_site_fract_x
_atom_site_fract_y
_atom_site_fract_z
Si Si1 0.815358 0.288495 0.155600
Si Si2 0.299302 0.448037 0.452530
Si Si3 0.300560 0.383120 0.627988
Si Si4 0.798875 0.052169 0.731297
Si Si5 0.303084 0.380668 0.060240
Si Si6 0.692268 0.757365 0.342457
Si Si7 0.803642 0.359797 0.842843
Si Si8 0.686835 0.296512 0.515228
O O1 0.751868 0.332855 0.103366
O O2 0.701912 0.267988 0.239625
O O3 0.826102 0.248281 0.078379
O O4 0.000000 0.296582 0.194630
O O5 0.500000 0.446419 0.452589
O O6 0.251158 0.500000 0.461108
O O7 0.244496 0.420086 0.548126
O O8 0.247658 0.432065 0.342105
O O9 0.500000 0.383698 0.630352
O O10 0.247689 0.384688 0.742103
O O11 0.241069 0.335977 0.581131
O O12 0.741719 0.082080 0.638907
O O13 0.000000 0.053396 0.730973
O O14 0.751164 0.000000 0.720926
O O15 0.500000 0.382980 0.059920
O O16 0.247033 0.382584 0.946139
O O17 0.500000 0.762455 0.371701
O O18 0.762215 0.807934 0.340122
O O19 0.773324 0.722157 0.418010
O O20 0.000000 0.357091 0.841807
O O21 0.500000 0.312607 0.488834
#
# Coordination Sequence:
#
# PCOD9374086 Si02
#       8
#     8   8   8   8   8   8   8   8
#     4  11  21  35  51  75 110 145 179 222 269 316
#     4   8  15  30  55  85 111 134 168 222 280 325
#     4  10  19  33  56  81 106 140 183 224 270 328
#     4   8  16  33  57  85 112 136 172 227 280 323
#     4  11  22  35  57  84 109 143 186 225 273 334
#     4  10  20  35  51  71 102 143 185 224 266 312
#     4  11  22  37  54  74 110 150 185 229 273 315
#     4   9  18  32  50  72 102 139 180 222 262 308
#
# _framework density 19.531421999999999
#
# number of rings (size 3 to 8) (size 9 to 14) (size 15 to 20)
#    0.000    2.250    2.500    1.875    1.750    0.500 
#    0.000    1.250    0.000    5.625    0.000    3.500 
#    0.000    0.000    0.000    0.000    0.000    0.000 
#
# Total GULP energy -178256.340527 kJ/mol
# GULP energy per Si atom -5570.510641 kJ/mol
# Density = 1.948697 g / cm^3
# Si number density = 19.531422 Si / 1000 Ang^3
#
#
#
# Elastic Constant Matrix: (Units=GPa)
#
#
# Indices 1 2 3 4 5 6 
#
# 1 26.3267 6.4009 17.7821 0.0000 0.0000 0.0000
# 2 6.4009 95.9169 90.1778 0.0000 0.0000 0.0000
# 3 17.7821 90.1778 181.0745 0.0000 0.0001 0.0001
# 4 0.0000 0.0000 0.0000 29.5346 0.0000 0.0000
# 5 0.0000 0.0000 0.0001 0.0000 15.0165 0.0000
# 6 0.0000 0.0000 0.0001 0.0000 0.0000 15.7961
#
#
#
# Elastic Compliance Matrix: (Units=1/GPa)
#
#
# Indices 1 2 3 4 5 6 
#
# 1 0.040879 0.001967 -0.004994 0.000000 0.000000 0.000000
# 2 0.001967 0.019700 -0.010004 0.000000 0.000000 0.000000
# 3 -0.004994 -0.010004 0.010995 0.000000 0.000000 0.000000
# 4 0.000000 0.000000 0.000000 0.033859 0.000000 0.000000
# 5 0.000000 0.000000 0.000000 0.000000 0.066594 0.000000
# 6 0.000000 0.000000 0.000000 0.000000 0.000000 0.063307
#
#
# Mechanical properties :
#
#
# Convention : Reuss Voigt Hill
#
# Bulk Modulus (GPa) = 21.97196 59.11553 40.54374
# Shear Modulus (GPa) = 18.07888 24.66659 21.37273
#
# Velocity S-wave (km/s) = 3.04572 3.55761 3.31157
# Velocity P-wave (km/s) = 4.86236 6.87081 5.95191
#
# Compressibility (1/GPa) = 0.04551256
#
# Stress axis : x y z
#
# Youngs Moduli (GPa) = 24.46225 50.76179 90.94876
#
# Poissons Ratio (x) = -0.09987 0.45422
# Poissons Ratio (y) = -0.04813 0.90985
# Poissons Ratio (z) = 0.12217 0.50782
#
# Static dielectric constant tensor:
#      x y z
#    x 1.723090 0.000000 0.000000 
#    y 0.000000 1.678700 0.000000 
#    z 0.000000 0.000000 1.527820 
# 
# From -- ./inp_files/11460.got.cif
#   From: 2010.05.17/outbox.cif.g08.bks.cpg/sg44_6_cif.got.tgz:11460.got - 2010.06.03 19:37:08.
