data_PCOD9374613
_publ_section_title
;
Structure prediction by ZEFSAII (Michael W. Deem and Ramdas Pophale) SiO2 
 PCOD9374613
Probable space group: I M M 2
;
_chemical_formula_sum "Si O2"
_cell_formula_units_Z 64
_cell_length_a 7.797444
_cell_length_b 16.925957
_cell_length_c 22.643345
_cell_angle_alpha 90.000000
_cell_angle_beta 90.000000
_cell_angle_gamma 90.000000
_cell_volume 2988.450600
_symmetry_space_group_name_H-M "I M M 2"
_symmetry_group_IT_number 44
_symmetry_cell_setting 'orthorhombic'
loop_
_space_group_symop_operation_xyz
x,y,z
-x,-y,z
-x,y,z
x,-y,z
1/2+x,1/2+y,1/2+z
1/2-x,1/2-y,1/2+z
1/2-x,1/2+y,1/2+z
1/2+x,1/2-y,1/2+z
loop_
_atom_site_type_symbol
_atom_site_label
_atom_site_fract_x
_atom_site_fract_y
_atom_site_fract_z
Si Si1 0.198466 0.717190 0.423590
Si Si2 0.701809 0.416622 0.828824
Si Si3 0.198399 0.090196 0.014688
Si Si4 0.297567 0.412862 0.093115
Si Si5 0.292315 0.755308 0.793654
Si Si6 0.304951 0.883010 0.460537
Si Si7 0.801170 0.411873 0.648623
Si Si8 0.299539 0.736323 0.166598
O O1 0.217378 0.643274 0.465334
O O2 0.253200 0.704350 0.355950
O O3 0.299301 0.788741 0.453132
O O4 0.000000 0.743418 0.421068
O O5 0.500000 0.417019 0.815140
O O6 0.778173 0.500000 0.808399
O O7 0.770980 0.335526 0.802067
O O8 0.720741 0.412324 0.899757
O O9 0.291006 0.093449 0.077570
O O10 0.000000 0.114144 0.023816
O O11 0.200349 0.000000 0.994931
O O12 0.500000 0.413919 0.107364
O O13 0.226864 0.500000 0.110164
O O14 0.226873 0.333153 0.124540
O O15 0.279038 0.405218 0.022420
O O16 0.500000 0.755927 0.788301
O O17 0.216346 0.790558 0.734325
O O18 0.500000 0.910382 0.461573
O O19 0.726557 0.500000 0.663926
O O20 0.723883 0.326205 0.666582
O O21 0.000000 0.413407 0.667832
O O22 0.500000 0.746194 0.149795
#
# Coordination Sequence:
#
# PCOD9374613 Si02
#       8
#     8   8   8   8   8   8   8   8
#     4  10  20  36  56  76 103 142 181 212 256 322
#     4   9  18  34  54  76 106 142 174 205 251 318
#     4  10  20  33  52  82 113 136 167 217 271 316
#     4  10  21  37  55  75 103 142 184 221 263 322
#     4   9  20  36  53  74  99 132 176 220 261 310
#     4  11  21  32  52  83 112 135 167 216 270 317
#     4   9  18  33  53  78 109 144 178 211 256 322
#     4  10  21  36  54  75 101 137 180 224 268 313
#
# _framework density 21.415780999999999
#
# number of rings (size 3 to 8) (size 9 to 14) (size 15 to 20)
#    0.000    2.250    0.000    3.750    0.000    7.750 
#    0.000    0.625    0.000    2.250    0.000    0.000 
#    0.000    0.000    0.000    0.000    0.000    0.000 
#
# Total GULP energy -178486.987589 kJ/mol
# GULP energy per Si atom -5577.718362 kJ/mol
# Density = 2.136704 g / cm^3
# Si number density = 21.415781 Si / 1000 Ang^3
#
#
#
# Elastic Constant Matrix: (Units=GPa)
#
#
# Indices 1 2 3 4 5 6 
#
# 1 40.7364 5.8744 -11.0697 0.0000 0.0000 0.0000
# 2 5.8744 86.3294 50.7847 0.0000 0.0000 0.0000
# 3 -11.0697 50.7847 92.5999 0.0000 0.0000 0.0000
# 4 0.0000 0.0000 0.0000 30.5724 0.0000 0.0000
# 5 0.0000 0.0000 0.0000 0.0000 17.6910 0.0000
# 6 0.0000 0.0000 0.0000 0.0000 0.0000 -3.9943
#
#
#
# Elastic Compliance Matrix: (Units=1/GPa)
#
#
# Indices 1 2 3 4 5 6 
#
# 1 0.027047 -0.005525 0.006263 0.000000 0.000000 0.000000
# 2 -0.005525 0.018229 -0.010658 0.000000 0.000000 0.000000
# 3 0.006263 -0.010658 0.017393 0.000000 0.000000 0.000000
# 4 0.000000 0.000000 0.000000 0.032709 0.000000 0.000000
# 5 0.000000 0.000000 0.000000 0.000000 0.056526 0.000000
# 6 0.000000 0.000000 0.000000 0.000000 0.000000 -0.250355
#
#
# Mechanical properties :
#
#
# Convention : Reuss Voigt Hill
#
# Bulk Modulus (GPa) = 23.34818 34.53829 28.94324
# Shear Modulus (GPa) = -77.71785 20.45888 -28.62949
#
# Velocity S-wave (km/s) = -6.03065 3.09418 -3.66025
# Velocity P-wave (km/s) = 6.12909 5.37845 2.07822
#
# Compressibility (1/GPa) = 0.04282989
#
# Stress axis : x y z
#
# Youngs Moduli (GPa) = 36.97298 54.85705 57.49428
#
# Poissons Ratio (x) = 0.30308 -0.36010
# Poissons Ratio (y) = 0.20427 0.61277
# Poissons Ratio (z) = -0.23157 0.58466
#
# Static dielectric constant tensor:
#      x y z
#    x 1.799450 0.000000 0.000000 
#    y 0.000000 1.829230 0.000000 
#    z 0.000000 0.000000 1.743510 
# 
# From -- ./inp_files/23308.got.cif
#   From: 2010.05.17/outbox.cif.g08.bks.cpg/sg44_12_cif.got.tgz:23308.got - 2010.06.03 19:37:08.
