data_PCOD9374355
_publ_section_title
;
Structure prediction by ZEFSAII (Michael W. Deem and Ramdas Pophale) SiO2 
 PCOD9374355
Probable space group: I M M 2
;
_chemical_formula_sum "Si O2"
_cell_formula_units_Z 56
_cell_length_a 19.418433
_cell_length_b 7.665523
_cell_length_c 17.177807
_cell_angle_alpha 90.000000
_cell_angle_beta 90.000000
_cell_angle_gamma 90.000000
_cell_volume 2556.958568
_symmetry_space_group_name_H-M "I M M 2"
_symmetry_group_IT_number 44
_symmetry_cell_setting 'orthorhombic'
loop_
_space_group_symop_operation_xyz
x,y,z
-x,-y,z
-x,y,z
x,-y,z
1/2+x,1/2+y,1/2+z
1/2-x,1/2-y,1/2+z
1/2-x,1/2+y,1/2+z
1/2+x,1/2-y,1/2+z
loop_
_atom_site_type_symbol
_atom_site_label
_atom_site_fract_x
_atom_site_fract_y
_atom_site_fract_z
Si Si1 0.297375 0.214384 0.177580
Si Si2 0.578183 0.289607 0.895482
Si Si3 0.579183 0.792450 0.577553
Si Si4 0.077129 0.295878 0.777591
Si Si5 0.296685 0.208445 0.000145
Si Si6 0.652846 0.709955 0.739638
Si Si7 0.161510 0.800126 0.926180
O O1 0.368318 0.277135 0.215657
O O2 0.231311 0.270423 0.227853
O O3 0.297684 0.000000 0.177682
O O4 0.288891 0.272452 0.088414
O O5 0.500000 0.225675 0.903112
O O6 0.575432 0.500000 0.890877
O O7 0.628355 0.243287 0.966061
O O8 0.614279 0.223786 0.816267
O O9 0.500000 0.733258 0.575047
O O10 0.611393 0.755368 0.661603
O O11 0.623422 0.707004 0.509270
O O12 0.580672 0.000000 0.564051
O O13 0.070460 0.500000 0.758573
O O14 0.113952 0.286112 0.861375
O O15 0.000000 0.220221 0.778881
O O16 0.237073 0.278606 0.942731
O O17 0.285856 0.000000 0.002954
O O18 0.654840 0.500000 0.745090
O O19 0.169141 0.000000 0.900765
#
# Coordination Sequence:
#
# PCOD9374355 Si02
#       7
#     8   8   8   8   8   8   8
#     4   9  18  36  60  85 112 146 193 240 283 336
#     4  10  22  38  58  87 119 153 193 235 286 344
#     4  11  23  36  54  84 119 151 187 233 285 343
#     4  10  21  37  59  86 115 150 193 239 286 339
#     4  10  21  38  60  86 114 148 195 241 284 339
#     4  10  19  37  61  82 111 150 192 237 284 339
#     4  11  22  38  59  84 116 151 191 236 284 343
#
# _framework density 21.901019999999999
#
# number of rings (size 3 to 8) (size 9 to 14) (size 15 to 20)
#    0.000    1.857    1.429    2.571    0.000    7.429 
#    0.000    2.857    0.000    0.000    0.000    0.000 
#    0.000    0.000    0.000    0.000    0.000    0.000 
#
# Total GULP energy -156509.535974 kJ/mol
# GULP energy per Si atom -5589.626285 kJ/mol
# Density = 2.185117 g / cm^3
# Si number density = 21.901020 Si / 1000 Ang^3
#
#
#
# Elastic Constant Matrix: (Units=GPa)
#
#
# Indices 1 2 3 4 5 6 
#
# 1 193.7587 7.2632 40.1269 0.0000 0.0000 0.0000
# 2 7.2632 43.0452 -4.8622 0.0000 0.0000 0.0000
# 3 40.1269 -4.8622 39.8851 0.0000 0.0000 0.0000
# 4 0.0000 0.0000 0.0000 13.5369 0.0000 0.0000
# 5 0.0000 0.0000 0.0000 0.0000 18.7575 0.0000
# 6 0.0000 0.0000 0.0000 0.0000 0.0000 18.1734
#
#
#
# Elastic Compliance Matrix: (Units=1/GPa)
#
#
# Indices 1 2 3 4 5 6 
#
# 1 0.006671 -0.001910 -0.006944 0.000000 0.000000 0.000000
# 2 -0.001910 0.024103 0.004860 0.000000 0.000000 0.000000
# 3 -0.006944 0.004860 0.032651 0.000000 0.000000 0.000000
# 4 0.000000 0.000000 0.000000 0.073872 0.000000 0.000000
# 5 0.000000 0.000000 0.000000 0.000000 0.053312 0.000000
# 6 0.000000 0.000000 0.000000 0.000000 0.000000 0.055025
#
#
# Mechanical properties :
#
#
# Convention : Reuss Voigt Hill
#
# Bulk Modulus (GPa) = 18.03899 40.19388 29.11643
# Shear Modulus (GPa) = 18.37558 25.70431 22.03994
#
# Velocity S-wave (km/s) = 2.89974 3.42959 3.17573
# Velocity P-wave (km/s) = 4.41201 5.83739 5.17402
#
# Compressibility (1/GPa) = 0.05543549
#
# Stress axis : x y z
#
# Youngs Moduli (GPa) = 149.90841 41.48930 30.62735
#
# Poissons Ratio (x) = 0.07924 0.21268
# Poissons Ratio (y) = 0.28632 -0.14884
# Poissons Ratio (z) = 1.04097 -0.20163
#
# Static dielectric constant tensor:
#      x y z
#    x 1.807080 0.000000 0.000000 
#    y 0.000000 1.837760 0.000000 
#    z 0.000000 0.000000 1.754490 
# 
# From -- ./inp_files/16473.got.cif
#   From: 2010.05.17/outbox.cif.g08.bks.cpg/sg44_9_cif.got.tgz:16473.got - 2010.06.03 19:37:08.
