data_PCOD9374877
_publ_section_title
;
Structure prediction by ZEFSAII (Michael W. Deem and Ramdas Pophale) SiO2 
 PCOD9374877
Probable space group: I M M 2
;
_chemical_formula_sum "Si O2"
_cell_formula_units_Z 58
_cell_length_a 7.568430
_cell_length_b 18.641193
_cell_length_c 17.759470
_cell_angle_alpha 90.000000
_cell_angle_beta 90.000000
_cell_angle_gamma 90.000000
_cell_volume 2505.587088
_symmetry_space_group_name_H-M "I M M 2"
_symmetry_group_IT_number 44
_symmetry_cell_setting 'orthorhombic'
loop_
_space_group_symop_operation_xyz
x,y,z
-x,-y,z
-x,y,z
x,-y,z
1/2+x,1/2+y,1/2+z
1/2-x,1/2-y,1/2+z
1/2-x,1/2+y,1/2+z
1/2+x,1/2-y,1/2+z
loop_
_atom_site_type_symbol
_atom_site_label
_atom_site_fract_x
_atom_site_fract_y
_atom_site_fract_z
Si Si1 0.695387 0.886901 0.541000
Si Si2 0.285903 0.081837 0.297394
Si Si3 0.210598 0.296749 0.911314
Si Si4 0.706408 0.681151 0.657251
Si Si5 0.216503 0.858849 0.866906
Si Si6 0.205264 0.157931 0.700107
Si Si7 0.783981 0.080080 0.024951
Si Si8 0.000000 0.000000 0.509692
O O1 0.500000 0.909957 0.515554
O O2 0.732416 0.811604 0.499360
O O3 0.698730 0.876704 0.629669
O O4 0.845855 0.939094 0.515286
O O5 0.500000 0.080012 0.297840
O O6 0.225112 0.135175 0.363689
O O7 0.226879 0.119777 0.220604
O O8 0.222726 0.000000 0.305821
O O9 0.281543 0.221212 0.885595
O O10 0.000000 0.292644 0.896965
O O11 0.500000 0.697443 0.645318
O O12 0.785062 0.755415 0.689672
O O13 0.776343 0.643461 0.580947
O O14 0.271230 0.870197 0.780715
O O15 0.268681 0.906889 0.938067
O O16 0.000000 0.860141 0.865817
O O17 0.000000 0.137611 0.693575
O O18 0.000000 0.081845 0.027311
O O19 0.729517 0.000000 0.049506
#
# Coordination Sequence:
#
# PCOD9374877 Si02
#       8
#     8   8   8   8   8   8   8   2
#     4  11  24  44  69  94 132 175 219 274 329 390
#     4  10  20  35  56  84 120 164 211 260 323 395
#     4   9  18  36  61  87 119 167 217 260 325 398
#     4  11  21  35  58  87 123 165 209 263 327 389
#     4   9  17  33  59  88 122 164 215 268 321 391
#     4  11  21  39  62  93 125 159 217 275 323 385
#     4   9  18  33  54  85 121 160 208 260 323 394
#     4  12  26  48  64 102 132 172 226 272 328 402
#
# _framework density 23.148268000000002
#
# number of rings (size 3 to 8) (size 9 to 14) (size 15 to 20)
#    0.000    1.931    2.069    2.276    0.966    3.034 
#    2.483    0.000    0.000    2.483    0.000    0.000 
#    0.000    0.000    0.000    0.000    0.000    0.000 
#
# Total GULP energy -161760.473417 kJ/mol
# GULP energy per Si atom -5577.947359 kJ/mol
# Density = 2.309558 g / cm^3
# Si number density = 23.148268 Si / 1000 Ang^3
#
#
#
# Elastic Constant Matrix: (Units=GPa)
#
#
# Indices 1 2 3 4 5 6 
#
# 1 84.0612 4.1460 1.5412 0.0000 0.0000 0.0000
# 2 4.1460 37.3251 -13.0977 0.0000 0.0000 0.0000
# 3 1.5412 -13.0977 114.1799 0.0000 0.0000 0.0000
# 4 0.0000 0.0000 0.0000 3.0762 0.0000 0.0000
# 5 0.0000 0.0000 0.0000 0.0000 19.0374 0.0000
# 6 0.0000 0.0000 0.0000 0.0000 0.0000 19.1094
#
#
#
# Elastic Compliance Matrix: (Units=1/GPa)
#
#
# Indices 1 2 3 4 5 6 
#
# 1 0.011973 -0.001445 -0.000327 0.000000 0.000000 0.000000
# 2 -0.001445 0.028090 0.003242 0.000000 0.000000 0.000000
# 3 -0.000327 0.003242 0.009134 0.000000 0.000000 0.000000
# 4 0.000000 0.000000 0.000000 0.325079 0.000000 0.000000
# 5 0.000000 0.000000 0.000000 0.000000 0.052528 0.000000
# 6 0.000000 0.000000 0.000000 0.000000 0.000000 0.052330
#
#
# Mechanical properties :
#
#
# Convention : Reuss Voigt Hill
#
# Bulk Modulus (GPa) = 19.18043 24.52723 21.85383
# Shear Modulus (GPa) = 10.13019 24.44304 17.28662
#
# Velocity S-wave (km/s) = 2.09421 3.25304 2.73569
# Velocity P-wave (km/s) = 3.76185 4.97277 4.40908
#
# Compressibility (1/GPa) = 0.05213646
#
# Stress axis : x y z
#
# Youngs Moduli (GPa) = 83.51876 35.60025 109.47638
#
# Poissons Ratio (x) = 0.05144 0.03584
# Poissons Ratio (y) = 0.12067 -0.35489
# Poissons Ratio (z) = 0.02734 -0.11541
#
# Static dielectric constant tensor:
#      x y z
#    x 1.827880 0.000000 0.000000 
#    y 0.000000 1.847010 0.000000 
#    z 0.000000 0.000000 1.879460 
# 
# From -- ./inp_files/20553.got.cif
#   From: 2010.05.17/outbox.cif.g08.bks.cpg/sg44_11_cif.got.tgz:20553.got - 2010.06.03 19:37:08.
