data_PCOD9374181
_publ_section_title
;
Structure prediction by ZEFSAII (Michael W. Deem and Ramdas Pophale) SiO2 
 PCOD9374181
Probable space group: I M M 2
;
_chemical_formula_sum "Si O2"
_cell_formula_units_Z 52
_cell_length_a 20.261892
_cell_length_b 8.078102
_cell_length_c 16.285796
_cell_angle_alpha 90.000000
_cell_angle_beta 90.000000
_cell_angle_gamma 90.000000
_cell_volume 2665.620497
_symmetry_space_group_name_H-M "I M M 2"
_symmetry_group_IT_number 44
_symmetry_cell_setting 'orthorhombic'
loop_
_space_group_symop_operation_xyz
x,y,z
-x,-y,z
-x,y,z
x,-y,z
1/2+x,1/2+y,1/2+z
1/2-x,1/2-y,1/2+z
1/2-x,1/2+y,1/2+z
1/2+x,1/2-y,1/2+z
loop_
_atom_site_type_symbol
_atom_site_label
_atom_site_fract_x
_atom_site_fract_y
_atom_site_fract_z
Si Si1 0.918826 0.500000 0.035510
Si Si2 0.429957 0.000000 0.231659
Si Si3 0.731840 0.688218 0.295949
Si Si4 0.827391 0.500000 0.876487
Si Si5 0.422904 0.200428 0.988090
Si Si6 0.076635 0.824144 0.132462
Si Si7 0.888713 0.691850 0.302375
Si Si8 0.628016 0.311586 0.151215
O O1 0.898327 0.338203 0.087075
O O2 0.000000 0.500000 0.023782
O O3 0.875198 0.500000 0.954039
O O4 0.420928 0.166381 0.179867
O O5 0.500000 0.000000 0.273659
O O6 0.374682 0.000000 0.298503
O O7 0.714689 0.500000 0.323017
O O8 0.810303 0.696501 0.287042
O O9 0.693441 0.712445 0.208315
O O10 0.712527 0.829875 0.361418
O O11 0.500000 0.243184 0.004956
O O12 0.406067 0.246431 0.894339
O O13 0.416697 0.000000 0.993978
O O14 0.372938 0.282828 0.053287
O O15 0.080093 0.796231 0.229668
O O16 0.000000 0.832375 0.109027
O O17 0.108763 0.000000 0.110798
O O18 0.910999 0.500000 0.294617
O O19 0.606015 0.500000 0.166981
#
# Coordination Sequence:
#
# PCOD9374181 Si02
#       8
#     4   4   8   4   8   8   8   8
#     4  10  21  40  61  88 117 146 195 248 293 349
#     4  10  19  34  57  84 111 146 193 236 283 343
#     4   9  21  40  58  82 117 152 197 241 279 342
#     4  10  21  38  62  82 113 156 190 236 296 338
#     4  10  20  34  56  86 117 148 187 237 288 339
#     4  10  21  37  59  87 117 149 189 241 297 353
#     4  10  20  38  60  84 115 156 195 238 288 343
#     4  10  20  36  56  80 114 155 188 234 285 338
#
# _framework density 19.507653000000001
#
# number of rings (size 3 to 8) (size 9 to 14) (size 15 to 20)
#    0.000    2.154    1.538    1.154    1.077    3.077 
#    2.769    0.000    0.000    2.769    0.000    0.000 
#    0.000    0.000    0.000    0.000    0.000    0.000 
#
# Total GULP energy -144832.990415 kJ/mol
# GULP energy per Si atom -5570.499631 kJ/mol
# Density = 1.946325 g / cm^3
# Si number density = 19.507653 Si / 1000 Ang^3
#
#
#
# Elastic Constant Matrix: (Units=GPa)
#
#
# Indices 1 2 3 4 5 6 
#
# 1 43.5997 21.5202 8.9900 0.0000 0.0000 0.0000
# 2 21.5202 133.5323 50.7650 0.0000 0.0000 0.0000
# 3 8.9900 50.7650 96.1486 0.0000 0.0000 0.0000
# 4 0.0000 0.0000 0.0000 6.3399 0.0000 0.0000
# 5 0.0000 0.0000 0.0000 0.0000 47.9914 0.0000
# 6 0.0000 0.0000 0.0000 0.0000 0.0000 -2.1047
#
#
#
# Elastic Compliance Matrix: (Units=1/GPa)
#
#
# Indices 1 2 3 4 5 6 
#
# 1 0.024923 -0.003917 -0.000262 0.000000 0.000000 0.000000
# 2 -0.003917 0.009985 -0.004906 0.000000 0.000000 0.000000
# 3 -0.000262 -0.004906 0.013015 0.000000 0.000000 0.000000
# 4 0.000000 0.000000 0.000000 0.157731 0.000000 0.000000
# 5 0.000000 0.000000 0.000000 0.000000 0.020837 0.000000
# 6 0.000000 0.000000 0.000000 0.000000 0.000000 -0.475129
#
#
# Mechanical properties :
#
#
# Convention : Reuss Voigt Hill
#
# Bulk Modulus (GPa) = 33.60920 48.42567 41.01743
# Shear Modulus (GPa) = -22.67068 23.24568 0.28750
#
# Velocity S-wave (km/s) = -3.41272 3.45573 0.38432
# Velocity P-wave (km/s) = 1.31805 6.38753 4.61182
#
# Compressibility (1/GPa) = 0.02975376
#
# Stress axis : x y z
#
# Youngs Moduli (GPa) = 40.12302 100.14924 76.83302
#
# Poissons Ratio (x) = 0.39228 0.02015
# Poissons Ratio (y) = 0.15716 0.37692
# Poissons Ratio (z) = 0.01052 0.49131
#
# Static dielectric constant tensor:
#      x y z
#    x 1.766370 0.000000 0.000000 
#    y 0.000000 1.765790 0.000000 
#    z 0.000000 0.000000 1.676990 
# 
# From -- ./inp_files/19148.got.cif
#   From: 2010.05.17/outbox.cif.g08.bks.cpg/sg44_10_cif.got.tgz:19148.got - 2010.06.03 19:37:08.
