data_PCOD9374315
_publ_section_title
;
Structure prediction by ZEFSAII (Michael W. Deem and Ramdas Pophale) SiO2 
 PCOD9374315
Probable space group: I M M 2
;
_chemical_formula_sum "Si O2"
_cell_formula_units_Z 56
_cell_length_a 8.885891
_cell_length_b 17.242068
_cell_length_c 19.997540
_cell_angle_alpha 90.000000
_cell_angle_beta 90.000000
_cell_angle_gamma 90.000000
_cell_volume 3063.845838
_symmetry_space_group_name_H-M "I M M 2"
_symmetry_group_IT_number 44
_symmetry_cell_setting 'orthorhombic'
loop_
_space_group_symop_operation_xyz
x,y,z
-x,-y,z
-x,y,z
x,-y,z
1/2+x,1/2+y,1/2+z
1/2-x,1/2-y,1/2+z
1/2-x,1/2+y,1/2+z
1/2+x,1/2-y,1/2+z
loop_
_atom_site_type_symbol
_atom_site_label
_atom_site_fract_x
_atom_site_fract_y
_atom_site_fract_z
Si Si1 0.681138 0.500000 0.431800
Si Si2 0.676027 0.166860 0.125319
Si Si3 0.179122 0.584126 0.977285
Si Si4 0.675241 0.738680 0.992154
Si Si5 0.819050 0.084982 0.329644
Si Si6 0.315991 0.000000 0.082635
Si Si7 0.182861 0.344743 0.368449
Si Si8 0.680896 0.262445 0.749433
O O1 0.500000 0.500000 0.435302
O O2 0.749324 0.500000 0.507313
O O3 0.740695 0.576092 0.392530
O O4 0.500000 0.165736 0.143414
O O5 0.689387 0.198283 0.050074
O O6 0.730846 0.077979 0.121760
O O7 0.757393 0.225381 0.175425
O O8 0.225249 0.500000 0.005869
O O9 0.246280 0.588324 0.902623
O O10 0.000000 0.586022 0.973965
O O11 0.237961 0.661258 0.011794
O O12 0.500000 0.718012 0.984385
O O13 0.723613 0.778283 0.922771
O O14 0.770009 0.158269 0.286728
O O15 0.000000 0.089544 0.336994
O O16 0.782307 0.000000 0.300381
O O17 0.500000 0.000000 0.076724
O O18 0.225728 0.310541 0.295711
O O19 0.000000 0.353826 0.371049
O O20 0.500000 0.261618 0.747523
#
# Coordination Sequence:
#
# PCOD9374315 Si02
#       8
#     4   8   8   8   8   4   8   8
#     4  12  24  36  60  96 120 143 190 259 308 335
#     4  10  22  37  57  82 114 154 192 234 286 348
#     4  10  20  32  50  80 112 139 174 228 282 323
#     4  10  19  36  60  81 106 147 193 232 277 343
#     4   9  17  31  50  74 107 145 181 212 250 313
#     4  10  20  40  60  82 122 169 200 227 286 369
#     4  10  20  39  62  83 113 154 196 234 288 360
#     4  10  21  36  56  82 112 151 190 230 281 338
#
# _framework density 18.277681000000001
#
# number of rings (size 3 to 8) (size 9 to 14) (size 15 to 20)
#    0.000    2.000    2.857    1.071    1.000    3.714 
#    0.000    0.000    1.571    0.000    0.000    0.000 
#    0.000    0.000    0.000    0.000    0.000    0.000 
#
# Total GULP energy -156131.126838 kJ/mol
# GULP energy per Si atom -5576.111673 kJ/mol
# Density = 1.823608 g / cm^3
# Si number density = 18.277681 Si / 1000 Ang^3
#
#
#
# Elastic Constant Matrix: (Units=GPa)
#
#
# Indices 1 2 3 4 5 6 
#
# 1 19.2282 24.7575 12.7908 0.0000 0.0000 0.0000
# 2 24.7575 95.8081 13.7693 0.0000 0.0000 0.0000
# 3 12.7908 13.7693 60.1144 0.0000 0.0000 0.0000
# 4 0.0000 0.0000 0.0000 18.9900 0.0000 0.0000
# 5 0.0000 0.0000 0.0000 0.0000 11.3485 0.0000
# 6 0.0000 0.0000 0.0000 0.0000 0.0000 20.2083
#
#
#
# Elastic Compliance Matrix: (Units=1/GPa)
#
#
# Indices 1 2 3 4 5 6 
#
# 1 0.087994 -0.020730 -0.013975 0.000000 0.000000 0.000000
# 2 -0.020730 0.015676 0.000820 0.000000 0.000000 0.000000
# 3 -0.013975 0.000820 0.019421 0.000000 0.000000 0.000000
# 4 0.000000 0.000000 0.000000 0.052659 0.000000 0.000000
# 5 0.000000 0.000000 0.000000 0.000000 0.088117 0.000000
# 6 0.000000 0.000000 0.000000 0.000000 0.000000 0.049485
#
#
# Mechanical properties :
#
#
# Convention : Reuss Voigt Hill
#
# Bulk Modulus (GPa) = 18.07594 30.86511 24.47053
# Shear Modulus (GPa) = 12.51370 18.36491 15.43931
#
# Velocity S-wave (km/s) = 2.61941 3.17325 2.90954
# Velocity P-wave (km/s) = 4.36572 5.50904 4.97036
#
# Compressibility (1/GPa) = 0.05532215
#
# Stress axis : x y z
#
# Youngs Moduli (GPa) = 11.36438 63.78994 51.49187
#
# Poissons Ratio (x) = 1.32236 0.71958
# Poissons Ratio (y) = 0.23558 -0.04223
# Poissons Ratio (z) = 0.15881 -0.05231
#
# Static dielectric constant tensor:
#      x y z
#    x 1.624620 0.000000 0.000000 
#    y 0.000000 1.663370 0.000000 
#    z 0.000000 0.000000 1.619030 
# 
# From -- ./inp_files/23110.got.cif
#   From: 2010.05.17/outbox.cif.g08.bks.cpg/sg44_12_cif.got.tgz:23110.got - 2010.06.03 19:37:08.
