data_PCOD9374100
_publ_section_title
;
Structure prediction by ZEFSAII (Michael W. Deem and Ramdas Pophale) SiO2 
 PCOD9374100
Probable space group: I M M 2
;
_chemical_formula_sum "Si O2"
_cell_formula_units_Z 58
_cell_length_a 23.554761
_cell_length_b 7.301296
_cell_length_c 15.074411
_cell_angle_alpha 90.000000
_cell_angle_beta 90.000000
_cell_angle_gamma 90.000000
_cell_volume 2592.501459
_symmetry_space_group_name_H-M "I M M 2"
_symmetry_group_IT_number 44
_symmetry_cell_setting 'orthorhombic'
loop_
_space_group_symop_operation_xyz
x,y,z
-x,-y,z
-x,y,z
x,-y,z
1/2+x,1/2+y,1/2+z
1/2-x,1/2-y,1/2+z
1/2-x,1/2+y,1/2+z
1/2+x,1/2-y,1/2+z
loop_
_atom_site_type_symbol
_atom_site_label
_atom_site_fract_x
_atom_site_fract_y
_atom_site_fract_z
Si Si1 0.436722 0.292231 0.496890
Si Si2 0.100707 0.723595 0.572845
Si Si3 0.876595 0.278117 0.372177
Si Si4 0.932655 0.707672 0.194887
Si Si5 0.000000 0.000000 0.622495
Si Si6 0.181935 0.775285 0.939724
Si Si7 0.259871 0.780039 0.787559
Si Si8 0.730806 0.209501 0.090376
O O1 0.500000 0.209894 0.489073
O O2 0.441183 0.500000 0.463746
O O3 0.421428 0.299747 0.601344
O O4 0.381800 0.207005 0.452862
O O5 0.094203 0.500000 0.583007
O O6 0.099451 0.773122 0.467424
O O7 0.165848 0.778066 0.599027
O O8 0.050817 0.838922 0.618167
O O9 0.878915 0.500000 0.372572
O O10 0.909846 0.212235 0.285696
O O11 0.812373 0.224015 0.349848
O O12 0.910018 0.500000 0.186658
O O13 0.000000 0.700176 0.203563
O O14 0.205018 0.725629 0.843267
O O15 0.180441 0.000000 0.945352
O O16 0.225851 0.713401 0.016764
O O17 0.259782 0.713734 0.686918
O O18 0.261796 0.000000 0.781841
O O19 0.722021 0.000000 0.061038
#
# Coordination Sequence:
#
# PCOD9374100 Si02
#       8
#     8   8   8   8   2   8   8   8
#     4   9  17  30  48  72 105 144 187 237 293 354
#     4  10  22  42  63  85 126 167 210 264 323 383
#     4   9  17  33  53  77 110 156 195 238 309 379
#     4   9  17  28  45  70 101 137 180 224 280 357
#     4  12  26  40  64  98 116 168 222 264 320 386
#     4   9  17  33  55  79 110 153 197 236 302 380
#     4  10  19  33  57  83 111 149 199 254 307 370
#     4  10  20  37  60  84 116 160 200 255 324 376
#
# _framework density 22.372214
#
# number of rings (size 3 to 8) (size 9 to 14) (size 15 to 20)
#    0.000    2.483    1.379    1.034    1.931    0.000 
#    2.483    1.379    1.517    0.000    0.000    0.000 
#    0.000    0.000    0.000    0.000    0.000    0.000 
#
# Total GULP energy -161478.237839 kJ/mol
# GULP energy per Si atom -5568.215098 kJ/mol
# Density = 2.232129 g / cm^3
# Si number density = 22.372214 Si / 1000 Ang^3
#
#
#
# Elastic Constant Matrix: (Units=GPa)
#
#
# Indices 1 2 3 4 5 6 
#
# 1 56.2517 12.9200 -5.4947 0.0000 0.0000 0.0000
# 2 12.9200 107.8499 -9.7976 0.0000 0.0000 0.0000
# 3 -5.4947 -9.7976 40.4162 0.0000 0.0000 0.0000
# 4 0.0000 0.0000 0.0000 11.2506 0.0000 0.0000
# 5 0.0000 0.0000 0.0000 0.0000 38.1157 0.0000
# 6 0.0000 0.0000 0.0000 0.0000 0.0000 11.1030
#
#
#
# Elastic Compliance Matrix: (Units=1/GPa)
#
#
# Indices 1 2 3 4 5 6 
#
# 1 0.018439 -0.002026 0.002016 0.000000 0.000000 0.000000
# 2 -0.002026 0.009704 0.002077 0.000000 0.000000 0.000000
# 3 0.002016 0.002077 0.025520 0.000000 0.000000 0.000000
# 4 0.000000 0.000000 0.000000 0.088884 0.000000 0.000000
# 5 0.000000 0.000000 0.000000 0.000000 0.026236 0.000000
# 6 0.000000 0.000000 0.000000 0.000000 0.000000 0.090066
#
#
# Mechanical properties :
#
#
# Convention : Reuss Voigt Hill
#
# Bulk Modulus (GPa) = 17.30206 22.19704 19.74955
# Shear Modulus (GPa) = 18.24945 25.88652 22.06799
#
# Velocity S-wave (km/s) = 2.85918 3.40528 3.14411
# Velocity P-wave (km/s) = 4.31861 5.04029 4.69334
#
# Compressibility (1/GPa) = 0.05779658
#
# Stress axis : x y z
#
# Youngs Moduli (GPa) = 54.23157 103.05549 39.18489
#
# Poissons Ratio (x) = 0.20878 -0.07899
# Poissons Ratio (y) = 0.10987 -0.08138
# Poissons Ratio (z) = -0.10932 -0.21403
#
# Static dielectric constant tensor:
#      x y z
#    x 1.864630 0.000000 0.000000 
#    y 0.000000 1.882160 0.000000 
#    z 0.000000 0.000000 1.791820 
# 
# From -- ./inp_files/19436.got.cif
#   From: 2010.05.17/outbox.cif.g08.bks.cpg/sg44_10_cif.got.tgz:19436.got - 2010.06.03 19:37:08.
