data_PCOD9374881
_publ_section_title
;
Structure prediction by ZEFSAII (Michael W. Deem and Ramdas Pophale) SiO2 
 PCOD9374881
Probable space group: I M M 2
;
_chemical_formula_sum "Si O2"
_cell_formula_units_Z 56
_cell_length_a 20.903093
_cell_length_b 10.850358
_cell_length_c 13.132824
_cell_angle_alpha 90.000000
_cell_angle_beta 90.000000
_cell_angle_gamma 90.000000
_cell_volume 2978.603836
_symmetry_space_group_name_H-M "I M M 2"
_symmetry_group_IT_number 44
_symmetry_cell_setting 'orthorhombic'
loop_
_space_group_symop_operation_xyz
x,y,z
-x,-y,z
-x,y,z
x,-y,z
1/2+x,1/2+y,1/2+z
1/2-x,1/2-y,1/2+z
1/2-x,1/2+y,1/2+z
1/2+x,1/2-y,1/2+z
loop_
_atom_site_type_symbol
_atom_site_label
_atom_site_fract_x
_atom_site_fract_y
_atom_site_fract_z
Si Si1 0.807843 0.870362 0.860710
Si Si2 0.829588 0.856946 0.518414
Si Si3 0.072421 0.259171 0.812770
Si Si4 0.071161 0.355813 0.039208
Si Si5 0.230313 0.866866 0.302423
Si Si6 0.923532 0.640928 0.592893
Si Si7 0.699837 0.277581 0.585147
O O1 0.879989 0.854645 0.823314
O O2 0.775046 0.749608 0.817583
O O3 0.779489 0.000000 0.827098
O O4 0.803452 0.858432 0.982520
O O5 0.819469 0.857851 0.395839
O O6 0.881897 0.752453 0.545665
O O7 0.761807 0.811096 0.567433
O O8 0.843215 0.000000 0.548829
O O9 0.078466 0.334332 0.917808
O O10 0.085793 0.341745 0.714216
O O11 0.000000 0.215804 0.803462
O O12 0.071845 0.500000 0.060678
O O13 0.000000 0.306926 0.067147
O O14 0.132834 0.294698 0.089202
O O15 0.205665 0.854356 0.188116
O O16 0.262940 0.000000 0.315590
O O17 0.904526 0.500000 0.563814
O O18 0.000000 0.653816 0.572033
#
# Coordination Sequence:
#
# PCOD9374881 Si02
#       7
#     8   8   8   8   8   8   8
#     4  10  21  34  52  81 111 137 174 225 272 313
#     4  10  22  38  56  81 110 141 180 225 270 318
#     4   9  18  31  50  77 110 146 178 210 259 326
#     4   9  17  31  52  80 114 148 181 220 267 318
#     4  10  22  39  57  76 104 143 182 218 265 326
#     4  10  21  37  57  81 109 143 182 223 269 322
#     4  10  20  35  57  80 108 142 183 223 266 318
#
# _framework density 18.800754000000001
#
# number of rings (size 3 to 8) (size 9 to 14) (size 15 to 20)
#    0.000    2.286    0.000    2.143    0.000   13.143 
#    0.000    2.143    0.000    3.857    0.000    0.000 
#    0.000    0.000    0.000    0.000    0.000    0.000 
#
# Total GULP energy -156025.260313 kJ/mol
# GULP energy per Si atom -5572.330725 kJ/mol
# Density = 1.875796 g / cm^3
# Si number density = 18.800754 Si / 1000 Ang^3
#
#
#
# Elastic Constant Matrix: (Units=GPa)
#
#
# Indices 1 2 3 4 5 6 
#
# 1 84.9358 72.6179 25.6291 0.0000 0.0000 0.0000
# 2 72.6179 164.3261 31.7847 0.0000 0.0000 0.0000
# 3 25.6291 31.7847 71.5035 0.0000 0.0000 0.0000
# 4 0.0000 0.0000 0.0000 8.5958 0.0000 0.0000
# 5 0.0000 0.0000 0.0000 0.0000 16.8164 0.0000
# 6 0.0000 0.0000 0.0000 0.0000 0.0000 16.7222
#
#
#
# Elastic Compliance Matrix: (Units=1/GPa)
#
#
# Indices 1 2 3 4 5 6 
#
# 1 0.019688 -0.008026 -0.003489 0.000000 0.000000 0.000000
# 2 -0.008026 0.009929 -0.001537 0.000000 0.000000 0.000000
# 3 -0.003489 -0.001537 0.015919 0.000000 0.000000 0.000000
# 4 0.000000 0.000000 0.000000 0.116335 0.000000 0.000000
# 5 0.000000 0.000000 0.000000 0.000000 0.059466 0.000000
# 6 0.000000 0.000000 0.000000 0.000000 0.000000 0.059801
#
#
# Mechanical properties :
#
#
# Convention : Reuss Voigt Hill
#
# Bulk Modulus (GPa) = 51.45962 64.53653 57.99808
# Shear Modulus (GPa) = 15.93777 21.14247 18.54012
#
# Velocity S-wave (km/s) = 2.91472 3.35708 3.14369
# Velocity P-wave (km/s) = 6.22559 7.03048 6.64024
#
# Compressibility (1/GPa) = 0.01943271
#
# Stress axis : x y z
#
# Youngs Moduli (GPa) = 50.79208 100.71125 62.81666
#
# Poissons Ratio (x) = 0.80826 0.21919
# Poissons Ratio (y) = 0.40763 0.09656
# Poissons Ratio (z) = 0.17723 0.15481
#
# Static dielectric constant tensor:
#      x y z
#    x 1.683930 0.000000 0.000000 
#    y 0.000000 1.675220 0.000000 
#    z 0.000000 0.000000 1.654360 
# 
# From -- ./inp_files/14311.got.cif
#   From: 2010.05.17/outbox.cif.g08.bks.cpg/sg44_8_cif.got.tgz:14311.got - 2010.06.03 19:37:08.
