data_PCOD9374546
_publ_section_title
;
Structure prediction by ZEFSAII (Michael W. Deem and Ramdas Pophale) SiO2 
 PCOD9374546
Probable space group: I M M 2
;
_chemical_formula_sum "Si O2"
_cell_formula_units_Z 64
_cell_length_a 8.798249
_cell_length_b 14.781223
_cell_length_c 28.819975
_cell_angle_alpha 90.000000
_cell_angle_beta 90.000000
_cell_angle_gamma 90.000000
_cell_volume 3748.005484
_symmetry_space_group_name_H-M "I M M 2"
_symmetry_group_IT_number 44
_symmetry_cell_setting 'orthorhombic'
loop_
_space_group_symop_operation_xyz
x,y,z
-x,-y,z
-x,y,z
x,-y,z
1/2+x,1/2+y,1/2+z
1/2-x,1/2-y,1/2+z
1/2-x,1/2+y,1/2+z
1/2+x,1/2-y,1/2+z
loop_
_atom_site_type_symbol
_atom_site_label
_atom_site_fract_x
_atom_site_fract_y
_atom_site_fract_z
Si Si1 0.817633 0.395190 0.870010
Si Si2 0.183135 0.394996 0.496512
Si Si3 0.681597 0.104880 0.645244
Si Si4 0.815395 0.396871 0.602496
Si Si5 0.820861 0.107593 0.544341
Si Si6 0.818194 0.104779 0.269099
Si Si7 0.681971 0.780580 0.459342
Si Si8 0.317497 0.225993 0.188323
O O1 0.784974 0.500000 0.882587
O O2 0.737064 0.375813 0.821321
O O3 0.770706 0.329934 0.911804
O O4 0.000000 0.387598 0.863710
O O5 0.221443 0.500000 0.487237
O O6 0.230577 0.374234 0.549896
O O7 0.258742 0.321532 0.463674
O O8 0.000000 0.387008 0.494261
O O9 0.500000 0.113093 0.644873
O O10 0.745651 0.127460 0.594030
O O11 0.753018 0.173734 0.681823
O O12 0.721477 0.000000 0.654420
O O13 0.767330 0.500000 0.612538
O O14 0.765022 0.329611 0.642530
O O15 0.000000 0.396295 0.602454
O O16 0.748522 0.163963 0.502811
O O17 0.000000 0.127956 0.547386
O O18 0.801805 0.000000 0.535679
O O19 0.743001 0.172513 0.232731
O O20 0.000000 0.111054 0.266444
O O21 0.774043 0.000000 0.258719
O O22 0.500000 0.782680 0.461720
O O23 0.500000 0.227793 0.188938
#
# Coordination Sequence:
#
# PCOD9374546 Si02
#       8
#     8   8   8   8   8   8   8   8
#     4   9  19  36  55  75 101 132 166 206 256 313
#     4   9  18  33  51  71 100 138 177 214 249 291
#     4  10  21  36  52  72 103 140 176 217 260 298
#     4   8  15  28  46  70  99 131 167 203 239 284
#     4  10  20  33  50  74 105 140 177 213 250 301
#     4  10  21  36  54  78 107 135 165 206 256 308
#     4  11  21  32  51  77 104 135 171 213 261 310
#     4  11  20  31  53  79 103 135 173 210 251 304
#
# _framework density 17.075748999999998
#
# number of rings (size 3 to 8) (size 9 to 14) (size 15 to 20)
#    0.000    2.250    0.000    4.125    0.000    5.500 
#    0.000    1.875    0.000    2.250    0.000    3.500 
#    0.000    0.000    0.000    0.000    0.000    0.000 
#
# Total GULP energy -178645.296394 kJ/mol
# GULP energy per Si atom -5582.665512 kJ/mol
# Density = 1.703688 g / cm^3
# Si number density = 17.075749 Si / 1000 Ang^3
#
#
#
# Elastic Constant Matrix: (Units=GPa)
#
#
# Indices 1 2 3 4 5 6 
#
# 1 47.7203 52.6788 44.8006 0.0000 0.0000 0.0000
# 2 52.6788 116.2535 93.8783 0.0000 0.0000 0.0000
# 3 44.8006 93.8783 105.0463 0.0000 0.0000 0.0000
# 4 0.0000 0.0000 0.0000 33.1820 0.0000 0.0000
# 5 0.0000 0.0000 0.0000 0.0000 25.7097 0.0000
# 6 0.0000 0.0000 0.0000 0.0000 0.0000 27.9516
#
#
#
# Elastic Compliance Matrix: (Units=1/GPa)
#
#
# Indices 1 2 3 4 5 6 
#
# 1 0.042239 -0.016503 -0.003266 0.000000 0.000000 0.000000
# 2 -0.016503 0.037354 -0.026344 0.000000 0.000000 0.000000
# 3 -0.003266 -0.026344 0.034456 0.000000 0.000000 0.000000
# 4 0.000000 0.000000 0.000000 0.030137 0.000000 0.000000
# 5 0.000000 0.000000 0.000000 0.000000 0.038896 0.000000
# 6 0.000000 0.000000 0.000000 0.000000 0.000000 0.035776
#
#
# Mechanical properties :
#
#
# Convention : Reuss Voigt Hill
#
# Bulk Modulus (GPa) = 45.82386 72.41505 59.11946
# Shear Modulus (GPa) = 15.70557 22.54615 19.12586
#
# Velocity S-wave (km/s) = 3.03604 3.63762 3.35036
# Velocity P-wave (km/s) = 6.25971 7.75521 7.04724
#
# Compressibility (1/GPa) = 0.02182269
#
# Stress axis : x y z
#
# Youngs Moduli (GPa) = 23.67476 26.77109 29.02237
#
# Poissons Ratio (x) = 0.44179 0.09479
# Poissons Ratio (y) = 0.39069 0.76458
# Poissons Ratio (z) = 0.07733 0.70527
#
# Static dielectric constant tensor:
#      x y z
#    x 1.572200 0.000000 0.000000 
#    y 0.000000 1.589470 0.000000 
#    z 0.000000 0.000000 1.549050 
# 
# From -- ./inp_files/25088.got.cif
#   From: 2010.05.17/outbox.cif.g08.bks.cpg/sg44_13_cif.got.tgz:25088.got - 2010.06.03 19:37:08.
