data_PCOD9374044
_publ_section_title
;
Structure prediction by ZEFSAII (Michael W. Deem and Ramdas Pophale) SiO2 
 PCOD9374044
Probable space group: I M M 2
;
_chemical_formula_sum "Si O2"
_cell_formula_units_Z 48
_cell_length_a 7.989226
_cell_length_b 9.399326
_cell_length_c 35.195007
_cell_angle_alpha 90.000000
_cell_angle_beta 90.000000
_cell_angle_gamma 90.000000
_cell_volume 2642.910615
_symmetry_space_group_name_H-M "I M M 2"
_symmetry_group_IT_number 44
_symmetry_cell_setting 'orthorhombic'
loop_
_space_group_symop_operation_xyz
x,y,z
-x,-y,z
-x,y,z
x,-y,z
1/2+x,1/2+y,1/2+z
1/2-x,1/2-y,1/2+z
1/2-x,1/2+y,1/2+z
1/2+x,1/2-y,1/2+z
loop_
_atom_site_type_symbol
_atom_site_label
_atom_site_fract_x
_atom_site_fract_y
_atom_site_fract_z
Si Si1 0.298688 0.163292 0.824650
Si Si2 0.198733 0.163396 0.741842
Si Si3 0.696505 0.336979 0.669160
Si Si4 0.304766 0.329560 0.900867
Si Si5 0.315505 0.173071 0.088217
Si Si6 0.000000 0.172698 0.037059
Si Si7 0.000000 0.671144 0.956837
O O1 0.500000 0.160632 0.822983
O O2 0.237078 0.219985 0.784052
O O3 0.254206 0.254622 0.861440
O O4 0.238024 0.000000 0.828730
O O5 0.275996 0.250194 0.707383
O O6 0.000000 0.162832 0.736584
O O7 0.260679 0.000000 0.741062
O O8 0.500000 0.339537 0.659723
O O9 0.752332 0.500000 0.675487
O O10 0.787580 0.278757 0.631671
O O11 0.500000 0.290512 0.909663
O O12 0.300714 0.500000 0.895927
O O13 0.167541 0.293156 0.932727
O O14 0.500000 0.215658 0.074785
O O15 0.164368 0.215996 0.060996
O O16 0.309596 0.000000 0.089740
O O17 0.000000 0.000000 0.033581
O O18 0.000000 0.245659 0.996260
O O19 0.000000 0.500000 0.962883
#
# Coordination Sequence:
#
# PCOD9374044 Si02
#       7
#     8   8   8   8   8   4   4
#     4   9  18  33  52  74 102 136 175 219 267 313
#     4  10  21  34  48  73 109 145 180 221 269 321
#     4  10  19  33  54  78 104 138 183 228 269 317
#     4   9  19  36  56  77 104 139 176 215 262 318
#     4   9  17  32  55  80 108 139 172 219 271 312
#     4  10  20  36  56  82 108 136 178 220 262 322
#     4  10  22  38  56  80 110 140 172 216 272 322
#
# _framework density 18.161794
#
# number of rings (size 3 to 8) (size 9 to 14) (size 15 to 20)
#    0.000    2.500    0.833    1.000    1.167    4.000 
#    0.000    2.500    0.000    1.000    0.000    0.000 
#    0.000    0.000    0.000    0.000    0.000    0.000 
#
# Total GULP energy -133831.492758 kJ/mol
# GULP energy per Si atom -5576.312198 kJ/mol
# Density = 1.812046 g / cm^3
# Si number density = 18.161794 Si / 1000 Ang^3
#
#
#
# Elastic Constant Matrix: (Units=GPa)
#
#
# Indices 1 2 3 4 5 6 
#
# 1 101.1367 25.0568 71.7379 0.0000 0.0000 0.0000
# 2 25.0568 23.0497 44.4130 0.0000 0.0000 0.0000
# 3 71.7379 44.4130 152.6271 0.0000 0.0000 0.0000
# 4 0.0000 0.0000 0.0000 33.1761 0.0000 0.0000
# 5 0.0000 0.0000 0.0000 0.0000 14.1977 0.0000
# 6 0.0000 0.0000 0.0000 0.0000 0.0000 14.5473
#
#
#
# Elastic Compliance Matrix: (Units=1/GPa)
#
#
# Indices 1 2 3 4 5 6 
#
# 1 0.015223 -0.006287 -0.005326 0.000000 0.000000 0.000000
# 2 -0.006287 0.101352 -0.026538 0.000000 0.000000 0.000000
# 3 -0.005326 -0.026538 0.016777 0.000000 0.000000 0.000000
# 4 0.000000 0.000000 0.000000 0.030142 0.000000 0.000000
# 5 0.000000 0.000000 0.000000 0.000000 0.070434 0.000000
# 6 0.000000 0.000000 0.000000 0.000000 0.000000 0.068741
#
#
# Mechanical properties :
#
#
# Convention : Reuss Voigt Hill
#
# Bulk Modulus (GPa) = 17.52775 62.13655 39.83215
# Shear Modulus (GPa) = 12.56321 21.42460 16.99390
#
# Velocity S-wave (km/s) = 2.63295 3.43833 3.06223
# Velocity P-wave (km/s) = 4.34914 7.07460 5.87218
#
# Compressibility (1/GPa) = 0.05705238
#
# Stress axis : x y z
#
# Youngs Moduli (GPa) = 65.69141 9.86657 59.60433
#
# Poissons Ratio (x) = 0.06203 0.31743
# Poissons Ratio (y) = 0.41298 1.58176
# Poissons Ratio (z) = 0.34985 0.26184
#
# Static dielectric constant tensor:
#      x y z
#    x 1.652680 0.000000 0.000000 
#    y 0.000000 1.617950 0.000000 
#    z 0.000000 0.000000 1.594270 
# 
# From -- ./inp_files/26898.got.cif
#   From: 2010.05.17/outbox.cif.g08.bks.cpg/sg44_14_cif.got.tgz:26898.got - 2010.06.03 19:37:08.
