data_PCOD9374527
_publ_section_title
;
Structure prediction by ZEFSAII (Michael W. Deem and Ramdas Pophale) SiO2 
 PCOD9374527
Probable space group: I M M 2
;
_chemical_formula_sum "Si O2"
_cell_formula_units_Z 64
_cell_length_a 28.640243
_cell_length_b 9.018967
_cell_length_c 14.429109
_cell_angle_alpha 90.000000
_cell_angle_beta 90.000000
_cell_angle_gamma 90.000000
_cell_volume 3727.116866
_symmetry_space_group_name_H-M "I M M 2"
_symmetry_group_IT_number 44
_symmetry_cell_setting 'orthorhombic'
loop_
_space_group_symop_operation_xyz
x,y,z
-x,-y,z
-x,y,z
x,-y,z
1/2+x,1/2+y,1/2+z
1/2-x,1/2-y,1/2+z
1/2-x,1/2+y,1/2+z
1/2+x,1/2-y,1/2+z
loop_
_atom_site_type_symbol
_atom_site_label
_atom_site_fract_x
_atom_site_fract_y
_atom_site_fract_z
Si Si1 0.361820 0.677622 0.435630
Si Si2 0.553917 0.176927 0.541516
Si Si3 0.173068 0.825524 0.562282
Si Si4 0.232964 0.331956 0.293899
Si Si5 0.172895 0.675921 0.746968
Si Si6 0.553881 0.177117 0.760423
Si Si7 0.264121 0.332808 0.509013
Si Si8 0.141298 0.176680 0.353669
O O1 0.361204 0.500000 0.424773
O O2 0.409168 0.734969 0.480680
O O3 0.351932 0.751978 0.336250
O O4 0.317982 0.714514 0.503526
O O5 0.500000 0.212410 0.518914
O O6 0.560692 0.207697 0.650915
O O7 0.560257 0.000000 0.528431
O O8 0.153382 0.735709 0.649497
O O9 0.227411 0.779449 0.552188
O O10 0.149862 0.790109 0.462829
O O11 0.168856 0.000000 0.579309
O O12 0.232499 0.500000 0.256376
O O13 0.273353 0.231520 0.250777
O O14 0.248487 0.342403 0.401552
O O15 0.182243 0.257719 0.295709
O O16 0.170624 0.500000 0.752551
O O17 0.500000 0.213481 0.783206
O O18 0.591693 0.264971 0.819323
O O19 0.559944 0.000000 0.773521
O O20 0.259849 0.500000 0.548675
O O21 0.145653 0.000000 0.342219
#
# Coordination Sequence:
#
# PCOD9374527 Si02
#       8
#     8   8   8   8   8   8   8   8
#     4  10  20  34  53  77 105 136 171 211 256 306
#     4   9  19  36  56  78 103 131 166 208 255 307
#     4  10  20  33  49  72 104 140 175 211 253 301
#     4   9  17  31  49  69  98 133 168 207 248 294
#     4  11  21  33  51  74 103 139 177 215 253 298
#     4   9  19  36  56  77 103 135 169 208 256 308
#     4   8  16  30  46  67  96 130 167 205 243 288
#     4  10  20  33  52  78 106 136 171 213 258 305
#
# _framework density 17.171451000000001
#
# number of rings (size 3 to 8) (size 9 to 14) (size 15 to 20)
#    0.000    2.500    0.000    4.125    0.000    7.000 
#    0.000    3.750    0.000    0.750    0.000    3.500 
#    0.000    0.000    0.000    0.000    0.000    0.000 
#
# Total GULP energy -178480.647221 kJ/mol
# GULP energy per Si atom -5577.520226 kJ/mol
# Density = 1.713237 g / cm^3
# Si number density = 17.171451 Si / 1000 Ang^3
#
#
#
# Elastic Constant Matrix: (Units=GPa)
#
#
# Indices 1 2 3 4 5 6 
#
# 1 112.6902 57.0838 53.2119 0.0000 0.0000 0.0000
# 2 57.0838 85.0594 50.7072 0.0000 0.0000 0.0000
# 3 53.2119 50.7072 67.6338 0.0000 0.0000 0.0000
# 4 0.0000 0.0000 0.0000 26.7293 0.0000 0.0000
# 5 0.0000 0.0000 0.0000 0.0000 21.1219 0.0000
# 6 0.0000 0.0000 0.0000 0.0000 0.0000 29.5226
#
#
#
# Elastic Compliance Matrix: (Units=1/GPa)
#
#
# Indices 1 2 3 4 5 6 
#
# 1 0.015493 -0.005661 -0.007945 0.000000 0.000000 0.000000
# 2 -0.005661 0.023326 -0.013034 0.000000 0.000000 0.000000
# 3 -0.007945 -0.013034 0.030809 0.000000 0.000000 0.000000
# 4 0.000000 0.000000 0.000000 0.037412 0.000000 0.000000
# 5 0.000000 0.000000 0.000000 0.000000 0.047344 0.000000
# 6 0.000000 0.000000 0.000000 0.000000 0.000000 0.033872
#
#
# Mechanical properties :
#
#
# Convention : Reuss Voigt Hill
#
# Bulk Modulus (GPa) = 61.17427 65.26549 63.21988
# Shear Modulus (GPa) = 20.24401 22.43345 21.33873
#
# Velocity S-wave (km/s) = 3.43729 3.61839 3.52900
# Velocity P-wave (km/s) = 7.17329 7.45303 7.31450
#
# Compressibility (1/GPa) = 0.01634674
#
# Stress axis : x y z
#
# Youngs Moduli (GPa) = 64.54410 42.87078 32.45841
#
# Poissons Ratio (x) = 0.24270 0.25789
# Poissons Ratio (y) = 0.36540 0.42307
# Poissons Ratio (z) = 0.51282 0.55878
#
# Static dielectric constant tensor:
#      x y z
#    x 1.563950 0.000000 0.000000 
#    y 0.000000 1.579740 0.000000 
#    z 0.000000 0.000000 1.604020 
# 
# From -- ./inp_files/19505.got.cif
#   From: 2010.05.17/outbox.cif.g08.bks.cpg/sg44_10_cif.got.tgz:19505.got - 2010.06.03 19:37:08.
