data_PCOD9374641
_publ_section_title
;
Structure prediction by ZEFSAII (Michael W. Deem and Ramdas Pophale) SiO2 
 PCOD9374641
Probable space group: I M M 2
;
_chemical_formula_sum "Si O2"
_cell_formula_units_Z 58
_cell_length_a 20.331056
_cell_length_b 7.603440
_cell_length_c 15.792934
_cell_angle_alpha 90.000000
_cell_angle_beta 90.000000
_cell_angle_gamma 90.000000
_cell_volume 2441.365934
_symmetry_space_group_name_H-M "I M M 2"
_symmetry_group_IT_number 44
_symmetry_cell_setting 'orthorhombic'
loop_
_space_group_symop_operation_xyz
x,y,z
-x,-y,z
-x,y,z
x,-y,z
1/2+x,1/2+y,1/2+z
1/2-x,1/2-y,1/2+z
1/2-x,1/2+y,1/2+z
1/2+x,1/2-y,1/2+z
loop_
_atom_site_type_symbol
_atom_site_label
_atom_site_fract_x
_atom_site_fract_y
_atom_site_fract_z
Si Si1 0.758145 0.205470 0.986230
Si Si2 0.214827 0.713560 0.796028
Si Si3 0.427273 0.787654 0.863968
Si Si4 0.073077 0.714593 0.733462
Si Si5 0.158867 0.201090 0.210183
Si Si6 0.500000 0.500000 0.502646
Si Si7 0.117564 0.714544 0.547491
Si Si8 0.100315 0.689802 0.044270
O O1 0.756386 0.223810 0.885025
O O2 0.762776 0.000000 0.006816
O O3 0.692549 0.272653 0.031788
O O4 0.824924 0.295790 0.013294
O O5 0.215213 0.500000 0.795301
O O6 0.139179 0.770949 0.782837
O O7 0.266667 0.769078 0.723137
O O8 0.500000 0.741294 0.833760
O O9 0.374119 0.706921 0.802054
O O10 0.419727 0.000000 0.861126
O O11 0.419406 0.734409 0.961641
O O12 0.072488 0.500000 0.736268
O O13 0.085571 0.769108 0.635819
O O14 0.000000 0.773557 0.762075
O O15 0.110129 0.295728 0.145582
O O16 0.162879 0.000000 0.180371
O O17 0.556975 0.346089 0.509071
O O18 0.117728 0.500000 0.550000
O O19 0.074133 0.500000 0.019725
#
# Coordination Sequence:
#
# PCOD9374641 Si02
#       8
#     8   8   8   8   8   2   8   8
#     4  11  21  40  64  92 128 167 221 280 331 396
#     4  10  21  37  60  91 129 172 223 278 335 400
#     4  10  20  33  54  88 124 162 215 272 332 403
#     4   9  17  32  56  87 120 157 208 274 340 398
#     4  11  22  39  60  89 132 175 224 278 333 403
#     4  12  26  52  68 102 136 172 226 280 340 406
#     4   9  17  32  58  87 123 165 209 269 338 399
#     4  12  26  45  71  97 133 178 225 278 340 408
#
# _framework density 23.757193000000001
#
# number of rings (size 3 to 8) (size 9 to 14) (size 15 to 20)
#    0.000    1.655    2.759    2.276    0.966    4.690 
#    1.241    0.000    0.000    0.828    0.000    0.000 
#    0.000    0.000    0.000    0.000    0.000    0.000 
#
# Total GULP energy -161909.817572 kJ/mol
# GULP energy per Si atom -5583.097158 kJ/mol
# Density = 2.370312 g / cm^3
# Si number density = 23.757193 Si / 1000 Ang^3
#
#
#
# Elastic Constant Matrix: (Units=GPa)
#
#
# Indices 1 2 3 4 5 6 
#
# 1 139.7639 19.9247 -17.0896 0.0000 0.0000 0.0000
# 2 19.9247 97.1205 -14.5370 0.0000 0.0000 0.0000
# 3 -17.0896 -14.5370 21.0991 0.0000 0.0000 0.0000
# 4 0.0000 0.0000 0.0000 14.0434 0.0000 0.0000
# 5 0.0000 0.0000 0.0000 0.0000 16.6687 0.0000
# 6 0.0000 0.0000 0.0000 0.0000 0.0000 -112.6488
#
#
#
# Elastic Compliance Matrix: (Units=1/GPa)
#
#
# Indices 1 2 3 4 5 6 
#
# 1 0.007990 -0.000748 0.005956 0.000000 0.000000 0.000000
# 2 -0.000748 0.011550 0.007353 0.000000 0.000000 0.000000
# 3 0.005956 0.007353 0.057286 0.000000 0.000000 0.000000
# 4 0.000000 0.000000 0.000000 0.071208 0.000000 0.000000
# 5 0.000000 0.000000 0.000000 0.000000 0.059993 0.000000
# 6 0.000000 0.000000 0.000000 0.000000 0.000000 -0.008877
#
#
# Mechanical properties :
#
#
# Convention : Reuss Voigt Hill
#
# Bulk Modulus (GPa) = 9.80887 26.06443 17.93665
# Shear Modulus (GPa) = 24.03736 1.59168 12.81452
#
# Velocity S-wave (km/s) = 3.18432 0.81941 2.32501
# Velocity P-wave (km/s) = 4.20210 3.44822 3.84369
#
# Compressibility (1/GPa) = 0.10194850
#
# Stress axis : x y z
#
# Youngs Moduli (GPa) = 125.15935 86.57725 17.45637
#
# Poissons Ratio (x) = 0.06472 -0.10398
# Poissons Ratio (y) = 0.09357 -0.12835
# Poissons Ratio (z) = -0.74550 -0.63656
#
# Static dielectric constant tensor:
#      x y z
#    x 1.904320 0.000000 0.000000 
#    y 0.000000 1.885800 0.000000 
#    z 0.000000 0.000000 1.954210 
# 
# From -- ./inp_files/22130.got.cif
#   From: 2010.05.17/outbox.cif.g08.bks.cpg/sg44_12_cif.got.tgz:22130.got - 2010.06.03 19:37:08.
