data_PCOD9374609
_publ_section_title
;
Structure prediction by ZEFSAII (Michael W. Deem and Ramdas Pophale) SiO2 
 PCOD9374609
Probable space group: I M M 2
;
_chemical_formula_sum "Si O2"
_cell_formula_units_Z 64
_cell_length_a 7.876814
_cell_length_b 29.162138
_cell_length_c 13.117981
_cell_angle_alpha 90.000000
_cell_angle_beta 90.000000
_cell_angle_gamma 90.000000
_cell_volume 3013.262374
_symmetry_space_group_name_H-M "I M M 2"
_symmetry_group_IT_number 44
_symmetry_cell_setting 'orthorhombic'
loop_
_space_group_symop_operation_xyz
x,y,z
-x,-y,z
-x,y,z
x,-y,z
1/2+x,1/2+y,1/2+z
1/2-x,1/2-y,1/2+z
1/2-x,1/2+y,1/2+z
1/2+x,1/2-y,1/2+z
loop_
_atom_site_type_symbol
_atom_site_label
_atom_site_fract_x
_atom_site_fract_y
_atom_site_fract_z
Si Si1 0.202946 0.705052 0.902040
Si Si2 0.297076 0.448155 0.603752
Si Si3 0.196273 0.620604 0.782410
Si Si4 0.294495 0.169620 0.620257
Si Si5 0.705729 0.450076 0.950666
Si Si6 0.805063 0.068779 0.671914
Si Si7 0.296542 0.591191 0.388859
Si Si8 0.298684 0.804904 0.839245
O O1 0.270321 0.670430 0.814149
O O2 0.237201 0.758563 0.890515
O O3 0.000000 0.698667 0.901724
O O4 0.264001 0.688828 0.012776
O O5 0.500000 0.451766 0.594055
O O6 0.232885 0.500000 0.625887
O O7 0.268792 0.410685 0.692074
O O8 0.231042 0.429499 0.494759
O O9 0.214555 0.590144 0.884883
O O10 0.000000 0.626951 0.756045
O O11 0.500000 0.161874 0.617269
O O12 0.202591 0.122452 0.645628
O O13 0.258426 0.200189 0.719012
O O14 0.500000 0.443687 0.951919
O O15 0.739343 0.500000 0.903504
O O16 0.768698 0.451101 0.067476
O O17 0.728574 0.066584 0.785481
O O18 0.000000 0.052749 0.677979
O O19 0.500000 0.584648 0.386431
O O20 0.267533 0.645988 0.379103
O O21 0.500000 0.807533 0.849874
#
# Coordination Sequence:
#
# PCOD9374609 Si02
#       8
#     8   8   8   8   8   8   8   8
#     4  10  21  37  56  78 109 148 190 235 287 346
#     4  10  22  40  61  84 115 158 202 244 292 349
#     4  11  23  38  57  81 111 149 194 242 289 341
#     4   9  18  35  54  73 104 142 176 219 277 334
#     4  10  20  33  52  81 114 143 176 224 279 335
#     4   9  17  31  54  81 106 137 178 223 272 327
#     4   9  19  37  59  82 113 151 189 232 286 342
#     4  10  21  35  56  85 112 144 188 237 287 342
#
# _framework density 21.239438
#
# number of rings (size 3 to 8) (size 9 to 14) (size 15 to 20)
#    0.000    2.250    1.250    1.125    0.000    6.000 
#    0.000    6.250    0.000    0.000    0.000    5.250 
#    0.000    0.000    0.000    0.000    0.000    0.000 
#
# Total GULP energy -178412.801435 kJ/mol
# GULP energy per Si atom -5575.400045 kJ/mol
# Density = 2.119110 g / cm^3
# Si number density = 21.239438 Si / 1000 Ang^3
#
#
#
# Elastic Constant Matrix: (Units=GPa)
#
#
# Indices 1 2 3 4 5 6 
#
# 1 17.6144 -0.7156 7.2227 0.0000 0.0000 0.0000
# 2 -0.7156 54.9019 24.0940 0.0001 0.0000 0.0000
# 3 7.2227 24.0940 118.5056 0.0002 -0.0001 0.0000
# 4 0.0000 0.0001 0.0002 19.8216 -0.0001 0.0000
# 5 0.0000 0.0000 -0.0001 -0.0001 9.0593 0.0000
# 6 0.0000 0.0000 0.0000 0.0000 0.0000 8.2741
#
#
#
# Elastic Compliance Matrix: (Units=1/GPa)
#
#
# Indices 1 2 3 4 5 6 
#
# 1 0.058552 0.002558 -0.004089 0.000000 0.000000 0.000000
# 2 0.002558 0.020110 -0.004245 0.000000 0.000000 0.000000
# 3 -0.004089 -0.004245 0.009551 0.000000 0.000000 0.000000
# 4 0.000000 0.000000 0.000000 0.050450 0.000000 0.000000
# 5 0.000000 0.000000 0.000000 0.000000 0.110384 0.000000
# 6 0.000000 0.000000 0.000000 0.000000 0.000000 0.120860
#
#
# Mechanical properties :
#
#
# Convention : Reuss Voigt Hill
#
# Bulk Modulus (GPa) = 13.04432 28.02491 20.53461
# Shear Modulus (GPa) = 12.28463 18.12570 15.20517
#
# Velocity S-wave (km/s) = 2.40758 2.92447 2.67852
# Velocity P-wave (km/s) = 3.72605 4.96253 4.38806
#
# Compressibility (1/GPa) = 0.07666175
#
# Stress axis : x y z
#
# Youngs Moduli (GPa) = 17.07877 49.72547 104.70533
#
# Poissons Ratio (x) = -0.12717 0.42810
# Poissons Ratio (y) = -0.04368 0.44444
# Poissons Ratio (z) = 0.06983 0.21107
#
# Static dielectric constant tensor:
#      x y z
#    x 1.775740 0.000000 0.000000 
#    y 0.000000 1.796890 0.000000 
#    z 0.000000 0.000000 1.797390 
# 
# From -- ./inp_files/11519.got.cif
#   From: 2010.05.17/outbox.cif.g08.bks.cpg/sg44_6_cif.got.tgz:11519.got - 2010.06.03 19:37:08.
