data_PCOD9374948
_publ_section_title
;
Structure prediction by ZEFSAII (Michael W. Deem and Ramdas Pophale) SiO2 
 PCOD9374948
Probable space group: I M M 2
;
_chemical_formula_sum "Si O2"
_cell_formula_units_Z 64
_cell_length_a 7.884174
_cell_length_b 29.498581
_cell_length_c 13.401827
_cell_angle_alpha 90.000000
_cell_angle_beta 90.000000
_cell_angle_gamma 90.000000
_cell_volume 3116.888977
_symmetry_space_group_name_H-M "I M M 2"
_symmetry_group_IT_number 44
_symmetry_cell_setting 'orthorhombic'
loop_
_space_group_symop_operation_xyz
x,y,z
-x,-y,z
-x,y,z
x,-y,z
1/2+x,1/2+y,1/2+z
1/2-x,1/2-y,1/2+z
1/2-x,1/2+y,1/2+z
1/2+x,1/2-y,1/2+z
loop_
_atom_site_type_symbol
_atom_site_label
_atom_site_fract_x
_atom_site_fract_y
_atom_site_fract_z
Si Si1 0.696114 0.296333 0.042170
Si Si2 0.694950 0.611601 0.502523
Si Si3 0.304963 0.117386 0.425841
Si Si4 0.298448 0.247543 0.722564
Si Si5 0.202083 0.148489 0.208972
Si Si6 0.704521 0.947812 0.598993
Si Si7 0.704763 0.552367 0.319863
Si Si8 0.700905 0.207636 0.940277
O O1 0.500000 0.198181 0.955723
O O2 0.712177 0.292860 0.160080
O O3 0.793617 0.335333 0.985841
O O4 0.759580 0.245966 0.016779
O O5 0.500000 0.596585 0.517179
O O6 0.769825 0.620111 0.613638
O O7 0.770669 0.578922 0.417364
O O8 0.701324 0.661412 0.454054
O O9 0.500000 0.105073 0.408724
O O10 0.228303 0.125297 0.316456
O O11 0.229929 0.081207 0.504897
O O12 0.500000 0.247091 0.701113
O O13 0.231828 0.299383 0.711268
O O14 0.278641 0.232646 0.836141
O O15 0.000000 0.152531 0.193854
O O16 0.500000 0.947760 0.592862
O O17 0.747738 0.929448 0.709644
O O18 0.764519 0.000000 0.593901
O O19 0.500000 0.553224 0.323737
O O20 0.761986 0.500000 0.323306
O O21 0.000000 0.199923 0.510189
#
# Coordination Sequence:
#
# PCOD9374948 Si02
#       8
#     8   8   8   8   8   8   8   8
#     4  11  22  36  53  78 110 146 186 227 271 323
#     4  10  21  36  56  81 109 145 184 226 276 325
#     4  11  23  37  57  83 110 145 187 229 277 330
#     4  10  20  36  52  72 108 149 185 226 272 318
#     4  10  20  37  56  77 112 150 185 227 272 322
#     4   9  20  40  62  83 109 141 177 223 279 331
#     4   9  19  37  60  86 113 140 176 224 277 333
#     4  10  21  35  51  74 107 145 185 226 266 315
#
# _framework density 20.533293
#
# number of rings (size 3 to 8) (size 9 to 14) (size 15 to 20)
#    0.000    2.000    2.500    0.750    1.750    3.500 
#    0.000    0.625    0.000    0.750    0.000    0.000 
#    0.000    0.000    0.000    0.000    0.000    0.000 
#
# Total GULP energy -178399.796612 kJ/mol
# GULP energy per Si atom -5574.993644 kJ/mol
# Density = 2.048656 g / cm^3
# Si number density = 20.533293 Si / 1000 Ang^3
#
#
#
# Elastic Constant Matrix: (Units=GPa)
#
#
# Indices 1 2 3 4 5 6 
#
# 1 14.9573 -2.0746 11.0848 0.0000 0.0000 0.0000
# 2 -2.0746 67.3768 57.8879 0.0001 0.0000 0.0000
# 3 11.0848 57.8879 154.5562 0.0003 0.0001 0.0000
# 4 0.0000 0.0001 0.0003 33.6590 0.0000 0.0000
# 5 0.0000 0.0000 0.0001 0.0000 20.0675 0.0000
# 6 0.0000 0.0000 0.0000 0.0000 0.0000 15.9708
#
#
#
# Elastic Compliance Matrix: (Units=1/GPa)
#
#
# Indices 1 2 3 4 5 6 
#
# 1 0.075109 0.010234 -0.009220 0.000000 0.000000 0.000000
# 2 0.010234 0.023279 -0.009453 0.000000 0.000000 0.000000
# 3 -0.009220 -0.009453 0.010672 0.000000 0.000000 0.000000
# 4 0.000000 0.000000 0.000000 0.029710 0.000000 0.000000
# 5 0.000000 0.000000 0.000000 0.000000 0.049832 0.000000
# 6 0.000000 0.000000 0.000000 0.000000 0.000000 0.062614
#
#
# Mechanical properties :
#
#
# Convention : Reuss Voigt Hill
#
# Bulk Modulus (GPa) = 10.84805 41.18740 26.01772
# Shear Modulus (GPa) = 16.73246 25.27227 21.00236
#
# Velocity S-wave (km/s) = 2.85773 3.51207 3.20166
# Velocity P-wave (km/s) = 4.02287 6.04554 5.13479
#
# Compressibility (1/GPa) = 0.09218247
#
# Stress axis : x y z
#
# Youngs Moduli (GPa) = 13.31394 42.95795 93.70409
#
# Poissons Ratio (x) = -0.43964 0.86395
# Poissons Ratio (y) = -0.13626 0.88577
# Poissons Ratio (z) = 0.12275 0.40607
#
# Static dielectric constant tensor:
#      x y z
#    x 1.778170 0.000000 0.000000 
#    y 0.000000 1.722510 0.000000 
#    z 0.000000 0.000000 1.779550 
# 
# From -- ./inp_files/11557.got.cif
#   From: 2010.05.17/outbox.cif.g08.bks.cpg/sg44_6_cif.got.tgz:11557.got - 2010.06.03 19:37:08.
