data_PCOD9374057
_publ_section_title
;
Structure prediction by ZEFSAII (Michael W. Deem and Ramdas Pophale) SiO2 
 PCOD9374057
Probable space group: I M M 2
;
_chemical_formula_sum "Si O2"
_cell_formula_units_Z 64
_cell_length_a 7.784094
_cell_length_b 25.680596
_cell_length_c 15.657847
_cell_angle_alpha 90.000000
_cell_angle_beta 90.000000
_cell_angle_gamma 90.000000
_cell_volume 3130.006328
_symmetry_space_group_name_H-M "I M M 2"
_symmetry_group_IT_number 44
_symmetry_cell_setting 'orthorhombic'
loop_
_space_group_symop_operation_xyz
x,y,z
-x,-y,z
-x,y,z
x,-y,z
1/2+x,1/2+y,1/2+z
1/2-x,1/2-y,1/2+z
1/2-x,1/2+y,1/2+z
1/2+x,1/2-y,1/2+z
loop_
_atom_site_type_symbol
_atom_site_label
_atom_site_fract_x
_atom_site_fract_y
_atom_site_fract_z
Si Si1 0.292806 0.137476 0.579200
Si Si2 0.703515 0.114803 0.901019
Si Si3 0.207078 0.647233 0.705249
Si Si4 0.294417 0.736409 0.188062
Si Si5 0.795876 0.058107 0.072680
Si Si6 0.289416 0.939885 0.727629
Si Si7 0.199554 0.343647 0.895701
Si Si8 0.801430 0.272790 0.381213
O O1 0.500000 0.133827 0.575673
O O2 0.250138 0.194053 0.617559
O O3 0.232774 0.094075 0.646422
O O4 0.224818 0.133139 0.482628
O O5 0.500000 0.122594 0.887069
O O6 0.770544 0.087753 0.815021
O O7 0.772352 0.173133 0.916805
O O8 0.726563 0.078897 0.982763
O O9 0.259442 0.704063 0.669406
O O10 0.255812 0.599685 0.645768
O O11 0.274710 0.643085 0.802658
O O12 0.000000 0.648544 0.709361
O O13 0.500000 0.735965 0.200953
O O14 0.209578 0.721293 0.278383
O O15 0.000000 0.055593 0.064246
O O16 0.729864 0.000000 0.091424
O O17 0.500000 0.939622 0.728606
O O18 0.235710 0.000000 0.724122
O O19 0.208459 0.280870 0.903042
O O20 0.000000 0.359302 0.892638
O O21 0.000000 0.266208 0.407848
#
# Coordination Sequence:
#
# PCOD9374057 Si02
#       8
#     8   8   8   8   8   8   8   8
#     4  10  19  34  55  83 116 148 185 227 274 329
#     4  10  20  35  56  82 112 148 188 227 272 333
#     4   9  20  39  58  79 108 145 189 232 278 333
#     4  10  20  34  54  82 115 147 182 225 275 330
#     4  11  25  41  57  81 110 143 189 240 289 337
#     4   9  17  32  55  81 110 145 184 224 266 319
#     4   9  20  36  55  82 117 149 181 229 283 331
#     4  10  19  33  54  81 112 146 187 224 269 331
#
# _framework density 20.447241999999999
#
# number of rings (size 3 to 8) (size 9 to 14) (size 15 to 20)
#    0.000    2.250    1.250    2.250    1.750    5.500 
#    0.000    0.625    0.000    2.625    0.000    0.000 
#    0.000    0.000    0.000    0.000    0.000    0.000 
#
# Total GULP energy -178632.380263 kJ/mol
# GULP energy per Si atom -5582.261883 kJ/mol
# Density = 2.040070 g / cm^3
# Si number density = 20.447242 Si / 1000 Ang^3
#
#
#
# Elastic Constant Matrix: (Units=GPa)
#
#
# Indices 1 2 3 4 5 6 
#
# 1 28.0583 -4.2306 -3.1960 0.0000 0.0000 0.0000
# 2 -4.2306 123.0513 67.9209 0.0000 0.0000 0.0000
# 3 -3.1960 67.9209 113.8278 0.0000 0.0000 0.0000
# 4 0.0000 0.0000 0.0000 26.5538 0.0000 0.0000
# 5 0.0000 0.0000 0.0000 0.0000 11.3032 0.0000
# 6 0.0000 0.0000 0.0000 0.0000 0.0000 15.9375
#
#
#
# Elastic Compliance Matrix: (Units=1/GPa)
#
#
# Indices 1 2 3 4 5 6 
#
# 1 0.035838 0.001009 0.000404 0.000000 0.000000 0.000000
# 2 0.001009 0.012146 -0.007219 0.000000 0.000000 0.000000
# 3 0.000404 -0.007219 0.013104 0.000000 0.000000 0.000000
# 4 0.000000 0.000000 0.000000 0.037659 0.000000 0.000000
# 5 0.000000 0.000000 0.000000 0.000000 0.088470 0.000000
# 6 0.000000 0.000000 0.000000 0.000000 0.000000 0.062745
#
#
# Mechanical properties :
#
#
# Convention : Reuss Voigt Hill
#
# Bulk Modulus (GPa) = 20.21159 42.88068 31.54613
# Shear Modulus (GPa) = 17.98122 24.38846 21.18484
#
# Velocity S-wave (km/s) = 2.96868 3.45737 3.22230
# Velocity P-wave (km/s) = 4.65370 6.07904 5.41349
#
# Compressibility (1/GPa) = 0.04947657
#
# Stress axis : x y z
#
# Youngs Moduli (GPa) = 27.90315 82.32992 76.31076
#
# Poissons Ratio (x) = -0.08308 -0.03084
# Poissons Ratio (y) = -0.02816 0.55091
# Poissons Ratio (z) = -0.01128 0.59437
#
# Static dielectric constant tensor:
#      x y z
#    x 1.766440 0.000000 0.000000 
#    y 0.000000 1.722270 0.000000 
#    z 0.000000 0.000000 1.733880 
# 
# From -- ./inp_files/16808.got.cif
#   From: 2010.05.17/outbox.cif.g08.bks.cpg/sg44_9_cif.got.tgz:16808.got - 2010.06.03 19:37:08.
