data_PCOD9374108
_publ_section_title
;
Structure prediction by ZEFSAII (Michael W. Deem and Ramdas Pophale) SiO2 
 PCOD9374108
Probable space group: I M M 2
;
_chemical_formula_sum "Si O2"
_cell_formula_units_Z 48
_cell_length_a 8.655051
_cell_length_b 18.663616
_cell_length_c 15.236282
_cell_angle_alpha 90.000000
_cell_angle_beta 90.000000
_cell_angle_gamma 90.000000
_cell_volume 2461.185931
_symmetry_space_group_name_H-M "I M M 2"
_symmetry_group_IT_number 44
_symmetry_cell_setting 'orthorhombic'
loop_
_space_group_symop_operation_xyz
x,y,z
-x,-y,z
-x,y,z
x,-y,z
1/2+x,1/2+y,1/2+z
1/2-x,1/2-y,1/2+z
1/2-x,1/2+y,1/2+z
1/2+x,1/2-y,1/2+z
loop_
_atom_site_type_symbol
_atom_site_label
_atom_site_fract_x
_atom_site_fract_y
_atom_site_fract_z
Si Si1 0.313268 0.500000 0.760110
Si Si2 0.183490 0.232288 0.873808
Si Si3 0.320128 0.235425 0.681304
Si Si4 0.819497 0.106681 0.111648
Si Si5 0.311113 0.500000 0.958108
Si Si6 0.685309 0.342999 0.019998
Si Si7 0.682536 0.079437 0.927206
O O1 0.500000 0.500000 0.767405
O O2 0.271677 0.568036 0.701330
O O3 0.253369 0.500000 0.857875
O O4 0.242486 0.247450 0.775459
O O5 0.253337 0.287168 0.945995
O O6 0.232717 0.149875 0.891722
O O7 0.000000 0.238108 0.879208
O O8 0.500000 0.217592 0.695414
O O9 0.311625 0.309243 0.627079
O O10 0.240952 0.178824 0.616898
O O11 0.000000 0.088049 0.093588
O O12 0.716662 0.082217 0.031088
O O13 0.500000 0.500000 0.958512
O O14 0.263880 0.575504 0.000077
O O15 0.500000 0.339631 0.016119
O O16 0.500000 0.086422 0.910701
O O17 0.732605 0.000000 0.895251
#
# Coordination Sequence:
#
# PCOD9374108 Si02
#       7
#     4   8   8   8   4   8   8
#     4   9  16  30  55  88 119 156 199 245 296 368
#     4  12  25  42  65  93 125 168 214 261 316 378
#     4  11  23  40  63  93 125 166 213 259 314 377
#     4  10  19  33  59  89 122 159 201 247 306 378
#     4   9  20  38  61  90 125 166 207 251 312 372
#     4  11  22  41  67  94 128 167 210 264 314 374
#     4  11  23  39  61  90 126 162 202 258 318 371
#
# _framework density 19.502793
#
# number of rings (size 3 to 8) (size 9 to 14) (size 15 to 20)
#    0.000    1.333    2.500    4.000    0.000    4.333 
#    1.500    1.667    0.000    1.000    0.000    0.000 
#    0.000    0.000    0.000    0.000    0.000    0.000 
#
# Total GULP energy -134020.664936 kJ/mol
# GULP energy per Si atom -5584.194372 kJ/mol
# Density = 1.945840 g / cm^3
# Si number density = 19.502793 Si / 1000 Ang^3
#
#
#
# Elastic Constant Matrix: (Units=GPa)
#
#
# Indices 1 2 3 4 5 6 
#
# 1 78.5775 32.4987 15.5046 0.0000 0.0000 0.0000
# 2 32.4987 111.0509 17.8973 0.0000 0.0000 0.0000
# 3 15.5046 17.8973 59.1204 0.0000 0.0000 0.0000
# 4 0.0000 0.0000 0.0000 26.9912 0.0000 0.0000
# 5 0.0000 0.0000 0.0000 0.0000 34.4651 0.0000
# 6 0.0000 0.0000 0.0000 0.0000 0.0000 8.9475
#
#
#
# Elastic Compliance Matrix: (Units=1/GPa)
#
#
# Indices 1 2 3 4 5 6 
#
# 1 0.014883 -0.003917 -0.002717 0.000000 0.000000 0.000000
# 2 -0.003917 0.010498 -0.002151 0.000000 0.000000 0.000000
# 3 -0.002717 -0.002151 0.018278 0.000000 0.000000 0.000000
# 4 0.000000 0.000000 0.000000 0.037049 0.000000 0.000000
# 5 0.000000 0.000000 0.000000 0.000000 0.029015 0.000000
# 6 0.000000 0.000000 0.000000 0.000000 0.000000 0.111763
#
#
# Mechanical properties :
#
#
# Convention : Reuss Voigt Hill
#
# Bulk Modulus (GPa) = 38.33118 42.28332 40.30725
# Shear Modulus (GPa) = 20.18142 26.27062 23.22602
#
# Velocity S-wave (km/s) = 3.22032 3.67416 3.45470
# Velocity P-wave (km/s) = 5.79000 6.30293 6.05190
#
# Compressibility (1/GPa) = 0.02608842
#
# Stress axis : x y z
#
# Youngs Moduli (GPa) = 67.19236 95.25698 54.70976
#
# Poissons Ratio (x) = 0.37317 0.14865
# Poissons Ratio (y) = 0.26322 0.11766
# Poissons Ratio (z) = 0.18257 0.20486
#
# Static dielectric constant tensor:
#      x y z
#    x 1.665030 0.000000 0.000000 
#    y 0.000000 1.715830 0.000000 
#    z 0.000000 0.000000 1.667830 
# 
# From -- ./inp_files/16187.got.cif
#   From: 2010.05.17/outbox.cif.g08.bks.cpg/sg44_9_cif.got.tgz:16187.got - 2010.06.03 19:37:08.
