data_PCOD9374554
_publ_section_title
;
Structure prediction by ZEFSAII (Michael W. Deem and Ramdas Pophale) SiO2 
 PCOD9374554
Probable space group: I M M 2
;
_chemical_formula_sum "Si O2"
_cell_formula_units_Z 64
_cell_length_a 9.256600
_cell_length_b 13.972198
_cell_length_c 24.767105
_cell_angle_alpha 90.000000
_cell_angle_beta 90.000000
_cell_angle_gamma 90.000000
_cell_volume 3203.254714
_symmetry_space_group_name_H-M "I M M 2"
_symmetry_group_IT_number 44
_symmetry_cell_setting 'orthorhombic'
loop_
_space_group_symop_operation_xyz
x,y,z
-x,-y,z
-x,y,z
x,-y,z
1/2+x,1/2+y,1/2+z
1/2-x,1/2-y,1/2+z
1/2-x,1/2+y,1/2+z
1/2+x,1/2-y,1/2+z
loop_
_atom_site_type_symbol
_atom_site_label
_atom_site_fract_x
_atom_site_fract_y
_atom_site_fract_z
Si Si1 0.330172 0.885617 0.747330
Si Si2 0.340109 0.112704 0.250590
Si Si3 0.330100 0.817357 0.628901
Si Si4 0.339139 0.614483 0.849402
Si Si5 0.826928 0.889395 0.859458
Si Si6 0.671542 0.220851 0.437778
Si Si7 0.332979 0.394366 0.641560
Si Si8 0.828005 0.891592 0.528894
O O1 0.500000 0.867198 0.756483
O O2 0.288246 0.831805 0.691852
O O3 0.244135 0.863401 0.802042
O O4 0.312483 0.000000 0.737275
O O5 0.500000 0.156312 0.255694
O O6 0.219952 0.149491 0.291795
O O7 0.277971 0.113383 0.190678
O O8 0.354069 0.000000 0.264167
O O9 0.500000 0.843849 0.624883
O O10 0.316207 0.705887 0.611204
O O11 0.234327 0.879159 0.588882
O O12 0.500000 0.652380 0.861572
O O13 0.350166 0.500000 0.848802
O O14 0.221502 0.644849 0.892822
O O15 0.785500 0.820702 0.909087
O O16 0.000000 0.881543 0.853603
O O17 0.789885 0.000000 0.870541
O O18 0.500000 0.220329 0.446640
O O19 0.752980 0.187143 0.491202
O O20 0.500000 0.392991 0.661912
O O21 0.313533 0.500000 0.615556
O O22 0.000000 0.879956 0.528034
O O23 0.795150 0.000000 0.509480
#
# Coordination Sequence:
#
# PCOD9374554 Si02
#       8
#     8   8   8   8   8   8   8   8
#     4   9  18  33  55  85 118 152 194 244 296 348
#     4   9  17  29  46  71 106 147 189 232 278 330
#     4  10  21  37  60  88 117 157 204 247 294 347
#     4  10  20  33  50  75 110 150 189 231 281 340
#     4   9  20  39  60  85 119 155 193 239 291 349
#     4  11  23  38  60  87 113 149 194 239 292 350
#     4   9  18  33  52  78 115 156 196 237 285 341
#     4  11  25  44  64  88 118 152 192 242 300 359
#
# _framework density 19.979679000000001
#
# number of rings (size 3 to 8) (size 9 to 14) (size 15 to 20)
#    0.000    2.250    0.000    2.250    1.750    7.250 
#    0.000    1.875    0.000    3.750    0.000    0.000 
#    0.000    0.000    0.000    0.000    0.000    0.000 
#
# Total GULP energy -178474.199358 kJ/mol
# GULP energy per Si atom -5577.318730 kJ/mol
# Density = 1.993420 g / cm^3
# Si number density = 19.979679 Si / 1000 Ang^3
#
#
#
# Elastic Constant Matrix: (Units=GPa)
#
#
# Indices 1 2 3 4 5 6 
#
# 1 50.2358 43.8528 35.6670 0.0000 0.0000 0.0000
# 2 43.8528 112.7930 39.2697 0.0000 0.0000 0.0000
# 3 35.6670 39.2697 78.4937 0.0000 0.0000 0.0000
# 4 0.0000 0.0000 0.0000 23.7509 0.0000 0.0000
# 5 0.0000 0.0000 0.0000 0.0000 28.4992 0.0000
# 6 0.0000 0.0000 0.0000 0.0000 0.0000 17.5585
#
#
#
# Elastic Compliance Matrix: (Units=1/GPa)
#
#
# Indices 1 2 3 4 5 6 
#
# 1 0.037360 -0.010432 -0.011757 0.000000 0.000000 0.000000
# 2 -0.010432 0.013649 -0.002088 0.000000 0.000000 0.000000
# 3 -0.011757 -0.002088 0.019127 0.000000 0.000000 0.000000
# 4 0.000000 0.000000 0.000000 0.042104 0.000000 0.000000
# 5 0.000000 0.000000 0.000000 0.000000 0.035089 0.000000
# 6 0.000000 0.000000 0.000000 0.000000 0.000000 0.056952
#
#
# Mechanical properties :
#
#
# Convention : Reuss Voigt Hill
#
# Bulk Modulus (GPa) = 46.33652 53.23351 49.78501
# Shear Modulus (GPa) = 19.22869 22.14393 20.68631
#
# Velocity S-wave (km/s) = 3.10564 3.33276 3.22120
# Velocity P-wave (km/s) = 6.00851 6.44293 6.22951
#
# Compressibility (1/GPa) = 0.02158125
#
# Stress axis : x y z
#
# Youngs Moduli (GPa) = 26.76663 73.26762 52.28246
#
# Poissons Ratio (x) = 0.76432 0.61469
# Poissons Ratio (y) = 0.27923 0.10917
# Poissons Ratio (z) = 0.31470 0.15299
#
# Static dielectric constant tensor:
#      x y z
#    x 1.687280 0.000000 0.000000 
#    y 0.000000 1.774300 0.000000 
#    z 0.000000 0.000000 1.687430 
# 
# From -- ./inp_files/25177.got.cif
#   From: 2010.05.17/outbox.cif.g08.bks.cpg/sg44_13_cif.got.tgz:25177.got - 2010.06.03 19:37:08.
