data_PCOD9374362
_publ_section_title
;
Structure prediction by ZEFSAII (Michael W. Deem and Ramdas Pophale) SiO2 
 PCOD9374362
Probable space group: I M M 2
;
_chemical_formula_sum "Si O2"
_cell_formula_units_Z 58
_cell_length_a 20.054825
_cell_length_b 7.622215
_cell_length_c 17.976186
_cell_angle_alpha 90.000000
_cell_angle_beta 90.000000
_cell_angle_gamma 90.000000
_cell_volume 2747.879123
_symmetry_space_group_name_H-M "I M M 2"
_symmetry_group_IT_number 44
_symmetry_cell_setting 'orthorhombic'
loop_
_space_group_symop_operation_xyz
x,y,z
-x,-y,z
-x,y,z
x,-y,z
1/2+x,1/2+y,1/2+z
1/2-x,1/2-y,1/2+z
1/2-x,1/2+y,1/2+z
1/2+x,1/2-y,1/2+z
loop_
_atom_site_type_symbol
_atom_site_label
_atom_site_fract_x
_atom_site_fract_y
_atom_site_fract_z
Si Si1 0.923829 0.710206 0.723540
Si Si2 0.285003 0.790541 0.935723
Si Si3 0.426125 0.287783 0.532451
Si Si4 0.640248 0.288567 0.382386
Si Si5 0.115578 0.706544 0.298819
Si Si6 0.000000 0.000000 0.302134
Si Si7 0.808786 0.703209 0.146979
Si Si8 0.330873 0.199280 0.092734
O O1 0.927125 0.500000 0.715446
O O2 0.884489 0.741110 0.800454
O O3 0.882641 0.778682 0.651970
O O4 0.000000 0.776987 0.727753
O O5 0.213385 0.722723 0.907472
O O6 0.338236 0.772938 0.870829
O O7 0.274232 0.000000 0.949353
O O8 0.314900 0.716678 0.012531
O O9 0.500000 0.227688 0.556020
O O10 0.426334 0.500000 0.534847
O O11 0.410246 0.233301 0.447906
O O12 0.366186 0.229874 0.585471
O O13 0.642688 0.500000 0.383364
O O14 0.094802 0.500000 0.294365
O O15 0.159581 0.744938 0.226084
O O16 0.057191 0.845334 0.301299
O O17 0.788978 0.500000 0.147031
O O18 0.741754 0.806542 0.130480
O O19 0.354682 0.000000 0.077941
#
# Coordination Sequence:
#
# PCOD9374362 Si02
#       8
#     8   8   8   8   8   2   8   8
#     4  10  22  38  58  90 125 158 203 252 308 376
#     4   9  18  39  65  89 120 158 206 268 317 371
#     4  10  21  35  57  87 120 159 205 250 296 373
#     4  10  19  37  63  88 118 160 206 249 309 374
#     4  10  24  43  64  94 129 168 219 267 324 388
#     4  12  26  44  68  94 124 180 210 276 324 386
#     4  11  23  38  59  90 125 161 200 259 320 376
#     4  10  20  39  66  90 118 162 212 257 311 379
#
# _framework density 21.107187
#
# number of rings (size 3 to 8) (size 9 to 14) (size 15 to 20)
#    0.000    1.931    1.379    1.862    2.897    3.310 
#    3.724    0.000    0.000    0.000    0.000    0.000 
#    0.000    0.000    0.000    0.000    0.000    0.000 
#
# Total GULP energy -161677.056692 kJ/mol
# GULP energy per Si atom -5575.070920 kJ/mol
# Density = 2.105915 g / cm^3
# Si number density = 21.107187 Si / 1000 Ang^3
#
#
#
# Elastic Constant Matrix: (Units=GPa)
#
#
# Indices 1 2 3 4 5 6 
#
# 1 188.7586 -2.0480 30.4857 0.0000 0.0000 0.0000
# 2 -2.0480 52.5719 23.7816 0.0000 0.0000 0.0000
# 3 30.4857 23.7816 185.5029 0.0000 0.0000 0.0000
# 4 0.0000 0.0000 0.0000 20.4471 0.0000 0.0000
# 5 0.0000 0.0000 0.0000 0.0000 11.1611 0.0000
# 6 0.0000 0.0000 0.0000 0.0000 0.0000 -21.6738
#
#
#
# Elastic Compliance Matrix: (Units=1/GPa)
#
#
# Indices 1 2 3 4 5 6 
#
# 1 0.005464 0.000657 -0.000982 0.000000 0.000000 0.000000
# 2 0.000657 0.020272 -0.002707 0.000000 0.000000 0.000000
# 3 -0.000982 -0.002707 0.005899 0.000000 0.000000 0.000000
# 4 0.000000 0.000000 0.000000 0.048907 0.000000 0.000000
# 5 0.000000 0.000000 0.000000 0.000000 0.089597 0.000000
# 6 0.000000 0.000000 0.000000 0.000000 0.000000 -0.046139
#
#
# Mechanical properties :
#
#
# Convention : Reuss Voigt Hill
#
# Bulk Modulus (GPa) = 39.10734 59.03025 49.06880
# Shear Modulus (GPa) = 36.07865 26.96116 31.51990
#
# Velocity S-wave (km/s) = 4.13886 3.57787 3.86855
# Velocity P-wave (km/s) = 6.43494 6.71534 6.57664
#
# Compressibility (1/GPa) = 0.02557065
#
# Stress axis : x y z
#
# Youngs Moduli (GPa) = 183.03222 49.33000 169.51532
#
# Poissons Ratio (x) = -0.03242 0.16648
# Poissons Ratio (y) = -0.12027 0.45885
# Poissons Ratio (z) = 0.17976 0.13353
#
# Static dielectric constant tensor:
#      x y z
#    x 1.732810 0.000000 0.000000 
#    y 0.000000 1.789010 0.000000 
#    z 0.000000 0.000000 1.750240 
# 
# From -- ./inp_files/22125.got.cif
#   From: 2010.05.17/outbox.cif.g08.bks.cpg/sg44_12_cif.got.tgz:22125.got - 2010.06.03 19:37:08.
