data_PCOD9374468
_publ_section_title
;
Structure prediction by ZEFSAII (Michael W. Deem and Ramdas Pophale) SiO2 
 PCOD9374468
Probable space group: I M M 2
;
_chemical_formula_sum "Si O2"
_cell_formula_units_Z 64
_cell_length_a 9.307705
_cell_length_b 15.811457
_cell_length_c 23.628928
_cell_angle_alpha 90.000000
_cell_angle_beta 90.000000
_cell_angle_gamma 90.000000
_cell_volume 3477.430993
_symmetry_space_group_name_H-M "I M M 2"
_symmetry_group_IT_number 44
_symmetry_cell_setting 'orthorhombic'
loop_
_space_group_symop_operation_xyz
x,y,z
-x,-y,z
-x,y,z
x,-y,z
1/2+x,1/2+y,1/2+z
1/2-x,1/2-y,1/2+z
1/2-x,1/2+y,1/2+z
1/2+x,1/2-y,1/2+z
loop_
_atom_site_type_symbol
_atom_site_label
_atom_site_fract_x
_atom_site_fract_y
_atom_site_fract_z
Si Si1 0.172174 0.597301 0.172910
Si Si2 0.341515 0.399542 0.061404
Si Si3 0.173498 0.230060 0.230871
Si Si4 0.666214 0.633575 0.506256
Si Si5 0.825595 0.904272 0.134788
Si Si6 0.330027 0.905072 0.893463
Si Si7 0.338484 0.173259 0.465859
Si Si8 0.828856 0.255469 0.844018
O O1 0.217438 0.500000 0.186412
O O2 0.237784 0.625185 0.112756
O O3 0.210056 0.672200 0.215977
O O4 0.000000 0.596325 0.168178
O O5 0.500000 0.361674 0.067970
O O6 0.352078 0.500000 0.066113
O O7 0.275047 0.378932 0.001015
O O8 0.217414 0.167256 0.179847
O O9 0.253706 0.208054 0.288633
O O10 0.000000 0.224797 0.237316
O O11 0.500000 0.603696 0.500000
O O12 0.716639 0.614794 0.569855
O O13 0.766294 0.596990 0.457075
O O14 0.663048 0.733753 0.494349
O O15 0.000000 0.902745 0.134385
O O16 0.780514 0.000000 0.149961
O O17 0.500000 0.885585 0.893894
O O18 0.244216 0.834434 0.858880
O O19 0.311460 0.000000 0.870460
O O20 0.500000 0.138450 0.471982
O O21 0.306497 0.187525 0.399979
O O22 0.000000 0.245272 0.836960
#
# Coordination Sequence:
#
# PCOD9374468 Si02
#       8
#     8   8   8   8   8   8   8   8
#     4   9  18  33  53  76 104 139 173 205 250 309
#     4  10  20  32  49  77 107 131 162 208 259 309
#     4  10  20  35  54  75 102 136 176 220 259 301
#     4   9  17  31  53  79 106 135 169 208 249 301
#     4   9  17  30  51  78 105 136 173 211 256 310
#     4  10  20  33  51  78 110 139 167 203 251 307
#     4   9  18  33  52  73  98 131 169 209 257 311
#     4  10  22  38  54  73  98 132 176 218 257 305
#
# _framework density 18.404389999999999
#
# number of rings (size 3 to 8) (size 9 to 14) (size 15 to 20)
#    0.000    2.500    0.000    3.000    0.000    7.750 
#    0.000    2.500    0.000    3.375    0.000    0.000 
#    0.000    0.000    0.000    0.000    0.000    0.000 
#
# Total GULP energy -178404.564292 kJ/mol
# GULP energy per Si atom -5575.142634 kJ/mol
# Density = 1.836250 g / cm^3
# Si number density = 18.404390 Si / 1000 Ang^3
#
#
#
# Elastic Constant Matrix: (Units=GPa)
#
#
# Indices 1 2 3 4 5 6 
#
# 1 20.7084 7.8093 13.9900 0.0000 0.0000 0.0000
# 2 7.8093 30.4658 28.0770 0.0000 0.0000 0.0000
# 3 13.9900 28.0770 83.8555 0.0000 0.0000 0.0000
# 4 0.0000 0.0000 0.0000 10.1564 0.0000 0.0000
# 5 0.0000 0.0000 0.0000 0.0000 28.8138 0.0000
# 6 0.0000 0.0000 0.0000 0.0000 0.0000 15.6099
#
#
#
# Elastic Compliance Matrix: (Units=1/GPa)
#
#
# Indices 1 2 3 4 5 6 
#
# 1 0.055832 -0.008283 -0.006541 0.000000 0.000000 0.000000
# 2 -0.008283 0.048701 -0.014924 0.000000 0.000000 0.000000
# 3 -0.006541 -0.014924 0.018014 0.000000 0.000000 0.000000
# 4 0.000000 0.000000 0.000000 0.098460 0.000000 0.000000
# 5 0.000000 0.000000 0.000000 0.000000 0.034706 0.000000
# 6 0.000000 0.000000 0.000000 0.000000 0.000000 0.064062
#
#
# Mechanical properties :
#
#
# Convention : Reuss Voigt Hill
#
# Bulk Modulus (GPa) = 15.86060 26.08693 20.97376
# Shear Modulus (GPa) = 12.49098 16.59292 14.54195
#
# Velocity S-wave (km/s) = 2.60801 3.00588 2.81398
# Velocity P-wave (km/s) = 4.20779 5.12369 4.68816
#
# Compressibility (1/GPa) = 0.06304930
#
# Stress axis : x y z
#
# Youngs Moduli (GPa) = 17.91075 20.53342 55.51335
#
# Poissons Ratio (x) = 0.17008 0.36313
# Poissons Ratio (y) = 0.14836 0.82851
# Poissons Ratio (z) = 0.11716 0.30645
#
# Static dielectric constant tensor:
#      x y z
#    x 1.633910 0.000000 0.000000 
#    y 0.000000 1.662690 0.000000 
#    z 0.000000 0.000000 1.621910 
# 
# From -- ./inp_files/23285.got.cif
#   From: 2010.05.17/outbox.cif.g08.bks.cpg/sg44_12_cif.got.tgz:23285.got - 2010.06.03 19:37:08.
