data_PCOD9374392
_publ_section_title
;
Structure prediction by ZEFSAII (Michael W. Deem and Ramdas Pophale) SiO2 
 PCOD9374392
Probable space group: I M M 2
;
_chemical_formula_sum "Si O2"
_cell_formula_units_Z 48
_cell_length_a 14.296426
_cell_length_b 7.698237
_cell_length_c 24.664475
_cell_angle_alpha 90.000000
_cell_angle_beta 90.000000
_cell_angle_gamma 90.000000
_cell_volume 2714.504923
_symmetry_space_group_name_H-M "I M M 2"
_symmetry_group_IT_number 44
_symmetry_cell_setting 'orthorhombic'
loop_
_space_group_symop_operation_xyz
x,y,z
-x,-y,z
-x,y,z
x,-y,z
1/2+x,1/2+y,1/2+z
1/2-x,1/2-y,1/2+z
1/2-x,1/2+y,1/2+z
1/2+x,1/2-y,1/2+z
loop_
_atom_site_type_symbol
_atom_site_label
_atom_site_fract_x
_atom_site_fract_y
_atom_site_fract_z
Si Si1 0.892711 0.290843 0.990500
Si Si2 0.106232 0.712928 0.200984
Si Si3 0.894081 0.293880 0.661711
Si Si4 0.278263 0.703554 0.267412
Si Si5 0.893579 0.208830 0.867978
Si Si6 0.781755 0.709459 0.094232
O O1 0.895914 0.500000 0.994514
O O2 0.863494 0.246485 0.929377
O O3 0.000000 0.227713 0.998420
O O4 0.823039 0.226999 0.037261
O O5 0.106676 0.500000 0.201456
O O6 0.179506 0.775517 0.246281
O O7 0.149276 0.765336 0.142985
O O8 0.000000 0.769917 0.207935
O O9 0.897167 0.500000 0.670074
O O10 0.848320 0.216280 0.716163
O O11 0.822411 0.259814 0.612551
O O12 0.000000 0.230668 0.652990
O O13 0.262039 0.500000 0.278200
O O14 0.326472 0.778675 0.320895
O O15 0.000000 0.275380 0.861484
O O16 0.897755 0.000000 0.862027
O O17 0.783460 0.500000 0.093328
#
# Coordination Sequence:
#
# PCOD9374392 Si02
#       6
#     8   8   8   8   8   8
#     4   9  17  29  46  68  91 115 146 182 218 258
#     4   8  13  23  42  66  87 107 137 178 217 252
#     4  10  20  31  44  65  91 116 143 180 224 263
#     4   9  17  29  46  66  88 118 152 182 214 257
#     4   9  17  28  42  62  88 117 149 184 221 260
#     4   9  17  29  46  66  87 114 145 177 216 263
#
# _framework density 17.682784000000002
#
# number of rings (size 3 to 8) (size 9 to 14) (size 15 to 20)
#    0.000    3.000    0.000    2.500    0.000    5.333 
#    0.000    1.667    0.000   13.000    0.000    2.333 
#    0.000    0.000    0.000    0.000    0.000    0.000 
#
# Total GULP energy -133751.694729 kJ/mol
# GULP energy per Si atom -5572.987280 kJ/mol
# Density = 1.764254 g / cm^3
# Si number density = 17.682784 Si / 1000 Ang^3
#
#
#
# Elastic Constant Matrix: (Units=GPa)
#
#
# Indices 1 2 3 4 5 6 
#
# 1 159.6512 -2.1353 89.3296 0.0000 0.0000 0.0000
# 2 -2.1353 25.7443 -6.8212 0.0000 0.0000 0.0000
# 3 89.3296 -6.8212 126.5851 0.0000 0.0000 0.0000
# 4 0.0000 0.0000 0.0000 18.5825 0.0000 0.0000
# 5 0.0000 0.0000 0.0000 0.0000 24.8434 0.0000
# 6 0.0000 0.0000 0.0000 0.0000 0.0000 -29.8034
#
#
#
# Elastic Compliance Matrix: (Units=1/GPa)
#
#
# Indices 1 2 3 4 5 6 
#
# 1 0.010381 -0.001096 -0.007385 0.000000 0.000000 0.000000
# 2 -0.001096 0.039522 0.002903 0.000000 0.000000 0.000000
# 3 -0.007385 0.002903 0.013268 0.000000 0.000000 0.000000
# 4 0.000000 0.000000 0.000000 0.053814 0.000000 0.000000
# 5 0.000000 0.000000 0.000000 0.000000 0.040252 0.000000
# 6 0.000000 0.000000 0.000000 0.000000 0.000000 -0.033553
#
#
# Mechanical properties :
#
#
# Convention : Reuss Voigt Hill
#
# Bulk Modulus (GPa) = 19.22509 52.52519 35.87514
# Shear Modulus (GPa) = 32.85645 18.16500 25.51072
#
# Velocity S-wave (km/s) = 4.31525 3.20858 3.80239
# Velocity P-wave (km/s) = 5.97698 6.59510 6.29363
#
# Compressibility (1/GPa) = 0.05201535
#
# Stress axis : x y z
#
# Youngs Moduli (GPa) = 96.32974 25.30245 75.37156
#
# Poissons Ratio (x) = 0.02772 0.55660
# Poissons Ratio (y) = 0.10554 -0.21879
# Poissons Ratio (z) = 0.71138 -0.07345
#
# Static dielectric constant tensor:
#      x y z
#    x 1.608820 0.000000 0.000000 
#    y 0.000000 1.663050 0.000000 
#    z 0.000000 0.000000 1.594050 
# 
# From -- ./inp_files/22910.got.cif
#   From: 2010.05.17/outbox.cif.g08.bks.cpg/sg44_12_cif.got.tgz:22910.got - 2010.06.03 19:37:08.
