data_PCOD9374636
_publ_section_title
;
Structure prediction by ZEFSAII (Michael W. Deem and Ramdas Pophale) SiO2 
 PCOD9374636
Probable space group: I M M 2
;
_chemical_formula_sum "Si O2"
_cell_formula_units_Z 64
_cell_length_a 16.740932
_cell_length_b 22.473592
_cell_length_c 9.896059
_cell_angle_alpha 90.000000
_cell_angle_beta 90.000000
_cell_angle_gamma 90.000000
_cell_volume 3723.183149
_symmetry_space_group_name_H-M "I M M 2"
_symmetry_group_IT_number 44
_symmetry_cell_setting 'orthorhombic'
loop_
_space_group_symop_operation_xyz
x,y,z
-x,-y,z
-x,y,z
x,-y,z
1/2+x,1/2+y,1/2+z
1/2-x,1/2-y,1/2+z
1/2-x,1/2+y,1/2+z
1/2+x,1/2-y,1/2+z
loop_
_atom_site_type_symbol
_atom_site_label
_atom_site_fract_x
_atom_site_fract_y
_atom_site_fract_z
Si Si1 0.830025 0.735910 0.433530
Si Si2 0.696952 0.644109 0.524402
Si Si3 0.588519 0.239286 0.211438
Si Si4 0.190071 0.327919 0.924232
Si Si5 0.095889 0.744374 0.137608
Si Si6 0.407404 0.378034 0.282374
Si Si7 0.589875 0.428890 0.995897
Si Si8 0.229422 0.929320 0.292107
O O1 0.770628 0.680193 0.457979
O O2 0.893730 0.737750 0.553390
O O3 0.773654 0.793938 0.449193
O O4 0.871695 0.735500 0.288838
O O5 0.636878 0.695055 0.581798
O O6 0.648977 0.608666 0.408727
O O7 0.725346 0.602702 0.647153
O O8 0.500000 0.216552 0.242001
O O9 0.654347 0.202027 0.289624
O O10 0.593521 0.306746 0.263864
O O11 0.206448 0.396035 0.887791
O O12 0.130845 0.308656 0.043799
O O13 0.000000 0.747628 0.130641
O O14 0.500000 0.396586 0.303968
O O15 0.379781 0.404351 0.139116
O O16 0.500000 0.404845 0.976225
O O17 0.585823 0.500000 0.008840
O O18 0.645812 0.416952 0.869012
O O19 0.241307 0.000000 0.281917
#
# Coordination Sequence:
#
# PCOD9374636 Si02
#       8
#     8   8   8   8   8   8   8   8
#     4  11  20  34  55  84 116 149 179 232 291 343
#     4  11  22  35  54  84 118 149 189 231 283 343
#     4  11  20  33  53  82 113 145 181 225 288 349
#     4  11  20  37  56  82 114 147 184 240 281 338
#     4  11  22  35  57  88 121 148 182 236 299 352
#     4  10  20  33  54  81 114 150 186 225 279 339
#     4   9  20  37  56  80 111 150 194 233 269 324
#     4  11  23  40  59  81 113 156 199 238 279 339
#
# _framework density 17.189592999999999
#
# number of rings (size 3 to 8) (size 9 to 14) (size 15 to 20)
#    0.000    1.375    5.000    2.625    1.750    1.500 
#    0.000    0.000    0.000    1.500    0.000    0.000 
#    0.000    0.000    0.000    0.000    0.000    0.000 
#
# Total GULP energy -178617.904727 kJ/mol
# GULP energy per Si atom -5581.809523 kJ/mol
# Density = 1.715047 g / cm^3
# Si number density = 17.189593 Si / 1000 Ang^3
#
#
#
# Elastic Constant Matrix: (Units=GPa)
#
#
# Indices 1 2 3 4 5 6 
#
# 1 43.4089 10.3862 0.5607 0.0000 0.0000 0.0000
# 2 10.3862 42.2541 3.7221 0.0000 0.0000 0.0000
# 3 0.5607 3.7221 69.9246 0.0000 0.0000 0.0000
# 4 0.0000 0.0000 0.0000 20.7104 0.0000 0.0000
# 5 0.0000 0.0000 0.0000 0.0000 -38.5450 0.0000
# 6 0.0000 0.0000 0.0000 0.0000 0.0000 16.8198
#
#
#
# Elastic Compliance Matrix: (Units=1/GPa)
#
#
# Indices 1 2 3 4 5 6 
#
# 1 0.024477 -0.006028 0.000125 0.000000 0.000000 0.000000
# 2 -0.006028 0.025262 -0.001296 0.000000 0.000000 0.000000
# 3 0.000125 -0.001296 0.014369 0.000000 0.000000 0.000000
# 4 0.000000 0.000000 0.000000 0.048285 0.000000 0.000000
# 5 0.000000 0.000000 0.000000 0.000000 -0.025944 0.000000
# 6 0.000000 0.000000 0.000000 0.000000 0.000000 0.059454
#
#
# Mechanical properties :
#
#
# Convention : Reuss Voigt Hill
#
# Bulk Modulus (GPa) = 20.11674 20.54728 20.33201
# Shear Modulus (GPa) = 28.26896 9.19161 18.73028
#
# Velocity S-wave (km/s) = 4.05969 2.31491 3.30453
# Velocity P-wave (km/s) = 5.80543 4.37314 5.13943
#
# Compressibility (1/GPa) = 0.04970983
#
# Stress axis : x y z
#
# Youngs Moduli (GPa) = 40.85407 39.58494 69.59363
#
# Poissons Ratio (x) = 0.23860 -0.00867
# Poissons Ratio (y) = 0.24625 0.09022
# Poissons Ratio (z) = -0.00509 0.05132
#
# Static dielectric constant tensor:
#      x y z
#    x 1.596210 0.000000 0.000000 
#    y 0.000000 1.576690 0.000000 
#    z 0.000000 0.000000 1.595080 
# 
# From -- ./inp_files/8440.got.cif
#   From: 2010.05.17/outbox.cif.g08.bks.cpg/sg44_5_cif.got.tgz:8440.got - 2010.06.03 19:37:08.
