data_PCOD9374475
_publ_section_title
;
Structure prediction by ZEFSAII (Michael W. Deem and Ramdas Pophale) SiO2 
 PCOD9374475
Probable space group: I M M 2
;
_chemical_formula_sum "Si O2"
_cell_formula_units_Z 40
_cell_length_a 29.754670
_cell_length_b 7.306368
_cell_length_c 7.689835
_cell_angle_alpha 90.000000
_cell_angle_beta 90.000000
_cell_angle_gamma 90.000000
_cell_volume 1671.759123
_symmetry_space_group_name_H-M "I M M 2"
_symmetry_group_IT_number 44
_symmetry_cell_setting 'orthorhombic'
loop_
_space_group_symop_operation_xyz
x,y,z
-x,-y,z
-x,y,z
x,-y,z
1/2+x,1/2+y,1/2+z
1/2-x,1/2-y,1/2+z
1/2-x,1/2+y,1/2+z
1/2+x,1/2-y,1/2+z
loop_
_atom_site_type_symbol
_atom_site_label
_atom_site_fract_x
_atom_site_fract_y
_atom_site_fract_z
Si Si1 0.122662 0.723463 0.500000
Si Si2 0.687524 0.708408 0.509144
Si Si3 0.549933 0.776234 0.281865
Si Si4 0.907607 0.705648 0.119879
Si Si5 0.282735 0.777902 0.898095
O O1 0.123075 0.500000 0.496207
O O2 0.088807 0.783059 0.649554
O O3 0.104298 0.784468 0.309457
O O4 0.175262 0.776940 0.520866
O O5 0.680866 0.500000 0.450941
O O6 0.639334 0.802107 0.511722
O O7 0.701756 0.713901 0.710508
O O8 0.732113 0.789689 0.423381
O O9 0.500000 0.725015 0.223281
O O10 0.558957 0.711386 0.479007
O O11 0.551759 0.000000 0.286117
O O12 0.923583 0.500000 0.156538
O O13 0.280330 0.000000 0.903280
#
# Coordination Sequence:
#
# PCOD9374475 Si02
#       5
#     8   8   8   8   8
#     4   8  15  29  45  65  97 130 160 203 252 302
#     4  10  20  32  50  75 102 135 175 211 252 308
#     4   9  17  28  48  77 100 127 170 215 262 308
#     4   9  18  32  50  71 103 137 166 209 262 308
#     4   9  19  33  48  71 101 135 173 209 257 307
#
# _framework density 23.926891999999999
#
# number of rings (size 3 to 8) (size 9 to 14) (size 15 to 20)
#    0.000    3.000    0.000    1.800    2.800    2.400 
#    0.000    4.000    0.000    0.600    0.000    0.000 
#    0.000    0.000    0.000    0.000    0.000    0.000 
#
# Total GULP energy -111551.939299 kJ/mol
# GULP energy per Si atom -5577.596965 kJ/mol
# Density = 2.387243 g / cm^3
# Si number density = 23.926892 Si / 1000 Ang^3
#
#
#
# Elastic Constant Matrix: (Units=GPa)
#
#
# Indices 1 2 3 4 5 6 
#
# 1 53.4613 -5.4255 26.4551 0.0000 0.0000 0.0000
# 2 -5.4255 101.5399 -3.8407 0.0000 0.0000 0.0000
# 3 26.4551 -3.8407 69.5980 0.0000 0.0000 0.0000
# 4 0.0000 0.0000 0.0000 -2.1710 0.0000 0.0000
# 5 0.0000 0.0000 0.0000 0.0000 43.8455 0.0000
# 6 0.0000 0.0000 0.0000 0.0000 0.0000 0.8590
#
#
#
# Elastic Compliance Matrix: (Units=1/GPa)
#
#
# Indices 1 2 3 4 5 6 
#
# 1 0.023121 0.000905 -0.008739 0.000000 0.000000 0.000000
# 2 0.000905 0.009904 0.000203 0.000000 0.000000 0.000000
# 3 -0.008739 0.000203 0.017701 0.000000 0.000000 0.000000
# 4 0.000000 0.000000 0.000000 -0.460616 0.000000 0.000000
# 5 0.000000 0.000000 0.000000 0.000000 0.022807 0.000000
# 6 0.000000 0.000000 0.000000 0.000000 0.000000 1.164131
#
#
# Mechanical properties :
#
#
# Convention : Reuss Voigt Hill
#
# Bulk Modulus (GPa) = 28.19744 28.77522 28.48633
# Shear Modulus (GPa) = 6.21788 22.33407 14.27597
#
# Velocity S-wave (km/s) = 1.61380 3.05852 2.44529
# Velocity P-wave (km/s) = 3.90933 4.95229 4.46139
#
# Compressibility (1/GPa) = 0.03546422
#
# Stress axis : x y z
#
# Youngs Moduli (GPa) = 43.25015 100.96566 56.49353
#
# Poissons Ratio (x) = -0.09136 0.49369
# Poissons Ratio (y) = -0.03914 -0.01145
# Poissons Ratio (z) = 0.37795 -0.02046
#
# Static dielectric constant tensor:
#      x y z
#    x 1.929920 0.000000 0.000000 
#    y 0.000000 1.923740 0.000000 
#    z 0.000000 0.000000 1.905840 
# 
# From -- ./inp_files/4428.got.cif
#   From: 2010.05.17/outbox.cif.g08.bks.cpg/sg44_3_cif.got.tgz:4428.got - 2010.06.03 19:37:08.
