data_PCOD9374621
_publ_section_title
;
Structure prediction by ZEFSAII (Michael W. Deem and Ramdas Pophale) SiO2 
 PCOD9374621
Probable space group: I M M 2
;
_chemical_formula_sum "Si O2"
_cell_formula_units_Z 64
_cell_length_a 9.283720
_cell_length_b 24.827682
_cell_length_c 13.973464
_cell_angle_alpha 90.000000
_cell_angle_beta 90.000000
_cell_angle_gamma 90.000000
_cell_volume 3220.789102
_symmetry_space_group_name_H-M "I M M 2"
_symmetry_group_IT_number 44
_symmetry_cell_setting 'orthorhombic'
loop_
_space_group_symop_operation_xyz
x,y,z
-x,-y,z
-x,y,z
x,-y,z
1/2+x,1/2+y,1/2+z
1/2-x,1/2-y,1/2+z
1/2-x,1/2+y,1/2+z
1/2+x,1/2-y,1/2+z
loop_
_atom_site_type_symbol
_atom_site_label
_atom_site_fract_x
_atom_site_fract_y
_atom_site_fract_z
Si Si1 0.174335 0.441713 0.705440
Si Si2 0.665353 0.161798 0.530614
Si Si3 0.329685 0.381969 0.313241
Si Si4 0.328721 0.439197 0.118964
Si Si5 0.334679 0.772803 0.799577
Si Si6 0.335822 0.232701 0.032891
Si Si7 0.172186 0.612187 0.511846
Si Si8 0.332732 0.832982 0.299968
O O1 0.229630 0.500000 0.736348
O O2 0.201679 0.431166 0.593533
O O3 0.226809 0.389611 0.762073
O O4 0.000000 0.442091 0.717097
O O5 0.500000 0.158638 0.561527
O O6 0.749009 0.108776 0.564190
O O7 0.737212 0.217801 0.564326
O O8 0.668846 0.164490 0.415096
O O9 0.500000 0.372335 0.325264
O O10 0.308795 0.426586 0.231702
O O11 0.252938 0.327015 0.278523
O O12 0.257918 0.396406 0.414363
O O13 0.500000 0.435601 0.099904
O O14 0.280245 0.500000 0.095857
O O15 0.500000 0.776000 0.768194
O O16 0.255239 0.718898 0.766345
O O17 0.336082 0.768473 0.916209
O O18 0.500000 0.242226 0.064600
O O19 0.292003 0.171367 0.055368
O O20 0.000000 0.613416 0.491877
O O21 0.500000 0.827346 0.269701
#
# Coordination Sequence:
#
# PCOD9374621 Si02
#       8
#     8   8   8   8   8   8   8   8
#     4   9  18  33  53  77 106 142 182 217 252 304
#     4  10  20  33  53  81 108 133 168 219 268 306
#     4  10  20  35  56  79 104 135 171 215 266 315
#     4  10  23  41  56  72  99 139 183 218 257 318
#     4   9  17  31  53  81 110 137 169 211 260 314
#     4   8  15  29  49  74 106 139 168 203 253 315
#     4   9  18  33  54  80 108 139 175 213 256 308
#     4   9  18  33  54  81 111 141 174 213 258 308
#
# _framework density 19.870908
#
# number of rings (size 3 to 8) (size 9 to 14) (size 15 to 20)
#    0.000    2.750    0.000    1.875    0.000    6.750 
#    0.000    4.375    0.000    1.125    0.000    0.000 
#    0.000    0.000    0.000    0.000    0.000    0.000 
#
# Total GULP energy -178639.076921 kJ/mol
# GULP energy per Si atom -5582.471154 kJ/mol
# Density = 1.982568 g / cm^3
# Si number density = 19.870908 Si / 1000 Ang^3
#
#
#
# Elastic Constant Matrix: (Units=GPa)
#
#
# Indices 1 2 3 4 5 6 
#
# 1 57.4820 30.2277 11.9044 0.0000 0.0000 0.0000
# 2 30.2277 105.6496 7.4828 0.0000 0.0000 0.0000
# 3 11.9044 7.4828 36.1649 0.0000 0.0000 0.0000
# 4 0.0000 0.0000 0.0000 20.2578 0.0000 0.0000
# 5 0.0000 0.0000 0.0000 0.0000 20.2638 0.0000
# 6 0.0000 0.0000 0.0000 0.0000 0.0000 18.7311
#
#
#
# Elastic Compliance Matrix: (Units=1/GPa)
#
#
# Indices 1 2 3 4 5 6 
#
# 1 0.021665 -0.005778 -0.005936 0.000000 0.000000 0.000000
# 2 -0.005778 0.011147 -0.000404 0.000000 0.000000 0.000000
# 3 -0.005936 -0.000404 0.029689 0.000000 0.000000 0.000000
# 4 0.000000 0.000000 0.000000 0.049364 0.000000 0.000000
# 5 0.000000 0.000000 0.000000 0.000000 0.049349 0.000000
# 6 0.000000 0.000000 0.000000 0.000000 0.000000 0.053387
#
#
# Mechanical properties :
#
#
# Convention : Reuss Voigt Hill
#
# Bulk Modulus (GPa) = 26.13445 33.16959 29.65202
# Shear Modulus (GPa) = 19.87348 21.82930 20.85139
#
# Velocity S-wave (km/s) = 3.16591 3.31804 3.24287
# Velocity P-wave (km/s) = 5.15215 5.60428 5.38297
#
# Compressibility (1/GPa) = 0.03826366
#
# Stress axis : x y z
#
# Youngs Moduli (GPa) = 46.15841 89.70956 33.68280
#
# Poissons Ratio (x) = 0.51835 0.19993
# Poissons Ratio (y) = 0.26671 0.01362
# Poissons Ratio (z) = 0.27399 0.03628
#
# Static dielectric constant tensor:
#      x y z
#    x 1.672200 0.000000 0.000000 
#    y 0.000000 1.689380 0.000000 
#    z 0.000000 0.000000 1.741230 
# 
# From -- ./inp_files/16800.got.cif
#   From: 2010.05.17/outbox.cif.g08.bks.cpg/sg44_9_cif.got.tgz:16800.got - 2010.06.03 19:37:08.
