data_PCOD9374783
_publ_section_title
;
Structure prediction by ZEFSAII (Michael W. Deem and Ramdas Pophale) SiO2 
 PCOD9374783
Probable space group: I M M 2
;
_chemical_formula_sum "Si O2"
_cell_formula_units_Z 48
_cell_length_a 14.115625
_cell_length_b 20.435500
_cell_length_c 8.716971
_cell_angle_alpha 90.000000
_cell_angle_beta 90.000000
_cell_angle_gamma 90.000000
_cell_volume 2514.496188
_symmetry_space_group_name_H-M "I M M 2"
_symmetry_group_IT_number 44
_symmetry_cell_setting 'orthorhombic'
loop_
_space_group_symop_operation_xyz
x,y,z
-x,-y,z
-x,y,z
x,-y,z
1/2+x,1/2+y,1/2+z
1/2-x,1/2-y,1/2+z
1/2-x,1/2+y,1/2+z
1/2+x,1/2-y,1/2+z
loop_
_atom_site_type_symbol
_atom_site_label
_atom_site_fract_x
_atom_site_fract_y
_atom_site_fract_z
Si Si1 0.612720 0.426500 0.204880
Si Si2 0.250464 0.423372 0.489450
Si Si3 0.890385 0.568629 0.927174
Si Si4 0.388814 0.135161 0.741515
Si Si5 0.778415 0.323848 0.748166
Si Si6 0.283312 0.301520 0.076029
O O1 0.500000 0.419262 0.213583
O O2 0.633697 0.500000 0.144122
O O3 0.662168 0.422392 0.370850
O O4 0.659172 0.367572 0.110610
O O5 0.233023 0.500000 0.529423
O O6 0.161589 0.392898 0.393555
O O7 0.270600 0.373655 0.628804
O O8 0.842762 0.500000 0.886471
O O9 0.850617 0.629209 0.835843
O O10 0.000000 0.565326 0.888910
O O11 0.884210 0.579497 0.109487
O O12 0.500000 0.153006 0.761502
O O13 0.319868 0.188542 0.659257
O O14 0.822483 0.263782 0.654286
O O15 0.721901 0.294771 0.893409
#
# Coordination Sequence:
#
# PCOD9374783 Si02
#       6
#     8   8   8   8   8   8
#     4   9  19  38  62  84 107 139 180 225 274 326
#     4  10  20  34  56  85 113 143 179 221 270 324
#     4   9  18  33  55  84 115 147 181 217 265 325
#     4   9  18  34  57  84 114 145 177 217 267 325
#     4  11  22  37  54  77 111 147 184 227 272 320
#     4  10  21  37  57  80 109 145 185 227 271 321
#
# _framework density 19.089312
#
# number of rings (size 3 to 8) (size 9 to 14) (size 15 to 20)
#    0.000    2.333    0.000    3.000    0.000    7.000 
#    0.000    7.500    0.000    2.000    0.000    0.000 
#    0.000    0.000    0.000    0.000    0.000    0.000 
#
# Total GULP energy -133624.132030 kJ/mol
# GULP energy per Si atom -5567.672168 kJ/mol
# Density = 1.904586 g / cm^3
# Si number density = 19.089312 Si / 1000 Ang^3
#
#
#
# Elastic Constant Matrix: (Units=GPa)
#
#
# Indices 1 2 3 4 5 6 
#
# 1 68.9574 15.3181 17.0966 0.0000 0.0000 0.0000
# 2 15.3181 110.6616 59.9436 0.0000 0.0000 0.0000
# 3 17.0966 59.9436 110.2010 0.0000 0.0000 0.0000
# 4 0.0000 0.0000 0.0000 14.5600 0.0000 0.0000
# 5 0.0000 0.0000 0.0000 0.0000 10.9777 0.0000
# 6 0.0000 0.0000 0.0000 0.0000 0.0000 -11.7896
#
#
#
# Elastic Compliance Matrix: (Units=1/GPa)
#
#
# Indices 1 2 3 4 5 6 
#
# 1 0.015188 -0.001171 -0.001719 0.000000 0.000000 0.000000
# 2 -0.001171 0.012902 -0.006836 0.000000 0.000000 0.000000
# 3 -0.001719 -0.006836 0.013060 0.000000 0.000000 0.000000
# 4 0.000000 0.000000 0.000000 0.068681 0.000000 0.000000
# 5 0.000000 0.000000 0.000000 0.000000 0.091093 0.000000
# 6 0.000000 0.000000 0.000000 0.000000 0.000000 -0.084820
#
#
# Mechanical properties :
#
#
# Convention : Reuss Voigt Hill
#
# Bulk Modulus (GPa) = 46.09073 52.72629 49.40851
# Shear Modulus (GPa) = 35.01665 15.91373 25.46519
#
# Velocity S-wave (km/s) = 4.28759 2.89043 3.65636
# Velocity P-wave (km/s) = 6.97914 6.23059 6.61546
#
# Compressibility (1/GPa) = 0.02169634
#
# Stress axis : x y z
#
# Youngs Moduli (GPa) = 65.84095 77.50911 76.57216
#
# Poissons Ratio (x) = 0.09077 0.13165
# Poissons Ratio (y) = 0.07711 0.52346
# Poissons Ratio (z) = 0.11320 0.52987
#
# Static dielectric constant tensor:
#      x y z
#    x 1.667760 0.000000 0.000000 
#    y 0.000000 1.724090 0.000000 
#    z 0.000000 0.000000 1.684560 
# 
# From -- ./inp_files/7267.got.cif
#   From: 2010.05.17/outbox.cif.g08.bks.cpg/sg44_4_cif.got.tgz:7267.got - 2010.06.03 19:37:08.
