data_PCOD9374209
_publ_section_title
;
Structure prediction by ZEFSAII (Michael W. Deem and Ramdas Pophale) SiO2 
 PCOD9374209
Probable space group: I M M 2
;
_chemical_formula_sum "Si O2"
_cell_formula_units_Z 56
_cell_length_a 15.316981
_cell_length_b 22.874079
_cell_length_c 8.913076
_cell_angle_alpha 90.000000
_cell_angle_beta 90.000000
_cell_angle_gamma 90.000000
_cell_volume 3122.801649
_symmetry_space_group_name_H-M "I M M 2"
_symmetry_group_IT_number 44
_symmetry_cell_setting 'orthorhombic'
loop_
_space_group_symop_operation_xyz
x,y,z
-x,-y,z
-x,y,z
x,-y,z
1/2+x,1/2+y,1/2+z
1/2-x,1/2-y,1/2+z
1/2-x,1/2+y,1/2+z
1/2+x,1/2-y,1/2+z
loop_
_atom_site_type_symbol
_atom_site_label
_atom_site_fract_x
_atom_site_fract_y
_atom_site_fract_z
Si Si1 0.218827 0.155709 0.421930
Si Si2 0.500000 0.931452 0.192126
Si Si3 0.601969 0.767308 0.922149
Si Si4 0.278283 0.569403 0.468025
Si Si5 0.347543 0.857517 0.174001
Si Si6 0.600625 0.430234 0.735474
Si Si7 0.322228 0.134452 0.722668
Si Si8 0.500000 0.930842 0.824094
O O1 0.152745 0.207983 0.458175
O O2 0.280856 0.173678 0.283829
O O3 0.161351 0.102609 0.354984
O O4 0.283209 0.139314 0.557130
O O5 0.418302 0.896666 0.257078
O O6 0.500000 0.000000 0.221682
O O7 0.500000 0.923501 0.007693
O O8 0.500000 0.758146 0.885798
O O9 0.651684 0.802225 0.789604
O O10 0.609501 0.810894 0.063545
O O11 0.271283 0.500000 0.443601
O O12 0.203296 0.593828 0.577216
O O13 0.364871 0.581901 0.565777
O O14 0.256301 0.604789 0.318458
O O15 0.500000 0.412804 0.751593
O O16 0.608075 0.500000 0.755892
O O17 0.411611 0.097540 0.754926
O O18 0.500000 0.000000 0.796587
#
# Coordination Sequence:
#
# PCOD9374209 Si02
#       8
#     8   4   8   8   8   8   8   4
#     4  11  24  35  57  83 117 150 184 233 300 342
#     4  11  18  33  61  85 111 155 197 233 275 337
#     4  11  20  40  60  76 104 151 201 238 279 335
#     4   9  17  32  58  82 106 144 189 229 273 338
#     4  10  19  35  54  82 111 144 190 233 274 340
#     4   9  19  38  58  80 110 148 192 237 282 336
#     4  11  21  37  56  87 118 147 188 236 288 348
#     4  11  20  35  61  87 119 157 187 231 287 349
#
# _framework density 17.932614000000001
#
# number of rings (size 3 to 8) (size 9 to 14) (size 15 to 20)
#    0.000    1.714    4.286    2.143    0.000    2.286 
#    0.000    2.143    0.000    1.714    0.000    0.000 
#    0.000    0.000    0.000    0.000    0.000    0.000 
#
# Total GULP energy -156011.174458 kJ/mol
# GULP energy per Si atom -5571.827659 kJ/mol
# Density = 1.789180 g / cm^3
# Si number density = 17.932614 Si / 1000 Ang^3
#
#
#
# Elastic Constant Matrix: (Units=GPa)
#
#
# Indices 1 2 3 4 5 6 
#
# 1 86.6451 40.2514 36.5460 0.0000 0.0000 0.0000
# 2 40.2514 61.4245 14.1277 0.0000 0.0000 0.0000
# 3 36.5460 14.1277 55.5954 0.0000 -0.0001 0.0000
# 4 0.0000 0.0000 0.0000 12.7280 0.0000 0.0000
# 5 0.0000 0.0000 -0.0001 0.0000 12.7561 0.0000
# 6 0.0000 0.0000 0.0000 0.0000 0.0000 9.0406
#
#
#
# Elastic Compliance Matrix: (Units=1/GPa)
#
#
# Indices 1 2 3 4 5 6 
#
# 1 0.021719 -0.011628 -0.011322 0.000000 0.000000 0.000000
# 2 -0.011628 0.023516 0.001668 0.000000 0.000000 0.000000
# 3 -0.011322 0.001668 0.025006 0.000000 0.000000 0.000000
# 4 0.000000 0.000000 0.000000 0.078567 0.000000 0.000000
# 5 0.000000 0.000000 0.000000 0.000000 0.078394 0.000000
# 6 0.000000 0.000000 0.000000 0.000000 0.000000 0.110612
#
#
# Mechanical properties :
#
#
# Convention : Reuss Voigt Hill
#
# Bulk Modulus (GPa) = 36.13174 42.83503 39.48338
# Shear Modulus (GPa) = 12.83355 14.42094 13.62725
#
# Velocity S-wave (km/s) = 2.67807 2.83887 2.75964
# Velocity P-wave (km/s) = 5.45483 5.88932 5.67623
#
# Compressibility (1/GPa) = 0.02767650
#
# Stress axis : x y z
#
# Youngs Moduli (GPa) = 46.04303 42.52338 39.99064
#
# Poissons Ratio (x) = 0.49447 0.45278
# Poissons Ratio (y) = 0.53540 -0.06670
# Poissons Ratio (z) = 0.52130 -0.07093
#
# Static dielectric constant tensor:
#      x y z
#    x 1.665990 0.000000 0.000000 
#    y 0.000000 1.601180 0.000000 
#    z 0.000000 0.000000 1.615120 
# 
# From -- ./inp_files/7414.got.cif
#   From: 2010.05.17/outbox.cif.g08.bks.cpg/sg44_4_cif.got.tgz:7414.got - 2010.06.03 19:37:08.
