data_PCOD9374391
_publ_section_title
;
Structure prediction by ZEFSAII (Michael W. Deem and Ramdas Pophale) SiO2 
 PCOD9374391
Probable space group: I M M 2
;
_chemical_formula_sum "Si O2"
_cell_formula_units_Z 48
_cell_length_a 7.371189
_cell_length_b 9.805906
_cell_length_c 32.420574
_cell_angle_alpha 90.000000
_cell_angle_beta 90.000000
_cell_angle_gamma 90.000000
_cell_volume 2343.397554
_symmetry_space_group_name_H-M "I M M 2"
_symmetry_group_IT_number 44
_symmetry_cell_setting 'orthorhombic'
loop_
_space_group_symop_operation_xyz
x,y,z
-x,-y,z
-x,y,z
x,-y,z
1/2+x,1/2+y,1/2+z
1/2-x,1/2-y,1/2+z
1/2-x,1/2+y,1/2+z
1/2+x,1/2-y,1/2+z
loop_
_atom_site_type_symbol
_atom_site_label
_atom_site_fract_x
_atom_site_fract_y
_atom_site_fract_z
Si Si1 0.222426 0.157904 0.918240
Si Si2 0.288957 0.665770 0.327759
Si Si3 0.785491 0.346213 0.992604
Si Si4 0.718018 0.844909 0.069833
Si Si5 0.277855 0.657914 0.237986
Si Si6 0.779152 0.656966 0.662471
O O1 0.285089 0.204003 0.872616
O O2 0.000000 0.157600 0.917502
O O3 0.275607 0.000000 0.925131
O O4 0.285860 0.255498 0.954738
O O5 0.500000 0.707241 0.328008
O O6 0.283914 0.500000 0.327223
O O7 0.214736 0.708326 0.283192
O O8 0.712151 0.500000 0.995054
O O9 0.765277 0.262080 0.034740
O O10 0.000000 0.357576 0.985160
O O11 0.500000 0.850917 0.071188
O O12 0.779340 0.805843 0.116017
O O13 0.781616 0.000000 0.060646
O O14 0.500000 0.660467 0.238985
O O15 0.225660 0.500000 0.232973
O O16 0.217403 0.746930 0.199368
O O17 0.727426 0.500000 0.669553
O O18 0.000000 0.661762 0.662586
#
# Coordination Sequence:
#
# PCOD9374391 Si02
#       6
#     8   8   8   8   8   8
#     4   8  13  23  39  55  74 106 143 173 204 244
#     4   7  10  17  30  49  72  99 133 168 197 232
#     4  10  20  31  43  63  90 115 141 177 219 260
#     4   9  18  32  48  64  83 111 148 184 214 250
#     4   8  12  18  30  49  73 101 132 163 196 239
#     4   8  14  24  36  52  76 103 131 166 206 245
#
# _framework density 20.483080999999999
#
# number of rings (size 3 to 8) (size 9 to 14) (size 15 to 20)
#    0.000    3.667    0.000    3.500    0.000    2.000 
#    0.000    2.500    0.000    5.000    0.000    0.000 
#    0.000    1.333    0.000   12.000    0.000   17.667 
#
# Total GULP energy -133741.156440 kJ/mol
# GULP energy per Si atom -5572.548185 kJ/mol
# Density = 2.043646 g / cm^3
# Si number density = 20.483081 Si / 1000 Ang^3
#
#
#
# Elastic Constant Matrix: (Units=GPa)
#
#
# Indices 1 2 3 4 5 6 
#
# 1 71.3603 4.7155 5.3123 0.0000 0.0000 0.0000
# 2 4.7155 116.7962 135.9697 0.0000 0.0000 0.0000
# 3 5.3123 135.9697 245.0602 0.0000 0.0000 0.0000
# 4 0.0000 0.0000 0.0000 35.1811 0.0000 0.0000
# 5 0.0000 0.0000 0.0000 0.0000 4.6309 0.0000
# 6 0.0000 0.0000 0.0000 0.0000 0.0000 -0.0053
#
#
#
# Elastic Compliance Matrix: (Units=1/GPa)
#
#
# Indices 1 2 3 4 5 6 
#
# 1 0.014051 -0.000601 0.000029 0.000000 0.000000 0.000000
# 2 -0.000601 0.024207 -0.013418 0.000000 0.000000 0.000003
# 3 0.000029 -0.013418 0.011525 0.000000 0.000000 -0.000001
# 4 0.000000 0.000000 0.000000 0.028424 0.000000 0.000003
# 5 0.000000 0.000000 0.000000 0.000000 0.215940 0.000002
# 6 0.000000 0.000003 -0.000001 0.000003 0.000002**********
#
#
# Mechanical properties :
#
#
# Convention : Reuss Voigt Hill
#
# Bulk Modulus (GPa) = 45.86581 80.57906 63.22243
# Shear Modulus (GPa) = -0.02642 27.10929 13.54143
#
# Velocity S-wave (km/s) = -0.11370 3.64194 2.57398
# Velocity P-wave (km/s) = 4.73534 7.55709 6.30607
#
# Compressibility (1/GPa) = 0.02180273
#
# Stress axis : x y z
#
# Youngs Moduli (GPa) = 71.16953 41.31063 86.76906
#
# Poissons Ratio (x) = 0.02482 -0.00249
# Poissons Ratio (y) = 0.04275 1.16426
# Poissons Ratio (z) = -0.00204 0.55430
#
# Static dielectric constant tensor:
#      x y z
#    x 1.900660 0.000000 0.000000 
#    y 0.000000 1.689440 0.000000 
#    z 0.000000 0.000000 1.743120 
# 
# From -- ./inp_files/27082.got.cif
#   From: 2010.05.17/outbox.cif.g08.bks.cpg/sg44_14_cif.got.tgz:27082.got - 2010.06.03 19:37:08.
