data_PCOD9374128
_publ_section_title
;
Structure prediction by ZEFSAII (Michael W. Deem and Ramdas Pophale) SiO2 
 PCOD9374128
Probable space group: I M M 2
;
_chemical_formula_sum "Si O2"
_cell_formula_units_Z 56
_cell_length_a 19.874953
_cell_length_b 10.135569
_cell_length_c 15.350907
_cell_angle_alpha 90.000000
_cell_angle_beta 90.000000
_cell_angle_gamma 90.000000
_cell_volume 3092.347457
_symmetry_space_group_name_H-M "I M M 2"
_symmetry_group_IT_number 44
_symmetry_cell_setting 'orthorhombic'
loop_
_space_group_symop_operation_xyz
x,y,z
-x,-y,z
-x,y,z
x,-y,z
1/2+x,1/2+y,1/2+z
1/2-x,1/2-y,1/2+z
1/2-x,1/2+y,1/2+z
1/2+x,1/2-y,1/2+z
loop_
_atom_site_type_symbol
_atom_site_label
_atom_site_fract_x
_atom_site_fract_y
_atom_site_fract_z
Si Si1 0.578312 0.347225 0.940990
Si Si2 0.300259 0.843018 0.899323
Si Si3 0.302402 0.653249 0.558064
Si Si4 0.578113 0.146105 0.286845
Si Si5 0.260643 0.851861 0.702275
Si Si6 0.080459 0.148831 0.929355
Si Si7 0.605109 0.355239 0.147068
O O1 0.500000 0.315826 0.921840
O O2 0.590780 0.500000 0.913974
O O3 0.632919 0.246021 0.903517
O O4 0.588727 0.343909 0.045594
O O5 0.265595 0.822458 0.805106
O O6 0.315350 0.000000 0.906317
O O7 0.250736 0.810929 0.980655
O O8 0.289660 0.500000 0.580193
O O9 0.295884 0.745186 0.641413
O O10 0.376289 0.663783 0.516095
O O11 0.500000 0.130712 0.309903
O O12 0.605649 0.242594 0.361071
O O13 0.579048 0.229140 0.198498
O O14 0.608757 0.000000 0.280731
O O15 0.184133 0.854398 0.668410
O O16 0.288575 0.000000 0.689553
O O17 0.000000 0.158883 0.942126
O O18 0.094472 0.000000 0.895708
O O19 0.579097 0.500000 0.176582
#
# Coordination Sequence:
#
# PCOD9374128 Si02
#       7
#     8   8   8   8   8   8   8
#     4  10  21  37  58  83 111 149 197 243 287 339
#     4  10  21  37  57  83 117 153 189 232 288 346
#     4  10  20  36  58  84 112 144 186 235 282 334
#     4  10  20  31  46  75 111 142 176 219 269 327
#     4  10  21  37  58  83 110 145 188 232 282 343
#     4   9  18  34  55  77 106 147 187 223 273 334
#     4  10  19  34  55  78 107 142 183 231 284 340
#
# _framework density 18.109219
#
# number of rings (size 3 to 8) (size 9 to 14) (size 15 to 20)
#    0.000    2.143    1.429    1.714    0.000    6.286 
#    0.000    2.143    0.000    2.571    0.000    0.000 
#    0.000    0.000    0.000    0.000    0.000    0.000 
#
# Total GULP energy -156076.571101 kJ/mol
# GULP energy per Si atom -5574.163254 kJ/mol
# Density = 1.806800 g / cm^3
# Si number density = 18.109219 Si / 1000 Ang^3
#
#
#
# Elastic Constant Matrix: (Units=GPa)
#
#
# Indices 1 2 3 4 5 6 
#
# 1 58.8540 31.6951 7.6822 0.0000 0.0000 0.0000
# 2 31.6951 106.8412 42.0909 0.0000 0.0000 0.0000
# 3 7.6822 42.0909 59.2122 0.0000 0.0000 0.0000
# 4 0.0000 0.0000 0.0000 31.8897 0.0000 0.0000
# 5 0.0000 0.0000 0.0000 0.0000 24.8506 0.0000
# 6 0.0000 0.0000 0.0000 0.0000 0.0000 15.8613
#
#
#
# Elastic Compliance Matrix: (Units=1/GPa)
#
#
# Indices 1 2 3 4 5 6 
#
# 1 0.020446 -0.006973 0.002304 0.000000 0.000000 0.000000
# 2 -0.006973 0.015379 -0.010027 0.000000 0.000000 0.000000
# 3 0.002304 -0.010027 0.023717 0.000000 0.000000 0.000000
# 4 0.000000 0.000000 0.000000 0.031358 0.000000 0.000000
# 5 0.000000 0.000000 0.000000 0.000000 0.040240 0.000000
# 6 0.000000 0.000000 0.000000 0.000000 0.000000 0.063047
#
#
# Mechanical properties :
#
#
# Convention : Reuss Voigt Hill
#
# Bulk Modulus (GPa) = 33.16813 43.09377 38.13095
# Shear Modulus (GPa) = 21.40148 24.08293 22.74221
#
# Velocity S-wave (km/s) = 3.44146 3.65070 3.54762
# Velocity P-wave (km/s) = 5.84354 6.45123 6.15489
#
# Compressibility (1/GPa) = 0.03014943
#
# Stress axis : x y z
#
# Youngs Moduli (GPa) = 48.91000 65.02556 42.16342
#
# Poissons Ratio (x) = 0.45343 -0.09715
# Poissons Ratio (y) = 0.34105 0.42278
# Poissons Ratio (z) = -0.11270 0.65202
#
# Static dielectric constant tensor:
#      x y z
#    x 1.682800 0.000000 0.000000 
#    y 0.000000 1.656730 0.000000 
#    z 0.000000 0.000000 1.603670 
# 
# From -- ./inp_files/16418.got.cif
#   From: 2010.05.17/outbox.cif.g08.bks.cpg/sg44_9_cif.got.tgz:16418.got - 2010.06.03 19:37:08.
