data_PCOD9374051
_publ_section_title
;
Structure prediction by ZEFSAII (Michael W. Deem and Ramdas Pophale) SiO2 
 PCOD9374051
Probable space group: I M M 2
;
_chemical_formula_sum "Si O2"
_cell_formula_units_Z 56
_cell_length_a 7.492383
_cell_length_b 19.387486
_cell_length_c 17.035052
_cell_angle_alpha 90.000000
_cell_angle_beta 90.000000
_cell_angle_gamma 90.000000
_cell_volume 2474.485599
_symmetry_space_group_name_H-M "I M M 2"
_symmetry_group_IT_number 44
_symmetry_cell_setting 'orthorhombic'
loop_
_space_group_symop_operation_xyz
x,y,z
-x,-y,z
-x,y,z
x,-y,z
1/2+x,1/2+y,1/2+z
1/2-x,1/2-y,1/2+z
1/2-x,1/2+y,1/2+z
1/2+x,1/2-y,1/2+z
loop_
_atom_site_type_symbol
_atom_site_label
_atom_site_fract_x
_atom_site_fract_y
_atom_site_fract_z
Si Si1 0.716228 0.919582 0.307410
Si Si2 0.718342 0.791662 0.727923
Si Si3 0.295899 0.343004 0.647902
Si Si4 0.707013 0.077115 0.994521
Si Si5 0.215483 0.291275 0.405767
Si Si6 0.711376 0.146671 0.469300
Si Si7 0.781736 0.421296 0.130952
O O1 0.500000 0.913642 0.304169
O O2 0.789500 0.882245 0.230823
O O3 0.781545 0.885239 0.388084
O O4 0.761591 0.000000 0.306851
O O5 0.500000 0.788236 0.727604
O O6 0.780480 0.732405 0.667935
O O7 0.777391 0.777403 0.816866
O O8 0.770673 0.867037 0.697908
O O9 0.500000 0.333898 0.622342
O O10 0.209739 0.389663 0.581199
O O11 0.500000 0.070536 0.971627
O O12 0.784921 0.000000 0.993751
O O13 0.784321 0.135722 0.937695
O O14 0.263483 0.228554 0.463099
O O15 0.000000 0.293717 0.403904
O O16 0.500000 0.133069 0.469312
O O17 0.779762 0.110353 0.547726
O O18 0.723239 0.500000 0.141473
O O19 0.000000 0.421965 0.130339
#
# Coordination Sequence:
#
# PCOD9374051 Si02
#       7
#     8   8   8   8   8   8   8
#     4  10  20  33  51  77 110 145 179 217 263 318
#     4   9  18  32  51  77 107 136 173 219 263 313
#     4  11  21  35  55  79 109 140 176 222 273 324
#     4  10  22  38  55  77 107 143 183 225 268 316
#     4  10  20  36  56  78 107 143 180 218 264 317
#     4  10  19  33  54  80 109 139 176 218 264 316
#     4   9  17  30  51  79 107 135 171 219 268 309
#
# _framework density 22.630967999999999
#
# number of rings (size 3 to 8) (size 9 to 14) (size 15 to 20)
#    0.000    2.143    1.429    2.143    0.000    6.286 
#    0.000    2.857    0.000    1.286    0.000    0.000 
#    0.000    0.000    0.000    0.000    0.000    0.000 
#
# Total GULP energy -156481.964337 kJ/mol
# GULP energy per Si atom -5588.641583 kJ/mol
# Density = 2.257946 g / cm^3
# Si number density = 22.630968 Si / 1000 Ang^3
#
#
#
# Elastic Constant Matrix: (Units=GPa)
#
#
# Indices 1 2 3 4 5 6 
#
# 1 60.2099 -6.5397 -8.2735 0.0000 0.0000 0.0000
# 2 -6.5397 157.4279 11.0918 0.0000 0.0000 0.0000
# 3 -8.2735 11.0918 34.9636 0.0000 0.0000 0.0000
# 4 0.0000 0.0000 0.0000 27.0186 0.0000 0.0000
# 5 0.0000 0.0000 0.0000 0.0000 5.9461 0.0000
# 6 0.0000 0.0000 0.0000 0.0000 0.0000 14.6725
#
#
#
# Elastic Compliance Matrix: (Units=1/GPa)
#
#
# Indices 1 2 3 4 5 6 
#
# 1 0.017196 0.000437 0.003930 0.000000 0.000000 0.000000
# 2 0.000437 0.006508 -0.001961 0.000000 0.000000 0.000000
# 3 0.003930 -0.001961 0.030153 0.000000 0.000000 0.000000
# 4 0.000000 0.000000 0.000000 0.037011 0.000000 0.000000
# 5 0.000000 0.000000 0.000000 0.000000 0.168179 0.000000
# 6 0.000000 0.000000 0.000000 0.000000 0.000000 0.068155
#
#
# Mechanical properties :
#
#
# Convention : Reuss Voigt Hill
#
# Bulk Modulus (GPa) = 17.04413 27.23984 22.14199
# Shear Modulus (GPa) = 14.62215 26.61561 20.61888
#
# Velocity S-wave (km/s) = 2.54463 3.43311 3.02170
# Velocity P-wave (km/s) = 4.02259 5.27045 4.68822
#
# Compressibility (1/GPa) = 0.05867122
#
# Stress axis : x y z
#
# Youngs Moduli (GPa) = 58.15250 153.64605 33.16373
#
# Poissons Ratio (x) = -0.06721 -0.13035
# Poissons Ratio (y) = -0.02544 0.06504
# Poissons Ratio (z) = -0.22856 0.30133
#
# Static dielectric constant tensor:
#      x y z
#    x 1.879060 0.000000 0.000000 
#    y 0.000000 1.825520 0.000000 
#    z 0.000000 0.000000 1.796320 
# 
# From -- ./inp_files/16479.got.cif
#   From: 2010.05.17/outbox.cif.g08.bks.cpg/sg44_9_cif.got.tgz:16479.got - 2010.06.03 19:37:08.
