data_PCOD9374340
_publ_section_title
;
Structure prediction by ZEFSAII (Michael W. Deem and Ramdas Pophale) SiO2 
 PCOD9374340
Probable space group: I M M 2
;
_chemical_formula_sum "Si O2"
_cell_formula_units_Z 40
_cell_length_a 11.948425
_cell_length_b 8.276501
_cell_length_c 20.584652
_cell_angle_alpha 90.000000
_cell_angle_beta 90.000000
_cell_angle_gamma 90.000000
_cell_volume 2035.639939
_symmetry_space_group_name_H-M "I M M 2"
_symmetry_group_IT_number 44
_symmetry_cell_setting 'orthorhombic'
loop_
_space_group_symop_operation_xyz
x,y,z
-x,-y,z
-x,y,z
x,-y,z
1/2+x,1/2+y,1/2+z
1/2-x,1/2-y,1/2+z
1/2-x,1/2+y,1/2+z
1/2+x,1/2-y,1/2+z
loop_
_atom_site_type_symbol
_atom_site_label
_atom_site_fract_x
_atom_site_fract_y
_atom_site_fract_z
Si Si1 0.127406 0.194087 0.677370
Si Si2 0.872304 0.807410 0.930224
Si Si3 0.000000 0.196064 0.473119
Si Si4 0.246626 0.807399 0.303074
Si Si5 0.727448 0.304401 0.045304
Si Si6 0.000000 0.197415 0.323515
O O1 0.173911 0.237409 0.747694
O O2 0.210103 0.249396 0.619663
O O3 0.000000 0.254586 0.668200
O O4 0.122148 0.000000 0.671969
O O5 0.792702 0.734823 0.874533
O O6 0.000000 0.750081 0.921273
O O7 0.870611 0.000000 0.922634
O O8 0.826828 0.763270 0.001490
O O9 0.887786 0.245531 0.509647
O O10 0.000000 0.248622 0.398817
O O11 0.000000 0.000000 0.473383
O O12 0.118463 0.748792 0.294491
O O13 0.246646 0.000000 0.297134
O O14 0.735222 0.500000 0.043654
O O15 0.000000 0.000000 0.322384
#
# Coordination Sequence:
#
# PCOD9374340 Si02
#       6
#     8   8   4   8   8   4
#     4  10  21  38  60  86 118 152 186 232 288 337
#     4  11  24  40  57  82 118 153 187 234 290 338
#     4   9  14  30  60  88 108 135 180 231 282 336
#     4  11  22  38  61  85 113 152 195 234 279 338
#     4  10  19  36  63  87 110 145 190 233 280 342
#     4   9  18  34  58  84 110 143 184 233 284 334
#
# _framework density 19.649842
#
# number of rings (size 3 to 8) (size 9 to 14) (size 15 to 20)
#    0.000    1.800    3.000    1.800    0.000    5.200 
#    1.800    3.500    0.000    0.000    0.000    0.000 
#    0.000    0.000    0.000    0.000    0.000    0.000 
#
# Total GULP energy -111643.486934 kJ/mol
# GULP energy per Si atom -5582.174347 kJ/mol
# Density = 1.960512 g / cm^3
# Si number density = 19.649842 Si / 1000 Ang^3
#
#
#
# Elastic Constant Matrix: (Units=GPa)
#
#
# Indices 1 2 3 4 5 6 
#
# 1 97.8284 4.4755 16.9047 0.0000 0.0000 0.0000
# 2 4.4755 9.0119 -1.6934 0.0000 0.0000 0.0000
# 3 16.9047 -1.6934 87.9825 0.0000 0.0000 0.0000
# 4 0.0000 0.0000 0.0000 26.4179 0.0000 0.0000
# 5 0.0000 0.0000 0.0000 0.0000 33.8499 0.0000
# 6 0.0000 0.0000 0.0000 0.0000 0.0000 17.2763
#
#
#
# Elastic Compliance Matrix: (Units=1/GPa)
#
#
# Indices 1 2 3 4 5 6 
#
# 1 0.010868 -0.005811 -0.002200 0.000000 0.000000 0.000000
# 2 -0.005811 0.114473 0.003320 0.000000 0.000000 0.000000
# 3 -0.002200 0.003320 0.011852 0.000000 0.000000 0.000000
# 4 0.000000 0.000000 0.000000 0.037853 0.000000 0.000000
# 5 0.000000 0.000000 0.000000 0.000000 0.029542 0.000000
# 6 0.000000 0.000000 0.000000 0.000000 0.000000 0.057883
#
#
# Mechanical properties :
#
#
# Convention : Reuss Voigt Hill
#
# Bulk Modulus (GPa) = 7.82400 26.02183 16.92291
# Shear Modulus (GPa) = 15.90040 27.18454 21.54247
#
# Velocity S-wave (km/s) = 2.84771 3.72351 3.31466
# Velocity P-wave (km/s) = 3.84746 5.63538 4.82496
#
# Compressibility (1/GPa) = 0.12781189
#
# Stress axis : x y z
#
# Youngs Moduli (GPa) = 92.01360 8.73567 84.37049
#
# Poissons Ratio (x) = 0.05076 0.18561
# Poissons Ratio (y) = 0.53465 -0.28008
# Poissons Ratio (z) = 0.20243 -0.02900
#
# Static dielectric constant tensor:
#      x y z
#    x 1.690510 0.000000 0.000000 
#    y 0.000000 1.688800 0.000000 
#    z 0.000000 0.000000 1.661480 
# 
# From -- ./inp_files/22799.got.cif
#   From: 2010.05.17/outbox.cif.g08.bks.cpg/sg44_12_cif.got.tgz:22799.got - 2010.06.03 19:37:08.
