data_PCOD9374790
_publ_section_title
;
Structure prediction by ZEFSAII (Michael W. Deem and Ramdas Pophale) SiO2 
 PCOD9374790
Probable space group: I M M 2
;
_chemical_formula_sum "Si O2"
_cell_formula_units_Z 64
_cell_length_a 28.817584
_cell_length_b 8.531594
_cell_length_c 12.928069
_cell_angle_alpha 90.000000
_cell_angle_beta 90.000000
_cell_angle_gamma 90.000000
_cell_volume 3178.494097
_symmetry_space_group_name_H-M "I M M 2"
_symmetry_group_IT_number 44
_symmetry_cell_setting 'orthorhombic'
loop_
_space_group_symop_operation_xyz
x,y,z
-x,-y,z
-x,y,z
x,-y,z
1/2+x,1/2+y,1/2+z
1/2-x,1/2-y,1/2+z
1/2-x,1/2+y,1/2+z
1/2+x,1/2-y,1/2+z
loop_
_atom_site_type_symbol
_atom_site_label
_atom_site_fract_x
_atom_site_fract_y
_atom_site_fract_z
Si Si1 0.802813 0.814539 0.535960
Si Si2 0.210005 0.817792 0.109829
Si Si3 0.320981 0.819201 0.822340
Si Si4 0.378436 0.816689 0.503738
Si Si5 0.418760 0.313450 0.882670
Si Si6 0.594156 0.689291 0.106836
Si Si7 0.553607 0.309834 0.325936
Si Si8 0.449140 0.315069 0.659222
O O1 0.757804 0.776923 0.602406
O O2 0.794467 0.729900 0.426335
O O3 0.851912 0.763250 0.587538
O O4 0.806935 0.000000 0.517483
O O5 0.190153 0.786605 0.224075
O O6 0.219428 0.000000 0.094411
O O7 0.171035 0.762262 0.027914
O O8 0.373650 0.786010 0.855275
O O9 0.313475 0.000000 0.795629
O O10 0.409461 0.747601 0.410867
O O11 0.409805 0.785462 0.605357
O O12 0.371261 0.000000 0.487703
O O13 0.406786 0.500000 0.885129
O O14 0.450287 0.293232 0.782625
O O15 0.432738 0.272268 0.999767
O O16 0.594283 0.500000 0.115275
O O17 0.570934 0.745612 0.212505
O O18 0.500000 0.260437 0.344521
O O19 0.553773 0.500000 0.328157
O O20 0.500000 0.279747 0.615579
O O21 0.439251 0.500000 0.639884
#
# Coordination Sequence:
#
# PCOD9374790 Si02
#       8
#     8   8   8   8   8   8   8   8
#     4  10  21  39  61  89 123 160 204 256 314 374
#     4  12  24  40  62  88 119 157 205 261 320 378
#     4  11  21  36  58  85 118 157 197 241 299 365
#     4  12  25  40  58  83 117 159 207 258 313 376
#     4   9  17  33  57  84 116 153 193 244 302 356
#     4   8  17  35  60  88 119 156 200 250 301 357
#     4  10  21  39  63  89 122 167 215 261 312 373
#     4  10  20  34  56  86 118 152 192 241 302 367
#
# _framework density 20.13532
#
# number of rings (size 3 to 8) (size 9 to 14) (size 15 to 20)
#    0.000    1.750    1.250    4.875    0.000    3.500 
#    0.000    9.375    0.000    0.000    0.000    1.750 
#    0.000    0.000    0.000    0.000    0.000    0.000 
#
# Total GULP energy -178558.639992 kJ/mol
# GULP energy per Si atom -5579.957500 kJ/mol
# Density = 2.008949 g / cm^3
# Si number density = 20.135320 Si / 1000 Ang^3
#
#
#
# Elastic Constant Matrix: (Units=GPa)
#
#
# Indices 1 2 3 4 5 6 
#
# 1 47.5784 5.1280 17.1545 0.0000 0.0000 0.0000
# 2 5.1280 26.3193 3.0574 0.0000 0.0000 0.0000
# 3 17.1545 3.0574 101.9073 0.0000 0.0000 0.0000
# 4 0.0000 0.0000 0.0000 14.1298 0.0000 0.0000
# 5 0.0000 0.0000 0.0000 0.0000 -52.0208 0.0000
# 6 0.0000 0.0000 0.0000 0.0000 0.0000 16.3666
#
#
#
# Elastic Compliance Matrix: (Units=1/GPa)
#
#
# Indices 1 2 3 4 5 6 
#
# 1 0.022790 -0.004009 -0.003716 0.000000 0.000000 0.000000
# 2 -0.004009 0.038833 -0.000490 0.000000 0.000000 0.000000
# 3 -0.003716 -0.000490 0.010453 0.000000 0.000000 0.000000
# 4 0.000000 0.000000 0.000000 0.070772 0.000000 0.000000
# 5 0.000000 0.000000 0.000000 0.000000 -0.019223 0.000000
# 6 0.000000 0.000000 0.000000 0.000000 0.000000 0.061100
#
#
# Mechanical properties :
#
#
# Convention : Reuss Voigt Hill
#
# Bulk Modulus (GPa) = 17.97078 25.16498 21.56788
# Shear Modulus (GPa) = 22.75794 5.72614 14.24204
#
# Velocity S-wave (km/s) = 3.36557 1.68819 2.66243
# Velocity P-wave (km/s) = 4.90378 4.04043 4.49289
#
# Compressibility (1/GPa) = 0.05564588
#
# Stress axis : x y z
#
# Youngs Moduli (GPa) = 43.87927 25.75137 95.66548
#
# Poissons Ratio (x) = 0.10323 0.35550
# Poissons Ratio (y) = 0.17590 0.04690
# Poissons Ratio (z) = 0.16306 0.01262
#
# Static dielectric constant tensor:
#      x y z
#    x 2.651450 0.000000 0.000000 
#    y 0.000000 1.685370 0.000000 
#    z 0.000000 0.000000 1.739790 
# 
# From -- ./inp_files/15045.got.cif
#   From: 2010.05.17/outbox.cif.g08.bks.cpg/sg44_8_cif.got.tgz:15045.got - 2010.06.03 19:37:08.
