data_PCOD9374751
_publ_section_title
;
Structure prediction by ZEFSAII (Michael W. Deem and Ramdas Pophale) SiO2 
 PCOD9374751
Probable space group: I M M 2
;
_chemical_formula_sum "Si O2"
_cell_formula_units_Z 48
_cell_length_a 9.191458
_cell_length_b 8.006069
_cell_length_c 35.300313
_cell_angle_alpha 90.000000
_cell_angle_beta 90.000000
_cell_angle_gamma 90.000000
_cell_volume 2597.659911
_symmetry_space_group_name_H-M "I M M 2"
_symmetry_group_IT_number 44
_symmetry_cell_setting 'orthorhombic'
loop_
_space_group_symop_operation_xyz
x,y,z
-x,-y,z
-x,y,z
x,-y,z
1/2+x,1/2+y,1/2+z
1/2-x,1/2-y,1/2+z
1/2-x,1/2+y,1/2+z
1/2+x,1/2-y,1/2+z
loop_
_atom_site_type_symbol
_atom_site_label
_atom_site_fract_x
_atom_site_fract_y
_atom_site_fract_z
Si Si1 0.322378 0.000000 0.118660
Si Si2 0.833721 0.301368 0.325294
Si Si3 0.174903 0.185232 0.668864
Si Si4 0.677092 0.000000 0.031759
Si Si5 0.830173 0.802989 0.242900
Si Si6 0.834525 0.701109 0.900493
Si Si7 0.324605 0.305220 0.978206
O O1 0.276011 0.834594 0.141414
O O2 0.273208 0.000000 0.075211
O O3 0.500000 0.000000 0.118299
O O4 0.838284 0.500000 0.320866
O O5 0.776833 0.228516 0.285652
O O6 0.740912 0.259364 0.362038
O O7 0.000000 0.239095 0.330714
O O8 0.242336 0.210870 0.710298
O O9 0.000000 0.195939 0.671825
O O10 0.212104 0.000000 0.654501
O O11 0.500000 0.000000 0.032239
O O12 0.720387 0.168553 0.009431
O O13 0.000000 0.750641 0.242040
O O14 0.822618 0.000000 0.235079
O O15 0.837149 0.500000 0.899484
O O16 0.744390 0.745951 0.938013
O O17 0.000000 0.762714 0.903022
O O18 0.500000 0.300503 0.975124
O O19 0.284514 0.500000 0.986444
#
# Coordination Sequence:
#
# PCOD9374751 Si02
#       7
#     4   8   8   4   8   8   8
#     4   9  18  34  53  81 115 141 177 231 277 323
#     4  10  21  35  52  76 105 138 179 227 272 317
#     4  10  20  34  55  81 110 147 183 219 271 327
#     4   9  18  32  55  83 109 139 181 227 273 325
#     4  10  20  35  56  79 105 141 184 227 273 322
#     4  10  21  36  53  75 105 141 179 220 270 324
#     4   9  18  33  54  79 106 139 180 226 272 320
#
# _framework density 18.478169999999999
#
# number of rings (size 3 to 8) (size 9 to 14) (size 15 to 20)
#    0.000    2.333    0.833    1.500    1.167    4.333 
#    0.000    3.333    0.000    2.000    0.000    2.333 
#    0.000    0.000    0.000    0.000    0.000    0.000 
#
# Total GULP energy -133893.001938 kJ/mol
# GULP energy per Si atom -5578.875081 kJ/mol
# Density = 1.843611 g / cm^3
# Si number density = 18.478170 Si / 1000 Ang^3
#
#
#
# Elastic Constant Matrix: (Units=GPa)
#
#
# Indices 1 2 3 4 5 6 
#
# 1 22.0557 28.6618 32.6364 0.0000 0.0000 0.0000
# 2 28.6618 105.4949 77.3582 0.0000 0.0000 0.0000
# 3 32.6364 77.3582 152.2085 0.0000 0.0000 0.0000
# 4 0.0000 0.0000 0.0000 19.2412 0.0000 0.0000
# 5 0.0000 0.0000 0.0000 0.0000 19.8257 0.0000
# 6 0.0000 0.0000 0.0000 0.0000 0.0000 15.3106
#
#
#
# Elastic Compliance Matrix: (Units=1/GPa)
#
#
# Indices 1 2 3 4 5 6 
#
# 1 0.077793 -0.014194 -0.009466 0.000000 0.000000 0.000000
# 2 -0.014194 0.017700 -0.005953 0.000000 0.000000 0.000000
# 3 -0.009466 -0.005953 0.011625 0.000000 0.000000 0.000000
# 4 0.000000 0.000000 0.000000 0.051972 0.000000 0.000000
# 5 0.000000 0.000000 0.000000 0.000000 0.050440 0.000000
# 6 0.000000 0.000000 0.000000 0.000000 0.000000 0.065314
#
#
# Mechanical properties :
#
#
# Convention : Reuss Voigt Hill
#
# Bulk Modulus (GPa) = 20.88006 61.89689 41.38848
# Shear Modulus (GPa) = 14.28434 20.28235 17.28335
#
# Velocity S-wave (km/s) = 2.78337 3.31666 3.06165
# Velocity P-wave (km/s) = 4.65338 6.94528 5.91147
#
# Compressibility (1/GPa) = 0.04789257
#
# Stress axis : x y z
#
# Youngs Moduli (GPa) = 12.85466 56.49586 86.02113
#
# Poissons Ratio (x) = 0.80189 0.81431
# Poissons Ratio (y) = 0.18246 0.51205
# Poissons Ratio (z) = 0.12169 0.33630
#
# Static dielectric constant tensor:
#      x y z
#    x 1.632320 0.000000 0.000000 
#    y 0.000000 1.660430 0.000000 
#    z 0.000000 0.000000 1.607320 
# 
# From -- ./inp_files/26904.got.cif
#   From: 2010.05.17/outbox.cif.g08.bks.cpg/sg44_14_cif.got.tgz:26904.got - 2010.06.03 19:37:08.
