data_PCOD9374398
_publ_section_title
;
Structure prediction by ZEFSAII (Michael W. Deem and Ramdas Pophale) SiO2 
 PCOD9374398
Probable space group: I M M 2
;
_chemical_formula_sum "Si O2"
_cell_formula_units_Z 48
_cell_length_a 15.355655
_cell_length_b 7.410968
_cell_length_c 18.918386
_cell_angle_alpha 90.000000
_cell_angle_beta 90.000000
_cell_angle_gamma 90.000000
_cell_volume 2152.917394
_symmetry_space_group_name_H-M "I M M 2"
_symmetry_group_IT_number 44
_symmetry_cell_setting 'orthorhombic'
loop_
_space_group_symop_operation_xyz
x,y,z
-x,-y,z
-x,y,z
x,-y,z
1/2+x,1/2+y,1/2+z
1/2-x,1/2-y,1/2+z
1/2-x,1/2+y,1/2+z
1/2+x,1/2-y,1/2+z
loop_
_atom_site_type_symbol
_atom_site_label
_atom_site_fract_x
_atom_site_fract_y
_atom_site_fract_z
Si Si1 0.282833 0.210575 0.988140
Si Si2 0.403650 0.710162 0.278241
Si Si3 0.099194 0.719281 0.208064
Si Si4 0.599907 0.782130 0.115359
Si Si5 0.724047 0.777850 0.833870
Si Si6 0.901502 0.717766 0.046674
O O1 0.306648 0.282926 0.911002
O O2 0.179083 0.223392 0.999267
O O3 0.306491 0.000000 0.986783
O O4 0.333578 0.286186 0.056004
O O5 0.500000 0.790325 0.288080
O O6 0.409415 0.500000 0.297467
O O7 0.381599 0.718402 0.194798
O O8 0.322548 0.785669 0.320684
O O9 0.102081 0.500000 0.207116
O O10 0.164858 0.780392 0.268307
O O11 0.000000 0.771289 0.224628
O O12 0.117635 0.777177 0.127600
O O13 0.500000 0.731775 0.098233
O O14 0.604024 0.000000 0.118447
O O15 0.724035 0.000000 0.833497
O O16 0.902547 0.500000 0.046201
O O17 0.000000 0.777208 0.027751
#
# Coordination Sequence:
#
# PCOD9374398 Si02
#       6
#     8   8   8   8   8   8
#     4  10  20  31  46  71  99 126 154 186 231 282
#     4   9  17  30  49  69  87 115 157 197 229 265
#     4   8  14  26  46  69  89 113 150 193 230 265
#     4   9  18  32  48  68  96 126 155 190 231 275
#     4   9  17  28  43  66  94 120 148 186 230 273
#     4   9  18  33  52  72  93 120 156 195 233 274
#
# _framework density 22.295325999999999
#
# number of rings (size 3 to 8) (size 9 to 14) (size 15 to 20)
#    0.000    3.000    0.000    2.000    0.000    3.667 
#    0.000    5.833    0.000    3.000    0.000    0.000 
#    0.000    0.000    0.000    0.000    0.000    0.000 
#
# Total GULP energy -133979.669821 kJ/mol
# GULP energy per Si atom -5582.486243 kJ/mol
# Density = 2.224458 g / cm^3
# Si number density = 22.295326 Si / 1000 Ang^3
#
#
#
# Elastic Constant Matrix: (Units=GPa)
#
#
# Indices 1 2 3 4 5 6 
#
# 1 42.0162 -6.6735 11.7830 0.0000 0.0000 0.0000
# 2 -6.6735 73.5513 -7.8216 0.0000 0.0000 0.0000
# 3 11.7830 -7.8216 14.7667 0.0000 0.0000 0.0000
# 4 0.0000 0.0000 0.0000 8.2181 0.0000 0.0000
# 5 0.0000 0.0000 0.0000 0.0000 -7.0460 0.0000
# 6 0.0000 0.0000 0.0000 0.0000 0.0000 6.0072
#
#
#
# Elastic Compliance Matrix: (Units=1/GPa)
#
#
# Indices 1 2 3 4 5 6 
#
# 1 0.030664 0.000191 -0.024367 0.000000 0.000000 0.000000
# 2 0.000191 0.014409 0.007479 0.000000 0.000000 0.000000
# 3 -0.024367 0.007479 0.091125 0.000000 0.000000 0.000000
# 4 0.000000 0.000000 0.000000 0.121683 0.000000 0.000000
# 5 0.000000 0.000000 0.000000 0.000000 -0.141925 0.000000
# 6 0.000000 0.000000 0.000000 0.000000 0.000000 0.166468
#
#
# Mechanical properties :
#
#
# Convention : Reuss Voigt Hill
#
# Bulk Modulus (GPa) = 9.72718 13.87890 11.80304
# Shear Modulus (GPa) = 14.28228 10.30561 12.29395
#
# Velocity S-wave (km/s) = 2.53374 2.15229 2.35077
# Velocity P-wave (km/s) = 3.59613 3.52349 3.56000
#
# Compressibility (1/GPa) = 0.10280474
#
# Stress axis : x y z
#
# Youngs Moduli (GPa) = 32.61136 69.40264 10.97394
#
# Poissons Ratio (x) = -0.01326 0.26740
# Poissons Ratio (y) = -0.00623 -0.08208
# Poissons Ratio (z) = 0.79464 -0.51910
#
# Static dielectric constant tensor:
#      x y z
#    x 1.808120 0.000000 0.000000 
#    y 0.000000 1.891170 0.000000 
#    z 0.000000 0.000000 1.794340 
# 
# From -- ./inp_files/16073.got.cif
#   From: 2010.05.17/outbox.cif.g08.bks.cpg/sg44_9_cif.got.tgz:16073.got - 2010.06.03 19:37:08.
