data_PCOD9374610
_publ_section_title
;
Structure prediction by ZEFSAII (Michael W. Deem and Ramdas Pophale) SiO2 
 PCOD9374610
Probable space group: I M M 2
;
_chemical_formula_sum "Si O2"
_cell_formula_units_Z 64
_cell_length_a 28.774755
_cell_length_b 7.614181
_cell_length_c 12.974950
_cell_angle_alpha 90.000000
_cell_angle_beta 90.000000
_cell_angle_gamma 90.000000
_cell_volume 2842.762147
_symmetry_space_group_name_H-M "I M M 2"
_symmetry_group_IT_number 44
_symmetry_cell_setting 'orthorhombic'
loop_
_space_group_symop_operation_xyz
x,y,z
-x,-y,z
-x,y,z
x,-y,z
1/2+x,1/2+y,1/2+z
1/2-x,1/2-y,1/2+z
1/2-x,1/2+y,1/2+z
1/2+x,1/2-y,1/2+z
loop_
_atom_site_type_symbol
_atom_site_label
_atom_site_fract_x
_atom_site_fract_y
_atom_site_fract_z
Si Si1 0.433172 0.701836 0.778240
Si Si2 0.790606 0.710572 0.017281
Si Si3 0.171334 0.287158 0.234330
Si Si4 0.083323 0.204720 0.500790
Si Si5 0.448021 0.205809 0.227098
Si Si6 0.189067 0.707971 0.455804
Si Si7 0.949710 0.786717 0.052033
Si Si8 0.873774 0.702759 0.887259
O O1 0.449028 0.500000 0.783309
O O2 0.378422 0.706761 0.757367
O O3 0.450988 0.777430 0.670464
O O4 0.437886 0.779331 0.893225
O O5 0.796407 0.500000 0.016155
O O6 0.736104 0.747035 0.013523
O O7 0.824308 0.778933 0.925523
O O8 0.809354 0.776476 0.126632
O O9 0.166764 0.500000 0.229969
O O10 0.199527 0.242069 0.336995
O O11 0.065233 0.284010 0.606795
O O12 0.139631 0.216535 0.492503
O O13 0.070895 0.000000 0.503632
O O14 0.500000 0.281007 0.242832
O O15 0.406077 0.282688 0.296867
O O16 0.450576 0.000000 0.255542
O O17 0.181908 0.500000 0.459813
O O18 0.000000 0.745126 0.004050
O O19 0.944684 0.000000 0.053697
O O20 0.907306 0.710422 0.987540
O O21 0.864838 0.500000 0.857676
#
# Coordination Sequence:
#
# PCOD9374610 Si02
#       8
#     8   8   8   8   8   8   8   8
#     4   9  18  33  54  79 107 141 180 225 279 336
#     4  10  20  35  56  82 112 147 191 240 289 345
#     4   9  18  34  54  76 106 141 178 227 281 334
#     4  10  21  38  60  84 113 151 195 241 290 345
#     4  10  22  40  60  84 118 159 202 249 298 350
#     4  10  21  36  56  83 114 150 190 237 293 349
#     4  10  20  33  52  81 114 143 177 227 282 337
#     4  10  21  38  59  82 112 151 194 240 289 345
#
# _framework density 22.513314000000001
#
# number of rings (size 3 to 8) (size 9 to 14) (size 15 to 20)
#    0.000    2.250    1.250    1.125    0.000    5.000 
#    0.000    3.750    0.000    0.000    0.000    0.000 
#    0.000    0.000    0.000    0.000    0.000    0.000 
#
# Total GULP energy -178481.516729 kJ/mol
# GULP energy per Si atom -5577.547398 kJ/mol
# Density = 2.246207 g / cm^3
# Si number density = 22.513314 Si / 1000 Ang^3
#
#
#
# Elastic Constant Matrix: (Units=GPa)
#
#
# Indices 1 2 3 4 5 6 
#
# 1 59.5786 -10.6428 10.9375 0.0000 0.0000 0.0000
# 2 -10.6428 44.7624 -4.3685 0.0000 0.0000 0.0000
# 3 10.9375 -4.3685 100.1136 0.0000 0.0000 0.0000
# 4 0.0000 0.0000 0.0000 14.3200 0.0000 0.0000
# 5 0.0000 0.0000 0.0000 0.0000 50.1072 0.0000
# 6 0.0000 0.0000 0.0000 0.0000 0.0000 -121.4600
#
#
#
# Elastic Compliance Matrix: (Units=1/GPa)
#
#
# Indices 1 2 3 4 5 6 
#
# 1 0.017836 0.004068 -0.001771 0.000000 0.000000 0.000000
# 2 0.004068 0.023364 0.000575 0.000000 0.000000 0.000000
# 3 -0.001771 0.000575 0.010207 0.000000 0.000000 0.000000
# 4 0.000000 0.000000 0.000000 0.069832 0.000000 0.000000
# 5 0.000000 0.000000 0.000000 0.000000 0.019957 0.000000
# 6 0.000000 0.000000 0.000000 0.000000 0.000000 -0.008233
#
#
# Mechanical properties :
#
#
# Convention : Reuss Voigt Hill
#
# Bulk Modulus (GPa) = 17.49754 21.81189 19.65471
# Shear Modulus (GPa) = 34.18336 2.49532 18.33934
#
# Velocity S-wave (km/s) = 3.90084 1.05394 2.85722
# Velocity P-wave (km/s) = 5.29884 3.34522 4.43104
#
# Compressibility (1/GPa) = 0.05715090
#
# Stress axis : x y z
#
# Youngs Moduli (GPa) = 56.06517 42.80178 97.96965
#
# Poissons Ratio (x) = -0.17412 0.17352
# Poissons Ratio (y) = -0.22807 -0.05634
# Poissons Ratio (z) = 0.09930 -0.02461
#
# Static dielectric constant tensor:
#      x y z
#    x 1.842360 0.000000 0.000000 
#    y 0.000000 1.858630 0.000000 
#    z 0.000000 0.000000 1.856870 
# 
# From -- ./inp_files/11495.got.cif
#   From: 2010.05.17/outbox.cif.g08.bks.cpg/sg44_6_cif.got.tgz:11495.got - 2010.06.03 19:37:08.
