data_PCOD9374765
_publ_section_title
;
Structure prediction by ZEFSAII (Michael W. Deem and Ramdas Pophale) SiO2 
 PCOD9374765
Probable space group: I M M 2
;
_chemical_formula_sum "Si O2"
_cell_formula_units_Z 56
_cell_length_a 8.512987
_cell_length_b 22.824160
_cell_length_c 14.874383
_cell_angle_alpha 90.000000
_cell_angle_beta 90.000000
_cell_angle_gamma 90.000000
_cell_volume 2890.119054
_symmetry_space_group_name_H-M "I M M 2"
_symmetry_group_IT_number 44
_symmetry_cell_setting 'orthorhombic'
loop_
_space_group_symop_operation_xyz
x,y,z
-x,-y,z
-x,y,z
x,-y,z
1/2+x,1/2+y,1/2+z
1/2-x,1/2-y,1/2+z
1/2-x,1/2+y,1/2+z
1/2+x,1/2-y,1/2+z
loop_
_atom_site_type_symbol
_atom_site_label
_atom_site_fract_x
_atom_site_fract_y
_atom_site_fract_z
Si Si1 0.810647 0.777248 0.378150
Si Si2 0.312210 0.146196 0.672152
Si Si3 0.687250 0.353458 0.368191
Si Si4 0.189770 0.220075 0.172674
Si Si5 0.312171 0.389847 0.989141
Si Si6 0.688147 0.000000 0.170724
Si Si7 0.190450 0.110097 0.059334
Si Si8 0.188134 0.500000 0.877792
O O1 0.732719 0.713988 0.389900
O O2 0.774156 0.796647 0.275724
O O3 0.758911 0.827675 0.446348
O O4 0.000000 0.770004 0.384310
O O5 0.500000 0.145829 0.666070
O O6 0.263759 0.129931 0.773312
O O7 0.253883 0.213541 0.658160
O O8 0.242520 0.107899 0.592129
O O9 0.500000 0.357186 0.358824
O O10 0.737521 0.390869 0.454835
O O11 0.246512 0.171062 0.104110
O O12 0.000000 0.222067 0.165479
O O13 0.500000 0.391125 0.984884
O O14 0.246842 0.442719 0.930065
O O15 0.748021 0.943203 0.117944
O O16 0.744117 0.000000 0.274265
O O17 0.500000 0.000000 0.171433
O O18 0.000000 0.109697 0.062125
O O19 0.000000 0.500000 0.877452
#
# Coordination Sequence:
#
# PCOD9374765 Si02
#       8
#     8   8   8   8   8   4   8   4
#     4   9  18  32  53  83 117 150 182 222 279 338
#     4  10  20  36  57  82 116 152 185 228 281 335
#     4  10  20  34  55  85 116 147 188 233 277 331
#     4   8  15  30  53  81 111 145 182 217 264 328
#     4  11  22  37  59  85 112 147 191 235 279 333
#     4  11  25  41  58  83 112 141 181 230 274 325
#     4  10  20  36  58  80 108 148 188 227 274 326
#     4  11  25  43  60  83 114 147 183 226 280 335
#
# _framework density 19.376366000000001
#
# number of rings (size 3 to 8) (size 9 to 14) (size 15 to 20)
#    0.000    2.143    0.000    4.286    0.000    5.714 
#    0.000    5.714    0.000    2.571    0.000    0.000 
#    0.000    0.000    0.000    0.000    0.000    0.000 
#
# Total GULP energy -156353.852076 kJ/mol
# GULP energy per Si atom -5584.066146 kJ/mol
# Density = 1.933226 g / cm^3
# Si number density = 19.376366 Si / 1000 Ang^3
#
#
#
# Elastic Constant Matrix: (Units=GPa)
#
#
# Indices 1 2 3 4 5 6 
#
# 1 32.7540 15.8341 31.2094 0.0000 0.0000 0.0000
# 2 15.8341 49.4808 73.3591 0.0000 0.0000 0.0000
# 3 31.2094 73.3591 172.5399 0.0001 0.0000 0.0000
# 4 0.0000 0.0000 0.0001 34.6498 0.0000 0.0000
# 5 0.0000 0.0000 0.0000 0.0000 27.4032 0.0000
# 6 0.0000 0.0000 0.0000 0.0000 0.0000 24.5316
#
#
#
# Elastic Compliance Matrix: (Units=1/GPa)
#
#
# Indices 1 2 3 4 5 6 
#
# 1 0.037384 -0.005242 -0.004533 0.000000 0.000000 0.000000
# 2 -0.005242 0.055408 -0.022610 0.000000 0.000000 0.000000
# 3 -0.004533 -0.022610 0.016229 0.000000 0.000000 0.000000
# 4 0.000000 0.000000 0.000000 0.028860 0.000000 0.000000
# 5 0.000000 0.000000 0.000000 0.000000 0.036492 0.000000
# 6 0.000000 0.000000 0.000000 0.000000 0.000000 0.040764
#
#
# Mechanical properties :
#
#
# Convention : Reuss Voigt Hill
#
# Bulk Modulus (GPa) = 22.59846 55.06444 38.83145
# Shear Modulus (GPa) = 16.96884 26.27508 21.62196
#
# Velocity S-wave (km/s) = 2.96252 3.68644 3.34412
# Velocity P-wave (km/s) = 4.83634 6.82640 5.91566
#
# Compressibility (1/GPa) = 0.04425080
#
# Stress axis : x y z
#
# Youngs Moduli (GPa) = 26.74919 18.04791 61.61882
#
# Poissons Ratio (x) = 0.09461 0.27934
# Poissons Ratio (y) = 0.14022 1.39319
# Poissons Ratio (z) = 0.12126 0.40806
#
# Static dielectric constant tensor:
#      x y z
#    x 1.654370 0.000000 0.000000 
#    y 0.000000 1.656780 0.000000 
#    z 0.000000 0.000000 1.684450 
# 
# From -- ./inp_files/16557.got.cif
#   From: 2010.05.17/outbox.cif.g08.bks.cpg/sg44_9_cif.got.tgz:16557.got - 2010.06.03 19:37:08.
