data_PCOD9374843
_publ_section_title
;
Structure prediction by ZEFSAII (Michael W. Deem and Ramdas Pophale) SiO2 
 PCOD9374843
Probable space group: I M M 2
;
_chemical_formula_sum "Si O2"
_cell_formula_units_Z 64
_cell_length_a 16.408873
_cell_length_b 7.735180
_cell_length_c 23.463350
_cell_angle_alpha 90.000000
_cell_angle_beta 90.000000
_cell_angle_gamma 90.000000
_cell_volume 2978.099454
_symmetry_space_group_name_H-M "I M M 2"
_symmetry_group_IT_number 44
_symmetry_cell_setting 'orthorhombic'
loop_
_space_group_symop_operation_xyz
x,y,z
-x,-y,z
-x,y,z
x,-y,z
1/2+x,1/2+y,1/2+z
1/2-x,1/2-y,1/2+z
1/2-x,1/2+y,1/2+z
1/2+x,1/2-y,1/2+z
loop_
_atom_site_type_symbol
_atom_site_label
_atom_site_fract_x
_atom_site_fract_y
_atom_site_fract_z
Si Si1 0.355313 0.800099 0.576970
Si Si2 0.091580 0.198501 0.378641
Si Si3 0.086240 0.792032 0.197630
Si Si4 0.094746 0.301975 0.505831
Si Si5 0.265535 0.211749 0.232026
Si Si6 0.408873 0.705857 0.450061
Si Si7 0.772163 0.708357 0.856309
Si Si8 0.317333 0.803878 0.112541
O O1 0.411489 0.757821 0.630987
O O2 0.390265 0.768394 0.514316
O O3 0.275048 0.690298 0.589966
O O4 0.331724 0.000000 0.580814
O O5 0.102113 0.201732 0.447009
O O6 0.178532 0.275878 0.359990
O O7 0.000000 0.273016 0.367480
O O8 0.088829 0.000000 0.357476
O O9 0.170956 0.731666 0.225212
O O10 0.000000 0.730596 0.222770
O O11 0.087247 0.000000 0.201557
O O12 0.126753 0.500000 0.496745
O O13 0.135660 0.218409 0.560660
O O14 0.000000 0.315657 0.518217
O O15 0.300894 0.261269 0.293097
O O16 0.312790 0.272762 0.175696
O O17 0.264946 0.000000 0.229023
O O18 0.500000 0.769493 0.432965
O O19 0.412172 0.500000 0.452855
O O20 0.335665 0.747881 0.406243
O O21 0.765412 0.500000 0.857666
O O22 0.350167 0.000000 0.117610
#
# Coordination Sequence:
#
# PCOD9374843 Si02
#       8
#     8   8   8   8   8   8   8   8
#     4  11  21  32  51  79 107 132 164 211 263 313
#     4   9  18  31  48  74 107 137 163 197 247 304
#     4   9  17  31  52  77 106 139 170 200 243 305
#     4   9  17  29  47  71  96 123 159 202 245 293
#     4   8  16  31  50  73  99 129 167 206 244 291
#     4  11  24  40  56  74 100 137 179 222 271 325
#     4  10  20  35  55  78 105 137 175 219 260 300
#     4   9  17  32  52  73 102 137 168 201 249 310
#
# _framework density 21.490214999999999
#
# number of rings (size 3 to 8) (size 9 to 14) (size 15 to 20)
#    0.000    2.500    0.000    3.375    0.000    6.250 
#    0.000    5.625    0.000    2.250    0.000    5.250 
#    0.000    0.000    0.000    0.000    0.000    0.000 
#
# Total GULP energy -178323.705564 kJ/mol
# GULP energy per Si atom -5572.615799 kJ/mol
# Density = 2.144130 g / cm^3
# Si number density = 21.490215 Si / 1000 Ang^3
#
#
#
# Elastic Constant Matrix: (Units=GPa)
#
#
# Indices 1 2 3 4 5 6 
#
# 1 43.3729 -1.0251 44.9901 0.0000 0.0000 0.0000
# 2 -1.0251 49.1448 -0.6301 0.0000 0.0000 0.0000
# 3 44.9901 -0.6301 119.3922 0.0000 0.0000 0.0000
# 4 0.0000 0.0000 0.0000 3.8357 0.0000 0.0000
# 5 0.0000 0.0000 0.0000 0.0000 25.8492 0.0000
# 6 0.0000 0.0000 0.0000 0.0000 0.0000 12.9568
#
#
#
# Elastic Compliance Matrix: (Units=1/GPa)
#
#
# Indices 1 2 3 4 5 6 
#
# 1 0.037869 0.000607 -0.014267 0.000000 0.000000 0.000000
# 2 0.000607 0.020359 -0.000121 0.000000 0.000000 0.000000
# 3 -0.014267 -0.000121 0.013751 0.000000 0.000000 0.000000
# 4 0.000000 0.000000 0.000000 0.260706 0.000000 0.000000
# 5 0.000000 0.000000 0.000000 0.000000 0.038686 0.000000
# 6 0.000000 0.000000 0.000000 0.000000 0.000000 0.077179
#
#
# Mechanical properties :
#
#
# Convention : Reuss Voigt Hill
#
# Bulk Modulus (GPa) = 22.51382 33.17553 27.84467
# Shear Modulus (GPa) = 10.18499 19.76670 14.97584
#
# Velocity S-wave (km/s) = 2.17937 3.03611 2.64269
# Velocity P-wave (km/s) = 4.10267 5.26893 4.72195
#
# Compressibility (1/GPa) = 0.04441716
#
# Stress axis : x y z
#
# Youngs Moduli (GPa) = 26.40680 49.11798 72.72079
#
# Poissons Ratio (x) = -0.02981 1.03750
# Poissons Ratio (y) = -0.01603 0.00882
# Poissons Ratio (z) = 0.37674 0.00596
#
# Static dielectric constant tensor:
#      x y z
#    x 1.816340 0.000000 0.000000 
#    y 0.000000 1.834770 0.000000 
#    z 0.000000 0.000000 1.800140 
# 
# From -- ./inp_files/25073.got.cif
#   From: 2010.05.17/outbox.cif.g08.bks.cpg/sg44_13_cif.got.tgz:25073.got - 2010.06.03 19:37:08.
