data_PCOD9374210
_publ_section_title
;
Structure prediction by ZEFSAII (Michael W. Deem and Ramdas Pophale) SiO2 
 PCOD9374210
Probable space group: I M M 2
;
_chemical_formula_sum "Si O2"
_cell_formula_units_Z 64
_cell_length_a 29.384769
_cell_length_b 7.622840
_cell_length_c 13.472721
_cell_angle_alpha 90.000000
_cell_angle_beta 90.000000
_cell_angle_gamma 90.000000
_cell_volume 3017.827429
_symmetry_space_group_name_H-M "I M M 2"
_symmetry_group_IT_number 44
_symmetry_cell_setting 'orthorhombic'
loop_
_space_group_symop_operation_xyz
x,y,z
-x,-y,z
-x,y,z
x,-y,z
1/2+x,1/2+y,1/2+z
1/2-x,1/2-y,1/2+z
1/2-x,1/2+y,1/2+z
1/2+x,1/2-y,1/2+z
loop_
_atom_site_type_symbol
_atom_site_label
_atom_site_fract_x
_atom_site_fract_y
_atom_site_fract_z
Si Si1 0.693697 0.698119 0.661690
Si Si2 0.114416 0.299163 0.025362
Si Si3 0.146680 0.708091 0.814668
Si Si4 0.250393 0.786331 0.326183
Si Si5 0.552069 0.789620 0.923061
Si Si6 0.220922 0.787884 0.545947
Si Si7 0.379388 0.708233 0.099829
Si Si8 0.946417 0.713002 0.203881
O O1 0.675827 0.500000 0.668224
O O2 0.662013 0.798395 0.585350
O O3 0.705223 0.778319 0.768212
O O4 0.745206 0.698765 0.622148
O O5 0.099263 0.500000 0.008354
O O6 0.079951 0.219734 0.106775
O O7 0.123948 0.220741 0.916268
O O8 0.152396 0.500000 0.831674
O O9 0.198498 0.777601 0.799934
O O10 0.117838 0.730760 0.714233
O O11 0.241529 0.745025 0.439833
O O12 0.249279 0.000000 0.316401
O O13 0.500000 0.725808 0.935497
O O14 0.569421 0.726828 0.814061
O O15 0.549966 0.000000 0.915317
O O16 0.582366 0.750792 0.018940
O O17 0.169430 0.727655 0.559798
O O18 0.222888 0.000000 0.558924
O O19 0.377161 0.500000 0.105246
O O20 0.941129 0.500000 0.202502
O O21 0.000000 0.751388 0.197453
#
# Coordination Sequence:
#
# PCOD9374210 Si02
#       8
#     8   8   8   8   8   8   8   8
#     4  11  21  32  50  75 104 141 182 225 268 318
#     4  10  20  35  56  80 107 144 182 225 275 322
#     4  10  19  35  55  73 107 152 186 219 267 323
#     4   9  18  33  49  67 101 144 179 218 266 314
#     4   9  19  38  62  84 109 140 174 219 274 332
#     4  10  20  36  52  71 104 144 184 222 266 320
#     4  11  23  35  55  83 112 144 182 230 274 319
#     4   8  16  34  60  87 110 133 172 226 274 320
#
# _framework density 21.20731
#
# number of rings (size 3 to 8) (size 9 to 14) (size 15 to 20)
#    0.000    2.250    2.500    1.500    1.750    1.250 
#    0.000    1.875    0.000    3.375    0.000    0.000 
#    0.000    0.000    0.000    0.000    0.000    0.000 
#
# Total GULP energy -178380.012471 kJ/mol
# GULP energy per Si atom -5574.375390 kJ/mol
# Density = 2.115904 g / cm^3
# Si number density = 21.207310 Si / 1000 Ang^3
#
#
#
# Elastic Constant Matrix: (Units=GPa)
#
#
# Indices 1 2 3 4 5 6 
#
# 1 74.3071 -4.0790 55.3050 0.0000 0.0000 0.0000
# 2 -4.0790 41.9362 0.9503 0.0000 0.0000 0.0000
# 3 55.3050 0.9503 144.7315 0.0000 0.0000 0.0000
# 4 0.0000 0.0000 0.0000 1.6491 0.0000 0.0000
# 5 0.0000 0.0000 0.0000 0.0000 39.7159 0.0000
# 6 0.0000 0.0000 0.0000 0.0000 0.0000 13.5346
#
#
#
# Elastic Compliance Matrix: (Units=1/GPa)
#
#
# Indices 1 2 3 4 5 6 
#
# 1 0.018974 0.002010 -0.007264 0.000000 0.000000 0.000000
# 2 0.002010 0.024062 -0.000926 0.000000 0.000000 0.000000
# 3 -0.007264 -0.000926 0.009691 0.000000 0.000000 0.000000
# 4 0.000000 0.000000 0.000000 0.606408 0.000000 0.000000
# 5 0.000000 0.000000 0.000000 0.000000 0.025179 0.000000
# 6 0.000000 0.000000 0.000000 0.000000 0.000000 0.073885
#
#
# Mechanical properties :
#
#
# Convention : Reuss Voigt Hill
#
# Bulk Modulus (GPa) = 24.77194 40.59193 32.68194
# Shear Modulus (GPa) = 6.37743 24.89981 15.63862
#
# Velocity S-wave (km/s) = 1.73601 3.43025 2.71849
# Velocity P-wave (km/s) = 3.96541 5.90516 5.02968
#
# Compressibility (1/GPa) = 0.04036825
#
# Stress axis : x y z
#
# Youngs Moduli (GPa) = 52.70327 41.55883 103.18840
#
# Poissons Ratio (x) = -0.08354 0.74952
# Poissons Ratio (y) = -0.10594 0.09556
# Poissons Ratio (z) = 0.38282 0.03849
#
# Static dielectric constant tensor:
#      x y z
#    x 1.756120 0.000000 0.000000 
#    y 0.000000 1.797090 0.000000 
#    z 0.000000 0.000000 1.821810 
# 
# From -- ./inp_files/15026.got.cif
#   From: 2010.05.17/outbox.cif.g08.bks.cpg/sg44_8_cif.got.tgz:15026.got - 2010.06.03 19:37:08.
