data_PCOD9374647
_publ_section_title
;
Structure prediction by ZEFSAII (Michael W. Deem and Ramdas Pophale) SiO2 
 PCOD9374647
Probable space group: I M M 2
;
_chemical_formula_sum "Si O2"
_cell_formula_units_Z 58
_cell_length_a 7.501846
_cell_length_b 15.044654
_cell_length_c 25.052992
_cell_angle_alpha 90.000000
_cell_angle_beta 90.000000
_cell_angle_gamma 90.000000
_cell_volume 2827.547755
_symmetry_space_group_name_H-M "I M M 2"
_symmetry_group_IT_number 44
_symmetry_cell_setting 'orthorhombic'
loop_
_space_group_symop_operation_xyz
x,y,z
-x,-y,z
-x,y,z
x,-y,z
1/2+x,1/2+y,1/2+z
1/2-x,1/2-y,1/2+z
1/2-x,1/2+y,1/2+z
1/2+x,1/2-y,1/2+z
loop_
_atom_site_type_symbol
_atom_site_label
_atom_site_fract_x
_atom_site_fract_y
_atom_site_fract_z
Si Si1 0.713726 0.398464 0.659970
Si Si2 0.716494 0.903155 0.434629
Si Si3 0.207803 0.287855 0.556951
Si Si4 0.207271 0.096351 0.559730
Si Si5 0.206565 0.148449 0.277036
Si Si6 0.212915 0.765908 0.867525
Si Si7 0.788337 0.399493 0.457240
Si Si8 0.500000 0.000000 0.304940
O O1 0.500000 0.400312 0.655114
O O2 0.777499 0.500000 0.666329
O O3 0.783392 0.354432 0.606377
O O4 0.757364 0.347483 0.714535
O O5 0.500000 0.901238 0.434789
O O6 0.781209 0.900491 0.495298
O O7 0.780381 0.817789 0.402886
O O8 0.768435 0.000000 0.412597
O O9 0.286593 0.192382 0.574297
O O10 0.285233 0.334729 0.503940
O O11 0.000000 0.269656 0.544782
O O12 0.000000 0.094194 0.576455
O O13 0.285798 0.000000 0.575654
O O14 0.221515 0.241285 0.308629
O O15 0.344014 0.078332 0.302350
O O16 0.000000 0.118237 0.279613
O O17 0.264088 0.853828 0.899774
O O18 0.000000 0.763767 0.866557
O O19 0.716906 0.500000 0.460127
O O20 0.000000 0.405379 0.466993
#
# Coordination Sequence:
#
# PCOD9374647 Si02
#       8
#     8   8   8   8   8   8   8   2
#     4  10  22  38  56  83 117 152 194 244 299 355
#     4   9  18  29  46  72 106 141 178 224 276 335
#     4  10  20  33  56  84 113 154 200 242 295 359
#     4   9  17  31  49  74 108 144 183 228 282 344
#     4  11  24  40  60  89 125 164 200 250 307 364
#     4  11  22  35  57  83 116 155 200 247 297 361
#     4  10  21  38  56  81 116 155 200 255 311 366
#     4  12  22  40  64  90 126 164 206 244 300 368
#
# _framework density 20.512474999999998
#
# number of rings (size 3 to 8) (size 9 to 14) (size 15 to 20)
#    0.000    1.931    2.759    1.034    1.931    2.759 
#    0.000    0.000    0.000    0.828    0.000    3.862 
#    0.000    0.000    0.000    0.000    0.000    0.000 
#
# Total GULP energy -161561.368049 kJ/mol
# GULP energy per Si atom -5571.081657 kJ/mol
# Density = 2.046579 g / cm^3
# Si number density = 20.512475 Si / 1000 Ang^3
#
#
#
# Elastic Constant Matrix: (Units=GPa)
#
#
# Indices 1 2 3 4 5 6 
#
# 1 79.9656 10.8845 -4.4801 0.0000 0.0000 0.0000
# 2 10.8845 119.5619 39.0640 0.0000 0.0000 0.0000
# 3 -4.4801 39.0640 79.4205 0.0000 0.0000 0.0000
# 4 0.0000 0.0000 0.0000 24.7913 0.0000 0.0000
# 5 0.0000 0.0000 0.0000 0.0000 14.8452 0.0000
# 6 0.0000 0.0000 0.0000 0.0000 0.0000 15.3323
#
#
#
# Elastic Compliance Matrix: (Units=1/GPa)
#
#
# Indices 1 2 3 4 5 6 
#
# 1 0.012820 -0.001672 0.001546 0.000000 0.000000 0.000000
# 2 -0.001672 0.010183 -0.005103 0.000000 0.000000 0.000000
# 3 0.001546 -0.005103 0.015188 0.000000 0.000000 0.000000
# 4 0.000000 0.000000 0.000000 0.040337 0.000000 0.000000
# 5 0.000000 0.000000 0.000000 0.000000 0.067362 0.000000
# 6 0.000000 0.000000 0.000000 0.000000 0.000000 0.065222
#
#
# Mechanical properties :
#
#
# Convention : Reuss Voigt Hill
#
# Bulk Modulus (GPa) = 36.05920 41.09829 38.57875
# Shear Modulus (GPa) = 21.66234 26.55907 24.11071
#
# Velocity S-wave (km/s) = 3.25323 3.60220 3.43215
# Velocity P-wave (km/s) = 5.63282 6.11395 5.87831
#
# Compressibility (1/GPa) = 0.02773217
#
# Stress axis : x y z
#
# Youngs Moduli (GPa) = 78.00587 98.19888 65.83950
#
# Poissons Ratio (x) = 0.16419 -0.10176
# Poissons Ratio (y) = 0.13043 0.33599
# Poissons Ratio (z) = -0.12056 0.50112
#
# Static dielectric constant tensor:
#      x y z
#    x 1.991570 0.000000 0.000000 
#    y 0.000000 1.774750 0.000000 
#    z 0.000000 0.000000 1.735030 
# 
# From -- ./inp_files/25050.got.cif
#   From: 2010.05.17/outbox.cif.g08.bks.cpg/sg44_13_cif.got.tgz:25050.got - 2010.06.03 19:37:08.
