data_PCOD9374904
_publ_section_title
;
Structure prediction by ZEFSAII (Michael W. Deem and Ramdas Pophale) SiO2 
 PCOD9374904
Probable space group: I M M 2
;
_chemical_formula_sum "Si O2"
_cell_formula_units_Z 56
_cell_length_a 8.732097
_cell_length_b 14.610190
_cell_length_c 23.102058
_cell_angle_alpha 90.000000
_cell_angle_beta 90.000000
_cell_angle_gamma 90.000000
_cell_volume 2947.305028
_symmetry_space_group_name_H-M "I M M 2"
_symmetry_group_IT_number 44
_symmetry_cell_setting 'orthorhombic'
loop_
_space_group_symop_operation_xyz
x,y,z
-x,-y,z
-x,y,z
x,-y,z
1/2+x,1/2+y,1/2+z
1/2-x,1/2-y,1/2+z
1/2-x,1/2+y,1/2+z
1/2+x,1/2-y,1/2+z
loop_
_atom_site_type_symbol
_atom_site_label
_atom_site_fract_x
_atom_site_fract_y
_atom_site_fract_z
Si Si1 0.314140 0.603930 0.593750
Si Si2 0.181786 0.211452 0.421122
Si Si3 0.320740 0.108893 0.530391
Si Si4 0.683926 0.280637 0.703907
Si Si5 0.184797 0.105994 0.960819
Si Si6 0.816250 0.606819 0.811122
Si Si7 0.182910 0.894774 0.657845
O O1 0.500000 0.605294 0.593493
O O2 0.266612 0.500000 0.607700
O O3 0.263228 0.671889 0.643753
O O4 0.267740 0.623981 0.527857
O O5 0.235071 0.165085 0.481160
O O6 0.239106 0.316259 0.422273
O O7 0.258212 0.154963 0.369353
O O8 0.000000 0.207806 0.415827
O O9 0.500000 0.134796 0.530633
O O10 0.252201 0.123551 0.594083
O O11 0.309394 0.000000 0.518004
O O12 0.500000 0.279902 0.705180
O O13 0.746341 0.339563 0.756843
O O14 0.747407 0.178081 0.701857
O O15 0.000000 0.114169 0.957782
O O16 0.223186 0.000000 0.947531
O O17 0.770549 0.500000 0.810101
O O18 0.000000 0.611321 0.808898
O O19 0.000000 0.885830 0.655378
O O20 0.220677 0.000000 0.672505
#
# Coordination Sequence:
#
# PCOD9374904 Si02
#       7
#     8   8   8   8   8   8   8
#     4   8  15  29  52  83 115 146 180 219 268 327
#     4  12  24  37  57  84 115 151 191 238 290 344
#     4  10  20  35  57  85 117 153 193 237 286 341
#     4  11  21  35  59  87 116 151 190 234 283 337
#     4   9  18  35  59  85 115 152 191 229 273 332
#     4  11  25  44  63  83 111 148 190 236 284 338
#     4  10  21  37  57  84 119 155 192 236 284 336
#
# _framework density 19.000409999999999
#
# number of rings (size 3 to 8) (size 9 to 14) (size 15 to 20)
#    0.000    1.857    0.000    5.571    0.000    6.571 
#    0.000    1.429    0.000    6.000    0.000    0.000 
#    0.000    0.000    0.000    0.000    0.000    0.000 
#
# Total GULP energy -156465.155468 kJ/mol
# GULP energy per Si atom -5588.041267 kJ/mol
# Density = 1.895716 g / cm^3
# Si number density = 19.000410 Si / 1000 Ang^3
#
#
#
# Elastic Constant Matrix: (Units=GPa)
#
#
# Indices 1 2 3 4 5 6 
#
# 1 60.9130 50.6046 28.9731 0.0000 0.0000 0.0000
# 2 50.6046 142.8144 79.5900 0.0000 0.0000 0.0000
# 3 28.9731 79.5900 60.1068 0.0000 0.0000 0.0000
# 4 0.0000 0.0000 0.0000 35.3723 0.0000 0.0000
# 5 0.0000 0.0000 0.0000 0.0000 28.9890 0.0000
# 6 0.0000 0.0000 0.0000 0.0000 0.0000 24.9100
#
#
#
# Elastic Compliance Matrix: (Units=1/GPa)
#
#
# Indices 1 2 3 4 5 6 
#
# 1 0.023286 -0.007616 -0.001140 0.000000 0.000000 0.000000
# 2 -0.007616 0.029210 -0.035007 0.000000 0.000000 0.000000
# 3 -0.001140 -0.035007 0.063542 0.000000 0.000000 0.000000
# 4 0.000000 0.000000 0.000000 0.028271 0.000000 0.000000
# 5 0.000000 0.000000 0.000000 0.000000 0.034496 0.000000
# 6 0.000000 0.000000 0.000000 0.000000 0.000000 0.040144
#
#
# Mechanical properties :
#
#
# Convention : Reuss Voigt Hill
#
# Bulk Modulus (GPa) = 35.07420 64.68550 49.87985
# Shear Modulus (GPa) = 15.82382 24.83203 20.32792
#
# Velocity S-wave (km/s) = 2.88898 3.61906 3.27443
# Velocity P-wave (km/s) = 5.44317 7.18203 6.37219
#
# Compressibility (1/GPa) = 0.02851098
#
# Stress axis : x y z
#
# Youngs Moduli (GPa) = 42.94407 34.23471 15.73773
#
# Poissons Ratio (x) = 0.26072 0.01795
# Poissons Ratio (y) = 0.32705 0.55094
# Poissons Ratio (z) = 0.04897 1.19847
#
# Static dielectric constant tensor:
#      x y z
#    x 1.633200 0.000000 0.000000 
#    y 0.000000 1.675910 0.000000 
#    z 0.000000 0.000000 1.633970 
# 
# From -- ./inp_files/23049.got.cif
#   From: 2010.05.17/outbox.cif.g08.bks.cpg/sg44_12_cif.got.tgz:23049.got - 2010.06.03 19:37:08.
