data_PCOD9374147
_publ_section_title
;
Structure prediction by ZEFSAII (Michael W. Deem and Ramdas Pophale) SiO2 
 PCOD9374147
Probable space group: I M M 2
;
_chemical_formula_sum "Si O2"
_cell_formula_units_Z 64
_cell_length_a 33.738088
_cell_length_b 8.378296
_cell_length_c 12.075184
_cell_angle_alpha 90.000000
_cell_angle_beta 90.000000
_cell_angle_gamma 90.000000
_cell_volume 3413.264340
_symmetry_space_group_name_H-M "I M M 2"
_symmetry_group_IT_number 44
_symmetry_cell_setting 'orthorhombic'
loop_
_space_group_symop_operation_xyz
x,y,z
-x,-y,z
-x,y,z
x,-y,z
1/2+x,1/2+y,1/2+z
1/2-x,1/2-y,1/2+z
1/2-x,1/2+y,1/2+z
1/2+x,1/2-y,1/2+z
loop_
_atom_site_type_symbol
_atom_site_label
_atom_site_fract_x
_atom_site_fract_y
_atom_site_fract_z
Si Si1 0.547210 0.685952 0.990030
Si Si2 0.226459 0.686616 0.238275
Si Si3 0.852118 0.693386 0.107095
Si Si4 0.316367 0.681835 0.941217
Si Si5 0.107736 0.311894 0.329114
Si Si6 0.622756 0.195179 0.363641
Si Si7 0.954332 0.692537 0.733528
Si Si8 0.688693 0.812390 0.185059
O O1 0.500000 0.699470 0.984575
O O2 0.558159 0.500000 0.985745
O O3 0.566415 0.776259 0.886849
O O4 0.558767 0.755823 0.110063
O O5 0.233841 0.500000 0.214989
O O6 0.190754 0.743505 0.156667
O O7 0.210245 0.707630 0.362563
O O8 0.266825 0.782525 0.226503
O O9 0.850006 0.500000 0.101202
O O10 0.884664 0.732268 0.201297
O O11 0.864429 0.751509 0.985877
O O12 0.304328 0.500000 0.921576
O O13 0.360683 0.712679 0.899590
O O14 0.314548 0.723067 0.069133
O O15 0.117049 0.500000 0.339290
O O16 0.579255 0.245937 0.320602
O O17 0.656135 0.242285 0.274375
O O18 0.622367 0.000000 0.366682
O O19 0.955261 0.500000 0.735930
O O20 0.000000 0.748556 0.752425
O O21 0.681966 0.000000 0.165855
#
# Coordination Sequence:
#
# PCOD9374147 Si02
#       8
#     8   8   8   8   8   8   8   8
#     4  10  20  33  52  79 111 144 179 223 275 333
#     4  10  21  37  56  78 107 142 185 234 281 333
#     4   8  17  34  54  75 104 142 178 218 273 333
#     4  11  22  37  56  77 106 143 183 225 276 332
#     4  10  19  34  56  79 106 139 179 226 274 328
#     4   9  18  33  53  79 109 142 180 223 275 335
#     4   9  17  31  54  82 110 141 180 227 276 329
#     4  11  22  34  54  82 111 143 183 231 280 335
#
# _framework density 18.750378999999999
#
# number of rings (size 3 to 8) (size 9 to 14) (size 15 to 20)
#    0.000    2.250    0.000    4.125    1.750    1.750 
#    0.000    1.250    0.000    9.000    0.000    1.750 
#    0.000    0.000    0.000    0.000    0.000    0.000 
#
# Total GULP energy -178506.080095 kJ/mol
# GULP energy per Si atom -5578.315003 kJ/mol
# Density = 1.870770 g / cm^3
# Si number density = 18.750379 Si / 1000 Ang^3
#
#
#
# Elastic Constant Matrix: (Units=GPa)
#
#
# Indices 1 2 3 4 5 6 
#
# 1 82.3457 8.0082 67.3005 0.0000 0.0000 0.0000
# 2 8.0082 18.9668 3.5070 0.0000 0.0000 0.0000
# 3 67.3005 3.5070 121.8439 0.0000 0.0000 0.0000
# 4 0.0000 0.0000 0.0000 4.9803 0.0000 0.0000
# 5 0.0000 0.0000 0.0000 0.0000 19.1782 0.0000
# 6 0.0000 0.0000 0.0000 0.0000 0.0000 24.1032
#
#
#
# Elastic Compliance Matrix: (Units=1/GPa)
#
#
# Indices 1 2 3 4 5 6 
#
# 1 0.023138 -0.007446 -0.012566 0.000000 0.000000 0.000000
# 2 -0.007446 0.055402 0.002518 0.000000 0.000000 0.000000
# 3 -0.012566 0.002518 0.015076 0.000000 0.000000 0.000000
# 4 0.000000 0.000000 0.000000 0.200793 0.000000 0.000000
# 5 0.000000 0.000000 0.000000 0.000000 0.052142 0.000000
# 6 0.000000 0.000000 0.000000 0.000000 0.000000 0.041488
#
#
# Mechanical properties :
#
#
# Convention : Reuss Voigt Hill
#
# Bulk Modulus (GPa) = 17.05669 42.30974 29.68322
# Shear Modulus (GPa) = 11.29766 19.27505 15.28636
#
# Velocity S-wave (km/s) = 2.45731 3.20969 2.85837
# Velocity P-wave (km/s) = 4.14338 6.02909 5.17289
#
# Compressibility (1/GPa) = 0.05862802
#
# Stress axis : x y z
#
# Youngs Moduli (GPa) = 43.21854 18.04991 66.33223
#
# Poissons Ratio (x) = 0.13440 0.83354
# Poissons Ratio (y) = 0.32180 -0.16703
# Poissons Ratio (z) = 0.54309 -0.04545
#
# Static dielectric constant tensor:
#      x y z
#    x 1.659680 0.000000 0.000000 
#    y 0.000000 1.641490 0.000000 
#    z 0.000000 0.000000 1.641960 
# 
# From -- ./inp_files/15080.got.cif
#   From: 2010.05.17/outbox.cif.g08.bks.cpg/sg44_8_cif.got.tgz:15080.got - 2010.06.03 19:37:08.
