data_PCOD9374223
_publ_section_title
;
Structure prediction by ZEFSAII (Michael W. Deem and Ramdas Pophale) SiO2 
 PCOD9374223
Probable space group: I M M 2
;
_chemical_formula_sum "Si O2"
_cell_formula_units_Z 64
_cell_length_a 15.786906
_cell_length_b 8.512940
_cell_length_c 23.605233
_cell_angle_alpha 90.000000
_cell_angle_beta 90.000000
_cell_angle_gamma 90.000000
_cell_volume 3172.377691
_symmetry_space_group_name_H-M "I M M 2"
_symmetry_group_IT_number 44
_symmetry_cell_setting 'orthorhombic'
loop_
_space_group_symop_operation_xyz
x,y,z
-x,-y,z
-x,y,z
x,-y,z
1/2+x,1/2+y,1/2+z
1/2-x,1/2-y,1/2+z
1/2-x,1/2+y,1/2+z
1/2+x,1/2-y,1/2+z
loop_
_atom_site_type_symbol
_atom_site_label
_atom_site_fract_x
_atom_site_fract_y
_atom_site_fract_z
Si Si1 0.349676 0.185734 0.166530
Si Si2 0.099198 0.829675 0.233949
Si Si3 0.275631 0.186813 0.382392
Si Si4 0.409517 0.310434 0.050768
Si Si5 0.900982 0.683055 0.349275
Si Si6 0.227795 0.691361 0.006621
Si Si7 0.096637 0.812785 0.787906
Si Si8 0.327889 0.815390 0.627375
O O1 0.406356 0.233875 0.112871
O O2 0.386145 0.231779 0.227369
O O3 0.264404 0.283553 0.154294
O O4 0.332273 0.000000 0.164760
O O5 0.122794 0.707201 0.282657
O O6 0.113065 0.775305 0.170395
O O7 0.000000 0.846512 0.241824
O O8 0.141119 0.000000 0.244316
O O9 0.175034 0.223985 0.378875
O O10 0.303131 0.242263 0.445202
O O11 0.332465 0.262967 0.333410
O O12 0.286324 0.000000 0.378137
O O13 0.500000 0.272609 0.023112
O O14 0.404602 0.500000 0.057268
O O15 0.325353 0.259681 0.017722
O O16 0.896127 0.500000 0.363679
O O17 0.000000 0.733311 0.358487
O O18 0.227349 0.500000 0.006843
O O19 0.176258 0.740807 0.062440
O O20 0.000000 0.773541 0.806283
O O21 0.101430 0.000000 0.779752
O O22 0.346851 0.000000 0.628008
#
# Coordination Sequence:
#
# PCOD9374223 Si02
#       8
#     8   8   8   8   8   8   8   8
#     4  11  21  33  53  82 113 140 171 217 272 325
#     4  10  20  34  53  80 111 138 170 217 271 323
#     4  11  22  38  60  83 110 144 186 236 281 321
#     4   9  17  32  54  79 109 143 176 211 256 316
#     4  10  21  37  57  83 116 152 187 222 267 329
#     4   8  18  35  54  77 103 138 182 222 262 314
#     4  11  24  41  59  79 107 146 189 230 277 335
#     4  10  19  35  57  78 105 141 180 217 260 321
#
# _framework density 20.174143000000001
#
# number of rings (size 3 to 8) (size 9 to 14) (size 15 to 20)
#    0.000    2.000    0.000    4.875    0.000    4.750 
#    0.000    8.125    0.000    3.750    0.000    0.000 
#    0.000    0.000    0.000    0.000    0.000    0.000 
#
# Total GULP energy -178460.751245 kJ/mol
# GULP energy per Si atom -5576.898476 kJ/mol
# Density = 2.012823 g / cm^3
# Si number density = 20.174143 Si / 1000 Ang^3
#
#
#
# Elastic Constant Matrix: (Units=GPa)
#
#
# Indices 1 2 3 4 5 6 
#
# 1 26.6813 -3.1718 9.0491 0.0000 0.0000 0.0000
# 2 -3.1718 26.7156 -4.1069 0.0000 0.0000 0.0000
# 3 9.0491 -4.1069 81.2787 0.0000 0.0000 0.0000
# 4 0.0000 0.0000 0.0000 18.5647 0.0000 0.0000
# 5 0.0000 0.0000 0.0000 0.0000 11.5240 0.0000
# 6 0.0000 0.0000 0.0000 0.0000 0.0000 17.2727
#
#
#
# Elastic Compliance Matrix: (Units=1/GPa)
#
#
# Indices 1 2 3 4 5 6 
#
# 1 0.039377 0.004032 -0.004180 0.000000 0.000000 0.000000
# 2 0.004032 0.038137 0.001478 0.000000 0.000000 0.000000
# 3 -0.004180 0.001478 0.012843 0.000000 0.000000 0.000000
# 4 0.000000 0.000000 0.000000 0.053866 0.000000 0.000000
# 5 0.000000 0.000000 0.000000 0.000000 0.086776 0.000000
# 6 0.000000 0.000000 0.000000 0.000000 0.000000 0.057895
#
#
# Mechanical properties :
#
#
# Convention : Reuss Voigt Hill
#
# Bulk Modulus (GPa) = 10.75063 15.35737 13.05400
# Shear Modulus (GPa) = 15.76098 18.33261 17.04680
#
# Velocity S-wave (km/s) = 2.79811 3.01777 2.91001
# Velocity P-wave (km/s) = 3.97237 4.44651 4.21611
#
# Compressibility (1/GPa) = 0.09301779
#
# Stress axis : x y z
#
# Youngs Moduli (GPa) = 25.39581 26.22103 77.86076
#
# Poissons Ratio (x) = -0.10573 0.32548
# Poissons Ratio (y) = -0.10241 -0.11509
# Poissons Ratio (z) = 0.10616 -0.03876
#
# Static dielectric constant tensor:
#      x y z
#    x 1.791470 0.000000 0.000000 
#    y 0.000000 1.708080 0.000000 
#    z 0.000000 0.000000 1.724820 
# 
# From -- ./inp_files/25778.got.cif
#   From: 2010.05.17/outbox.cif.g08.bks.cpg/sg44_13_cif.got.tgz:25778.got - 2010.06.03 19:37:08.
