data_PCOD9374703
_publ_section_title
;
Structure prediction by ZEFSAII (Michael W. Deem and Ramdas Pophale) SiO2 
 PCOD9374703
Probable space group: I M M 2
;
_chemical_formula_sum "Si O2"
_cell_formula_units_Z 64
_cell_length_a 14.151640
_cell_length_b 8.926924
_cell_length_c 24.774371
_cell_angle_alpha 90.000000
_cell_angle_beta 90.000000
_cell_angle_gamma 90.000000
_cell_volume 3129.761519
_symmetry_space_group_name_H-M "I M M 2"
_symmetry_group_IT_number 44
_symmetry_cell_setting 'orthorhombic'
loop_
_space_group_symop_operation_xyz
x,y,z
-x,-y,z
-x,y,z
x,-y,z
1/2+x,1/2+y,1/2+z
1/2-x,1/2-y,1/2+z
1/2-x,1/2+y,1/2+z
1/2+x,1/2-y,1/2+z
loop_
_atom_site_type_symbol
_atom_site_label
_atom_site_fract_x
_atom_site_fract_y
_atom_site_fract_z
Si Si1 0.610655 0.319688 0.786830
Si Si2 0.103786 0.677786 0.558145
Si Si3 0.889544 0.818756 0.164816
Si Si4 0.388886 0.334291 0.172862
Si Si5 0.768195 0.825549 0.859087
Si Si6 0.105725 0.321320 0.948180
Si Si7 0.113066 0.333719 0.774761
Si Si8 0.187789 0.179250 0.049754
O O1 0.500000 0.285196 0.794613
O O2 0.620477 0.500000 0.788414
O O3 0.636038 0.267439 0.725514
O O4 0.675374 0.247412 0.832620
O O5 0.104456 0.500000 0.571280
O O6 0.111117 0.772428 0.612727
O O7 0.204115 0.707258 0.530484
O O8 0.000000 0.709342 0.532987
O O9 0.829385 0.773069 0.112212
O O10 0.000000 0.779371 0.155546
O O11 0.884786 0.000000 0.166680
O O12 0.500000 0.349154 0.186709
O O13 0.345726 0.500000 0.177768
O O14 0.354208 0.210057 0.214735
O O15 0.812264 0.749270 0.911787
O O16 0.847280 0.791781 0.813810
O O17 0.753901 0.000000 0.868498
O O18 0.111988 0.500000 0.945653
O O19 0.000000 0.277901 0.928923
O O20 0.119837 0.263974 0.008958
O O21 0.148320 0.500000 0.789829
O O22 0.000000 0.339449 0.777660
O O23 0.170748 0.000000 0.047079
#
# Coordination Sequence:
#
# PCOD9374703 Si02
#       8
#     8   8   8   8   8   8   8   8
#     4   9  19  38  63  90 124 165 206 250 299 359
#     4   9  18  32  50  78 118 161 202 241 287 347
#     4   8  15  30  55  87 119 153 197 247 299 357
#     4   9  17  29  46  72 109 150 191 237 288 341
#     4  12  25  39  60  89 119 155 199 250 307 363
#     4  11  25  45  66  89 119 155 198 253 314 375
#     4  10  20  34  53  78 111 152 196 241 292 357
#     4  10  20  35  60  90 119 160 208 253 303 358
#
# _framework density 20.448843
#
# number of rings (size 3 to 8) (size 9 to 14) (size 15 to 20)
#    0.000    2.250    0.000    3.750    1.750    6.000 
#    0.000    1.250    0.000    3.000    0.000    0.000 
#    0.000    0.000    0.000    0.000    0.000    0.000 
#
# Total GULP energy -178456.721147 kJ/mol
# GULP energy per Si atom -5576.772536 kJ/mol
# Density = 2.040230 g / cm^3
# Si number density = 20.448843 Si / 1000 Ang^3
#
#
#
# Elastic Constant Matrix: (Units=GPa)
#
#
# Indices 1 2 3 4 5 6 
#
# 1 131.0143 37.2168 40.6900 0.0000 0.0000 0.0000
# 2 37.2168 39.3699 29.1948 0.0000 0.0000 0.0000
# 3 40.6900 29.1948 77.6168 0.0000 0.0000 0.0000
# 4 0.0000 0.0000 0.0000 22.6180 0.0000 0.0000
# 5 0.0000 0.0000 0.0000 0.0000 28.1116 0.0000
# 6 0.0000 0.0000 0.0000 0.0000 0.0000 20.8114
#
#
#
# Elastic Compliance Matrix: (Units=1/GPa)
#
#
# Indices 1 2 3 4 5 6 
#
# 1 0.010779 -0.008320 -0.002521 0.000000 0.000000 0.000000
# 2 -0.008320 0.041647 -0.011304 0.000000 0.000000 0.000000
# 3 -0.002521 -0.011304 0.018457 0.000000 0.000000 0.000000
# 4 0.000000 0.000000 0.000000 0.044212 0.000000 0.000000
# 5 0.000000 0.000000 0.000000 0.000000 0.035572 0.000000
# 6 0.000000 0.000000 0.000000 0.000000 0.000000 0.048051
#
#
# Mechanical properties :
#
#
# Convention : Reuss Voigt Hill
#
# Bulk Modulus (GPa) = 37.60252 51.35602 44.47927
# Shear Modulus (GPa) = 19.85118 23.70150 21.77634
#
# Velocity S-wave (km/s) = 3.11910 3.40819 3.26685
# Velocity P-wave (km/s) = 5.60359 6.37626 6.00237
#
# Compressibility (1/GPa) = 0.02659396
#
# Stress axis : x y z
#
# Youngs Moduli (GPa) = 92.77039 24.01119 54.17885
#
# Poissons Ratio (x) = 0.19977 0.13661
# Poissons Ratio (y) = 0.77185 0.61241
# Poissons Ratio (z) = 0.23392 0.27141
#
# Static dielectric constant tensor:
#      x y z
#    x 1.790040 0.000000 0.000000 
#    y 0.000000 1.709810 0.000000 
#    z 0.000000 0.000000 1.719290 
# 
# From -- ./inp_files/25801.got.cif
#   From: 2010.05.17/outbox.cif.g08.bks.cpg/sg44_13_cif.got.tgz:25801.got - 2010.06.03 19:37:08.
