data_PCOD9374363
_publ_section_title
;
Structure prediction by ZEFSAII (Michael W. Deem and Ramdas Pophale) SiO2 
 PCOD9374363
Probable space group: I M M 2
;
_chemical_formula_sum "Si O2"
_cell_formula_units_Z 64
_cell_length_a 8.980276
_cell_length_b 24.053064
_cell_length_c 15.751514
_cell_angle_alpha 90.000000
_cell_angle_beta 90.000000
_cell_angle_gamma 90.000000
_cell_volume 3402.376694
_symmetry_space_group_name_H-M "I M M 2"
_symmetry_group_IT_number 44
_symmetry_cell_setting 'orthorhombic'
loop_
_space_group_symop_operation_xyz
x,y,z
-x,-y,z
-x,y,z
x,-y,z
1/2+x,1/2+y,1/2+z
1/2-x,1/2-y,1/2+z
1/2-x,1/2+y,1/2+z
1/2+x,1/2-y,1/2+z
loop_
_atom_site_type_symbol
_atom_site_label
_atom_site_fract_x
_atom_site_fract_y
_atom_site_fract_z
Si Si1 0.821325 0.628869 0.997170
Si Si2 0.676797 0.252435 0.437376
Si Si3 0.178675 0.128869 0.674241
Si Si4 0.822564 0.434044 0.825875
Si Si5 0.822564 0.065956 0.845536
Si Si6 0.823203 0.252435 0.734035
Si Si7 0.677005 0.365434 0.674536
Si Si8 0.177005 0.365434 0.496875
O O1 0.781488 0.692885 0.976295
O O2 0.777167 0.591686 0.916527
O O3 0.000000 0.626129 0.004102
O O4 0.750000 0.611471 0.085705
O O5 0.500000 0.261980 0.452194
O O6 0.698386 0.250000 0.335705
O O7 0.768409 0.302915 0.476333
O O8 0.222834 0.091687 0.754884
O O9 0.218511 0.192885 0.695115
O O10 0.000000 0.126128 0.667309
O O11 0.800246 0.500000 0.824513
O O12 0.736173 0.403754 0.750648
O O13 0.000000 0.422655 0.815538
O O14 0.736174 0.096246 0.920763
O O15 0.000000 0.077344 0.855872
O O16 0.800245 0.000000 0.846896
O O17 0.731590 0.302915 0.695078
O O18 0.000000 0.261981 0.719217
O O19 0.500000 0.367431 0.668700
O O20 0.750001 0.382939 0.585706
O O21 0.000000 0.367431 0.502710
#
# Coordination Sequence:
#
# PCOD9374363 Si02
#       8
#     8   8   8   8   8   8   8   8
#     4  10  21  37  60  90 122 158 197 242 297 354
#     4  10  19  37  63  89 123 160 197 243 299 357
#     4  10  21  37  60  90 122 158 197 242 297 354
#     4  10  22  43  66  86 115 159 207 251 300 355
#     4  10  22  43  66  86 115 159 207 251 300 355
#     4  10  19  37  63  89 123 160 197 243 299 357
#     4  12  25  40  62  91 124 158 200 246 301 363
#     4  12  25  40  62  91 124 158 200 246 301 363
#
# _framework density 18.810379999999999
#
# number of rings (size 3 to 8) (size 9 to 14) (size 15 to 20)
#    0.000    1.500    2.500    3.000    0.000    6.000 
#    0.000    0.000    0.000    0.000    0.000    0.000 
#    0.000    0.000    0.000    0.000    0.000    0.000 
#
# Total GULP energy -178925.823468 kJ/mol
# GULP energy per Si atom -5591.431983 kJ/mol
# Density = 1.876757 g / cm^3
# Si number density = 18.810380 Si / 1000 Ang^3
#
#
#
# Elastic Constant Matrix: (Units=GPa)
#
#
# Indices 1 2 3 4 5 6 
#
# 1 80.3443 62.4683 78.1309 0.0000 0.0000 0.0000
# 2 62.4683 85.3461 63.5891 0.0000 0.0000 0.0000
# 3 78.1309 63.5891 173.5629 0.0000 0.0000 0.0000
# 4 0.0000 0.0000 0.0000 -5.4628 0.0000 0.0000
# 5 0.0000 0.0000 0.0000 0.0000 35.9960 0.0000
# 6 0.0000 0.0000 0.0000 0.0000 0.0000 3.2253
#
#
#
# Elastic Compliance Matrix: (Units=1/GPa)
#
#
# Indices 1 2 3 4 5 6 
#
# 1 0.037433 -0.020417 -0.009371 0.000000 0.000000 0.000000
# 2 -0.020417 0.027253 -0.000794 0.000000 0.000000 0.000000
# 3 -0.009371 -0.000794 0.010271 0.000000 0.000000 0.000000
# 4 0.000000 0.000000 0.000000 -0.183056 0.000000 0.000000
# 5 0.000000 0.000000 0.000000 0.000000 0.027781 0.000000
# 6 0.000000 0.000000 0.000000 0.000000 0.000000 0.310051
#
#
# Mechanical properties :
#
#
# Convention : Reuss Voigt Hill
#
# Bulk Modulus (GPa) = 72.49748 83.06999 77.78373
# Shear Modulus (GPa) = 16.92083 15.75602 16.33843
#
# Velocity S-wave (km/s) = 3.00250 2.89731 2.95038
# Velocity P-wave (km/s) = 7.11652 7.44649 7.28337
#
# Compressibility (1/GPa) = 0.01379358
#
# Stress axis : x y z
#
# Youngs Moduli (GPa) = 26.71405 36.69386 97.36478
#
# Poissons Ratio (x) = 0.74919 0.91237
# Poissons Ratio (y) = 0.54543 0.07727
# Poissons Ratio (z) = 0.25033 0.02912
#
# Static dielectric constant tensor:
#      x y z
#    x 1.628450 0.000000 0.000000 
#    y 0.000000 1.632080 0.000000 
#    z 0.000000 0.000000 1.636560 
# 
# From -- ./inp_files/16886.got.cif
#   From: 2010.05.17/outbox.cif.g08.bks.cpg/sg44_9_cif.got.tgz:16886.got - 2010.06.03 19:37:08.
