data_PCOD9374009
_publ_section_title
;
Structure prediction by ZEFSAII (Michael W. Deem and Ramdas Pophale) SiO2 
 PCOD9374009
Probable space group: I M M 2
;
_chemical_formula_sum "Si O2"
_cell_formula_units_Z 56
_cell_length_a 13.018827
_cell_length_b 14.194569
_cell_length_c 15.985013
_cell_angle_alpha 90.000000
_cell_angle_beta 90.000000
_cell_angle_gamma 90.000000
_cell_volume 2953.976663
_symmetry_space_group_name_H-M "I M M 2"
_symmetry_group_IT_number 44
_symmetry_cell_setting 'orthorhombic'
loop_
_space_group_symop_operation_xyz
x,y,z
-x,-y,z
-x,y,z
x,-y,z
1/2+x,1/2+y,1/2+z
1/2-x,1/2-y,1/2+z
1/2-x,1/2+y,1/2+z
1/2+x,1/2-y,1/2+z
loop_
_atom_site_type_symbol
_atom_site_label
_atom_site_fract_x
_atom_site_fract_y
_atom_site_fract_z
Si Si1 0.116155 0.106815 0.254960
Si Si2 0.380721 0.746296 0.511279
Si Si3 0.619689 0.895096 0.646378
Si Si4 0.808855 0.612514 0.496235
Si Si5 0.165066 0.391223 0.678573
Si Si6 0.111400 0.251793 0.824545
Si Si7 0.334896 0.194280 0.822709
O O1 0.210272 0.114500 0.190058
O O2 0.134212 0.195476 0.316018
O O3 0.000000 0.116289 0.220619
O O4 0.123677 0.000000 0.290636
O O5 0.500000 0.721104 0.529049
O O6 0.338972 0.816818 0.582334
O O7 0.304464 0.658618 0.501709
O O8 0.379690 0.793264 0.418619
O O9 0.500000 0.901866 0.622803
O O10 0.623119 0.858239 0.741351
O O11 0.665149 0.000000 0.639862
O O12 0.802600 0.500000 0.492273
O O13 0.861606 0.638001 0.584462
O O14 0.861502 0.651478 0.412385
O O15 0.136382 0.500000 0.689916
O O16 0.119163 0.328850 0.752008
O O17 0.211343 0.188066 0.813731
O O18 0.000000 0.204213 0.820324
#
# Coordination Sequence:
#
# PCOD9374009 Si02
#       7
#     8   8   8   8   8   8   8
#     4   9  17  31  54  81 104 128 162 210 269 321
#     4   9  18  32  51  77 102 126 163 210 261 312
#     4  10  20  34  54  80 107 134 166 208 261 318
#     4  10  20  33  49  72 102 136 173 209 248 299
#     4   9  18  31  48  72 100 130 166 204 245 297
#     4   9  18  32  50  71  97 130 167 207 250 293
#     4  10  19  33  52  73 104 140 171 207 252 303
#
# _framework density 18.957495000000002
#
# number of rings (size 3 to 8) (size 9 to 14) (size 15 to 20)
#    0.000    2.571    0.000    2.571    0.000    2.857 
#    0.000    6.429    0.000    3.000    0.000    0.000 
#    0.000    0.000    0.000    0.000    0.000    0.000 
#
# Total GULP energy -155920.414786 kJ/mol
# GULP energy per Si atom -5568.586242 kJ/mol
# Density = 1.891435 g / cm^3
# Si number density = 18.957495 Si / 1000 Ang^3
#
#
#
# Elastic Constant Matrix: (Units=GPa)
#
#
# Indices 1 2 3 4 5 6 
#
# 1 54.9969 -2.8203 -7.4459 0.0000 0.0000 0.0000
# 2 -2.8203 85.4244 49.1285 0.0000 0.0000 0.0000
# 3 -7.4459 49.1285 130.0416 0.0000 0.0000 0.0000
# 4 0.0000 0.0000 0.0000 24.1901 0.0000 0.0000
# 5 0.0000 0.0000 0.0000 0.0000 16.4338 0.0000
# 6 0.0000 0.0000 0.0000 0.0000 0.0000 9.9004
#
#
#
# Elastic Compliance Matrix: (Units=1/GPa)
#
#
# Indices 1 2 3 4 5 6 
#
# 1 0.018325 0.000002 0.001048 0.000000 0.000000 0.000000
# 2 0.000002 0.014956 -0.005650 0.000000 0.000000 0.000000
# 3 0.001048 -0.005650 0.009884 0.000000 0.000000 0.000000
# 4 0.000000 0.000000 0.000000 0.041339 0.000000 0.000000
# 5 0.000000 0.000000 0.000000 0.000000 0.060850 0.000000
# 6 0.000000 0.000000 0.000000 0.000000 0.000000 0.101006
#
#
# Mechanical properties :
#
#
# Convention : Reuss Voigt Hill
#
# Bulk Modulus (GPa) = 29.44125 38.68751 34.06438
# Shear Modulus (GPa) = 18.73489 25.54490 22.13990
#
# Velocity S-wave (km/s) = 3.14707 3.67479 3.42112
# Velocity P-wave (km/s) = 5.36370 6.20139 5.79769
#
# Compressibility (1/GPa) = 0.03396595
#
# Stress axis : x y z
#
# Youngs Moduli (GPa) = 54.57058 66.86405 101.16948
#
# Poissons Ratio (x) = -0.00013 -0.10608
# Poissons Ratio (y) = -0.00011 0.57161
# Poissons Ratio (z) = -0.05722 0.37778
#
# Static dielectric constant tensor:
#      x y z
#    x 1.697850 0.000000 0.000000 
#    y 0.000000 1.666620 0.000000 
#    z 0.000000 0.000000 1.676670 
# 
# From -- ./inp_files/18484.got.cif
#   From: 2010.05.17/outbox.cif.g08.bks.cpg/sg44_10_cif.got.tgz:18484.got - 2010.06.03 19:37:08.
