data_PCOD9374092
_publ_section_title
;
Structure prediction by ZEFSAII (Michael W. Deem and Ramdas Pophale) SiO2 
 PCOD9374092
Probable space group: I M M 2
;
_chemical_formula_sum "Si O2"
_cell_formula_units_Z 64
_cell_length_a 21.101944
_cell_length_b 8.697428
_cell_length_c 20.207620
_cell_angle_alpha 90.000000
_cell_angle_beta 90.000000
_cell_angle_gamma 90.000000
_cell_volume 3708.757818
_symmetry_space_group_name_H-M "I M M 2"
_symmetry_group_IT_number 44
_symmetry_cell_setting 'orthorhombic'
loop_
_space_group_symop_operation_xyz
x,y,z
-x,-y,z
-x,y,z
x,-y,z
1/2+x,1/2+y,1/2+z
1/2-x,1/2-y,1/2+z
1/2-x,1/2+y,1/2+z
1/2+x,1/2-y,1/2+z
loop_
_atom_site_type_symbol
_atom_site_label
_atom_site_fract_x
_atom_site_fract_y
_atom_site_fract_z
Si Si1 0.685583 0.185943 0.628460
Si Si2 0.382863 0.684623 0.268945
Si Si3 0.234021 0.314037 0.267662
Si Si4 0.686497 0.684176 0.047801
Si Si5 0.428934 0.316928 0.543819
Si Si6 0.878662 0.316512 0.910096
Si Si7 0.071192 0.316101 0.632418
Si Si8 0.763732 0.685176 0.414712
O O1 0.695154 0.239616 0.704109
O O2 0.749788 0.226135 0.588637
O O3 0.625129 0.255794 0.592491
O O4 0.680389 0.000000 0.627251
O O5 0.387682 0.500000 0.269513
O O6 0.308277 0.726742 0.260278
O O7 0.402524 0.750476 0.340102
O O8 0.419164 0.752655 0.206570
O O9 0.232078 0.500000 0.266096
O O10 0.213191 0.267302 0.341240
O O11 0.683858 0.500000 0.044858
O O12 0.625446 0.745861 0.086202
O O13 0.694730 0.752584 0.974718
O O14 0.500000 0.283089 0.567921
O O15 0.422176 0.500000 0.536212
O O16 0.418695 0.239870 0.472410
O O17 0.876452 0.500000 0.907685
O O18 0.807463 0.251319 0.920956
O O19 0.077632 0.500000 0.633377
O O20 0.000000 0.276931 0.609821
O O21 0.760262 0.500000 0.417311
#
# Coordination Sequence:
#
# PCOD9374092 Si02
#       8
#     8   8   8   8   8   8   8   8
#     4  10  19  35  58  83 110 141 182 230 279 330
#     4  10  19  35  56  79 111 149 187 226 275 332
#     4   8  16  32  54  81 109 139 176 221 271 326
#     4  11  21  35  58  85 113 146 185 232 282 332
#     4  11  24  39  54  77 110 149 190 230 280 337
#     4  11  21  34  53  80 112 147 189 230 274 329
#     4  11  24  39  55  80 114 151 191 234 279 331
#     4  10  19  33  56  83 113 146 183 229 280 329
#
# _framework density 17.256451999999999
#
# number of rings (size 3 to 8) (size 9 to 14) (size 15 to 20)
#    0.000    1.750    2.500    3.750    0.000    3.000 
#    0.000    1.250    0.000    0.750    0.000    1.750 
#    0.000    0.000    0.000    0.000    0.000    0.000 
#
# Total GULP energy -178680.488686 kJ/mol
# GULP energy per Si atom -5583.765271 kJ/mol
# Density = 1.721718 g / cm^3
# Si number density = 17.256452 Si / 1000 Ang^3
#
#
#
# Elastic Constant Matrix: (Units=GPa)
#
#
# Indices 1 2 3 4 5 6 
#
# 1 107.3230 49.3791 69.7658 0.0000 0.0000 0.0000
# 2 49.3791 64.0456 44.9443 0.0000 0.0000 0.0000
# 3 69.7658 44.9443 131.3036 0.0000 0.0000 0.0000
# 4 0.0000 0.0000 0.0000 30.5120 0.0000 0.0000
# 5 0.0000 0.0000 0.0000 0.0000 21.8321 0.0000
# 6 0.0000 0.0000 0.0000 0.0000 0.0000 18.2203
#
#
#
# Elastic Compliance Matrix: (Units=1/GPa)
#
#
# Indices 1 2 3 4 5 6 
#
# 1 0.017577 -0.009210 -0.006187 0.000000 0.000000 0.000000
# 2 -0.009210 0.025376 -0.003792 0.000000 0.000000 0.000000
# 3 -0.006187 -0.003792 0.012201 0.000000 0.000000 0.000000
# 4 0.000000 0.000000 0.000000 0.032774 0.000000 0.000000
# 5 0.000000 0.000000 0.000000 0.000000 0.045804 0.000000
# 6 0.000000 0.000000 0.000000 0.000000 0.000000 0.054884
#
#
# Mechanical properties :
#
#
# Convention : Reuss Voigt Hill
#
# Bulk Modulus (GPa) = 59.60945 70.09450 64.85198
# Shear Modulus (GPa) = 21.49732 23.35173 22.42453
#
# Velocity S-wave (km/s) = 3.53336 3.68260 3.60875
# Velocity P-wave (km/s) = 7.15992 7.66743 7.41802
#
# Compressibility (1/GPa) = 0.01677586
#
# Stress axis : x y z
#
# Youngs Moduli (GPa) = 56.89281 39.40674 81.95947
#
# Poissons Ratio (x) = 0.36295 0.50704
# Poissons Ratio (y) = 0.52400 0.31082
# Poissons Ratio (z) = 0.35197 0.14945
#
# Static dielectric constant tensor:
#      x y z
#    x 1.571100 0.000000 0.000000 
#    y 0.000000 1.578430 0.000000 
#    z 0.000000 0.000000 1.591600 
# 
# From -- ./inp_files/22296.got.cif
#   From: 2010.05.17/outbox.cif.g08.bks.cpg/sg44_12_cif.got.tgz:22296.got - 2010.06.03 19:37:08.
