data_PCOD9374858
_publ_section_title
;
Structure prediction by ZEFSAII (Michael W. Deem and Ramdas Pophale) SiO2 
 PCOD9374858
Probable space group: I M M 2
;
_chemical_formula_sum "Si O2"
_cell_formula_units_Z 48
_cell_length_a 7.505267
_cell_length_b 19.136799
_cell_length_c 15.408540
_cell_angle_alpha 90.000000
_cell_angle_beta 90.000000
_cell_angle_gamma 90.000000
_cell_volume 2213.079077
_symmetry_space_group_name_H-M "I M M 2"
_symmetry_group_IT_number 44
_symmetry_cell_setting 'orthorhombic'
loop_
_space_group_symop_operation_xyz
x,y,z
-x,-y,z
-x,y,z
x,-y,z
1/2+x,1/2+y,1/2+z
1/2-x,1/2-y,1/2+z
1/2-x,1/2+y,1/2+z
1/2+x,1/2-y,1/2+z
loop_
_atom_site_type_symbol
_atom_site_label
_atom_site_fract_x
_atom_site_fract_y
_atom_site_fract_z
Si Si1 0.789138 0.000000 0.671100
Si Si2 0.709033 0.271185 0.595399
Si Si3 0.281804 0.500000 0.976256
Si Si4 0.717625 0.575439 0.644861
Si Si5 0.787242 0.345049 0.233802
Si Si6 0.284844 0.239099 0.894095
Si Si7 0.216113 0.110248 0.337419
O O1 0.743968 0.073680 0.714948
O O2 0.713971 0.000000 0.573468
O O3 0.000000 0.000000 0.663238
O O4 0.500000 0.276139 0.617768
O O5 0.781966 0.350024 0.608534
O O6 0.780113 0.208892 0.658179
O O7 0.724060 0.256754 0.493200
O O8 0.500000 0.500000 0.978022
O O9 0.224764 0.433342 0.920436
O O10 0.500000 0.575526 0.639205
O O11 0.776107 0.500000 0.607847
O O12 0.768869 0.578019 0.746147
O O13 0.722642 0.322061 0.329530
O O14 0.000000 0.336176 0.234765
O O15 0.500000 0.236971 0.898553
O O16 0.230013 0.310018 0.845809
O O17 0.000000 0.108531 0.337745
#
# Coordination Sequence:
#
# PCOD9374858 Si02
#       7
#     4   8   4   8   8   8   8
#     4  11  23  37  55  84 113 140 186 249 297 329
#     4  10  20  35  56  84 113 145 187 232 277 331
#     4   9  16  25  45  80 111 130 162 223 285 327
#     4   9  15  27  50  78 107 138 172 217 268 320
#     4  10  21  39  59  78 111 157 195 229 281 350
#     4  10  20  35  56  80 107 148 192 228 271 331
#     4   9  14  25  48  76 104 133 171 213 262 325
#
# _framework density 21.689238
#
# number of rings (size 3 to 8) (size 9 to 14) (size 15 to 20)
#    0.000    2.333    2.500    1.250    0.000    2.667 
#    1.500    0.000    0.000    0.000    0.000    0.000 
#    0.000    0.000    0.000    0.000    0.000    0.000 
#
# Total GULP energy -133860.538289 kJ/mol
# GULP energy per Si atom -5577.522429 kJ/mol
# Density = 2.163987 g / cm^3
# Si number density = 21.689238 Si / 1000 Ang^3
#
#
#
# Elastic Constant Matrix: (Units=GPa)
#
#
# Indices 1 2 3 4 5 6 
#
# 1 56.3029 0.5113 -6.8456 0.0000 0.0000 0.0000
# 2 0.5113 145.4893 27.7234 0.0000 0.0000 0.0000
# 3 -6.8456 27.7234 56.3568 0.0000 0.0000 0.0000
# 4 0.0000 0.0000 0.0000 34.6876 0.0000 0.0000
# 5 0.0000 0.0000 0.0000 0.0000 14.3018 0.0000
# 6 0.0000 0.0000 0.0000 0.0000 0.0000 7.3696
#
#
#
# Elastic Compliance Matrix: (Units=1/GPa)
#
#
# Indices 1 2 3 4 5 6 
#
# 1 0.018064 -0.000531 0.002456 0.000000 0.000000 0.000000
# 2 -0.000531 0.007600 -0.003803 0.000000 0.000000 0.000000
# 3 0.002456 -0.003803 0.019913 0.000000 0.000000 0.000000
# 4 0.000000 0.000000 0.000000 0.028829 0.000000 0.000000
# 5 0.000000 0.000000 0.000000 0.000000 0.069921 0.000000
# 6 0.000000 0.000000 0.000000 0.000000 0.000000 0.135693
#
#
# Mechanical properties :
#
#
# Convention : Reuss Voigt Hill
#
# Bulk Modulus (GPa) = 23.91208 33.43635 28.67421
# Shear Modulus (GPa) = 16.79438 27.05579 21.92509
#
# Velocity S-wave (km/s) = 2.78568 3.53573 3.18287
# Velocity P-wave (km/s) = 4.62552 5.66728 5.17269
#
# Compressibility (1/GPa) = 0.04181987
#
# Stress axis : x y z
#
# Youngs Moduli (GPa) = 55.35725 131.58029 50.21786
#
# Poissons Ratio (x) = 0.06992 -0.12332
# Poissons Ratio (y) = 0.02942 0.19099
# Poissons Ratio (z) = -0.13594 0.50042
#
# Static dielectric constant tensor:
#      x y z
#    x 1.844180 0.000000 0.000000 
#    y 0.000000 1.751380 0.000000 
#    z 0.000000 0.000000 1.764640 
# 
# From -- ./inp_files/16143.got.cif
#   From: 2010.05.17/outbox.cif.g08.bks.cpg/sg44_9_cif.got.tgz:16143.got - 2010.06.03 19:37:08.
