data_PCOD9374958
_publ_section_title
;
Structure prediction by ZEFSAII (Michael W. Deem and Ramdas Pophale) SiO2 
 PCOD9374958
Probable space group: I M M 2
;
_chemical_formula_sum "Si O2"
_cell_formula_units_Z 58
_cell_length_a 26.793356
_cell_length_b 7.657525
_cell_length_c 13.657171
_cell_angle_alpha 90.000000
_cell_angle_beta 90.000000
_cell_angle_gamma 90.000000
_cell_volume 2802.052610
_symmetry_space_group_name_H-M "I M M 2"
_symmetry_group_IT_number 44
_symmetry_cell_setting 'orthorhombic'
loop_
_space_group_symop_operation_xyz
x,y,z
-x,-y,z
-x,y,z
x,-y,z
1/2+x,1/2+y,1/2+z
1/2-x,1/2-y,1/2+z
1/2-x,1/2+y,1/2+z
1/2+x,1/2-y,1/2+z
loop_
_atom_site_type_symbol
_atom_site_label
_atom_site_fract_x
_atom_site_fract_y
_atom_site_fract_z
Si Si1 0.000000 0.500000 0.517730
Si Si2 0.215385 0.199573 0.940713
Si Si3 0.884907 0.298075 0.033245
Si Si4 0.555669 0.290355 0.720771
Si Si5 0.341927 0.715540 0.251509
Si Si6 0.055566 0.793005 0.843126
Si Si7 0.577675 0.287181 0.948059
Si Si8 0.818359 0.204483 0.537084
O O1 0.956958 0.342795 0.509772
O O2 0.167831 0.207469 0.012893
O O3 0.264754 0.275685 0.988134
O O4 0.228182 0.000000 0.920478
O O5 0.194221 0.275793 0.839146
O O6 0.877008 0.500000 0.011139
O O7 0.905142 0.277468 0.142323
O O8 0.925598 0.230425 0.954862
O O9 0.500000 0.225821 0.696273
O O10 0.555815 0.500000 0.712290
O O11 0.566218 0.250182 0.833906
O O12 0.342321 0.500000 0.256021
O O13 0.398586 0.772637 0.276627
O O14 0.323510 0.778756 0.146446
O O15 0.000000 0.718607 0.828067
O O16 0.052425 0.000000 0.825184
O O17 0.569350 0.500000 0.963657
O O18 0.635001 0.241024 0.970972
O O19 0.826372 0.000000 0.551202
#
# Coordination Sequence:
#
# PCOD9374958 Si02
#       8
#     2   8   8   8   8   8   8   8
#     4  12  22  40  68  82 132 162 210 244 302 354
#     4  10  21  39  61  83 113 150 196 247 300 355
#     4  11  22  33  53  82 114 153 199 240 298 359
#     4  10  20  36  55  82 119 156 196 245 301 355
#     4   8  17  36  60  84 110 149 194 237 288 355
#     4   9  17  33  55  81 112 149 193 241 290 347
#     4  10  23  40  62  91 124 164 203 249 302 359
#     4  10  21  40  63  88 117 148 194 246 298 356
#
# _framework density 20.699112
#
# number of rings (size 3 to 8) (size 9 to 14) (size 15 to 20)
#    0.000    2.207    0.690    3.103    1.931    3.310 
#    1.241    6.207    0.000    0.000    0.000    0.000 
#    0.000    0.000    0.000    0.000    0.000    0.000 
#
# Total GULP energy -161524.678492 kJ/mol
# GULP energy per Si atom -5569.816500 kJ/mol
# Density = 2.065200 g / cm^3
# Si number density = 20.699112 Si / 1000 Ang^3
#
#
#
# Elastic Constant Matrix: (Units=GPa)
#
#
# Indices 1 2 3 4 5 6 
#
# 1 143.5231 3.6583 48.0345 0.0000 0.0000 0.0000
# 2 3.6583 44.7279 7.7037 0.0000 0.0000 0.0000
# 3 48.0345 7.7037 44.1292 0.0000 0.0000 0.0000
# 4 0.0000 0.0000 0.0000 -0.6831 0.0000 0.0000
# 5 0.0000 0.0000 0.0000 0.0000 -62.2953 0.0000
# 6 0.0000 0.0000 0.0000 0.0000 0.0000 21.8135
#
#
#
# Elastic Compliance Matrix: (Units=1/GPa)
#
#
# Indices 1 2 3 4 5 6 
#
# 1 0.011023 0.001201 -0.012208 0.000000 0.000000 0.000000
# 2 0.001201 0.023181 -0.005354 0.000000 0.000000 0.000000
# 3 -0.012208 -0.005354 0.036884 0.000000 0.000000 0.000000
# 4 0.000000 0.000000 0.000000 -1.463949 0.000000 0.000000
# 5 0.000000 0.000000 0.000000 0.000000 -0.016053 0.000000
# 6 0.000000 0.000000 0.000000 0.000000 0.000000 0.045843
#
#
# Mechanical properties :
#
#
# Convention : Reuss Voigt Hill
#
# Bulk Modulus (GPa) = 26.06490 39.01926 32.54208
# Shear Modulus (GPa) = -3.79489 3.29927 -0.24781
#
# Velocity S-wave (km/s) = -1.35549 1.26387 -0.34638
# Velocity P-wave (km/s) = 3.18902 4.58492 3.94913
#
# Compressibility (1/GPa) = 0.03836577
#
# Stress axis : x y z
#
# Youngs Moduli (GPa) = 90.72264 43.13812 27.11236
#
# Poissons Ratio (x) = -0.05181 0.33098
# Poissons Ratio (y) = -0.10896 0.14516
# Poissons Ratio (z) = 1.10752 0.23097
#
# Static dielectric constant tensor:
#      x y z
#    x 1.823360 0.000000 0.000000 
#    y 0.000000 1.783720 0.000000 
#    z 0.000000 0.000000 1.754450 
# 
# From -- ./inp_files/14851.got.cif
#   From: 2010.05.17/outbox.cif.g08.bks.cpg/sg44_8_cif.got.tgz:14851.got - 2010.06.03 19:37:08.
