data_PCOD9374511
_publ_section_title
;
Structure prediction by ZEFSAII (Michael W. Deem and Ramdas Pophale) SiO2 
 PCOD9374511
Probable space group: I M M 2
;
_chemical_formula_sum "Si O2"
_cell_formula_units_Z 64
_cell_length_a 8.456449
_cell_length_b 31.175157
_cell_length_c 15.091870
_cell_angle_alpha 90.000000
_cell_angle_beta 90.000000
_cell_angle_gamma 90.000000
_cell_volume 3978.686670
_symmetry_space_group_name_H-M "I M M 2"
_symmetry_group_IT_number 44
_symmetry_cell_setting 'orthorhombic'
loop_
_space_group_symop_operation_xyz
x,y,z
-x,-y,z
-x,y,z
x,-y,z
1/2+x,1/2+y,1/2+z
1/2-x,1/2-y,1/2+z
1/2-x,1/2+y,1/2+z
1/2+x,1/2-y,1/2+z
loop_
_atom_site_type_symbol
_atom_site_label
_atom_site_fract_x
_atom_site_fract_y
_atom_site_fract_z
Si Si1 0.181922 0.673694 0.506710
Si Si2 0.188376 0.865516 0.186592
Si Si3 0.690687 0.049355 0.120200
Si Si4 0.307203 0.709574 0.216042
Si Si5 0.689785 0.951765 0.915835
Si Si6 0.308287 0.293300 0.823697
Si Si7 0.683884 0.368176 0.335882
Si Si8 0.686160 0.723859 0.017945
O O1 0.227203 0.654818 0.601256
O O2 0.290832 0.655095 0.430109
O O3 0.195538 0.724752 0.510841
O O4 0.000000 0.662128 0.485394
O O5 0.236434 0.915248 0.184474
O O6 0.234219 0.836348 0.270345
O O7 0.000000 0.861931 0.175758
O O8 0.500000 0.052763 0.122900
O O9 0.732772 0.000000 0.139994
O O10 0.740881 0.058079 0.017636
O O11 0.500000 0.710604 0.216604
O O12 0.251544 0.751412 0.270588
O O13 0.252942 0.665958 0.264354
O O14 0.249430 0.711265 0.114327
O O15 0.500000 0.952758 0.918331
O O16 0.740714 0.914755 0.849072
O O17 0.745716 0.000000 0.894178
O O18 0.500000 0.290072 0.826102
O O19 0.248225 0.293629 0.925038
O O20 0.500000 0.374284 0.317648
O O21 0.500000 0.712084 0.019969
#
# Coordination Sequence:
#
# PCOD9374511 Si02
#       8
#     8   8   8   8   8   8   8   8
#     4  11  19  29  48  66  91 132 168 190 221 281
#     4  11  21  30  45  72 100 123 154 200 242 271
#     4   9  18  32  49  68  92 125 161 190 225 285
#     4  10  20  33  48  68  94 125 162 196 230 274
#     4   9  18  32  49  68  92 125 161 190 225 285
#     4  10  20  33  48  68  94 125 162 196 230 274
#     4  11  21  30  45  72 100 123 154 200 242 271
#     4   9  18  33  49  64  89 130 167 192 225 271
#
# _framework density 16.085709999999999
#
# number of rings (size 3 to 8) (size 9 to 14) (size 15 to 20)
#    0.000    2.000    3.750    1.875    0.000    1.500 
#    0.000    1.875    0.000    0.000    0.000    0.875 
#    0.000    7.000    0.000    0.000    0.000    0.000 
#
# Total GULP energy -178405.597703 kJ/mol
# GULP energy per Si atom -5575.174928 kJ/mol
# Density = 1.604910 g / cm^3
# Si number density = 16.085710 Si / 1000 Ang^3
#
#
#
# Elastic Constant Matrix: (Units=GPa)
#
#
# Indices 1 2 3 4 5 6 
#
# 1 7.7437 19.3173 1.1549 0.0000 0.0000 0.0000
# 2 19.3173 110.9532 57.4621 0.0000 0.0000 0.0000
# 3 1.1549 57.4621 104.1425 0.0002 0.0000 0.0000
# 4 0.0000 0.0000 0.0002 23.8363 0.0000 0.0000
# 5 0.0000 0.0000 0.0000 0.0000 11.0887 0.0000
# 6 0.0000 0.0000 0.0000 0.0000 0.0000 23.6071
#
#
#
# Elastic Compliance Matrix: (Units=1/GPa)
#
#
# Indices 1 2 3 4 5 6 
#
# 1 0.300509 -0.070835 0.035752 -0.000001 0.000000 0.000000
# 2 -0.070835 0.029316 -0.015390 0.000000 0.000000 0.000000
# 3 0.035752 -0.015390 0.017697 0.000000 0.000000 0.000000
# 4 -0.000001 0.000000 0.000000 0.041953 0.000000 0.000000
# 5 0.000000 0.000000 0.000000 0.000000 0.090182 0.000000
# 6 0.000000 0.000000 0.000000 0.000000 0.000000 0.042360
#
#
# Mechanical properties :
#
#
# Convention : Reuss Voigt Hill
#
# Bulk Modulus (GPa) = 4.05555 42.07866 23.06710
# Shear Modulus (GPa) = 7.09063 21.36674 14.22868
#
# Velocity S-wave (km/s) = 2.10181 3.64855 2.97737
# Velocity P-wave (km/s) = 2.90117 6.63061 5.11771
#
# Compressibility (1/GPa) = 0.24657576
#
# Stress axis : x y z
#
# Youngs Moduli (GPa) = 3.32768 34.11128 56.50566
#
# Poissons Ratio (x) = 2.41629 -2.02019
# Poissons Ratio (y) = 0.23572 0.86962
# Poissons Ratio (z) = -0.11897 0.52497
#
# Static dielectric constant tensor:
#      x y z
#    x 1.560640 0.000000 0.000000 
#    y 0.000000 1.552480 0.000000 
#    z 0.000000 0.000000 1.539970 
# 
# From -- ./inp_files/17074.got.cif
#   From: 2010.05.17/outbox.cif.g08.bks.cpg/sg44_9_cif.got.tgz:17074.got - 2010.06.03 19:37:08.
