data_PCOD9374941
_publ_section_title
;
Structure prediction by ZEFSAII (Michael W. Deem and Ramdas Pophale) SiO2 
 PCOD9374941
Probable space group: I M M 2
;
_chemical_formula_sum "Si O2"
_cell_formula_units_Z 58
_cell_length_a 22.895480
_cell_length_b 7.474573
_cell_length_c 15.323566
_cell_angle_alpha 90.000000
_cell_angle_beta 90.000000
_cell_angle_gamma 90.000000
_cell_volume 2622.382173
_symmetry_space_group_name_H-M "I M M 2"
_symmetry_group_IT_number 44
_symmetry_cell_setting 'orthorhombic'
loop_
_space_group_symop_operation_xyz
x,y,z
-x,-y,z
-x,y,z
x,-y,z
1/2+x,1/2+y,1/2+z
1/2-x,1/2-y,1/2+z
1/2-x,1/2+y,1/2+z
1/2+x,1/2-y,1/2+z
loop_
_atom_site_type_symbol
_atom_site_label
_atom_site_fract_x
_atom_site_fract_y
_atom_site_fract_z
Si Si1 0.094220 0.209958 0.975750
Si Si2 0.183793 0.216551 0.346792
Si Si3 0.565701 0.291679 0.922465
Si Si4 0.628183 0.297970 0.290914
Si Si5 0.269302 0.782721 0.503895
Si Si6 0.000000 0.500000 0.031879
Si Si7 0.069650 0.295758 0.616942
Si Si8 0.262471 0.710478 0.194525
O O1 0.093757 0.275181 0.873705
O O2 0.076947 0.000000 0.982617
O O3 0.163075 0.225832 0.999048
O O4 0.051532 0.341880 0.026799
O O5 0.118950 0.285301 0.367759
O O6 0.229939 0.276588 0.421552
O O7 0.204345 0.270697 0.250911
O O8 0.182824 0.000000 0.350989
O O9 0.500000 0.213730 0.915515
O O10 0.560665 0.500000 0.899443
O O11 0.585976 0.282784 0.023459
O O12 0.642537 0.500000 0.319445
O O13 0.591218 0.300353 0.202890
O O14 0.687847 0.208693 0.257800
O O15 0.242660 0.720041 0.596496
O O16 0.269017 0.000000 0.503552
O O17 0.090299 0.500000 0.620729
O O18 0.000000 0.293988 0.618436
O O19 0.276897 0.500000 0.185285
#
# Coordination Sequence:
#
# PCOD9374941 Si02
#       8
#     8   8   8   8   8   2   8   8
#     4  11  24  41  66  94 125 172 226 269 332 399
#     4  10  20  35  60  89 118 161 208 255 324 389
#     4   9  18  35  56  79 114 159 203 251 309 375
#     4  10  21  36  54  84 120 156 204 256 308 387
#     4  10  20  38  62  88 126 170 211 273 337 387
#     4  12  26  44  68  90 132 180 210 288 332 394
#     4  10  21  32  49  78 113 152 194 239 297 370
#     4  10  21  37  60  88 120 160 204 260 328 382
#
# _framework density 22.117294999999999
#
# number of rings (size 3 to 8) (size 9 to 14) (size 15 to 20)
#    0.000    1.931    2.069    1.448    1.931    4.690 
#    0.000    1.379    1.517    0.000    0.000    0.000 
#    0.000    0.000    0.000    0.000    0.000    0.000 
#
# Total GULP energy -161596.266588 kJ/mol
# GULP energy per Si atom -5572.285055 kJ/mol
# Density = 2.206696 g / cm^3
# Si number density = 22.117295 Si / 1000 Ang^3
#
#
#
# Elastic Constant Matrix: (Units=GPa)
#
#
# Indices 1 2 3 4 5 6 
#
# 1 62.6254 15.4967 -1.7809 0.0000 0.0000 0.0000
# 2 15.4967 100.2003 -3.8950 0.0000 0.0000 0.0000
# 3 -1.7809 -3.8950 54.7525 0.0000 0.0000 0.0000
# 4 0.0000 0.0000 0.0000 13.0059 0.0000 0.0000
# 5 0.0000 0.0000 0.0000 0.0000 30.0933 0.0000
# 6 0.0000 0.0000 0.0000 0.0000 0.0000 2.0004
#
#
#
# Elastic Compliance Matrix: (Units=1/GPa)
#
#
# Indices 1 2 3 4 5 6 
#
# 1 0.016610 -0.002555 0.000359 0.000000 0.000000 0.000000
# 2 -0.002555 0.010401 0.000657 0.000000 0.000000 0.000000
# 3 0.000359 0.000657 0.018322 0.000000 0.000000 0.000000
# 4 0.000000 0.000000 0.000000 0.076888 0.000000 0.000000
# 5 0.000000 0.000000 0.000000 0.000000 0.033230 0.000000
# 6 0.000000 0.000000 0.000000 0.000000 0.000000 0.499899
#
#
# Mechanical properties :
#
#
# Convention : Reuss Voigt Hill
#
# Bulk Modulus (GPa) = 23.66635 26.35776 25.01206
# Shear Modulus (GPa) = 7.43478 22.87040 15.15259
#
# Velocity S-wave (km/s) = 1.83543 3.21915 2.62028
# Velocity P-wave (km/s) = 3.90069 5.07547 4.52635
#
# Compressibility (1/GPa) = 0.04225409
#
# Stress axis : x y z
#
# Youngs Moduli (GPa) = 60.20329 96.14751 54.57803
#
# Poissons Ratio (x) = 0.24565 -0.01957
# Poissons Ratio (y) = 0.15382 -0.03585
# Poissons Ratio (z) = -0.02158 -0.06315
#
# Static dielectric constant tensor:
#      x y z
#    x 1.866660 0.000000 0.000000 
#    y 0.000000 1.844980 0.000000 
#    z 0.000000 0.000000 1.813720 
# 
# From -- ./inp_files/19419.got.cif
#   From: 2010.05.17/outbox.cif.g08.bks.cpg/sg44_10_cif.got.tgz:19419.got - 2010.06.03 19:37:08.
