data_PCOD9374773
_publ_section_title
;
Structure prediction by ZEFSAII (Michael W. Deem and Ramdas Pophale) SiO2 
 PCOD9374773
Probable space group: I M M 2
;
_chemical_formula_sum "Si O2"
_cell_formula_units_Z 56
_cell_length_a 8.418953
_cell_length_b 21.454632
_cell_length_c 14.113102
_cell_angle_alpha 90.000000
_cell_angle_beta 90.000000
_cell_angle_gamma 90.000000
_cell_volume 2549.186648
_symmetry_space_group_name_H-M "I M M 2"
_symmetry_group_IT_number 44
_symmetry_cell_setting 'orthorhombic'
loop_
_space_group_symop_operation_xyz
x,y,z
-x,-y,z
-x,y,z
x,-y,z
1/2+x,1/2+y,1/2+z
1/2-x,1/2-y,1/2+z
1/2-x,1/2+y,1/2+z
1/2+x,1/2-y,1/2+z
loop_
_atom_site_type_symbol
_atom_site_label
_atom_site_fract_x
_atom_site_fract_y
_atom_site_fract_z
Si Si1 0.308856 0.500000 0.741310
Si Si2 0.811767 0.706999 0.915184
Si Si3 0.693163 0.859104 0.219032
Si Si4 0.319867 0.188919 0.025073
Si Si5 0.682560 0.928665 0.759953
Si Si6 0.178192 0.928456 0.961735
Si Si7 0.307267 0.500000 0.959889
Si Si8 0.688971 0.378943 0.076012
O O1 0.500000 0.500000 0.733936
O O2 0.252476 0.430883 0.707132
O O3 0.254988 0.500000 0.851705
O O4 0.754762 0.672107 0.819583
O O5 0.000000 0.698949 0.917214
O O6 0.770472 0.778748 0.937362
O O7 0.734845 0.677371 0.008913
O O8 0.500000 0.860545 0.217886
O O9 0.744037 0.812648 0.133210
O O10 0.500000 0.211630 0.025014
O O11 0.309924 0.115600 0.004183
O O12 0.500000 0.920095 0.790319
O O13 0.798288 0.925101 0.848938
O O14 0.727972 0.881891 0.677010
O O15 0.696980 0.000000 0.722795
O O16 0.000000 0.908193 0.988490
O O17 0.197098 0.000000 0.990862
O O18 0.500000 0.500000 0.958168
O O19 0.256313 0.561006 0.015773
O O20 0.500000 0.382198 0.089746
#
# Coordination Sequence:
#
# PCOD9374773 Si02
#       8
#     4   8   8   8   8   8   4   8
#     4  11  21  37  65 100 133 168 215 271 326 386
#     4  11  24  43  64  90 126 167 218 270 320 387
#     4  10  24  44  66  95 131 172 216 267 331 392
#     4  11  25  45  67  91 124 168 214 264 326 394
#     4  10  20  34  55  87 123 161 207 253 304 369
#     4  10  22  41  64  91 123 160 206 263 324 382
#     4   9  18  31  53  88 125 162 203 255 320 380
#     4  11  20  35  58  88 127 168 211 261 323 383
#
# _framework density 21.967790000000001
#
# number of rings (size 3 to 8) (size 9 to 14) (size 15 to 20)
#    0.000    1.571    2.143    2.357    1.000    4.286 
#    0.000    4.286    0.000    0.000    0.000    0.000 
#    0.000    0.000    0.000    0.000    0.000    0.000 
#
# Total GULP energy -156246.024455 kJ/mol
# GULP energy per Si atom -5580.215159 kJ/mol
# Density = 2.191779 g / cm^3
# Si number density = 21.967790 Si / 1000 Ang^3
#
#
#
# Elastic Constant Matrix: (Units=GPa)
#
#
# Indices 1 2 3 4 5 6 
#
# 1 46.7688 17.3998 9.3881 0.0000 0.0000 0.0000
# 2 17.3998 61.7709 17.7117 0.0000 0.0000 0.0000
# 3 9.3881 17.7117 73.3829 -0.0001 0.0000 0.0000
# 4 0.0000 0.0000 -0.0001 26.1979 0.0000 0.0000
# 5 0.0000 0.0000 0.0000 0.0000 22.9911 0.0000
# 6 0.0000 0.0000 0.0000 0.0000 0.0000 33.4019
#
#
#
# Elastic Compliance Matrix: (Units=1/GPa)
#
#
# Indices 1 2 3 4 5 6 
#
# 1 0.024048 -0.006330 -0.001549 0.000000 0.000000 0.000000
# 2 -0.006330 0.019059 -0.003790 0.000000 0.000000 0.000000
# 3 -0.001549 -0.003790 0.014740 0.000000 0.000000 0.000000
# 4 0.000000 0.000000 0.000000 0.038171 0.000000 0.000000
# 5 0.000000 0.000000 0.000000 0.000000 0.043495 0.000000
# 6 0.000000 0.000000 0.000000 0.000000 0.000000 0.029938
#
#
# Mechanical properties :
#
#
# Convention : Reuss Voigt Hill
#
# Bulk Modulus (GPa) = 28.97800 30.10242 29.54021
# Shear Modulus (GPa) = 24.47487 25.67971 25.07729
#
# Velocity S-wave (km/s) = 3.34147 3.42273 3.38235
# Velocity P-wave (km/s) = 5.30161 5.41783 5.36003
#
# Compressibility (1/GPa) = 0.03450894
#
# Stress axis : x y z
#
# Youngs Moduli (GPa) = 41.58422 52.46970 67.84218
#
# Poissons Ratio (x) = 0.33212 0.10507
# Poissons Ratio (y) = 0.26322 0.25714
# Poissons Ratio (z) = 0.06440 0.19887
#
# Static dielectric constant tensor:
#      x y z
#    x 1.744770 0.000000 0.000000 
#    y 0.000000 1.949660 0.000000 
#    z 0.000000 0.000000 1.838970 
# 
# From -- ./inp_files/16524.got.cif
#   From: 2010.05.17/outbox.cif.g08.bks.cpg/sg44_9_cif.got.tgz:16524.got - 2010.06.03 19:37:08.
