data_PCOD9374714
_publ_section_title
;
Structure prediction by ZEFSAII (Michael W. Deem and Ramdas Pophale) SiO2 
 PCOD9374714
Probable space group: I M M 2
;
_chemical_formula_sum "Si O2"
_cell_formula_units_Z 48
_cell_length_a 30.220607
_cell_length_b 9.018309
_cell_length_c 10.379657
_cell_angle_alpha 90.000000
_cell_angle_beta 90.000000
_cell_angle_gamma 90.000000
_cell_volume 2828.858974
_symmetry_space_group_name_H-M "I M M 2"
_symmetry_group_IT_number 44
_symmetry_cell_setting 'orthorhombic'
loop_
_space_group_symop_operation_xyz
x,y,z
-x,-y,z
-x,y,z
x,-y,z
1/2+x,1/2+y,1/2+z
1/2-x,1/2-y,1/2+z
1/2-x,1/2+y,1/2+z
1/2+x,1/2-y,1/2+z
loop_
_atom_site_type_symbol
_atom_site_label
_atom_site_fract_x
_atom_site_fract_y
_atom_site_fract_z
Si Si1 0.551223 0.821726 0.007530
Si Si2 0.380059 0.821526 0.229338
Si Si3 0.885792 0.677014 0.024820
Si Si4 0.717199 0.178008 0.512706
Si Si5 0.715206 0.322225 0.239291
Si Si6 0.948426 0.823023 0.234373
O O1 0.500000 0.783175 0.036287
O O2 0.583946 0.779297 0.122811
O O3 0.553527 0.000000 0.992723
O O4 0.563610 0.746507 0.872683
O O5 0.395266 0.786584 0.375109
O O6 0.333074 0.743555 0.207768
O O7 0.373577 0.000000 0.224468
O O8 0.891151 0.500000 0.041612
O O9 0.833933 0.713272 0.045610
O O10 0.917295 0.760097 0.123281
O O11 0.728363 0.257030 0.378378
O O12 0.749928 0.218645 0.628223
O O13 0.719384 0.000000 0.493210
O O14 0.712995 0.500000 0.246695
O O15 0.000000 0.783728 0.209838
O O16 0.945034 0.000000 0.240861
#
# Coordination Sequence:
#
# PCOD9374714 Si02
#       6
#     8   8   8   8   8   8
#     4   9  18  34  55  76  99 132 172 208 246 297
#     4   9  19  35  54  77 104 131 164 210 256 297
#     4   9  18  34  54  74  99 132 169 208 248 294
#     4   9  20  37  53  74 104 134 168 210 251 294
#     4  10  20  34  54  78 103 134 170 206 250 303
#     4  10  21  35  50  73 105 135 165 206 253 298
#
# _framework density 16.967972
#
# number of rings (size 3 to 8) (size 9 to 14) (size 15 to 20)
#    0.000    2.667    0.000    2.000    0.000    7.667 
#    0.000    6.667    0.000    2.000    0.000    0.000 
#    0.000    0.000    0.000    0.000    0.000    0.000 
#
# Total GULP energy -133867.373680 kJ/mol
# GULP energy per Si atom -5577.807237 kJ/mol
# Density = 1.692935 g / cm^3
# Si number density = 16.967972 Si / 1000 Ang^3
#
#
#
# Elastic Constant Matrix: (Units=GPa)
#
#
# Indices 1 2 3 4 5 6 
#
# 1 107.2885 49.7656 128.5380 0.0000 0.0000 0.0000
# 2 49.7656 31.5209 63.5163 0.0000 0.0000 0.0000
# 3 128.5380 63.5163 181.4956 0.0000 0.0000 0.0000
# 4 0.0000 0.0000 0.0000 24.4350 0.0000 0.0000
# 5 0.0000 0.0000 0.0000 0.0000 41.1994 0.0000
# 6 0.0000 0.0000 0.0000 0.0000 0.0000 21.6458
#
#
#
# Elastic Compliance Matrix: (Units=1/GPa)
#
#
# Indices 1 2 3 4 5 6 
#
# 1 0.072492 -0.037306 -0.038284 0.000000 0.000000 0.000000
# 2 -0.037306 0.126810 -0.017958 0.000000 0.000000 0.000000
# 3 -0.038284 -0.017958 0.038908 0.000000 0.000000 0.000000
# 4 0.000000 0.000000 0.000000 0.040925 0.000000 0.000000
# 5 0.000000 0.000000 0.000000 0.000000 0.024272 0.000000
# 6 0.000000 0.000000 0.000000 0.000000 0.000000 0.046198
#
#
# Mechanical properties :
#
#
# Convention : Reuss Voigt Hill
#
# Bulk Modulus (GPa) = 19.56427 89.32721 54.44574
# Shear Modulus (GPa) = 9.02953 22.68838 15.85895
#
# Velocity S-wave (km/s) = 2.30934 3.66065 3.06051
# Velocity P-wave (km/s) = 4.32040 8.40393 6.68176
#
# Compressibility (1/GPa) = 0.05111360
#
# Stress axis : x y z
#
# Youngs Moduli (GPa) = 13.79472 7.88579 25.70192
#
# Poissons Ratio (x) = 0.29419 0.98397
# Poissons Ratio (y) = 0.51463 0.46155
# Poissons Ratio (z) = 0.52812 0.14161
#
# Static dielectric constant tensor:
#      x y z
#    x 1.558140 0.000000 0.000000 
#    y 0.000000 1.566110 0.000000 
#    z 0.000000 0.000000 1.549550 
# 
# From -- ./inp_files/4931.got.cif
#   From: 2010.05.17/outbox.cif.g08.bks.cpg/sg44_3_cif.got.tgz:4931.got - 2010.06.03 19:37:08.
