data_PCOD9374668
_publ_section_title
;
Structure prediction by ZEFSAII (Michael W. Deem and Ramdas Pophale) SiO2 
 PCOD9374668
Probable space group: I M M 2
;
_chemical_formula_sum "Si O2"
_cell_formula_units_Z 64
_cell_length_a 23.575287
_cell_length_b 8.832551
_cell_length_c 19.522278
_cell_angle_alpha 90.000000
_cell_angle_beta 90.000000
_cell_angle_gamma 90.000000
_cell_volume 4065.122479
_symmetry_space_group_name_H-M "I M M 2"
_symmetry_group_IT_number 44
_symmetry_cell_setting 'orthorhombic'
loop_
_space_group_symop_operation_xyz
x,y,z
-x,-y,z
-x,y,z
x,-y,z
1/2+x,1/2+y,1/2+z
1/2-x,1/2-y,1/2+z
1/2-x,1/2+y,1/2+z
1/2+x,1/2-y,1/2+z
loop_
_atom_site_type_symbol
_atom_site_label
_atom_site_fract_x
_atom_site_fract_y
_atom_site_fract_z
Si Si1 0.752982 0.180788 0.503500
Si Si2 0.221609 0.819639 0.863860
Si Si3 0.659863 0.180295 0.237363
Si Si4 0.933013 0.819901 0.645062
Si Si5 0.879112 0.319203 0.508401
Si Si6 0.234387 0.318881 0.157978
Si Si7 0.660612 0.179945 0.784589
Si Si8 0.065878 0.820463 0.373792
O O1 0.720380 0.253972 0.439935
O O2 0.816450 0.247930 0.504660
O O3 0.726356 0.212625 0.578073
O O4 0.756134 0.000000 0.494502
O O5 0.178069 0.742839 0.811444
O O6 0.284771 0.789405 0.833135
O O7 0.213784 0.000000 0.863442
O O8 0.602844 0.253236 0.207814
O O9 0.710488 0.232999 0.186407
O O10 0.656137 0.000000 0.237841
O O11 0.909982 0.741669 0.576168
O O12 0.000000 0.793696 0.652098
O O13 0.922981 0.000000 0.639842
O O14 0.874696 0.500000 0.510125
O O15 0.913415 0.266369 0.441582
O O16 0.245212 0.500000 0.165978
O O17 0.182281 0.282045 0.208280
O O18 0.607154 0.269716 0.812728
O O19 0.649214 0.000000 0.788271
O O20 0.000000 0.787317 0.359950
O O21 0.071751 0.000000 0.385833
#
# Coordination Sequence:
#
# PCOD9374668 Si02
#       8
#     8   8   8   8   8   8   8   8
#     4  11  20  32  53  77 104 138 170 205 256 309
#     4  10  20  34  52  74 104 134 168 212 256 303
#     4  11  21  33  52  76 102 133 172 213 255 306
#     4  11  23  38  54  72 100 139 178 216 259 303
#     4  12  23  34  49  73 103 137 177 214 250 300
#     4   9  19  34  52  73 103 134 165 208 258 310
#     4   9  18  33  51  72  98 131 169 210 253 298
#     4  11  23  36  50  70  99 137 177 215 256 301
#
# _framework density 15.743684
#
# number of rings (size 3 to 8) (size 9 to 14) (size 15 to 20)
#    0.000    1.500    2.500    4.875    0.000    6.000 
#    0.000    0.000    0.000    0.000    0.000    0.875 
#    0.000    5.000    0.000    0.000    0.000    0.000 
#
# Total GULP energy -178739.051226 kJ/mol
# GULP energy per Si atom -5585.595351 kJ/mol
# Density = 1.570785 g / cm^3
# Si number density = 15.743684 Si / 1000 Ang^3
#
#
#
# Elastic Constant Matrix: (Units=GPa)
#
#
# Indices 1 2 3 4 5 6 
#
# 1 64.3790 34.0192 49.1080 0.0000 0.0000 0.0000
# 2 34.0192 61.9121 51.8475 0.0000 0.0000 0.0000
# 3 49.1080 51.8475 126.3717 0.0000 0.0000 0.0000
# 4 0.0000 0.0000 0.0000 28.3914 0.0000 0.0000
# 5 0.0000 0.0000 0.0000 0.0000 16.8567 0.0000
# 6 0.0000 0.0000 0.0000 0.0000 0.0000 21.8832
#
#
#
# Elastic Compliance Matrix: (Units=1/GPa)
#
#
# Indices 1 2 3 4 5 6 
#
# 1 0.024654 -0.008415 -0.006128 0.000000 0.000000 0.000000
# 2 -0.008415 0.027478 -0.008004 0.000000 0.000000 0.000000
# 3 -0.006128 -0.008004 0.013578 0.000000 0.000000 0.000000
# 4 0.000000 0.000000 0.000000 0.035222 0.000000 0.000000
# 5 0.000000 0.000000 0.000000 0.000000 0.059324 0.000000
# 6 0.000000 0.000000 0.000000 0.000000 0.000000 0.045697
#
#
# Mechanical properties :
#
#
# Convention : Reuss Voigt Hill
#
# Bulk Modulus (GPa) = 48.50308 58.06803 53.28556
# Shear Modulus (GPa) = 19.38589 21.27213 20.32901
#
# Velocity S-wave (km/s) = 3.51286 3.67979 3.59729
# Velocity P-wave (km/s) = 6.87956 7.41741 7.15354
#
# Compressibility (1/GPa) = 0.02061725
#
# Stress axis : x y z
#
# Youngs Moduli (GPa) = 40.56115 36.39227 73.64680
#
# Poissons Ratio (x) = 0.30624 0.45132
# Poissons Ratio (y) = 0.34132 0.58945
# Poissons Ratio (z) = 0.24856 0.29127
#
# Static dielectric constant tensor:
#      x y z
#    x 1.499430 0.000000 0.000000 
#    y 0.000000 1.525140 0.000000 
#    z 0.000000 0.000000 1.530420 
# 
# From -- ./inp_files/20761.got.cif
#   From: 2010.05.17/outbox.cif.g08.bks.cpg/sg44_11_cif.got.tgz:20761.got - 2010.06.03 19:37:08.
