data_PCOD9374950
_publ_section_title
;
Structure prediction by ZEFSAII (Michael W. Deem and Ramdas Pophale) SiO2 
 PCOD9374950
Probable space group: I M M 2
;
_chemical_formula_sum "Si O2"
_cell_formula_units_Z 64
_cell_length_a 8.124259
_cell_length_b 29.234116
_cell_length_c 13.388327
_cell_angle_alpha 90.000000
_cell_angle_beta 90.000000
_cell_angle_gamma 90.000000
_cell_volume 3179.801700
_symmetry_space_group_name_H-M "I M M 2"
_symmetry_group_IT_number 44
_symmetry_cell_setting 'orthorhombic'
loop_
_space_group_symop_operation_xyz
x,y,z
-x,-y,z
-x,y,z
x,-y,z
1/2+x,1/2+y,1/2+z
1/2-x,1/2-y,1/2+z
1/2-x,1/2+y,1/2+z
1/2+x,1/2-y,1/2+z
loop_
_atom_site_type_symbol
_atom_site_label
_atom_site_fract_x
_atom_site_fract_y
_atom_site_fract_z
Si Si1 0.197206 0.358536 0.399420
Si Si2 0.805695 0.121744 0.680063
Si Si3 0.300270 0.755250 0.871333
Si Si4 0.187053 0.198323 0.534648
Si Si5 0.696819 0.447268 0.793740
Si Si6 0.692759 0.277975 0.651283
Si Si7 0.803465 0.446970 0.012454
Si Si8 0.302552 0.119949 0.118122
O O1 0.236544 0.380563 0.291981
O O2 0.262897 0.305990 0.398267
O O3 0.251585 0.384080 0.501123
O O4 0.000000 0.355322 0.404809
O O5 0.735144 0.164721 0.615684
O O6 0.773342 0.079802 0.605484
O O7 0.000000 0.128646 0.693287
O O8 0.500000 0.755092 0.884605
O O9 0.272681 0.745589 0.756291
O O10 0.233148 0.710275 0.928998
O O11 0.192451 0.249834 0.576882
O O12 0.000000 0.181664 0.519755
O O13 0.500000 0.447720 0.797726
O O14 0.756843 0.500000 0.784977
O O15 0.748801 0.418133 0.697555
O O16 0.757041 0.428832 0.901818
O O17 0.500000 0.271300 0.625764
O O18 0.732617 0.331157 0.652228
O O19 0.750269 0.500000 0.014599
O O20 0.000000 0.444844 0.022308
O O21 0.500000 0.121592 0.119244
#
# Coordination Sequence:
#
# PCOD9374950 Si02
#       8
#     8   8   8   8   8   8   8   8
#     4  10  20  38  59  78 114 163 205 243 289 346
#     4  11  23  36  59  90 121 156 197 248 299 350
#     4   9  18  34  52  72 108 155 196 239 290 341
#     4  10  20  36  53  76 113 154 195 240 290 346
#     4  10  22  42  67  93 121 150 184 237 301 357
#     4  11  21  33  54  81 111 153 199 245 292 343
#     4  10  22  42  67  92 119 152 192 238 290 355
#     4  11  23  39  60  86 117 158 201 245 295 354
#
# _framework density 20.127043
#
# number of rings (size 3 to 8) (size 9 to 14) (size 15 to 20)
#    0.000    1.750    2.500    1.875    1.750    3.000 
#    0.000    1.875    0.000    0.750    0.000    0.000 
#    0.000    0.000    0.000    0.000    0.000    0.000 
#
# Total GULP energy -178411.960150 kJ/mol
# GULP energy per Si atom -5575.373755 kJ/mol
# Density = 2.008123 g / cm^3
# Si number density = 20.127043 Si / 1000 Ang^3
#
#
#
# Elastic Constant Matrix: (Units=GPa)
#
#
# Indices 1 2 3 4 5 6 
#
# 1 20.3761 -7.2975 -1.6980 -0.0001 0.0000 0.0000
# 2 -7.2975 57.6447 32.2010 -0.0001 0.0000 0.0000
# 3 -1.6980 32.2010 117.7549 -0.0003 0.0001 0.0001
# 4 -0.0001 -0.0001 -0.0003 35.8552 0.0000 0.0000
# 5 0.0000 0.0000 0.0001 0.0000 26.4779 0.0000
# 6 0.0000 0.0000 0.0001 0.0000 0.0000 22.2777
#
#
#
# Elastic Compliance Matrix: (Units=1/GPa)
#
#
# Indices 1 2 3 4 5 6 
#
# 1 0.051558 0.007214 -0.001229 0.000000 0.000000 0.000000
# 2 0.007214 0.021485 -0.005771 0.000000 0.000000 0.000000
# 3 -0.001229 -0.005771 0.010053 0.000000 0.000000 0.000000
# 4 0.000000 0.000000 0.000000 0.027890 0.000000 0.000000
# 5 0.000000 0.000000 0.000000 0.000000 0.037767 0.000000
# 6 0.000000 0.000000 0.000000 0.000000 0.000000 0.044888
#
#
# Mechanical properties :
#
#
# Convention : Reuss Voigt Hill
#
# Bulk Modulus (GPa) = 11.97285 26.90962 19.44124
# Shear Modulus (GPa) = 22.61881 28.42683 25.52282
#
# Velocity S-wave (km/s) = 3.35595 3.76223 3.56488
# Velocity P-wave (km/s) = 4.58019 5.68079 5.15992
#
# Compressibility (1/GPa) = 0.08352227
#
# Stress axis : x y z
#
# Youngs Moduli (GPa) = 19.39554 46.54474 99.47617
#
# Poissons Ratio (x) = -0.33576 0.12228
# Poissons Ratio (y) = -0.13991 0.57409
# Poissons Ratio (z) = 0.02384 0.26862
#
# Static dielectric constant tensor:
#      x y z
#    x 1.718710 0.000000 0.000000 
#    y 0.000000 1.717920 0.000000 
#    z 0.000000 0.000000 1.780730 
# 
# From -- ./inp_files/11444.got.cif
#   From: 2010.05.17/outbox.cif.g08.bks.cpg/sg44_6_cif.got.tgz:11444.got - 2010.06.03 19:37:08.
