data_PCOD9374222
_publ_section_title
;
Structure prediction by ZEFSAII (Michael W. Deem and Ramdas Pophale) SiO2 
 PCOD9374222
Probable space group: I M M 2
;
_chemical_formula_sum "Si O2"
_cell_formula_units_Z 64
_cell_length_a 8.518272
_cell_length_b 28.897941
_cell_length_c 13.048895
_cell_angle_alpha 90.000000
_cell_angle_beta 90.000000
_cell_angle_gamma 90.000000
_cell_volume 3212.122801
_symmetry_space_group_name_H-M "I M M 2"
_symmetry_group_IT_number 44
_symmetry_cell_setting 'orthorhombic'
loop_
_space_group_symop_operation_xyz
x,y,z
-x,-y,z
-x,y,z
x,-y,z
1/2+x,1/2+y,1/2+z
1/2-x,1/2-y,1/2+z
1/2-x,1/2+y,1/2+z
1/2+x,1/2-y,1/2+z
loop_
_atom_site_type_symbol
_atom_site_label
_atom_site_fract_x
_atom_site_fract_y
_atom_site_fract_z
Si Si1 0.686974 0.120067 0.546200
Si Si2 0.192308 0.446885 0.227234
Si Si3 0.821320 0.928177 0.157491
Si Si4 0.688732 0.448946 0.879768
Si Si5 0.186723 0.705932 0.923607
Si Si6 0.815909 0.302086 0.492441
Si Si7 0.177659 0.818752 0.203430
Si Si8 0.188311 0.593335 0.445388
O O1 0.500000 0.123151 0.560720
O O2 0.748126 0.090929 0.643686
O O3 0.726443 0.088987 0.447392
O O4 0.742749 0.171581 0.515385
O O5 0.241210 0.500000 0.206106
O O6 0.241932 0.430791 0.340852
O O7 0.000000 0.446847 0.225199
O O8 0.754957 0.949086 0.262072
O O9 0.823954 0.873633 0.183951
O O10 0.000000 0.944464 0.145503
O O11 0.737201 0.932898 0.049077
O O12 0.500000 0.439855 0.877933
O O13 0.713850 0.500000 0.924345
O O14 0.265785 0.691122 0.817348
O O15 0.000000 0.700012 0.914149
O O16 0.227184 0.758991 0.944233
O O17 0.788107 0.299340 0.614476
O O18 0.758401 0.352906 0.455567
O O19 0.000000 0.298629 0.468686
O O20 0.000000 0.801117 0.188839
O O21 0.000000 0.594750 0.443060
#
# Coordination Sequence:
#
# PCOD9374222 Si02
#       8
#     8   8   8   8   8   8   8   8
#     4  10  21  36  56  81 111 147 190 239 285 341
#     4   9  18  35  58  82 111 148 188 233 289 345
#     4   9  18  33  53  77 106 143 180 222 281 339
#     4  10  20  34  53  79 111 144 180 226 282 343
#     4  11  22  35  55  84 114 147 193 243 292 351
#     4  10  21  36  55  82 114 150 191 238 291 348
#     4  10  19  35  57  77 106 147 185 230 287 344
#     4   9  19  35  56  81 110 145 187 234 281 335
#
# _framework density 19.924520000000001
#
# number of rings (size 3 to 8) (size 9 to 14) (size 15 to 20)
#    0.000    2.250    1.250    1.500    0.000    4.250 
#    0.000    3.125    0.000    0.750    0.000    0.000 
#    0.000    0.000    0.000    0.000    0.000    0.000 
#
# Total GULP energy -178471.243949 kJ/mol
# GULP energy per Si atom -5577.226373 kJ/mol
# Density = 1.987917 g / cm^3
# Si number density = 19.924520 Si / 1000 Ang^3
#
#
#
# Elastic Constant Matrix: (Units=GPa)
#
#
# Indices 1 2 3 4 5 6 
#
# 1 3.5380 1.6056 -4.0098 0.0000 0.0000 -0.0002
# 2 1.6056 47.3087 14.8821 0.0001 0.0000 -0.0003
# 3 -4.0098 14.8821 95.1696 0.0001 -0.0001 -0.0006
# 4 0.0000 0.0001 0.0001 20.3165 0.0000 -0.0001
# 5 0.0000 0.0000 -0.0001 0.0000 24.2143 0.0001
# 6 -0.0002 -0.0003 -0.0006 -0.0001 0.0001 -45.7821
#
#
#
# Elastic Compliance Matrix: (Units=1/GPa)
#
#
# Indices 1 2 3 4 5 6 
#
# 1 0.306919 -0.015234 0.015314 0.000000 0.000000 -0.000001
# 2 -0.015234 0.022987 -0.004236 0.000000 0.000000 0.000000
# 3 0.015314 -0.004236 0.011815 0.000000 0.000000 0.000000
# 4 0.000000 0.000000 0.000000 0.049221 0.000000 0.000000
# 5 0.000000 0.000000 0.000000 0.000000 0.041298 0.000000
# 6 -0.000001 0.000000 0.000000 0.000000 0.000000 -0.021843
#
#
# Mechanical properties :
#
#
# Convention : Reuss Voigt Hill
#
# Bulk Modulus (GPa) = 2.99932 18.99688 10.99810
# Shear Modulus (GPa) = 9.43669 8.65231 9.04450
#
# Velocity S-wave (km/s) = 2.17865 2.08614 2.13289
# Velocity P-wave (km/s) = 2.79951 3.91890 3.40551
#
# Compressibility (1/GPa) = 0.33340859
#
# Stress axis : x y z
#
# Youngs Moduli (GPa) = 3.25819 43.50199 84.63636
#
# Poissons Ratio (x) = 0.66270 -1.29610
# Poissons Ratio (y) = 0.04963 0.35856
# Poissons Ratio (z) = -0.04990 0.18430
#
# Static dielectric constant tensor:
#      x y z
#    x 1.688790 0.000000 0.000000 
#    y 0.000000 1.716380 0.000000 
#    z 0.000000 0.000000 1.695360 
# 
# From -- ./inp_files/11523.got.cif
#   From: 2010.05.17/outbox.cif.g08.bks.cpg/sg44_6_cif.got.tgz:11523.got - 2010.06.03 19:37:08.
