data_PCOD9374062
_publ_section_title
;
Structure prediction by ZEFSAII (Michael W. Deem and Ramdas Pophale) SiO2 
 PCOD9374062
Probable space group: I M M 2
;
_chemical_formula_sum "Si O2"
_cell_formula_units_Z 56
_cell_length_a 8.834292
_cell_length_b 25.117596
_cell_length_c 14.548857
_cell_angle_alpha 90.000000
_cell_angle_beta 90.000000
_cell_angle_gamma 90.000000
_cell_volume 3228.335754
_symmetry_space_group_name_H-M "I M M 2"
_symmetry_group_IT_number 44
_symmetry_cell_setting 'orthorhombic'
loop_
_space_group_symop_operation_xyz
x,y,z
-x,-y,z
-x,y,z
x,-y,z
1/2+x,1/2+y,1/2+z
1/2-x,1/2-y,1/2+z
1/2-x,1/2+y,1/2+z
1/2+x,1/2-y,1/2+z
loop_
_atom_site_type_symbol
_atom_site_label
_atom_site_fract_x
_atom_site_fract_y
_atom_site_fract_z
Si Si1 0.819495 0.000000 0.827020
Si Si2 0.323111 0.785431 0.465399
Si Si3 0.669070 0.660667 0.439960
Si Si4 0.324771 0.601644 0.629480
Si Si5 0.323235 0.109423 0.776918
Si Si6 0.180068 0.500000 0.533630
Si Si7 0.816888 0.317238 0.766899
Si Si8 0.319053 0.706776 0.164744
O O1 0.759744 0.947280 0.776032
O O2 0.756110 0.000000 0.932180
O O3 0.000000 0.000000 0.832005
O O4 0.500000 0.797875 0.484393
O O5 0.316930 0.723690 0.435296
O O6 0.272139 0.816325 0.374121
O O7 0.230072 0.792006 0.558427
O O8 0.500000 0.645353 0.405232
O O9 0.677766 0.643121 0.544831
O O10 0.793271 0.631574 0.379634
O O11 0.500000 0.587415 0.647026
O O12 0.234877 0.551060 0.591299
O O13 0.251653 0.632558 0.714240
O O14 0.500000 0.102833 0.758814
O O15 0.253691 0.155216 0.712582
O O16 0.000000 0.500000 0.521723
O O17 0.770685 0.261821 0.715982
O O18 0.000000 0.318899 0.763055
O O19 0.500000 0.703697 0.172876
#
# Coordination Sequence:
#
# PCOD9374062 Si02
#       8
#     4   8   8   8   8   4   8   8
#     4  12  24  40  60  83 116 153 190 236 290 340
#     4  10  20  37  56  81 117 156 194 236 285 338
#     4  10  19  33  54  82 119 156 188 233 282 336
#     4  11  22  36  57  83 117 155 193 236 287 341
#     4  12  24  37  57  85 117 154 195 235 282 345
#     4  12  24  38  58  85 116 151 194 236 286 348
#     4  10  21  36  56  82 117 155 194 239 287 339
#     4  11  22  37  57  84 117 154 193 237 287 341
#
# _framework density 17.346399000000002
#
# number of rings (size 3 to 8) (size 9 to 14) (size 15 to 20)
#    0.000    1.143    4.286    3.429    0.000    2.286 
#    0.000    0.000    0.000    0.857    0.000    1.000 
#    0.000    0.000    0.000    0.000    0.000    0.000 
#
# Total GULP energy -156383.961896 kJ/mol
# GULP energy per Si atom -5585.141496 kJ/mol
# Density = 1.730692 g / cm^3
# Si number density = 17.346399 Si / 1000 Ang^3
#
#
#
# Elastic Constant Matrix: (Units=GPa)
#
#
# Indices 1 2 3 4 5 6 
#
# 1 86.1982 24.2628 19.1775 0.0000 0.0000 0.0000
# 2 24.2628 58.8470 4.7593 0.0000 0.0000 0.0000
# 3 19.1775 4.7593 61.1169 0.0000 0.0000 0.0000
# 4 0.0000 0.0000 0.0000 29.4208 0.0000 0.0000
# 5 0.0000 0.0000 0.0000 0.0000 31.6819 0.0000
# 6 0.0000 0.0000 0.0000 0.0000 0.0000 27.0585
#
#
#
# Elastic Compliance Matrix: (Units=1/GPa)
#
#
# Indices 1 2 3 4 5 6 
#
# 1 0.014022 -0.005460 -0.003975 0.000000 0.000000 0.000000
# 2 -0.005460 0.019227 0.000216 0.000000 0.000000 0.000000
# 3 -0.003975 0.000216 0.017592 0.000000 0.000000 0.000000
# 4 0.000000 0.000000 0.000000 0.033990 0.000000 0.000000
# 5 0.000000 0.000000 0.000000 0.000000 0.031564 0.000000
# 6 0.000000 0.000000 0.000000 0.000000 0.000000 0.036957
#
#
# Mechanical properties :
#
#
# Convention : Reuss Voigt Hill
#
# Bulk Modulus (GPa) = 30.86018 33.61793 32.23906
# Shear Modulus (GPa) = 27.38359 28.16307 27.77333
#
# Velocity S-wave (km/s) = 3.97751 4.03372 4.00572
# Velocity P-wave (km/s) = 6.23885 6.41225 6.32615
#
# Compressibility (1/GPa) = 0.03240421
#
# Stress axis : x y z
#
# Youngs Moduli (GPa) = 71.31470 52.01034 56.84243
#
# Poissons Ratio (x) = 0.28398 0.22594
# Poissons Ratio (y) = 0.38938 -0.01228
# Poissons Ratio (z) = 0.28346 -0.01124
#
# Static dielectric constant tensor:
#      x y z
#    x 1.598700 0.000000 0.000000 
#    y 0.000000 1.585500 0.000000 
#    z 0.000000 0.000000 1.579230 
# 
# From -- ./inp_files/16528.got.cif
#   From: 2010.05.17/outbox.cif.g08.bks.cpg/sg44_9_cif.got.tgz:16528.got - 2010.06.03 19:37:08.
