data_PCOD9374007
_publ_section_title
;
Structure prediction by ZEFSAII (Michael W. Deem and Ramdas Pophale) SiO2 
 PCOD9374007
Probable space group: I M M 2
;
_chemical_formula_sum "Si O2"
_cell_formula_units_Z 40
_cell_length_a 11.161113
_cell_length_b 7.380386
_cell_length_c 23.177160
_cell_angle_alpha 90.000000
_cell_angle_beta 90.000000
_cell_angle_gamma 90.000000
_cell_volume 1909.179667
_symmetry_space_group_name_H-M "I M M 2"
_symmetry_group_IT_number 44
_symmetry_cell_setting 'orthorhombic'
loop_
_space_group_symop_operation_xyz
x,y,z
-x,-y,z
-x,y,z
x,-y,z
1/2+x,1/2+y,1/2+z
1/2-x,1/2-y,1/2+z
1/2-x,1/2+y,1/2+z
1/2+x,1/2-y,1/2+z
loop_
_atom_site_type_symbol
_atom_site_label
_atom_site_fract_x
_atom_site_fract_y
_atom_site_fract_z
Si Si1 0.243241 0.214223 0.205700
Si Si2 0.500000 0.793900 0.219164
Si Si3 0.000000 0.284400 0.275233
Si Si4 0.000000 0.723045 0.407144
Si Si5 0.000000 0.780978 0.584487
Si Si6 0.299356 0.206151 0.992772
Si Si7 0.863066 0.777865 0.086578
O O1 0.368052 0.287250 0.232413
O O2 0.122322 0.232061 0.242754
O O3 0.213277 0.286863 0.141751
O O4 0.264675 0.000000 0.198716
O O5 0.500000 0.789246 0.149247
O O6 0.500000 0.000000 0.241934
O O7 0.000000 0.219188 0.341192
O O8 0.000000 0.500000 0.277335
O O9 0.880951 0.784587 0.441676
O O10 0.000000 0.500000 0.410441
O O11 0.111344 0.709300 0.547639
O O12 0.000000 0.000000 0.584409
O O13 0.271190 0.000000 0.975524
O O14 0.183156 0.285932 0.023998
O O15 0.000000 0.727300 0.096740
O O16 0.857644 0.000000 0.086095
#
# Coordination Sequence:
#
# PCOD9374007 Si02
#       7
#     8   4   4   4   4   8   8
#     4  10  19  33  54  79 104 136 181 223 259 312
#     4  10  19  33  52  73 100 138 181 219 257 305
#     4  11  22  36  52  75 110 146 178 216 267 317
#     4   8  17  32  53  73  95 134 181 215 247 304
#     4  11  19  25  41  73 107 126 152 198 257 318
#     4   9  16  31  52  70  94 131 172 212 251 295
#     4   9  15  25  48  79 102 121 160 215 263 302
#
# _framework density 20.951405999999999
#
# number of rings (size 3 to 8) (size 9 to 14) (size 15 to 20)
#    0.000    2.400    3.000    1.800    0.000    0.800 
#    0.000    4.000    2.200    0.000    0.000    0.000 
#    0.000    0.000    0.000    0.000    0.000    0.000 
#
# Total GULP energy -111431.355269 kJ/mol
# GULP energy per Si atom -5571.567763 kJ/mol
# Density = 2.090372 g / cm^3
# Si number density = 20.951406 Si / 1000 Ang^3
#
#
#
# Elastic Constant Matrix: (Units=GPa)
#
#
# Indices 1 2 3 4 5 6 
#
# 1 167.2618 0.4740 47.4763 0.0000 0.0000 0.0000
# 2 0.4740 90.4953 -5.4167 0.0000 0.0000 0.0000
# 3 47.4763 -5.4167 103.9239 0.0000 0.0000 0.0000
# 4 0.0000 0.0000 0.0000 8.1343 0.0000 0.0000
# 5 0.0000 0.0000 0.0000 0.0000 27.5100 0.0000
# 6 0.0000 0.0000 0.0000 0.0000 0.0000 -57.4894
#
#
#
# Elastic Compliance Matrix: (Units=1/GPa)
#
#
# Indices 1 2 3 4 5 6 
#
# 1 0.006874 -0.000225 -0.003152 0.000000 0.000000 0.000000
# 2 -0.000225 0.011092 0.000681 0.000000 0.000000 0.000000
# 3 -0.003152 0.000681 0.011098 0.000000 0.000000 0.000000
# 4 0.000000 0.000000 0.000000 0.122937 0.000000 0.000000
# 5 0.000000 0.000000 0.000000 0.000000 0.036350 0.000000
# 6 0.000000 0.000000 0.000000 0.000000 0.000000 -0.017395
#
#
# Mechanical properties :
#
#
# Convention : Reuss Voigt Hill
#
# Bulk Modulus (GPa) = 42.24348 49.63869 45.94108
# Shear Modulus (GPa) = 27.13866 16.90746 22.02306
#
# Velocity S-wave (km/s) = 3.60295 2.84383 3.24566
# Velocity P-wave (km/s) = 6.12493 5.87596 6.00173
#
# Compressibility (1/GPa) = 0.02367229
#
# Stress axis : x y z
#
# Youngs Moduli (GPa) = 145.47649 90.15321 90.10746
#
# Poissons Ratio (x) = 0.02025 0.28402
# Poissons Ratio (y) = 0.03268 -0.06134
# Poissons Ratio (z) = 0.45854 -0.06137
#
# Static dielectric constant tensor:
#      x y z
#    x 1.884070 0.000000 0.000000 
#    y 0.000000 1.804590 0.000000 
#    z 0.000000 0.000000 1.705680 
# 
# From -- ./inp_files/23632.got.cif
#   From: 2010.05.17/outbox.cif.g08.bks.cpg/sg44_12_cif.got.tgz:23632.got - 2010.06.03 19:37:08.
