data_PCOD9374867
_publ_section_title
;
Structure prediction by ZEFSAII (Michael W. Deem and Ramdas Pophale) SiO2 
 PCOD9374867
Probable space group: I M M 2
;
_chemical_formula_sum "Si O2"
_cell_formula_units_Z 40
_cell_length_a 8.828401
_cell_length_b 7.812944
_cell_length_c 30.364414
_cell_angle_alpha 90.000000
_cell_angle_beta 90.000000
_cell_angle_gamma 90.000000
_cell_volume 2094.409827
_symmetry_space_group_name_H-M "I M M 2"
_symmetry_group_IT_number 44
_symmetry_cell_setting 'orthorhombic'
loop_
_space_group_symop_operation_xyz
x,y,z
-x,-y,z
-x,y,z
x,-y,z
1/2+x,1/2+y,1/2+z
1/2-x,1/2-y,1/2+z
1/2-x,1/2+y,1/2+z
1/2+x,1/2-y,1/2+z
loop_
_atom_site_type_symbol
_atom_site_label
_atom_site_fract_x
_atom_site_fract_y
_atom_site_fract_z
Si Si1 0.818026 0.500000 0.070500
Si Si2 0.317968 0.312296 0.408542
Si Si3 0.680531 0.200392 0.128622
Si Si4 0.325454 0.291789 0.720849
Si Si5 0.182388 0.201697 0.317436
Si Si6 0.184877 0.500000 0.968904
O O1 0.757451 0.331222 0.095096
O O2 0.000000 0.500000 0.072106
O O3 0.767775 0.500000 0.019543
O O4 0.500000 0.299185 0.405441
O O5 0.278703 0.500000 0.425666
O O6 0.252446 0.289875 0.359745
O O7 0.264106 0.165016 0.441367
O O8 0.500000 0.210212 0.124487
O O9 0.729275 0.252723 0.178155
O O10 0.725995 0.000000 0.122283
O O11 0.500000 0.236177 0.714705
O O12 0.327458 0.500000 0.723403
O O13 0.269777 0.233595 0.768978
O O14 0.000000 0.215861 0.318534
O O15 0.221103 0.000000 0.320743
O O16 0.000000 0.500000 0.969070
#
# Coordination Sequence:
#
# PCOD9374867 Si02
#       6
#     4   8   8   8   8   4
#     4  11  23  39  63  89 111 147 199 247 296 347
#     4  10  20  35  56  81 109 143 185 231 280 334
#     4  10  21  38  59  85 119 153 188 237 293 349
#     4   8  15  30  53  80 111 150 194 232 272 330
#     4   9  17  31  53  81 113 150 188 227 273 326
#     4   9  20  39  59  81 109 143 187 241 290 335
#
# _framework density 19.098458000000001
#
# number of rings (size 3 to 8) (size 9 to 14) (size 15 to 20)
#    0.000    2.600    1.000    2.100    0.000    3.200 
#    1.800    6.000    0.000    0.000    0.000    0.000 
#    0.000    0.000    0.000    0.000    0.000    0.000 
#
# Total GULP energy -111580.879718 kJ/mol
# GULP energy per Si atom -5579.043986 kJ/mol
# Density = 1.905499 g / cm^3
# Si number density = 19.098458 Si / 1000 Ang^3
#
#
#
# Elastic Constant Matrix: (Units=GPa)
#
#
# Indices 1 2 3 4 5 6 
#
# 1 26.2284 35.3463 35.1567 0.0000 0.0000 0.0000
# 2 35.3463 117.3123 87.9205 0.0000 0.0000 0.0000
# 3 35.1567 87.9205 173.6223 0.0000 0.0000 0.0000
# 4 0.0000 0.0000 0.0000 -12.8765 0.0000 0.0000
# 5 0.0000 0.0000 0.0000 0.0000 26.3803 0.0000
# 6 0.0000 0.0000 0.0000 0.0000 0.0000 18.0264
#
#
#
# Elastic Compliance Matrix: (Units=1/GPa)
#
#
# Indices 1 2 3 4 5 6 
#
# 1 0.067198 -0.016196 -0.005406 0.000000 0.000000 0.000000
# 2 -0.016196 0.017641 -0.005654 0.000000 0.000000 0.000000
# 3 -0.005406 -0.005654 0.009717 0.000000 0.000000 0.000000
# 4 0.000000 0.000000 0.000000 -0.077661 0.000000 0.000000
# 5 0.000000 0.000000 0.000000 0.000000 0.037907 0.000000
# 6 0.000000 0.000000 0.000000 0.000000 0.000000 0.055474
#
#
# Mechanical properties :
#
#
# Convention : Reuss Voigt Hill
#
# Bulk Modulus (GPa) = 24.97108 70.44555 47.70831
# Shear Modulus (GPa) = 28.06848 16.88869 22.47859
#
# Velocity S-wave (km/s) = 3.83779 2.97694 3.43444
# Velocity P-wave (km/s) = 5.72202 6.98439 6.38448
#
# Compressibility (1/GPa) = 0.04004633
#
# Stress axis : x y z
#
# Youngs Moduli (GPa) = 14.88143 56.68485 102.90889
#
# Poissons Ratio (x) = 0.91804 0.55629
# Poissons Ratio (y) = 0.24101 0.58185
# Poissons Ratio (z) = 0.08044 0.32050
#
# Static dielectric constant tensor:
#      x y z
#    x 1.641660 0.000000 0.000000 
#    y 0.000000 1.693320 0.000000 
#    z 0.000000 0.000000 1.645240 
# 
# From -- ./inp_files/25937.got.cif
#   From: 2010.05.17/outbox.cif.g08.bks.cpg/sg44_13_cif.got.tgz:25937.got - 2010.06.03 19:37:08.
