data_PCOD9374932
_publ_section_title
;
Structure prediction by ZEFSAII (Michael W. Deem and Ramdas Pophale) SiO2 
 PCOD9374932
Probable space group: I M M 2
;
_chemical_formula_sum "Si O2"
_cell_formula_units_Z 64
_cell_length_a 8.410702
_cell_length_b 19.364373
_cell_length_c 19.135365
_cell_angle_alpha 90.000000
_cell_angle_beta 90.000000
_cell_angle_gamma 90.000000
_cell_volume 3116.538067
_symmetry_space_group_name_H-M "I M M 2"
_symmetry_group_IT_number 44
_symmetry_cell_setting 'orthorhombic'
loop_
_space_group_symop_operation_xyz
x,y,z
-x,-y,z
-x,y,z
x,-y,z
1/2+x,1/2+y,1/2+z
1/2-x,1/2-y,1/2+z
1/2-x,1/2+y,1/2+z
1/2+x,1/2-y,1/2+z
loop_
_atom_site_type_symbol
_atom_site_label
_atom_site_fract_x
_atom_site_fract_y
_atom_site_fract_z
Si Si1 0.688405 0.176353 0.234170
Si Si2 0.689423 0.579833 0.851845
Si Si3 0.191303 0.343824 0.990256
Si Si4 0.191232 0.577454 0.127742
Si Si5 0.315270 0.423432 0.372662
Si Si6 0.683142 0.922704 0.022438
Si Si7 0.183237 0.788934 0.081158
Si Si8 0.191896 0.173896 0.750195
O O1 0.500000 0.167464 0.240858
O O2 0.764925 0.113589 0.276878
O O3 0.726399 0.195113 0.153513
O O4 0.743123 0.248692 0.267323
O O5 0.500000 0.577468 0.856251
O O6 0.749386 0.500000 0.858407
O O7 0.748266 0.629525 0.915210
O O8 0.234469 0.400798 0.048931
O O9 0.242478 0.270828 0.027304
O O10 0.000000 0.339346 0.984355
O O11 0.250051 0.500000 0.144835
O O12 0.248272 0.637331 0.179910
O O13 0.000000 0.576405 0.131370
O O14 0.500000 0.407538 0.392426
O O15 0.317314 0.500000 0.341730
O O16 0.204365 0.424035 0.439463
O O17 0.257306 0.372257 0.314518
O O18 0.500000 0.907413 0.041573
O O19 0.800713 0.863136 0.045493
O O20 0.722086 0.000000 0.048708
O O21 0.000000 0.771472 0.097822
O O22 0.000000 0.174058 0.746132
#
# Coordination Sequence:
#
# PCOD9374932 Si02
#       8
#     8   8   8   8   8   8   8   8
#     4  11  24  42  65  93 126 164 208 257 312 372
#     4  11  26  46  68  96 129 168 216 269 324 382
#     4  10  22  41  65  93 127 166 209 260 318 380
#     4  10  20  35  58  88 123 163 204 248 304 370
#     4   9  18  34  55  81 117 158 198 241 290 351
#     4  10  22  39  59  87 121 157 200 251 309 370
#     4  11  23  41  66  93 124 164 210 260 318 379
#     4  10  21  36  56  85 121 160 203 249 300 362
#
# _framework density 20.535606999999999
#
# number of rings (size 3 to 8) (size 9 to 14) (size 15 to 20)
#    0.000    1.750    1.250    2.250    1.750    6.000 
#    0.000    1.250    0.000    0.000    0.000    0.000 
#    0.000    0.000    0.000    0.000    0.000    0.000 
#
# Total GULP energy -178388.756187 kJ/mol
# GULP energy per Si atom -5574.648631 kJ/mol
# Density = 2.048887 g / cm^3
# Si number density = 20.535607 Si / 1000 Ang^3
#
#
#
# Elastic Constant Matrix: (Units=GPa)
#
#
# Indices 1 2 3 4 5 6 
#
# 1 22.4697 23.1741 8.8201 0.0000 0.0000 0.0000
# 2 23.1741 107.3538 51.5986 0.0000 0.0000 0.0000
# 3 8.8201 51.5986 61.9212 0.0000 0.0000 0.0000
# 4 0.0000 0.0000 0.0000 33.5589 0.0000 0.0000
# 5 0.0000 0.0000 0.0000 0.0000 33.1263 0.0000
# 6 0.0000 0.0000 0.0000 0.0000 0.0000 21.6870
#
#
#
# Elastic Compliance Matrix: (Units=1/GPa)
#
#
# Indices 1 2 3 4 5 6 
#
# 1 0.057729 -0.014195 0.003605 0.000000 0.000000 0.000000
# 2 -0.014195 0.019029 -0.013835 0.000000 0.000000 0.000000
# 3 0.003605 -0.013835 0.027164 0.000000 0.000000 0.000000
# 4 0.000000 0.000000 0.000000 0.029798 0.000000 0.000000
# 5 0.000000 0.000000 0.000000 0.000000 0.030187 0.000000
# 6 0.000000 0.000000 0.000000 0.000000 0.000000 0.046110
#
#
# Mechanical properties :
#
#
# Convention : Reuss Voigt Hill
#
# Bulk Modulus (GPa) = 18.15734 39.88114 29.01924
# Shear Modulus (GPa) = 18.03599 24.88458 21.46029
#
# Velocity S-wave (km/s) = 2.96679 3.48484 3.23620
# Velocity P-wave (km/s) = 4.53838 5.97116 5.30338
#
# Compressibility (1/GPa) = 0.05507414
#
# Stress axis : x y z
#
# Youngs Moduli (GPa) = 17.32236 52.55255 36.81311
#
# Poissons Ratio (x) = 0.74596 -0.13273
# Poissons Ratio (y) = 0.24588 0.50929
# Poissons Ratio (z) = -0.06245 0.72704
#
# Static dielectric constant tensor:
#      x y z
#    x 1.730470 0.000000 0.000000 
#    y 0.000000 1.701560 0.000000 
#    z 0.000000 0.000000 1.774290 
# 
# From -- ./inp_files/23321.got.cif
#   From: 2010.05.17/outbox.cif.g08.bks.cpg/sg44_12_cif.got.tgz:23321.got - 2010.06.03 19:37:08.
