data_PCOD9374810
_publ_section_title
;
Structure prediction by ZEFSAII (Michael W. Deem and Ramdas Pophale) SiO2 
 PCOD9374810
Probable space group: I M M 2
;
_chemical_formula_sum "Si O2"
_cell_formula_units_Z 64
_cell_length_a 20.558600
_cell_length_b 21.480496
_cell_length_c 7.989207
_cell_angle_alpha 90.000000
_cell_angle_beta 90.000000
_cell_angle_gamma 90.000000
_cell_volume 3528.105115
_symmetry_space_group_name_H-M "I M M 2"
_symmetry_group_IT_number 44
_symmetry_cell_setting 'orthorhombic'
loop_
_space_group_symop_operation_xyz
x,y,z
-x,-y,z
-x,y,z
x,-y,z
1/2+x,1/2+y,1/2+z
1/2-x,1/2-y,1/2+z
1/2-x,1/2+y,1/2+z
1/2+x,1/2-y,1/2+z
loop_
_atom_site_type_symbol
_atom_site_label
_atom_site_fract_x
_atom_site_fract_y
_atom_site_fract_z
Si Si1 0.313431 0.802702 0.882600
Si Si2 0.213400 0.071262 0.397622
Si Si3 0.075308 0.185995 0.887471
Si Si4 0.147656 0.070072 0.035230
Si Si5 0.424459 0.808801 0.614495
Si Si6 0.287489 0.067482 0.895763
Si Si7 0.350866 0.069072 0.523183
Si Si8 0.690616 0.312142 0.130399
O O1 0.378531 0.797367 0.773927
O O2 0.314250 0.869410 0.976006
O O3 0.252183 0.807289 0.755444
O O4 0.304076 0.745250 0.003599
O O5 0.179741 0.079430 0.218049
O O6 0.291778 0.076920 0.393005
O O7 0.191192 0.124277 0.524776
O O8 0.199984 0.000000 0.454150
O O9 0.124328 0.191863 0.733528
O O10 0.000000 0.179301 0.839495
O O11 0.099162 0.125306 0.990117
O O12 0.082149 0.248561 0.996907
O O13 0.119632 0.000000 0.028992
O O14 0.209401 0.071358 0.909078
O O15 0.500000 0.816229 0.659073
O O16 0.398173 0.872047 0.527515
O O17 0.315097 0.068322 0.706295
O O18 0.305389 0.000000 0.970020
O O19 0.380352 0.000000 0.501572
#
# Coordination Sequence:
#
# PCOD9374810 Si02
#       8
#     8   8   8   8   8   8   8   8
#     4  11  22  34  58  87 112 149 189 248 282 338
#     4  10  20  34  58  88 118 144 180 240 292 336
#     4  11  24  41  57  77 113 158 194 235 292 349
#     4  10  20  35  58  87 114 146 187 232 287 345
#     4  10  21  38  55  79 117 156 190 231 287 341
#     4   9  17  32  54  80 112 145 180 228 283 332
#     4   9  17  32  54  83 113 146 187 231 279 333
#     4  12  23  36  58  85 115 146 199 243 290 340
#
# _framework density 18.140048
#
# number of rings (size 3 to 8) (size 9 to 14) (size 15 to 20)
#    0.000    1.750    3.750    1.500    1.750    1.500 
#    0.000    0.625    0.000    0.750    0.000    0.000 
#    0.000    5.000    0.000    0.000    0.000    0.000 
#
# Total GULP energy -178495.919626 kJ/mol
# GULP energy per Si atom -5577.997488 kJ/mol
# Density = 1.809876 g / cm^3
# Si number density = 18.140048 Si / 1000 Ang^3
#
#
#
# Elastic Constant Matrix: (Units=GPa)
#
#
# Indices 1 2 3 4 5 6 
#
# 1 111.9854 72.8200 41.0620 0.0000 0.0000 0.0000
# 2 72.8200 168.1061 61.0060 0.0000 0.0000 0.0000
# 3 41.0620 61.0060 58.1185 0.0000 0.0000 0.0000
# 4 0.0000 0.0000 0.0000 19.5692 0.0000 0.0000
# 5 0.0000 0.0000 0.0000 0.0000 18.0740 0.0000
# 6 0.0000 0.0000 0.0000 0.0000 0.0000 20.0571
#
#
#
# Elastic Compliance Matrix: (Units=1/GPa)
#
#
# Indices 1 2 3 4 5 6 
#
# 1 0.013425 -0.003834 -0.005461 0.000000 0.000000 0.000000
# 2 -0.003834 0.010704 -0.008527 0.000000 0.000000 0.000000
# 3 -0.005461 -0.008527 0.030015 0.000000 0.000000 0.000000
# 4 0.000000 0.000000 0.000000 0.051101 0.000000 0.000000
# 5 0.000000 0.000000 0.000000 0.000000 0.055328 0.000000
# 6 0.000000 0.000000 0.000000 0.000000 0.000000 0.049858
#
#
# Mechanical properties :
#
#
# Convention : Reuss Voigt Hill
#
# Bulk Modulus (GPa) = 54.05195 76.44289 65.24742
# Shear Modulus (GPa) = 19.82236 22.42819 21.12527
#
# Velocity S-wave (km/s) = 3.30925 3.52005 3.41628
# Velocity P-wave (km/s) = 6.66807 7.66504 7.18387
#
# Compressibility (1/GPa) = 0.01850072
#
# Stress axis : x y z
#
# Youngs Moduli (GPa) = 74.48797 93.42544 33.31656
#
# Poissons Ratio (x) = 0.35816 0.18194
# Poissons Ratio (y) = 0.28556 0.28409
# Poissons Ratio (z) = 0.40678 0.79664
#
# Static dielectric constant tensor:
#      x y z
#    x 1.587930 0.000000 0.000000 
#    y 0.000000 1.670900 0.000000 
#    z 0.000000 0.000000 1.631880 
# 
# From -- ./inp_files/8465.got.cif
#   From: 2010.05.17/outbox.cif.g08.bks.cpg/sg44_5_cif.got.tgz:8465.got - 2010.06.03 19:37:08.
