data_PCOD9374777
_publ_section_title
;
Structure prediction by ZEFSAII (Michael W. Deem and Ramdas Pophale) SiO2 
 PCOD9374777
Probable space group: I M M 2
;
_chemical_formula_sum "Si O2"
_cell_formula_units_Z 48
_cell_length_a 10.875986
_cell_length_b 26.769299
_cell_length_c 8.922742
_cell_angle_alpha 90.000000
_cell_angle_beta 90.000000
_cell_angle_gamma 90.000000
_cell_volume 2597.789601
_symmetry_space_group_name_H-M "I M M 2"
_symmetry_group_IT_number 44
_symmetry_cell_setting 'orthorhombic'
loop_
_space_group_symop_operation_xyz
x,y,z
-x,-y,z
-x,y,z
x,-y,z
1/2+x,1/2+y,1/2+z
1/2-x,1/2-y,1/2+z
1/2-x,1/2+y,1/2+z
1/2+x,1/2-y,1/2+z
loop_
_atom_site_type_symbol
_atom_site_label
_atom_site_fract_x
_atom_site_fract_y
_atom_site_fract_z
Si Si1 0.865718 0.418393 0.797180
Si Si2 0.138705 0.557306 0.142444
Si Si3 0.249142 0.685172 0.800533
Si Si4 0.144318 0.775888 0.611985
Si Si5 0.366046 0.400118 0.631689
Si Si6 0.860425 0.879702 0.779594
O O1 0.853510 0.358166 0.819307
O O2 0.750443 0.431070 0.691907
O O3 0.000000 0.430984 0.735540
O O4 0.853303 0.441055 0.961910
O O5 0.149252 0.500000 0.192564
O O6 0.250570 0.589242 0.206013
O O7 0.000000 0.575497 0.181701
O O8 0.204727 0.727888 0.688623
O O9 0.356040 0.651519 0.725761
O O10 0.290242 0.708067 0.957969
O O11 0.152997 0.822689 0.725831
O O12 0.000000 0.766535 0.583186
O O13 0.500000 0.423273 0.655700
O O14 0.352001 0.386534 0.457866
O O15 0.000000 0.895594 0.734039
#
# Coordination Sequence:
#
# PCOD9374777 Si02
#       6
#     8   8   8   8   8   8
#     4   9  19  36  58  81 111 147 188 237 280 335
#     4  10  21  39  61  86 113 146 190 239 292 345
#     4  10  20  34  56  80 113 148 194 231 276 332
#     4  11  21  35  54  80 114 152 190 234 282 333
#     4   9  19  35  57  80 112 149 185 231 283 333
#     4  10  20  37  58  83 113 148 188 235 285 338
#
# _framework density 18.477246999999998
#
# number of rings (size 3 to 8) (size 9 to 14) (size 15 to 20)
#    1.000    1.167    1.667    2.000    0.000    1.667 
#    0.000    5.000    0.000    3.000    0.000    0.000 
#    0.000    0.000    0.000    0.000    0.000    0.000 
#
# Total GULP energy -133659.373991 kJ/mol
# GULP energy per Si atom -5569.140583 kJ/mol
# Density = 1.843519 g / cm^3
# Si number density = 18.477247 Si / 1000 Ang^3
#
#
#
# Elastic Constant Matrix: (Units=GPa)
#
#
# Indices 1 2 3 4 5 6 
#
# 1 121.9566 19.1759 28.2562 0.0001 0.0000 0.0000
# 2 19.1759 37.6027 -4.2567 0.0002 0.0000 -0.0001
# 3 28.2562 -4.2567 47.8309 -0.0002 -0.0005 0.0004
# 4 0.0001 0.0002 -0.0002 -5.9021 -0.0002 -0.0003
# 5 0.0000 0.0000 -0.0005 -0.0002 28.0975 -0.0001
# 6 0.0000 -0.0001 0.0004 -0.0003 -0.0001 2.7006
#
#
#
# Elastic Compliance Matrix: (Units=1/GPa)
#
#
# Indices 1 2 3 4 5 6 
#
# 1 0.010796 -0.006291 -0.006938 0.000000 0.000000 0.000001
# 2 -0.006291 0.030530 0.006433 0.000001 0.000000 0.000000
# 3 -0.006938 0.006433 0.025578 -0.000001 0.000000 -0.000004
# 4 0.000000 0.000001 -0.000001 -0.169433 -0.000001 -0.000018
# 5 0.000000 0.000000 0.000000 -0.000001 0.035590 0.000001
# 6 0.000001 0.000000 -0.000004 -0.000018 0.000001 0.370286
#
#
# Mechanical properties :
#
#
# Convention : Reuss Voigt Hill
#
# Bulk Modulus (GPa) = 18.75684 32.63789 25.69736
# Shear Modulus (GPa) = 14.93829 15.92686 15.43257
#
# Velocity S-wave (km/s) = 2.84644 2.93912 2.89315
# Velocity P-wave (km/s) = 4.57999 5.40556 5.00981
#
# Compressibility (1/GPa) = 0.05331390
#
# Stress axis : x y z
#
# Youngs Moduli (GPa) = 92.62502 32.75434 39.09608
#
# Poissons Ratio (x) = 0.20606 0.27124
# Poissons Ratio (y) = 0.58271 -0.25152
# Poissons Ratio (z) = 0.64261 -0.21072
#
# Static dielectric constant tensor:
#      x y z
#    x 1.654800 0.000000 0.000000 
#    y 0.000000 1.609530 0.000000 
#    z 0.000000 0.000000 1.605050 
# 
# From -- ./inp_files/4914.got.cif
#   From: 2010.05.17/outbox.cif.g08.bks.cpg/sg44_3_cif.got.tgz:4914.got - 2010.06.03 19:37:08.
