data_PCOD9374903
_publ_section_title
;
Structure prediction by ZEFSAII (Michael W. Deem and Ramdas Pophale) SiO2 
 PCOD9374903
Probable space group: I M M 2
;
_chemical_formula_sum "Si O2"
_cell_formula_units_Z 48
_cell_length_a 28.734785
_cell_length_b 8.893511
_cell_length_c 10.519326
_cell_angle_alpha 90.000000
_cell_angle_beta 90.000000
_cell_angle_gamma 90.000000
_cell_volume 2688.246648
_symmetry_space_group_name_H-M "I M M 2"
_symmetry_group_IT_number 44
_symmetry_cell_setting 'orthorhombic'
loop_
_space_group_symop_operation_xyz
x,y,z
-x,-y,z
-x,y,z
x,-y,z
1/2+x,1/2+y,1/2+z
1/2-x,1/2-y,1/2+z
1/2-x,1/2+y,1/2+z
1/2+x,1/2-y,1/2+z
loop_
_atom_site_type_symbol
_atom_site_label
_atom_site_fract_x
_atom_site_fract_y
_atom_site_fract_z
Si Si1 0.553539 0.179436 0.561610
Si Si2 0.053501 0.179295 0.781623
Si Si3 0.802373 0.180803 0.915141
Si Si4 0.642613 0.320018 0.673274
Si Si5 0.306528 0.818977 0.915173
Si Si6 0.143059 0.319979 0.677991
O O1 0.500000 0.210728 0.599026
O O2 0.560617 0.251255 0.422024
O O3 0.591744 0.249133 0.654157
O O4 0.559445 0.000000 0.552872
O O5 0.091749 0.250437 0.690166
O O6 0.000000 0.210310 0.744479
O O7 0.059865 0.000000 0.789444
O O8 0.747995 0.221383 0.919491
O O9 0.827678 0.258951 0.797436
O O10 0.806090 0.000000 0.899992
O O11 0.827640 0.220480 0.047217
O O12 0.639334 0.500000 0.678902
O O13 0.668276 0.257703 0.796842
O O14 0.309463 0.000000 0.901581
O O15 0.331454 0.777776 0.047234
O O16 0.140371 0.500000 0.684992
#
# Coordination Sequence:
#
# PCOD9374903 Si02
#       6
#     8   8   8   8   8   8
#     4  10  20  35  58  87 115 146 187 233 282 337
#     4  10  20  35  57  85 115 147 186 233 284 339
#     4  10  21  38  59  83 113 150 194 240 283 335
#     4  11  22  37  59  87 117 151 191 235 285 339
#     4  10  23  40  56  80 117 156 194 236 282 337
#     4  11  22  37  59  86 115 150 192 237 286 339
#
# _framework density 17.855504
#
# number of rings (size 3 to 8) (size 9 to 14) (size 15 to 20)
#    0.000    1.667    1.667    3.000    0.000    6.000 
#    0.000    0.833    0.000    1.000    0.000    0.000 
#    0.000    0.000    0.000    0.000    0.000    0.000 
#
# Total GULP energy -134102.807489 kJ/mol
# GULP energy per Si atom -5587.616979 kJ/mol
# Density = 1.781486 g / cm^3
# Si number density = 17.855504 Si / 1000 Ang^3
#
#
#
# Elastic Constant Matrix: (Units=GPa)
#
#
# Indices 1 2 3 4 5 6 
#
# 1 160.7973 63.7238 82.3564 0.0000 0.0000 0.0000
# 2 63.7238 51.6685 56.5693 0.0000 0.0000 0.0000
# 3 82.3564 56.5693 130.3903 0.0000 0.0000 0.0000
# 4 0.0000 0.0000 0.0000 29.5467 0.0000 0.0000
# 5 0.0000 0.0000 0.0000 0.0000 -0.3081 0.0000
# 6 0.0000 0.0000 0.0000 0.0000 0.0000 32.0146
#
#
#
# Elastic Compliance Matrix: (Units=1/GPa)
#
#
# Indices 1 2 3 4 5 6 
#
# 1 0.012517 -0.012918 -0.002302 0.000000 0.000000 0.000000
# 2 -0.012918 0.050196 -0.013618 0.000000 0.000000 0.000000
# 3 -0.002302 -0.013618 0.015031 0.000000 0.000000 0.000000
# 4 0.000000 0.000000 0.000000 0.033845 0.000000 0.000000
# 5 0.000000 0.000000 0.000000 0.000000 -3.245294 0.000000
# 6 0.000000 0.000000 0.000000 0.000000 0.000000 0.031236
#
#
# Mechanical properties :
#
#
# Convention : Reuss Voigt Hill
#
# Bulk Modulus (GPa) = 49.82826 83.12833 66.47830
# Shear Modulus (GPa) = -1.64576 21.59775 9.97599
#
# Velocity S-wave (km/s) = -0.96110 3.48168 2.36626
# Velocity P-wave (km/s) = 5.17062 7.92591 6.69161
#
# Compressibility (1/GPa) = 0.02006893
#
# Stress axis : x y z
#
# Youngs Moduli (GPa) = 79.89051 19.92208 66.52770
#
# Poissons Ratio (x) = 0.25734 0.15313
# Poissons Ratio (y) = 1.03199 0.90599
# Poissons Ratio (z) = 0.18389 0.27130
#
# Static dielectric constant tensor:
#      x y z
#    x 1.613200 0.000000 0.000000 
#    y 0.000000 1.595070 0.000000 
#    z 0.000000 0.000000 1.568230 
# 
# From -- ./inp_files/4879.got.cif
#   From: 2010.05.17/outbox.cif.g08.bks.cpg/sg44_3_cif.got.tgz:4879.got - 2010.06.03 19:37:08.
