data_PCOD9374419
_publ_section_title
;
Structure prediction by ZEFSAII (Michael W. Deem and Ramdas Pophale) SiO2 
 PCOD9374419
Probable space group: I M M 2
;
_chemical_formula_sum "Si O2"
_cell_formula_units_Z 64
_cell_length_a 18.833336
_cell_length_b 7.635909
_cell_length_c 21.948756
_cell_angle_alpha 90.000000
_cell_angle_beta 90.000000
_cell_angle_gamma 90.000000
_cell_volume 3156.442696
_symmetry_space_group_name_H-M "I M M 2"
_symmetry_group_IT_number 44
_symmetry_cell_setting 'orthorhombic'
loop_
_space_group_symop_operation_xyz
x,y,z
-x,-y,z
-x,y,z
x,-y,z
1/2+x,1/2+y,1/2+z
1/2-x,1/2-y,1/2+z
1/2-x,1/2+y,1/2+z
1/2+x,1/2-y,1/2+z
loop_
_atom_site_type_symbol
_atom_site_label
_atom_site_fract_x
_atom_site_fract_y
_atom_site_fract_z
Si Si1 0.667155 0.210465 0.204420
Si Si2 0.417470 0.214694 0.086276
Si Si3 0.918709 0.708990 0.086303
Si Si4 0.419175 0.292085 0.453721
Si Si5 0.082530 0.714694 0.321167
Si Si6 0.418709 0.208989 0.321139
Si Si7 0.332848 0.789538 0.703023
Si Si8 0.913586 0.704281 0.453722
O O1 0.628882 0.274846 0.143076
O O2 0.628171 0.277351 0.265383
O O3 0.750001 0.250008 0.203721
O O4 0.659262 0.000000 0.204319
O O5 0.500000 0.263440 0.094808
O O6 0.416034 0.000000 0.084555
O O7 0.392262 0.277784 0.019502
O O8 0.923480 0.500000 0.093320
O O9 0.871830 0.777353 0.142060
O O10 0.000000 0.778595 0.088187
O O11 0.887532 0.740794 0.018853
O O12 0.500000 0.217305 0.453721
O O13 0.423423 0.500000 0.453720
O O14 0.387532 0.240792 0.388589
O O15 0.083967 0.500000 0.322888
O O16 0.128881 0.774849 0.264367
O O17 0.107738 0.777784 0.387941
O O18 0.000000 0.763438 0.312635
O O19 0.500000 0.278596 0.319256
O O20 0.423480 0.000000 0.314121
O O21 0.340747 0.000000 0.703124
O O22 0.892207 0.500000 0.453722
O O23 0.000000 0.708140 0.453722
#
# Coordination Sequence:
#
# PCOD9374419 Si02
#       8
#     8   8   8   8   8   8   8   8
#     4  10  20  32  46  66  95 128 160 195 233 274
#     4   8  13  24  44  68  91 116 149 188 227 268
#     4   9  17  31  51  71  91 122 164 202 236 281
#     4   9  17  29  48  75 100 118 144 193 252 297
#     4   8  13  24  44  68  91 116 149 188 227 268
#     4   9  17  31  51  71  91 122 164 202 236 281
#     4  10  20  32  46  66  95 128 160 195 233 274
#     4   7  10  18  37  66  92 108 132 181 234 266
#
# _framework density 20.27599
#
# number of rings (size 3 to 8) (size 9 to 14) (size 15 to 20)
#    0.000    3.250    0.000    2.625    0.000    5.500 
#    0.000    1.250    0.000    3.750    0.000    0.000 
#    0.000    3.000    0.000    0.000    0.000    0.000 
#
# Total GULP energy -178302.007498 kJ/mol
# GULP energy per Si atom -5571.937734 kJ/mol
# Density = 2.022984 g / cm^3
# Si number density = 20.275990 Si / 1000 Ang^3
#
#
#
# Elastic Constant Matrix: (Units=GPa)
#
#
# Indices 1 2 3 4 5 6 
#
# 1 82.6917 0.8335 103.5955 0.0000 0.0000 0.0000
# 2 0.8335 40.9235 8.8174 0.0000 0.0000 0.0000
# 3 103.5955 8.8174 270.5976 0.0000 0.0000 0.0000
# 4 0.0000 0.0000 0.0000 -7.2660 0.0000 0.0000
# 5 0.0000 0.0000 0.0000 0.0000 -9.2429 0.0000
# 6 0.0000 0.0000 0.0000 0.0000 0.0000 16.2266
#
#
#
# Elastic Compliance Matrix: (Units=1/GPa)
#
#
# Indices 1 2 3 4 5 6 
#
# 1 0.023325 0.001459 -0.008977 0.000000 0.000000 0.000000
# 2 0.001459 0.024700 -0.001363 0.000000 0.000000 0.000000
# 3 -0.008977 -0.001363 0.007177 0.000000 0.000000 0.000000
# 4 0.000000 0.000000 0.000000 -0.137627 0.000000 0.000000
# 5 0.000000 0.000000 0.000000 0.000000 -0.108191 0.000000
# 6 0.000000 0.000000 0.000000 0.000000 0.000000 0.061627
#
#
# Mechanical properties :
#
#
# Convention : Reuss Voigt Hill
#
# Bulk Modulus (GPa) = 26.71035 68.96726 47.83881
# Shear Modulus (GPa) = -50.63495 18.67462 -15.98016
#
# Velocity S-wave (km/s) = -5.00271 3.03813 -2.81042
# Velocity P-wave (km/s) = 4.49082 6.81139 3.62130
#
# Compressibility (1/GPa) = 0.03743867
#
# Stress axis : x y z
#
# Youngs Moduli (GPa) = 42.87217 40.48597 139.33722
#
# Poissons Ratio (x) = -0.05908 1.25088
# Poissons Ratio (y) = -0.06256 0.18998
# Poissons Ratio (z) = 0.38488 0.05520
#
# Static dielectric constant tensor:
#      x y z
#    x 1.668530 0.000000 0.000000 
#    y 0.000000 1.764750 0.000000 
#    z 0.000000 0.000000 1.768900 
# 
# From -- ./inp_files/24347.got.cif
#   From: 2010.05.17/outbox.cif.g08.bks.cpg/sg44_13_cif.got.tgz:24347.got - 2010.06.03 19:37:08.
