data_PCOD9374164
_publ_section_title
;
Structure prediction by ZEFSAII (Michael W. Deem and Ramdas Pophale) SiO2 
 PCOD9374164
Probable space group: I M M 2
;
_chemical_formula_sum "Si O2"
_cell_formula_units_Z 64
_cell_length_a 8.840380
_cell_length_b 25.415973
_cell_length_c 15.352919
_cell_angle_alpha 90.000000
_cell_angle_beta 90.000000
_cell_angle_gamma 90.000000
_cell_volume 3449.599153
_symmetry_space_group_name_H-M "I M M 2"
_symmetry_group_IT_number 44
_symmetry_cell_setting 'orthorhombic'
loop_
_space_group_symop_operation_xyz
x,y,z
-x,-y,z
-x,y,z
x,-y,z
1/2+x,1/2+y,1/2+z
1/2-x,1/2-y,1/2+z
1/2-x,1/2+y,1/2+z
1/2+x,1/2-y,1/2+z
loop_
_atom_site_type_symbol
_atom_site_label
_atom_site_fract_x
_atom_site_fract_y
_atom_site_fract_z
Si Si1 0.180056 0.218096 0.935850
Si Si2 0.179545 0.863077 0.225663
Si Si3 0.320527 0.838115 0.402319
Si Si4 0.181781 0.851020 0.591388
Si Si5 0.680383 0.232565 0.125374
Si Si6 0.319262 0.111898 0.894152
Si Si7 0.682304 0.938504 0.080576
Si Si8 0.318849 0.440006 0.228427
O O1 0.209069 0.275160 0.894178
O O2 0.239630 0.168352 0.882855
O O3 0.000000 0.213653 0.950531
O O4 0.267264 0.217523 0.027905
O O5 0.240848 0.868040 0.323567
O O6 0.237122 0.806762 0.190085
O O7 0.245656 0.906415 0.159771
O O8 0.000000 0.865014 0.224307
O O9 0.500000 0.845842 0.397866
O O10 0.259526 0.853544 0.497354
O O11 0.218130 0.794277 0.634184
O O12 0.225831 0.898406 0.654411
O O13 0.000000 0.851979 0.578907
O O14 0.500000 0.225801 0.134080
O O15 0.500000 0.117952 0.892770
O O16 0.264992 0.074088 0.817494
O O17 0.275270 0.088006 0.988295
O O18 0.500000 0.935039 0.087554
O O19 0.724461 0.000000 0.081119
O O20 0.500000 0.434504 0.242054
O O21 0.288215 0.500000 0.202478
#
# Coordination Sequence:
#
# PCOD9374164 Si02
#       8
#     8   8   8   8   8   8   8   8
#     4  10  20  35  56  85 118 154 195 238 292 352
#     4  12  24  37  58  88 121 158 202 245 293 353
#     4  10  22  39  60  85 119 157 196 247 301 354
#     4   9  20  39  61  85 115 153 198 248 301 353
#     4  10  19  34  56  83 117 155 193 237 293 351
#     4  11  22  36  58  88 121 158 196 239 292 353
#     4  10  22  41  62  84 117 160 202 246 298 352
#     4  10  22  40  61  86 118 157 201 248 296 348
#
# _framework density 18.552879999999998
#
# number of rings (size 3 to 8) (size 9 to 14) (size 15 to 20)
#    0.000    1.750    1.250    3.000    1.750    4.000 
#    0.000    0.625    0.000    2.250    0.000    0.000 
#    0.000    0.000    0.000    0.000    0.000    0.000 
#
# Total GULP energy -178810.562395 kJ/mol
# GULP energy per Si atom -5587.830075 kJ/mol
# Density = 1.851065 g / cm^3
# Si number density = 18.552880 Si / 1000 Ang^3
#
#
#
# Elastic Constant Matrix: (Units=GPa)
#
#
# Indices 1 2 3 4 5 6 
#
# 1 48.5121 42.8575 39.9944 0.0000 0.0000 0.0000
# 2 42.8575 111.3246 60.1107 0.0000 0.0000 0.0000
# 3 39.9944 60.1107 93.5789 0.0000 0.0000 0.0000
# 4 0.0000 0.0000 0.0000 29.5108 0.0000 0.0000
# 5 0.0000 0.0000 0.0000 0.0000 30.3331 0.0000
# 6 0.0000 0.0000 0.0000 0.0000 0.0000 17.3828
#
#
#
# Elastic Compliance Matrix: (Units=1/GPa)
#
#
# Indices 1 2 3 4 5 6 
#
# 1 0.036542 -0.008627 -0.010076 0.000000 0.000000 0.000000
# 2 -0.008627 0.015790 -0.006455 0.000000 0.000000 0.000000
# 3 -0.010076 -0.006455 0.019139 0.000000 0.000000 0.000000
# 4 0.000000 0.000000 0.000000 0.033886 0.000000 0.000000
# 5 0.000000 0.000000 0.000000 0.000000 0.032967 0.000000
# 6 0.000000 0.000000 0.000000 0.000000 0.000000 0.057528
#
#
# Mechanical properties :
#
#
# Convention : Reuss Voigt Hill
#
# Bulk Modulus (GPa) = 47.27295 59.92676 53.59985
# Shear Modulus (GPa) = 19.74570 22.80887 21.27728
#
# Velocity S-wave (km/s) = 3.26589 3.51008 3.39018
# Velocity P-wave (km/s) = 6.30530 6.98557 6.65413
#
# Compressibility (1/GPa) = 0.02115375
#
# Stress axis : x y z
#
# Youngs Moduli (GPa) = 27.36598 63.33251 52.24934
#
# Poissons Ratio (x) = 0.54639 0.52645
# Poissons Ratio (y) = 0.23609 0.33729
# Poissons Ratio (z) = 0.27573 0.40883
#
# Static dielectric constant tensor:
#      x y z
#    x 1.617860 0.000000 0.000000 
#    y 0.000000 1.636420 0.000000 
#    z 0.000000 0.000000 1.624560 
# 
# From -- ./inp_files/16784.got.cif
#   From: 2010.05.17/outbox.cif.g08.bks.cpg/sg44_9_cif.got.tgz:16784.got - 2010.06.03 19:37:08.
