data_PCOD9374533
_publ_section_title
;
Structure prediction by ZEFSAII (Michael W. Deem and Ramdas Pophale) SiO2 
 PCOD9374533
Probable space group: I M M 2
;
_chemical_formula_sum "Si O2"
_cell_formula_units_Z 64
_cell_length_a 24.190623
_cell_length_b 13.054367
_cell_length_c 9.316474
_cell_angle_alpha 90.000000
_cell_angle_beta 90.000000
_cell_angle_gamma 90.000000
_cell_volume 2942.079795
_symmetry_space_group_name_H-M "I M M 2"
_symmetry_group_IT_number 44
_symmetry_cell_setting 'orthorhombic'
loop_
_space_group_symop_operation_xyz
x,y,z
-x,-y,z
-x,y,z
x,-y,z
1/2+x,1/2+y,1/2+z
1/2-x,1/2-y,1/2+z
1/2-x,1/2+y,1/2+z
1/2+x,1/2-y,1/2+z
loop_
_atom_site_type_symbol
_atom_site_label
_atom_site_fract_x
_atom_site_fract_y
_atom_site_fract_z
Si Si1 0.595574 0.115780 0.618980
Si Si2 0.287054 0.785168 0.676732
Si Si3 0.628355 0.884945 0.294708
Si Si4 0.436351 0.738834 0.081505
Si Si5 0.438253 0.683517 0.761204
Si Si6 0.754832 0.121651 0.410283
Si Si7 0.058782 0.881004 0.845395
Si Si8 0.848608 0.885342 0.044070
O O1 0.657461 0.145659 0.674827
O O2 0.595449 0.120546 0.445908
O O3 0.559909 0.206674 0.682904
O O4 0.581665 0.000000 0.662024
O O5 0.244244 0.852709 0.582029
O O6 0.280499 0.719216 0.823164
O O7 0.299005 0.689772 0.570715
O O8 0.603877 0.811638 0.172458
O O9 0.691976 0.874243 0.346646
O O10 0.622517 0.000000 0.237907
O O11 0.500000 0.779836 0.077181
O O12 0.438773 0.636704 0.177595
O O13 0.420173 0.708560 0.922408
O O14 0.500000 0.637579 0.760831
O O15 0.391837 0.620066 0.676735
O O16 0.772832 0.000000 0.387793
O O17 0.000000 0.835834 0.896460
O O18 0.058152 0.000000 0.883555
O O19 0.114163 0.841364 0.916292
O O20 0.830213 0.000000 0.017635
#
# Coordination Sequence:
#
# PCOD9374533 Si02
#       8
#     8   8   8   8   8   8   8   8
#     4   9  19  37  58  77 102 140 186 229 272 327
#     4  10  20  37  59  81 109 142 179 228 284 338
#     4   9  19  36  56  75  98 135 178 218 261 314
#     4  10  20  33  49  74 108 139 171 214 264 320
#     4  10  21  33  49  77 111 145 177 219 277 332
#     4  10  21  38  59  84 113 144 184 231 282 344
#     4   9  17  30  50  73  98 135 178 214 250 299
#     4  10  20  35  55  78 106 140 184 231 270 322
#
# _framework density 21.753319999999999
#
# number of rings (size 3 to 8) (size 9 to 14) (size 15 to 20)
#    0.000    2.375    0.000    4.125    0.000    5.750 
#    0.000    7.500    0.000    4.500    0.000    0.000 
#    0.000    0.000    0.000    0.000    0.000    0.000 
#
# Total GULP energy -178157.485891 kJ/mol
# GULP energy per Si atom -5567.421434 kJ/mol
# Density = 2.170381 g / cm^3
# Si number density = 21.753320 Si / 1000 Ang^3
#
#
#
# Elastic Constant Matrix: (Units=GPa)
#
#
# Indices 1 2 3 4 5 6 
#
# 1 13.9365 -8.2013 2.5187 0.0000 0.0000 0.0000
# 2 -8.2013 76.0656 -6.3338 0.0000 0.0000 0.0000
# 3 2.5187 -6.3338 72.3465 0.0000 0.0000 0.0000
# 4 0.0000 0.0000 0.0000 19.0027 0.0000 0.0000
# 5 0.0000 0.0000 0.0000 0.0000 16.4011 0.0000
# 6 0.0000 0.0000 0.0000 0.0000 0.0000 18.5254
#
#
#
# Elastic Compliance Matrix: (Units=1/GPa)
#
#
# Indices 1 2 3 4 5 6 
#
# 1 0.076892 0.008127 -0.001965 0.000000 0.000000 0.000000
# 2 0.008127 0.014102 0.000952 0.000000 0.000000 0.000000
# 3 -0.001965 0.000952 0.013974 0.000000 0.000000 0.000000
# 4 0.000000 0.000000 0.000000 0.052624 0.000000 0.000000
# 5 0.000000 0.000000 0.000000 0.000000 0.060971 0.000000
# 6 0.000000 0.000000 0.000000 0.000000 0.000000 0.053980
#
#
# Mechanical properties :
#
#
# Convention : Reuss Voigt Hill
#
# Bulk Modulus (GPa) = 8.38969 15.36841 11.87905
# Shear Modulus (GPa) = 16.77578 22.41018 19.59298
#
# Velocity S-wave (km/s) = 2.78003 3.21315 3.00440
# Velocity P-wave (km/s) = 3.76429 4.56574 4.18425
#
# Compressibility (1/GPa) = 0.11919394
#
# Stress axis : x y z
#
# Youngs Moduli (GPa) = 13.00528 70.91194 71.56093
#
# Poissons Ratio (x) = -0.57628 0.14065
# Poissons Ratio (y) = -0.10569 -0.06810
# Poissons Ratio (z) = 0.02556 -0.06749
#
# Static dielectric constant tensor:
#      x y z
#    x 1.865390 0.000000 0.000000 
#    y 0.000000 1.820890 0.000000 
#    z 0.000000 0.000000 1.809990 
# 
# From -- ./inp_files/10148.got.cif
#   From: 2010.05.17/outbox.cif.g08.bks.cpg/sg44_6_cif.got.tgz:10148.got - 2010.06.03 19:37:08.
