data_PCOD9374598
_publ_section_title
;
Structure prediction by ZEFSAII (Michael W. Deem and Ramdas Pophale) SiO2 
 PCOD9374598
Probable space group: I M M 2
;
_chemical_formula_sum "Si O2"
_cell_formula_units_Z 56
_cell_length_a 21.707177
_cell_length_b 7.411038
_cell_length_c 14.465786
_cell_angle_alpha 90.000000
_cell_angle_beta 90.000000
_cell_angle_gamma 90.000000
_cell_volume 2327.150248
_symmetry_space_group_name_H-M "I M M 2"
_symmetry_group_IT_number 44
_symmetry_cell_setting 'orthorhombic'
loop_
_space_group_symop_operation_xyz
x,y,z
-x,-y,z
-x,y,z
x,-y,z
1/2+x,1/2+y,1/2+z
1/2-x,1/2-y,1/2+z
1/2-x,1/2+y,1/2+z
1/2+x,1/2-y,1/2+z
loop_
_atom_site_type_symbol
_atom_site_label
_atom_site_fract_x
_atom_site_fract_y
_atom_site_fract_z
Si Si1 0.566887 0.784390 0.229840
Si Si2 0.066924 0.784271 0.422223
Si Si3 0.157012 0.215341 0.574261
Si Si4 0.397650 0.781520 0.431234
Si Si5 0.755915 0.720786 0.925658
Si Si6 0.567497 0.289647 0.634952
Si Si7 0.332071 0.712191 0.765197
O O1 0.500000 0.718588 0.191006
O O2 0.631043 0.747301 0.176343
O O3 0.572950 0.720638 0.335206
O O4 0.563433 0.000000 0.231204
O O5 0.100583 0.713044 0.512296
O O6 0.111882 0.763600 0.336930
O O7 0.000000 0.709076 0.406886
O O8 0.062186 0.000000 0.435007
O O9 0.217206 0.279630 0.517288
O O10 0.161209 0.000000 0.566825
O O11 0.326270 0.725401 0.432257
O O12 0.429083 0.718890 0.524881
O O13 0.400035 0.000000 0.432299
O O14 0.753003 0.500000 0.923321
O O15 0.724439 0.781955 0.828376
O O16 0.500000 0.214831 0.664192
O O17 0.566889 0.500000 0.664592
O O18 0.633006 0.214469 0.674086
O O19 0.317660 0.500000 0.748611
#
# Coordination Sequence:
#
# PCOD9374598 Si02
#       7
#     8   8   8   8   8   8   8
#     4  10  21  35  50  71 100 136 175 209 246 295
#     4   8  12  20  39  68  97 123 152 188 236 294
#     4   9  17  30  51  77 101 126 161 208 256 298
#     4  10  21  37  54  70  97 140 179 207 240 293
#     4   8  16  32  53  78 104 130 165 205 247 300
#     4  10  20  33  52  80 106 127 161 212 261 296
#     4   8  14  26  46  72 101 128 155 196 248 298
#
# _framework density 24.063763999999999
#
# number of rings (size 3 to 8) (size 9 to 14) (size 15 to 20)
#    0.000    3.000    0.000    3.000    0.000    5.143 
#    0.000    2.143    0.000    4.286    0.000    0.000 
#    0.000    0.000    0.000    0.000    0.000    0.000 
#
# Total GULP energy -156022.684345 kJ/mol
# GULP energy per Si atom -5572.238727 kJ/mol
# Density = 2.400899 g / cm^3
# Si number density = 24.063764 Si / 1000 Ang^3
#
#
#
# Elastic Constant Matrix: (Units=GPa)
#
#
# Indices 1 2 3 4 5 6 
#
# 1 127.3919 4.8731 16.8717 0.0000 0.0000 0.0000
# 2 4.8731 74.5691 -2.4001 0.0000 0.0000 0.0000
# 3 16.8717 -2.4001 92.6482 0.0000 0.0000 0.0000
# 4 0.0000 0.0000 0.0000 57.4143 0.0000 0.0000
# 5 0.0000 0.0000 0.0000 0.0000 29.1467 0.0000
# 6 0.0000 0.0000 0.0000 0.0000 0.0000 -14.3027
#
#
#
# Elastic Compliance Matrix: (Units=1/GPa)
#
#
# Indices 1 2 3 4 5 6 
#
# 1 0.008068 -0.000575 -0.001484 0.000000 0.000000 0.000000
# 2 -0.000575 0.013463 0.000453 0.000000 0.000000 0.000000
# 3 -0.001484 0.000453 0.011076 0.000000 0.000000 0.000000
# 4 0.000000 0.000000 0.000000 0.017417 0.000000 0.000000
# 5 0.000000 0.000000 0.000000 0.000000 0.034309 0.000000
# 6 0.000000 0.000000 0.000000 0.000000 0.000000 -0.069917
#
#
# Mechanical properties :
#
#
# Convention : Reuss Voigt Hill
#
# Bulk Modulus (GPa) = 34.01945 37.03317 35.52631
# Shear Modulus (GPa) = 182.30922 32.80262 107.55592
#
# Velocity S-wave (km/s) = 8.71352 3.69610 6.69278
# Velocity P-wave (km/s) = 10.74252 5.79981 8.63248
#
# Compressibility (1/GPa) = 0.02939495
#
# Stress axis : x y z
#
# Youngs Moduli (GPa) = 123.94100 74.28011 90.28907
#
# Poissons Ratio (x) = 0.04271 0.13401
# Poissons Ratio (y) = 0.07127 -0.04094
# Poissons Ratio (z) = 0.18395 -0.03368
#
# Static dielectric constant tensor:
#      x y z
#    x 1.926670 0.000000 0.000000 
#    y 0.000000 1.953800 0.000000 
#    z 0.000000 0.000000 1.989470 
# 
# From -- ./inp_files/14656.got.cif
#   From: 2010.05.17/outbox.cif.g08.bks.cpg/sg44_8_cif.got.tgz:14656.got - 2010.06.03 19:37:08.
