data_PCOD9374704
_publ_section_title
;
Structure prediction by ZEFSAII (Michael W. Deem and Ramdas Pophale) SiO2 
 PCOD9374704
Probable space group: I M M 2
;
_chemical_formula_sum "Si O2"
_cell_formula_units_Z 64
_cell_length_a 20.244221
_cell_length_b 8.434569
_cell_length_c 21.278906
_cell_angle_alpha 90.000000
_cell_angle_beta 90.000000
_cell_angle_gamma 90.000000
_cell_volume 3633.400413
_symmetry_space_group_name_H-M "I M M 2"
_symmetry_group_IT_number 44
_symmetry_cell_setting 'orthorhombic'
loop_
_space_group_symop_operation_xyz
x,y,z
-x,-y,z
-x,y,z
x,-y,z
1/2+x,1/2+y,1/2+z
1/2-x,1/2-y,1/2+z
1/2-x,1/2+y,1/2+z
1/2+x,1/2-y,1/2+z
loop_
_atom_site_type_symbol
_atom_site_label
_atom_site_fract_x
_atom_site_fract_y
_atom_site_fract_z
Si Si1 0.073346 0.191467 0.961400
Si Si2 0.572810 0.808870 0.604272
Si Si3 0.288184 0.310741 0.786906
Si Si4 0.425696 0.691118 0.984340
Si Si5 0.787943 0.310782 0.152859
Si Si6 0.426968 0.307130 0.836987
Si Si7 0.790442 0.688870 0.532621
Si Si8 0.211005 0.191577 0.907894
O O1 0.135108 0.240813 0.919075
O O2 0.000000 0.236395 0.938500
O O3 0.075597 0.000000 0.966560
O O4 0.081037 0.259835 0.031507
O O5 0.500000 0.751410 0.625219
O O6 0.637009 0.749572 0.641050
O O7 0.572446 0.000000 0.607610
O O8 0.290298 0.500000 0.786394
O O9 0.263871 0.250887 0.719806
O O10 0.363252 0.250003 0.799266
O O11 0.243703 0.256642 0.845098
O O12 0.500000 0.737564 0.003681
O O13 0.421442 0.500000 0.987385
O O14 0.366519 0.763842 0.023858
O O15 0.418147 0.735394 0.910594
O O16 0.789928 0.500000 0.154391
O O17 0.743383 0.259013 0.094335
O O18 0.500000 0.252242 0.816381
O O19 0.427602 0.500000 0.834566
O O20 0.784097 0.500000 0.535500
O O21 0.752012 0.744054 0.469600
O O22 0.213631 0.000000 0.905558
#
# Coordination Sequence:
#
# PCOD9374704 Si02
#       8
#     8   8   8   8   8   8   8   8
#     4   9  17  31  53  79 106 136 172 216 262 310
#     4   9  18  32  50  74 105 141 178 215 259 314
#     4  11  22  35  54  77 105 141 182 222 266 318
#     4   9  17  32  55  81 109 141 178 218 265 320
#     4  11  23  37  53  74 108 147 182 221 270 322
#     4   8  15  29  49  74 104 138 176 214 252 306
#     4  11  21  34  55  82 110 139 179 226 270 315
#     4  10  20  34  53  79 109 138 173 220 269 317
#
# _framework density 17.614353000000001
#
# number of rings (size 3 to 8) (size 9 to 14) (size 15 to 20)
#    0.000    2.250    2.500    1.875    0.000    2.250 
#    0.000    0.000    0.000    1.875    0.000    1.750 
#    0.000    0.000    0.000    0.000    0.000    0.000 
#
# Total GULP energy -178517.547541 kJ/mol
# GULP energy per Si atom -5578.673361 kJ/mol
# Density = 1.757426 g / cm^3
# Si number density = 17.614353 Si / 1000 Ang^3
#
#
#
# Elastic Constant Matrix: (Units=GPa)
#
#
# Indices 1 2 3 4 5 6 
#
# 1 113.2925 21.3372 65.1806 0.0000 0.0000 0.0000
# 2 21.3372 18.3236 22.3636 0.0000 0.0000 0.0000
# 3 65.1806 22.3636 118.6310 0.0000 0.0000 0.0000
# 4 0.0000 0.0000 0.0000 19.0577 0.0000 0.0000
# 5 0.0000 0.0000 0.0000 0.0000 17.4490 0.0000
# 6 0.0000 0.0000 0.0000 0.0000 0.0000 18.1512
#
#
#
# Elastic Compliance Matrix: (Units=1/GPa)
#
#
# Indices 1 2 3 4 5 6 
#
# 1 0.013952 -0.008950 -0.005979 0.000000 0.000000 0.000000
# 2 -0.008950 0.076624 -0.009527 0.000000 0.000000 0.000000
# 3 -0.005979 -0.009527 0.013510 0.000000 0.000000 0.000000
# 4 0.000000 0.000000 0.000000 0.052472 0.000000 0.000000
# 5 0.000000 0.000000 0.000000 0.000000 0.057310 0.000000
# 6 0.000000 0.000000 0.000000 0.000000 0.000000 0.055093
#
#
# Mechanical properties :
#
#
# Convention : Reuss Voigt Hill
#
# Bulk Modulus (GPa) = 18.12421 52.00110 35.06266
# Shear Modulus (GPa) = 14.86927 20.35595 17.61261
#
# Velocity S-wave (km/s) = 2.90859 3.40317 3.16555
# Velocity P-wave (km/s) = 4.64668 6.71030 5.77147
#
# Compressibility (1/GPa) = 0.05517482
#
# Stress axis : x y z
#
# Youngs Moduli (GPa) = 71.67450 13.05078 74.01696
#
# Poissons Ratio (x) = 0.11680 0.44252
# Poissons Ratio (y) = 0.64147 0.70518
# Poissons Ratio (z) = 0.42851 0.12434
#
# Static dielectric constant tensor:
#      x y z
#    x 1.629790 0.000000 0.000000 
#    y 0.000000 1.595980 0.000000 
#    z 0.000000 0.000000 1.566840 
# 
# From -- ./inp_files/20725.got.cif
#   From: 2010.05.17/outbox.cif.g08.bks.cpg/sg44_11_cif.got.tgz:20725.got - 2010.06.03 19:37:08.
