data_PCOD9374688
_publ_section_title
;
Structure prediction by ZEFSAII (Michael W. Deem and Ramdas Pophale) SiO2 
 PCOD9374688
Probable space group: I M M 2
;
_chemical_formula_sum "Si O2"
_cell_formula_units_Z 64
_cell_length_a 20.380388
_cell_length_b 8.739263
_cell_length_c 20.771338
_cell_angle_alpha 90.000000
_cell_angle_beta 90.000000
_cell_angle_gamma 90.000000
_cell_volume 3699.574096
_symmetry_space_group_name_H-M "I M M 2"
_symmetry_group_IT_number 44
_symmetry_cell_setting 'orthorhombic'
loop_
_space_group_symop_operation_xyz
x,y,z
-x,-y,z
-x,y,z
x,-y,z
1/2+x,1/2+y,1/2+z
1/2-x,1/2-y,1/2+z
1/2-x,1/2+y,1/2+z
1/2+x,1/2-y,1/2+z
loop_
_atom_site_type_symbol
_atom_site_label
_atom_site_fract_x
_atom_site_fract_y
_atom_site_fract_z
Si Si1 0.075786 0.317150 0.761730
Si Si2 0.575664 0.315380 0.400980
Si Si3 0.176535 0.685036 0.151269
Si Si4 0.678287 0.316880 0.007824
Si Si5 0.177848 0.816281 0.010685
Si Si6 0.923454 0.684313 0.406729
Si Si7 0.925217 0.313670 0.259681
Si Si8 0.827976 0.183685 0.655579
O O1 0.077897 0.500000 0.764789
O O2 0.094701 0.250024 0.831364
O O3 0.123142 0.258949 0.705844
O O4 0.000000 0.269821 0.749509
O O5 0.500000 0.269323 0.413941
O O6 0.577372 0.500000 0.397533
O O7 0.625033 0.266846 0.457241
O O8 0.173753 0.500000 0.146545
O O9 0.126363 0.737208 0.206239
O O10 0.251823 0.725326 0.167908
O O11 0.160856 0.753170 0.081419
O O12 0.684589 0.500000 0.006180
O O13 0.749521 0.244692 0.994552
O O14 0.624907 0.260637 0.957181
O O15 0.658748 0.273677 0.081134
O O16 0.179084 0.000000 0.012505
O O17 0.916868 0.500000 0.410574
O O18 0.908600 0.731226 0.332923
O O19 0.000000 0.721097 0.419117
O O20 0.925063 0.500000 0.259225
O O21 0.000000 0.265121 0.245662
O O22 0.833591 0.000000 0.661045
#
# Coordination Sequence:
#
# PCOD9374688 Si02
#       8
#     8   8   8   8   8   8   8   8
#     4  10  21  35  52  76 102 127 162 210 255 295
#     4   9  19  36  55  74 100 135 170 203 246 305
#     4   9  18  33  52  75 103 133 168 208 247 292
#     4  10  21  36  53  75 103 134 171 212 253 300
#     4  10  20  34  53  76 102 133 169 208 252 301
#     4   9  18  33  53  77 105 137 173 211 250 296
#     4   8  15  30  52  76 102 134 170 204 242 294
#     4   9  19  34  50  70  99 134 167 202 247 300
#
# _framework density 17.299289999999999
#
# number of rings (size 3 to 8) (size 9 to 14) (size 15 to 20)
#    0.000    2.750    0.000    2.625    0.000    6.500 
#    0.000    5.625    0.000    0.750    0.000    0.000 
#    0.000    0.000    0.000    0.000    0.000    0.000 
#
# Total GULP energy -178458.580755 kJ/mol
# GULP energy per Si atom -5576.830649 kJ/mol
# Density = 1.725992 g / cm^3
# Si number density = 17.299290 Si / 1000 Ang^3
#
#
#
# Elastic Constant Matrix: (Units=GPa)
#
#
# Indices 1 2 3 4 5 6 
#
# 1 121.2386 37.2329 130.1789 0.0000 0.0000 0.0000
# 2 37.2329 22.0687 41.1583 0.0000 0.0000 0.0000
# 3 130.1789 41.1583 165.7942 0.0000 0.0000 0.0000
# 4 0.0000 0.0000 0.0000 31.9355 0.0000 0.0000
# 5 0.0000 0.0000 0.0000 0.0000 43.1507 0.0000
# 6 0.0000 0.0000 0.0000 0.0000 0.0000 22.1146
#
#
#
# Elastic Compliance Matrix: (Units=1/GPa)
#
#
# Indices 1 2 3 4 5 6 
#
# 1 0.058875 -0.024422 -0.040165 0.000000 0.000000 0.000000
# 2 -0.024422 0.094511 -0.004286 0.000000 0.000000 0.000000
# 3 -0.040165 -0.004286 0.038633 0.000000 0.000000 0.000000
# 4 0.000000 0.000000 0.000000 0.031313 0.000000 0.000000
# 5 0.000000 0.000000 0.000000 0.000000 0.023175 0.000000
# 6 0.000000 0.000000 0.000000 0.000000 0.000000 0.045219
#
#
# Mechanical properties :
#
#
# Convention : Reuss Voigt Hill
#
# Bulk Modulus (GPa) = 18.42596 80.69352 49.55974
# Shear Modulus (GPa) = 11.17161 26.14226 18.65693
#
# Velocity S-wave (km/s) = 2.54399 3.89160 3.28758
# Velocity P-wave (km/s) = 4.39358 8.18166 6.56670
#
# Compressibility (1/GPa) = 0.05427125
#
# Stress axis : x y z
#
# Youngs Moduli (GPa) = 16.98503 10.58082 25.88488
#
# Poissons Ratio (x) = 0.25841 1.03967
# Poissons Ratio (y) = 0.41482 0.11095
# Poissons Ratio (z) = 0.68221 0.04535
#
# Static dielectric constant tensor:
#      x y z
#    x 1.574100 0.000000 0.000000 
#    y 0.000000 1.585560 0.000000 
#    z 0.000000 0.000000 1.565030 
# 
# From -- ./inp_files/24374.got.cif
#   From: 2010.05.17/outbox.cif.g08.bks.cpg/sg44_13_cif.got.tgz:24374.got - 2010.06.03 19:37:08.
