data_PCOD9374681
_publ_section_title
;
Structure prediction by ZEFSAII (Michael W. Deem and Ramdas Pophale) SiO2 
 PCOD9374681
Probable space group: I M M 2
;
_chemical_formula_sum "Si O2"
_cell_formula_units_Z 48
_cell_length_a 12.352112
_cell_length_b 13.584591
_cell_length_c 17.625786
_cell_angle_alpha 90.000000
_cell_angle_beta 90.000000
_cell_angle_gamma 90.000000
_cell_volume 2957.578505
_symmetry_space_group_name_H-M "I M M 2"
_symmetry_group_IT_number 44
_symmetry_cell_setting 'orthorhombic'
loop_
_space_group_symop_operation_xyz
x,y,z
-x,-y,z
-x,y,z
x,-y,z
1/2+x,1/2+y,1/2+z
1/2-x,1/2-y,1/2+z
1/2-x,1/2+y,1/2+z
1/2+x,1/2-y,1/2+z
loop_
_atom_site_type_symbol
_atom_site_label
_atom_site_fract_x
_atom_site_fract_y
_atom_site_fract_z
Si Si1 0.704098 0.883202 0.651370
Si Si2 0.870390 0.283150 0.684643
Si Si3 0.000000 0.380629 0.254830
Si Si4 0.500000 0.880629 0.927973
Si Si5 0.370390 0.216850 0.498160
Si Si6 0.868547 0.387138 0.841401
Si Si7 0.295902 0.883202 0.031433
O O1 0.809304 0.819626 0.671485
O O2 0.607164 0.852737 0.708335
O O3 0.665504 0.854017 0.567007
O O4 0.721101 0.000000 0.657249
O O5 0.837141 0.330518 0.764915
O O6 0.834496 0.354017 0.615796
O O7 0.000000 0.272213 0.683319
O O8 0.000000 0.344781 0.341401
O O9 0.000000 0.500000 0.256841
O O10 0.500000 0.000000 0.925962
O O11 0.392836 0.852737 0.974468
O O12 0.500000 0.227787 0.499484
O O13 0.337141 0.169482 0.417887
O O14 0.309304 0.319626 0.511318
O O15 0.830032 0.500000 0.841401
O O16 0.000000 0.390292 0.841401
O O17 0.278899 0.000000 0.025554
#
# Coordination Sequence:
#
# PCOD9374681 Si02
#       7
#     8   8   4   4   8   8   8
#     4  10  20  34  54  76 103 137 173 215 259 304
#     4  10  20  34  52  78 105 135 173 212 259 309
#     4   9  18  32  52  75  97 131 172 210 252 298
#     4   9  18  32  52  75  97 131 172 210 252 298
#     4  10  20  34  52  78 105 135 173 212 259 309
#     4   9  18  32  53  76 101 132 169 212 253 302
#     4  10  20  34  54  76 103 137 173 215 259 304
#
# _framework density 16.229493000000002
#
# number of rings (size 3 to 8) (size 9 to 14) (size 15 to 20)
#    0.000    2.333    1.667    1.000    2.333    2.000 
#    0.000    0.000    0.000    3.000    0.000    1.167 
#    0.000    0.000    0.000    0.000    0.000    0.000 
#
# Total GULP energy -133808.820503 kJ/mol
# GULP energy per Si atom -5575.367521 kJ/mol
# Density = 1.619255 g / cm^3
# Si number density = 16.229493 Si / 1000 Ang^3
#
#
#
# Elastic Constant Matrix: (Units=GPa)
#
#
# Indices 1 2 3 4 5 6 
#
# 1 70.6599 52.1014 44.1702 0.0000 0.0000 0.0000
# 2 52.1014 103.0450 55.3543 0.0000 0.0000 0.0000
# 3 44.1702 55.3543 163.4724 0.0000 0.0000 0.0000
# 4 0.0000 0.0000 0.0000 18.7228 0.0000 0.0000
# 5 0.0000 0.0000 0.0000 0.0000 12.3282 0.0000
# 6 0.0000 0.0000 0.0000 0.0000 0.0000 6.9546
#
#
#
# Elastic Compliance Matrix: (Units=1/GPa)
#
#
# Indices 1 2 3 4 5 6 
#
# 1 0.023608 -0.010402 -0.002857 0.000000 0.000000 0.000000
# 2 -0.010402 0.016446 -0.002758 0.000000 0.000000 0.000000
# 3 -0.002857 -0.002758 0.007823 0.000000 0.000000 0.000000
# 4 0.000000 0.000000 0.000000 0.053411 0.000000 0.000000
# 5 0.000000 0.000000 0.000000 0.000000 0.081115 0.000000
# 6 0.000000 0.000000 0.000000 0.000000 0.000000 0.143791
#
#
# Mechanical properties :
#
#
# Convention : Reuss Voigt Hill
#
# Bulk Modulus (GPa) = 63.11902 71.15878 67.13890
# Shear Modulus (GPa) = 13.75488 19.97120 16.86304
#
# Velocity S-wave (km/s) = 2.91438 3.51173 3.22691
# Velocity P-wave (km/s) = 7.09231 7.77068 7.43923
#
# Compressibility (1/GPa) = 0.01584308
#
# Stress axis : x y z
#
# Youngs Moduli (GPa) = 42.35846 60.80645 127.82797
#
# Poissons Ratio (x) = 0.63252 0.36515
# Poissons Ratio (y) = 0.44062 0.35256
# Poissons Ratio (z) = 0.12100 0.16771
#
# Static dielectric constant tensor:
#      x y z
#    x 1.526870 0.000000 0.000000 
#    y 0.000000 1.518600 0.000000 
#    z 0.000000 0.000000 1.548100 
# 
# From -- ./inp_files/7157.got.cif
#   From: 2010.05.17/outbox.cif.g08.bks.cpg/sg44_4_cif.got.tgz:7157.got - 2010.06.03 19:37:08.
