data_PCOD9374177
_publ_section_title
;
Structure prediction by ZEFSAII (Michael W. Deem and Ramdas Pophale) SiO2 
 PCOD9374177
Probable space group: I M M 2
;
_chemical_formula_sum "Si O2"
_cell_formula_units_Z 48
_cell_length_a 10.582737
_cell_length_b 8.637181
_cell_length_c 28.958280
_cell_angle_alpha 90.000000
_cell_angle_beta 90.000000
_cell_angle_gamma 90.000000
_cell_volume 2646.932016
_symmetry_space_group_name_H-M "I M M 2"
_symmetry_group_IT_number 44
_symmetry_cell_setting 'orthorhombic'
loop_
_space_group_symop_operation_xyz
x,y,z
-x,-y,z
-x,y,z
x,-y,z
1/2+x,1/2+y,1/2+z
1/2-x,1/2-y,1/2+z
1/2-x,1/2+y,1/2+z
1/2+x,1/2-y,1/2+z
loop_
_atom_site_type_symbol
_atom_site_label
_atom_site_fract_x
_atom_site_fract_y
_atom_site_fract_z
Si Si1 0.351928 0.814775 0.435000
Si Si2 0.500000 0.311421 0.584128
Si Si3 0.500000 0.187115 0.180276
Si Si4 0.756396 0.687114 0.740928
Si Si5 0.000000 0.811121 0.190367
Si Si6 0.000000 0.815664 0.576685
Si Si7 0.647811 0.314990 0.335469
Si Si8 0.749982 0.314130 0.528341
O O1 0.500000 0.768598 0.441155
O O2 0.312620 0.757123 0.384350
O O3 0.271916 0.741538 0.476151
O O4 0.344931 0.000000 0.437088
O O5 0.500000 0.500000 0.584185
O O6 0.500000 0.259529 0.637188
O O7 0.626383 0.262527 0.557431
O O8 0.375628 0.232521 0.209100
O O9 0.500000 0.257150 0.129417
O O10 0.500000 0.000000 0.176010
O O11 0.756842 0.500000 0.743887
O O12 0.626555 0.737125 0.716839
O O13 0.775196 0.754294 0.791813
O O14 0.000000 0.000000 0.189545
O O15 0.124390 0.752849 0.551097
O O16 0.000000 0.000000 0.575760
O O17 0.500000 0.270810 0.328178
O O18 0.654786 0.500000 0.338292
O O19 0.755482 0.500000 0.529734
#
# Coordination Sequence:
#
# PCOD9374177 Si02
#       8
#     8   4   4   8   4   4   8   8
#     4  10  20  35  58  87 118 147 184 234 289 345
#     4   9  18  34  60  87 112 145 192 239 281 331
#     4  10  20  36  59  82 107 148 197 241 284 342
#     4  10  19  34  57  83 112 145 187 233 285 339
#     4   9  18  32  52  81 114 145 179 225 276 331
#     4  12  26  40  55  82 121 160 194 237 293 348
#     4  10  20  34  55  82 112 145 188 236 283 334
#     4  11  21  38  62  88 116 151 195 240 288 344
#
# _framework density 18.134201999999998
#
# number of rings (size 3 to 8) (size 9 to 14) (size 15 to 20)
#    0.000    1.833    1.667    3.250    0.000    4.667 
#    0.000    1.250    0.000    3.000    0.000    0.000 
#    0.000    0.000    0.000    0.000    0.000    0.000 
#
# Total GULP energy -134074.416023 kJ/mol
# GULP energy per Si atom -5586.434001 kJ/mol
# Density = 1.809293 g / cm^3
# Si number density = 18.134202 Si / 1000 Ang^3
#
#
#
# Elastic Constant Matrix: (Units=GPa)
#
#
# Indices 1 2 3 4 5 6 
#
# 1 148.3136 37.9184 97.9215 0.0000 0.0000 0.0000
# 2 37.9184 40.3546 45.7594 0.0000 0.0000 0.0000
# 3 97.9215 45.7594 194.1056 0.0000 0.0000 0.0000
# 4 0.0000 0.0000 0.0000 34.6459 0.0000 0.0000
# 5 0.0000 0.0000 0.0000 0.0000 -7.5824 0.0000
# 6 0.0000 0.0000 0.0000 0.0000 0.0000 15.4610
#
#
#
# Elastic Compliance Matrix: (Units=1/GPa)
#
#
# Indices 1 2 3 4 5 6 
#
# 1 0.010932 -0.005485 -0.004222 0.000000 0.000000 0.000000
# 2 -0.005485 0.036573 -0.005855 0.000000 0.000000 0.000000
# 3 -0.004222 -0.005855 0.008662 0.000000 0.000000 0.000000
# 4 0.000000 0.000000 0.000000 0.028863 0.000000 0.000000
# 5 0.000000 0.000000 0.000000 0.000000 -0.131884 0.000000
# 6 0.000000 0.000000 0.000000 0.000000 0.000000 0.064679
#
#
# Mechanical properties :
#
#
# Convention : Reuss Voigt Hill
#
# Bulk Modulus (GPa) = 39.93001 82.88584 61.40793
# Shear Modulus (GPa) = 87.26372 21.91654 54.59013
#
# Velocity S-wave (km/s) = 6.94446 3.48023 5.49261
# Velocity P-wave (km/s) = 9.29342 7.87118 8.61171
#
# Compressibility (1/GPa) = 0.02504382
#
# Stress axis : x y z
#
# Youngs Moduli (GPa) = 91.47238 27.34245 115.44620
#
# Poissons Ratio (x) = 0.14997 0.48742
# Poissons Ratio (y) = 0.50171 0.67594
# Poissons Ratio (z) = 0.38620 0.16009
#
# Static dielectric constant tensor:
#      x y z
#    x 1.605040 0.000000 0.000000 
#    y 0.000000 1.611390 0.000000 
#    z 0.000000 0.000000 1.592460 
# 
# From -- ./inp_files/27060.got.cif
#   From: 2010.05.17/outbox.cif.g08.bks.cpg/sg44_14_cif.got.tgz:27060.got - 2010.06.03 19:37:08.
