data_PCOD9374997
_publ_section_title
;
Structure prediction by ZEFSAII (Michael W. Deem and Ramdas Pophale) SiO2 
 PCOD9374997
Probable space group: I M M 2
;
_chemical_formula_sum "Si O2"
_cell_formula_units_Z 64
_cell_length_a 25.078418
_cell_length_b 9.230479
_cell_length_c 15.157550
_cell_angle_alpha 90.000000
_cell_angle_beta 90.000000
_cell_angle_gamma 90.000000
_cell_volume 3508.757750
_symmetry_space_group_name_H-M "I M M 2"
_symmetry_group_IT_number 44
_symmetry_cell_setting 'orthorhombic'
loop_
_space_group_symop_operation_xyz
x,y,z
-x,-y,z
-x,y,z
x,-y,z
1/2+x,1/2+y,1/2+z
1/2-x,1/2-y,1/2+z
1/2-x,1/2+y,1/2+z
1/2+x,1/2-y,1/2+z
loop_
_atom_site_type_symbol
_atom_site_label
_atom_site_fract_x
_atom_site_fract_y
_atom_site_fract_z
Si Si1 0.610777 0.328016 0.095630
Si Si2 0.716606 0.167526 0.119801
Si Si3 0.436464 0.829096 0.265516
Si Si4 0.846656 0.327593 0.292137
Si Si5 0.866598 0.327219 0.934074
Si Si6 0.759859 0.668965 0.827387
Si Si7 0.160250 0.827559 0.105566
Si Si8 0.560969 0.828845 0.931507
O O1 0.609074 0.500000 0.096789
O O2 0.671114 0.270805 0.083482
O O3 0.589410 0.262858 0.187469
O O4 0.575458 0.263326 0.017147
O O5 0.719513 0.181430 0.226321
O O6 0.776530 0.199370 0.088659
O O7 0.703607 0.000000 0.098842
O O8 0.500000 0.810370 0.266801
O O9 0.410190 0.792356 0.359501
O O10 0.424706 0.000000 0.249196
O O11 0.842294 0.500000 0.279239
O O12 0.792228 0.267317 0.335494
O O13 0.852528 0.248529 0.198214
O O14 0.896701 0.297083 0.354919
O O15 0.868838 0.500000 0.951152
O O16 0.808953 0.295072 0.890505
O O17 0.871568 0.239756 0.024232
O O18 0.745074 0.500000 0.840193
O O19 0.153327 0.000000 0.113105
O O20 0.500000 0.802782 0.904048
O O21 0.566043 0.000000 0.953594
#
# Coordination Sequence:
#
# PCOD9374997 Si02
#       8
#     8   8   8   8   8   8   8   8
#     4  12  24  35  55  88 121 151 187 235 290 342
#     4   9  18  36  56  78 113 155 194 225 270 339
#     4  10  21  40  63  83 112 157 200 236 279 335
#     4  10  21  38  61  86 111 145 193 243 288 340
#     4  10  20  36  58  86 117 151 194 239 283 336
#     4   9  18  34  56  83 116 150 183 230 286 339
#     4  10  22  38  58  84 118 156 190 234 290 344
#     4  10  23  43  63  82 109 150 197 240 284 340
#
# _framework density 18.240072999999999
#
# number of rings (size 3 to 8) (size 9 to 14) (size 15 to 20)
#    0.000    2.000    1.250    3.000    1.750    6.500 
#    0.000    0.625    0.000    3.750    0.000    0.000 
#    0.000    0.000    0.000    0.000    0.000    0.000 
#
# Total GULP energy -178763.966318 kJ/mol
# GULP energy per Si atom -5586.373947 kJ/mol
# Density = 1.819856 g / cm^3
# Si number density = 18.240073 Si / 1000 Ang^3
#
#
#
# Elastic Constant Matrix: (Units=GPa)
#
#
# Indices 1 2 3 4 5 6 
#
# 1 83.0316 56.9764 32.2357 0.0000 0.0000 0.0000
# 2 56.9764 65.5006 43.0581 0.0000 0.0000 0.0000
# 3 32.2357 43.0581 57.3122 0.0000 0.0000 0.0000
# 4 0.0000 0.0000 0.0000 22.9476 0.0000 0.0000
# 5 0.0000 0.0000 0.0000 0.0000 23.9588 0.0000
# 6 0.0000 0.0000 0.0000 0.0000 0.0000 19.7650
#
#
#
# Elastic Compliance Matrix: (Units=1/GPa)
#
#
# Indices 1 2 3 4 5 6 
#
# 1 0.030740 -0.030375 0.005531 0.000000 0.000000 0.000000
# 2 -0.030375 0.060179 -0.028127 0.000000 0.000000 0.000000
# 3 0.005531 -0.028127 0.035469 0.000000 0.000000 0.000000
# 4 0.000000 0.000000 0.000000 0.043578 0.000000 0.000000
# 5 0.000000 0.000000 0.000000 0.000000 0.041738 0.000000
# 6 0.000000 0.000000 0.000000 0.000000 0.000000 0.050594
#
#
# Mechanical properties :
#
#
# Convention : Reuss Voigt Hill
#
# Bulk Modulus (GPa) = 48.91219 52.26498 50.58859
# Shear Modulus (GPa) = 13.33131 18.23924 15.78527
#
# Velocity S-wave (km/s) = 2.70641 3.16564 2.94499
# Velocity P-wave (km/s) = 6.05312 6.48674 6.27368
#
# Compressibility (1/GPa) = 0.02044480
#
# Stress axis : x y z
#
# Youngs Moduli (GPa) = 32.53102 16.61705 28.19343
#
# Poissons Ratio (x) = 0.50474 -0.15593
# Poissons Ratio (y) = 0.98813 0.79300
# Poissons Ratio (z) = -0.17991 0.46739
#
# Static dielectric constant tensor:
#      x y z
#    x 1.617680 0.000000 0.000000 
#    y 0.000000 1.607420 0.000000 
#    z 0.000000 0.000000 1.617770 
# 
# From -- ./inp_files/19494.got.cif
#   From: 2010.05.17/outbox.cif.g08.bks.cpg/sg44_10_cif.got.tgz:19494.got - 2010.06.03 19:37:08.
