data_PCOD9374043
_publ_section_title
;
Structure prediction by ZEFSAII (Michael W. Deem and Ramdas Pophale) SiO2 
 PCOD9374043
Probable space group: I M M 2
;
_chemical_formula_sum "Si O2"
_cell_formula_units_Z 64
_cell_length_a 29.149749
_cell_length_b 7.783101
_cell_length_c 12.861624
_cell_angle_alpha 90.000000
_cell_angle_beta 90.000000
_cell_angle_gamma 90.000000
_cell_volume 2917.986612
_symmetry_space_group_name_H-M "I M M 2"
_symmetry_group_IT_number 44
_symmetry_cell_setting 'orthorhombic'
loop_
_space_group_symop_operation_xyz
x,y,z
-x,-y,z
-x,y,z
x,-y,z
1/2+x,1/2+y,1/2+z
1/2-x,1/2-y,1/2+z
1/2-x,1/2+y,1/2+z
1/2+x,1/2-y,1/2+z
loop_
_atom_site_type_symbol
_atom_site_label
_atom_site_fract_x
_atom_site_fract_y
_atom_site_fract_z
Si Si1 0.049090 0.699231 0.123550
Si Si2 0.447792 0.711017 0.948498
Si Si3 0.414595 0.296746 0.173863
Si Si4 0.067560 0.195299 0.897772
Si Si5 0.690072 0.797466 0.211389
Si Si6 0.667417 0.799535 0.441240
Si Si7 0.211167 0.793172 0.159014
Si Si8 0.375892 0.301344 0.777044
O O1 0.052861 0.500000 0.152959
O O2 0.091836 0.793529 0.174794
O O3 0.000000 0.768953 0.161369
O O4 0.049029 0.711138 0.999033
O O5 0.500000 0.763777 0.922598
O O6 0.447274 0.500000 0.946062
O O7 0.434885 0.767547 0.065445
O O8 0.408442 0.771586 0.868144
O O9 0.424158 0.500000 0.177172
O O10 0.435993 0.226700 0.281947
O O11 0.359346 0.275564 0.178568
O O12 0.050518 0.000000 0.898096
O O13 0.121793 0.193852 0.919927
O O14 0.695951 0.781707 0.335768
O O15 0.737057 0.724739 0.165510
O O16 0.686876 0.000000 0.186633
O O17 0.692119 0.744061 0.545013
O O18 0.653856 0.000000 0.451054
O O19 0.173336 0.726644 0.242376
O O20 0.213407 0.000000 0.173367
O O21 0.367605 0.500000 0.805043
#
# Coordination Sequence:
#
# PCOD9374043 Si02
#       8
#     8   8   8   8   8   8   8   8
#     4  11  23  36  52  78 111 142 177 226 279 332
#     4   9  18  34  57  84 113 146 186 235 286 336
#     4   9  19  35  57  83 111 143 186 234 278 330
#     4  10  19  33  54  79 106 140 180 225 276 330
#     4   9  20  36  53  78 112 149 186 229 283 337
#     4  10  19  33  54  77 106 143 179 223 279 334
#     4  10  20  34  53  79 110 144 186 233 279 332
#     4  10  20  35  57  81 107 144 188 230 277 337
#
# _framework density 21.932932000000001
#
# number of rings (size 3 to 8) (size 9 to 14) (size 15 to 20)
#    0.000    2.250    1.250    1.500    0.000    4.500 
#    0.000    4.375    0.000    1.125    0.000    0.000 
#    0.000    0.000    0.000    0.000    0.000    0.000 
#
# Total GULP energy -178521.755226 kJ/mol
# GULP energy per Si atom -5578.804851 kJ/mol
# Density = 2.188301 g / cm^3
# Si number density = 21.932932 Si / 1000 Ang^3
#
#
#
# Elastic Constant Matrix: (Units=GPa)
#
#
# Indices 1 2 3 4 5 6 
#
# 1 61.3580 -3.2845 11.3466 0.0000 0.0000 0.0000
# 2 -3.2845 34.8259 -3.3790 0.0000 0.0000 0.0000
# 3 11.3466 -3.3790 93.5485 0.0000 0.0000 0.0000
# 4 0.0000 0.0000 0.0000 10.7419 0.0000 0.0000
# 5 0.0000 0.0000 0.0000 0.0000 -62.2050 0.0000
# 6 0.0000 0.0000 0.0000 0.0000 0.0000 -36.3315
#
#
#
# Elastic Compliance Matrix: (Units=1/GPa)
#
#
# Indices 1 2 3 4 5 6 
#
# 1 0.016738 0.001386 -0.001980 0.000000 0.000000 0.000000
# 2 0.001386 0.028930 0.000877 0.000000 0.000000 0.000000
# 3 -0.001980 0.000877 0.010961 0.000000 0.000000 0.000000
# 4 0.000000 0.000000 0.000000 0.093093 0.000000 0.000000
# 5 0.000000 0.000000 0.000000 0.000000 -0.016076 0.000000
# 6 0.000000 0.000000 0.000000 0.000000 0.000000 -0.027524
#
#
# Mechanical properties :
#
#
# Convention : Reuss Voigt Hill
#
# Bulk Modulus (GPa) = 17.48370 22.12206 19.80288
# Shear Modulus (GPa) = 40.12134 -5.22230 17.44952
#
# Velocity S-wave (km/s) = 4.28164 -1.54473 2.82367
# Velocity P-wave (km/s) = 5.69491 2.63183 4.43613
#
# Compressibility (1/GPa) = 0.05719613
#
# Stress axis : x y z
#
# Youngs Moduli (GPa) = 59.74360 34.56606 91.22853
#
# Poissons Ratio (x) = -0.04793 0.18064
# Poissons Ratio (y) = -0.08283 -0.07999
# Poissons Ratio (z) = 0.11830 -0.03031
#
# Static dielectric constant tensor:
#      x y z
#    x 1.851690 0.000000 0.000000 
#    y 0.000000 1.813070 0.000000 
#    z 0.000000 0.000000 1.809790 
# 
# From -- ./inp_files/11526.got.cif
#   From: 2010.05.17/outbox.cif.g08.bks.cpg/sg44_6_cif.got.tgz:11526.got - 2010.06.03 19:37:08.
