data_PCOD9374322
_publ_section_title
;
Structure prediction by ZEFSAII (Michael W. Deem and Ramdas Pophale) SiO2 
 PCOD9374322
Probable space group: I M M 2
;
_chemical_formula_sum "Si O2"
_cell_formula_units_Z 64
_cell_length_a 19.606483
_cell_length_b 14.338263
_cell_length_c 12.328121
_cell_angle_alpha 90.000000
_cell_angle_beta 90.000000
_cell_angle_gamma 90.000000
_cell_volume 3465.717247
_symmetry_space_group_name_H-M "I M M 2"
_symmetry_group_IT_number 44
_symmetry_cell_setting 'orthorhombic'
loop_
_space_group_symop_operation_xyz
x,y,z
-x,-y,z
-x,y,z
x,-y,z
1/2+x,1/2+y,1/2+z
1/2-x,1/2-y,1/2+z
1/2-x,1/2+y,1/2+z
1/2+x,1/2-y,1/2+z
loop_
_atom_site_type_symbol
_atom_site_label
_atom_site_fract_x
_atom_site_fract_y
_atom_site_fract_z
Si Si1 0.789230 0.392797 0.769800
Si Si2 0.926349 0.771155 0.479412
Si Si3 0.717224 0.300931 0.968354
Si Si4 0.076906 0.610002 0.300408
Si Si5 0.716503 0.890739 0.679160
Si Si6 0.244645 0.104751 0.027442
Si Si7 0.576851 0.220686 0.233277
Si Si8 0.652445 0.393509 0.335987
O O1 0.788342 0.500000 0.804855
O O2 0.756353 0.329207 0.861207
O O3 0.747743 0.386040 0.656860
O O4 0.866036 0.357485 0.751730
O O5 0.860380 0.835099 0.461638
O O6 0.923856 0.680826 0.401299
O O7 0.923384 0.741801 0.605108
O O8 0.000000 0.816827 0.460014
O O9 0.758008 0.336351 0.073323
O O10 0.711804 0.189808 0.982467
O O11 0.085528 0.500000 0.330407
O O12 0.142050 0.635687 0.225588
O O13 0.000000 0.617372 0.250680
O O14 0.776552 0.881345 0.768721
O O15 0.712589 0.000000 0.650967
O O16 0.269972 0.000000 0.001027
O O17 0.173600 0.114745 0.962567
O O18 0.500000 0.194932 0.265862
O O19 0.601856 0.313992 0.295232
O O20 0.628880 0.500000 0.316101
#
# Coordination Sequence:
#
# PCOD9374322 Si02
#       8
#     8   8   8   8   8   8   8   8
#     4  11  24  40  60  90 120 158 199 240 292 358
#     4  10  21  33  54  85 119 155 193 235 298 359
#     4  12  21  37  63  82 123 155 197 244 294 345
#     4   9  19  35  55  85 121 153 194 248 299 351
#     4  10  20  33  56  88 115 152 198 240 290 348
#     4  10  21  36  59  87 113 147 199 245 291 339
#     4  11  22  38  56  85 123 161 193 235 300 362
#     4  10  19  36  60  87 114 148 199 253 291 335
#
# _framework density 18.466595999999999
#
# number of rings (size 3 to 8) (size 9 to 14) (size 15 to 20)
#    0.000    1.625    3.750    1.125    1.750    2.500 
#    0.000    1.875    0.000    3.750    0.000    1.750 
#    0.000    0.000    0.000    0.000    0.000    0.000 
#
# Total GULP energy -178428.401124 kJ/mol
# GULP energy per Si atom -5575.887535 kJ/mol
# Density = 1.842456 g / cm^3
# Si number density = 18.466596 Si / 1000 Ang^3
#
#
#
# Elastic Constant Matrix: (Units=GPa)
#
#
# Indices 1 2 3 4 5 6 
#
# 1 115.5986 18.1924 50.7689 0.0000 0.0000 0.0000
# 2 18.1924 62.1295 39.4706 0.0000 0.0000 0.0000
# 3 50.7689 39.4706 83.5465 0.0000 0.0000 0.0000
# 4 0.0000 0.0000 0.0000 22.7978 0.0000 0.0000
# 5 0.0000 0.0000 0.0000 0.0000 24.6106 0.0000
# 6 0.0000 0.0000 0.0000 0.0000 0.0000 19.1956
#
#
#
# Elastic Compliance Matrix: (Units=1/GPa)
#
#
# Indices 1 2 3 4 5 6 
#
# 1 0.011908 0.001586 -0.007986 0.000000 0.000000 0.000000
# 2 0.001586 0.023209 -0.011929 0.000000 0.000000 0.000000
# 3 -0.007986 -0.011929 0.022458 0.000000 0.000000 0.000000
# 4 0.000000 0.000000 0.000000 0.043864 0.000000 0.000000
# 5 0.000000 0.000000 0.000000 0.000000 0.040633 0.000000
# 6 0.000000 0.000000 0.000000 0.000000 0.000000 0.052095
#
#
# Mechanical properties :
#
#
# Convention : Reuss Voigt Hill
#
# Bulk Modulus (GPa) = 47.80423 53.12650 50.46536
# Shear Modulus (GPa) = 21.02635 23.51031 22.26833
#
# Velocity S-wave (km/s) = 3.37800 3.57196 3.47633
# Velocity P-wave (km/s) = 6.41542 6.77077 6.59549
#
# Compressibility (1/GPa) = 0.02091865
#
# Stress axis : x y z
#
# Youngs Moduli (GPa) = 83.97612 43.08609 44.52796
#
# Poissons Ratio (x) = -0.06835 0.35559
# Poissons Ratio (y) = -0.13322 0.53117
# Poissons Ratio (z) = 0.67061 0.51397
#
# Static dielectric constant tensor:
#      x y z
#    x 1.668820 0.000000 0.000000 
#    y 0.000000 1.652740 0.000000 
#    z 0.000000 0.000000 1.633300 
# 
# From -- ./inp_files/13428.got.cif
#   From: 2010.05.17/outbox.cif.g08.bks.cpg/sg44_7_cif.got.tgz:13428.got - 2010.06.03 19:37:08.
