data_PCOD9374856
_publ_section_title
;
Structure prediction by ZEFSAII (Michael W. Deem and Ramdas Pophale) SiO2 
 PCOD9374856
Probable space group: I M M 2
;
_chemical_formula_sum "Si O2"
_cell_formula_units_Z 56
_cell_length_a 9.064545
_cell_length_b 14.550742
_cell_length_c 23.112823
_cell_angle_alpha 90.000000
_cell_angle_beta 90.000000
_cell_angle_gamma 90.000000
_cell_volume 3048.485566
_symmetry_space_group_name_H-M "I M M 2"
_symmetry_group_IT_number 44
_symmetry_cell_setting 'orthorhombic'
loop_
_space_group_symop_operation_xyz
x,y,z
-x,-y,z
-x,y,z
x,-y,z
1/2+x,1/2+y,1/2+z
1/2-x,1/2-y,1/2+z
1/2-x,1/2+y,1/2+z
1/2+x,1/2-y,1/2+z
loop_
_atom_site_type_symbol
_atom_site_label
_atom_site_fract_x
_atom_site_fract_y
_atom_site_fract_z
Si Si1 0.677139 0.219776 0.409240
Si Si2 0.327575 0.108303 0.294542
Si Si3 0.822218 0.607571 0.024256
Si Si4 0.175731 0.106539 0.171974
Si Si5 0.176584 0.781555 0.628488
Si Si6 0.172924 0.107944 0.744426
Si Si7 0.675976 0.894440 0.866860
O O1 0.500000 0.230120 0.408915
O O2 0.717801 0.167130 0.349944
O O3 0.717020 0.158255 0.464397
O O4 0.752167 0.318978 0.408141
O O5 0.500000 0.128863 0.281146
O O6 0.232417 0.124268 0.237365
O O7 0.318741 0.000000 0.309119
O O8 0.782362 0.500000 0.022518
O O9 0.744595 0.659213 0.076927
O O10 0.000000 0.613267 0.030936
O O11 0.255618 0.179927 0.131423
O O12 0.000000 0.117694 0.169050
O O13 0.212072 0.000000 0.158691
O O14 0.214008 0.831270 0.689414
O O15 0.000000 0.778332 0.623887
O O16 0.266335 0.125522 0.801869
O O17 0.000000 0.124669 0.757983
O O18 0.188651 0.000000 0.729437
O O19 0.500000 0.888128 0.868408
O O20 0.719170 0.000000 0.880081
#
# Coordination Sequence:
#
# PCOD9374856 Si02
#       7
#     8   8   8   8   8   8   8
#     4  10  20  35  56  80 106 141 182 219 261 316
#     4   9  17  31  53  81 112 143 175 215 265 320
#     4  10  22  40  60  82 109 141 178 220 265 316
#     4  10  21  36  54  79 111 144 180 223 270 322
#     4  11  22  36  56  81 109 143 183 225 270 320
#     4   9  18  33  53  78 109 143 177 215 263 320
#     4  10  21  35  52  78 110 141 176 220 268 316
#
# _framework density 18.369776000000002
#
# number of rings (size 3 to 8) (size 9 to 14) (size 15 to 20)
#    0.000    2.143    0.000    3.000    0.000   10.000 
#    0.000    2.143    0.000    3.429    0.000    0.000 
#    0.000    0.000    0.000    0.000    0.000    0.000 
#
# Total GULP energy -156392.425590 kJ/mol
# GULP energy per Si atom -5585.443771 kJ/mol
# Density = 1.832797 g / cm^3
# Si number density = 18.369776 Si / 1000 Ang^3
#
#
#
# Elastic Constant Matrix: (Units=GPa)
#
#
# Indices 1 2 3 4 5 6 
#
# 1 35.7937 62.5059 39.5893 0.0000 0.0000 0.0000
# 2 62.5059 162.1141 91.8402 0.0000 0.0000 0.0000
# 3 39.5893 91.8402 71.0239 0.0000 0.0000 0.0000
# 4 0.0000 0.0000 0.0000 35.4785 0.0000 0.0000
# 5 0.0000 0.0000 0.0000 0.0000 28.4150 0.0000
# 6 0.0000 0.0000 0.0000 0.0000 0.0000 26.3585
#
#
#
# Elastic Compliance Matrix: (Units=1/GPa)
#
#
# Indices 1 2 3 4 5 6 
#
# 1 0.092814 -0.024219 -0.020418 0.000000 0.000000 0.000000
# 2 -0.024219 0.029384 -0.024496 0.000000 0.000000 0.000000
# 3 -0.020418 -0.024496 0.057137 0.000000 0.000000 0.000000
# 4 0.000000 0.000000 0.000000 0.028186 0.000000 0.000000
# 5 0.000000 0.000000 0.000000 0.000000 0.035193 0.000000
# 6 0.000000 0.000000 0.000000 0.000000 0.000000 0.037938
#
#
# Mechanical properties :
#
#
# Convention : Reuss Voigt Hill
#
# Bulk Modulus (GPa) = 24.34969 72.97805 48.66387
# Shear Modulus (GPa) = 11.55778 23.05016 17.30397
#
# Velocity S-wave (km/s) = 2.51105 3.54614 3.07250
# Velocity P-wave (km/s) = 4.65739 7.52199 6.25586
#
# Compressibility (1/GPa) = 0.04106829
#
# Stress axis : x y z
#
# Youngs Moduli (GPa) = 10.77423 34.03197 17.50175
#
# Poissons Ratio (x) = 0.82421 0.35735
# Poissons Ratio (y) = 0.26094 0.42873
# Poissons Ratio (z) = 0.21999 0.83366
#
# Static dielectric constant tensor:
#      x y z
#    x 1.612510 0.000000 0.000000 
#    y 0.000000 1.648800 0.000000 
#    z 0.000000 0.000000 1.601380 
# 
# From -- ./inp_files/23001.got.cif
#   From: 2010.05.17/outbox.cif.g08.bks.cpg/sg44_12_cif.got.tgz:23001.got - 2010.06.03 19:37:08.
