data_PCOD9374705
_publ_section_title
;
Structure prediction by ZEFSAII (Michael W. Deem and Ramdas Pophale) SiO2 
 PCOD9374705
Probable space group: I M M 2
;
_chemical_formula_sum "Si O2"
_cell_formula_units_Z 64
_cell_length_a 8.682788
_cell_length_b 20.184837
_cell_length_c 21.175126
_cell_angle_alpha 90.000000
_cell_angle_beta 90.000000
_cell_angle_gamma 90.000000
_cell_volume 3711.166569
_symmetry_space_group_name_H-M "I M M 2"
_symmetry_group_IT_number 44
_symmetry_cell_setting 'orthorhombic'
loop_
_space_group_symop_operation_xyz
x,y,z
-x,-y,z
-x,y,z
x,-y,z
1/2+x,1/2+y,1/2+z
1/2-x,1/2-y,1/2+z
1/2-x,1/2+y,1/2+z
1/2+x,1/2-y,1/2+z
loop_
_atom_site_type_symbol
_atom_site_label
_atom_site_fract_x
_atom_site_fract_y
_atom_site_fract_z
Si Si1 0.183966 0.209315 0.072820
Si Si2 0.813047 0.573121 0.772168
Si Si3 0.315363 0.925878 0.750471
Si Si4 0.317506 0.209172 0.939549
Si Si5 0.185570 0.575056 0.623748
Si Si6 0.185748 0.712556 0.197999
Si Si7 0.814975 0.712586 0.820416
Si Si8 0.316076 0.425054 0.391106
O O1 0.235270 0.133921 0.086285
O O2 0.234874 0.253179 0.132903
O O3 0.000000 0.212447 0.068323
O O4 0.256418 0.232266 0.007237
O O5 0.758757 0.500000 0.792122
O O6 0.773522 0.582301 0.698149
O O7 0.762218 0.636347 0.812069
O O8 0.000000 0.572272 0.774234
O O9 0.500000 0.922871 0.761905
O O10 0.275664 0.865155 0.704893
O O11 0.232631 0.916944 0.817806
O O12 0.279148 0.000000 0.726979
O O13 0.500000 0.211789 0.937235
O O14 0.249699 0.251874 0.882130
O O15 0.263090 0.133427 0.929338
O O16 0.227480 0.500000 0.604378
O O17 0.000000 0.581192 0.618637
O O18 0.258888 0.749213 0.257932
O O19 0.000000 0.719045 0.202352
O O20 0.000000 0.714448 0.822489
O O21 0.500000 0.418984 0.396438
O O22 0.271021 0.500000 0.410015
#
# Coordination Sequence:
#
# PCOD9374705 Si02
#       8
#     8   8   8   8   8   8   8   8
#     4  11  23  37  53  76 109 144 183 226 271 319
#     4   8  15  29  52  82 111 138 173 216 261 316
#     4   9  17  31  53  80 109 141 174 212 263 320
#     4  12  25  39  54  74 107 147 188 226 271 324
#     4   9  17  32  53  77 107 143 181 216 259 319
#     4  10  20  34  54  81 110 140 175 221 268 318
#     4  11  20  33  58  84 108 140 179 223 270 317
#     4  10  20  34  53  79 109 140 178 222 267 318
#
# _framework density 17.245249999999999
#
# number of rings (size 3 to 8) (size 9 to 14) (size 15 to 20)
#    0.000    2.000    2.500    3.000    0.000    2.000 
#    0.000    0.000    0.000    2.250    0.000    3.500 
#    0.000    0.000    0.000    0.000    0.000    0.000 
#
# Total GULP energy -178591.230417 kJ/mol
# GULP energy per Si atom -5580.975951 kJ/mol
# Density = 1.720600 g / cm^3
# Si number density = 17.245250 Si / 1000 Ang^3
#
#
#
# Elastic Constant Matrix: (Units=GPa)
#
#
# Indices 1 2 3 4 5 6 
#
# 1 40.3831 35.6114 37.2964 0.0000 0.0000 0.0000
# 2 35.6114 118.5523 70.0084 0.0000 0.0000 0.0000
# 3 37.2964 70.0084 120.1957 0.0000 0.0000 0.0000
# 4 0.0000 0.0000 0.0000 19.9703 0.0000 0.0000
# 5 0.0000 0.0000 0.0000 0.0000 24.5360 0.0000
# 6 0.0000 0.0000 0.0000 0.0000 0.0000 5.5392
#
#
#
# Elastic Compliance Matrix: (Units=1/GPa)
#
#
# Indices 1 2 3 4 5 6 
#
# 1 0.037979 -0.006782 -0.007835 0.000000 0.000000 0.000000
# 2 -0.006782 0.014068 -0.006090 0.000000 0.000000 0.000000
# 3 -0.007835 -0.006090 0.014298 0.000000 0.000000 0.000000
# 4 0.000000 0.000000 0.000000 0.050074 0.000000 0.000000
# 5 0.000000 0.000000 0.000000 0.000000 0.040757 0.000000
# 6 0.000000 0.000000 0.000000 0.000000 0.000000 0.180531
#
#
# Mechanical properties :
#
#
# Convention : Reuss Voigt Hill
#
# Bulk Modulus (GPa) = 40.10781 62.77374 51.44077
# Shear Modulus (GPa) = 12.90552 19.09008 15.99780
#
# Velocity S-wave (km/s) = 2.73857 3.33073 3.04906
# Velocity P-wave (km/s) = 5.77126 7.16040 6.50303
#
# Compressibility (1/GPa) = 0.02493280
#
# Stress axis : x y z
#
# Youngs Moduli (GPa) = 26.33018 71.08087 69.94004
#
# Poissons Ratio (x) = 0.48205 0.54797
# Poissons Ratio (y) = 0.17856 0.42593
# Poissons Ratio (z) = 0.20629 0.43287
#
# Static dielectric constant tensor:
#      x y z
#    x 1.578510 0.000000 0.000000 
#    y 0.000000 1.610710 0.000000 
#    z 0.000000 0.000000 1.562910 
# 
# From -- ./inp_files/20723.got.cif
#   From: 2010.05.17/outbox.cif.g08.bks.cpg/sg44_11_cif.got.tgz:20723.got - 2010.06.03 19:37:08.
