data_PCOD9374151
_publ_section_title
;
Structure prediction by ZEFSAII (Michael W. Deem and Ramdas Pophale) SiO2 
 PCOD9374151
Probable space group: I M M 2
;
_chemical_formula_sum "Si O2"
_cell_formula_units_Z 40
_cell_length_a 26.274466
_cell_length_b 8.515785
_cell_length_c 9.818684
_cell_angle_alpha 90.000000
_cell_angle_beta 90.000000
_cell_angle_gamma 90.000000
_cell_volume 2196.907996
_symmetry_space_group_name_H-M "I M M 2"
_symmetry_group_IT_number 44
_symmetry_cell_setting 'orthorhombic'
loop_
_space_group_symop_operation_xyz
x,y,z
-x,-y,z
-x,y,z
x,-y,z
1/2+x,1/2+y,1/2+z
1/2-x,1/2-y,1/2+z
1/2-x,1/2+y,1/2+z
1/2+x,1/2-y,1/2+z
loop_
_atom_site_type_symbol
_atom_site_label
_atom_site_fract_x
_atom_site_fract_y
_atom_site_fract_z
Si Si1 0.702119 0.188107 0.810770
Si Si2 0.409730 0.311898 0.811320
Si Si3 0.408111 0.690825 0.125437
Si Si4 0.706770 0.690114 0.113846
Si Si5 0.500000 0.690430 0.317249
Si Si6 0.500000 0.186209 0.624606
O O1 0.647505 0.261210 0.774254
O O2 0.747958 0.239161 0.712940
O O3 0.698003 0.000000 0.804888
O O4 0.714049 0.241199 0.963977
O O5 0.413347 0.500000 0.808651
O O6 0.450909 0.242890 0.709142
O O7 0.418825 0.260296 0.968900
O O8 0.409599 0.500000 0.124967
O O9 0.350198 0.737328 0.160240
O O10 0.450365 0.744088 0.232340
O O11 0.707008 0.500000 0.104984
O O12 0.500000 0.500000 0.317896
O O13 0.500000 0.746471 0.472016
O O14 0.500000 0.000000 0.617161
#
# Coordination Sequence:
#
# PCOD9374151 Si02
#       6
#     8   8   8   8   4   4
#     4  10  20  34  54  82 112 143 183 229 273 319
#     4  10  20  38  61  81 104 141 184 223 271 328
#     4   8  16  33  57  80 102 136 184 226 259 313
#     4   9  19  35  53  77 111 147 183 223 269 323
#     4  10  19  34  56  80 106 140 181 222 268 320
#     4  12  25  38  52  80 116 142 173 220 270 322
#
# _framework density 18.207408999999998
#
# number of rings (size 3 to 8) (size 9 to 14) (size 15 to 20)
#    0.000    2.400    0.000    3.900    0.000    4.800 
#    0.000    8.000    0.000    0.000    0.000    0.000 
#    0.000    0.000    0.000    0.000    0.000    0.000 
#
# Total GULP energy -111609.020802 kJ/mol
# GULP energy per Si atom -5580.451040 kJ/mol
# Density = 1.816597 g / cm^3
# Si number density = 18.207409 Si / 1000 Ang^3
#
#
#
# Elastic Constant Matrix: (Units=GPa)
#
#
# Indices 1 2 3 4 5 6 
#
# 1 172.7672 37.7599 132.4477 0.0000 0.0000 0.0000
# 2 37.7599 35.3245 29.8368 0.0000 0.0000 0.0000
# 3 132.4477 29.8368 133.1769 0.0000 0.0000 0.0000
# 4 0.0000 0.0000 0.0000 22.4610 0.0000 0.0000
# 5 0.0000 0.0000 0.0000 0.0000 38.6448 0.0000
# 6 0.0000 0.0000 0.0000 0.0000 0.0000 104.2876
#
#
#
# Elastic Compliance Matrix: (Units=1/GPa)
#
#
# Indices 1 2 3 4 5 6 
#
# 1 0.025799 -0.007284 -0.024026 0.000000 0.000000 0.000000
# 2 -0.007284 0.036973 -0.001039 0.000000 0.000000 0.000000
# 3 -0.024026 -0.001039 0.031636 0.000000 0.000000 0.000000
# 4 0.000000 0.000000 0.000000 0.044522 0.000000 0.000000
# 5 0.000000 0.000000 0.000000 0.000000 0.025877 0.000000
# 6 0.000000 0.000000 0.000000 0.000000 0.000000 0.009589
#
#
# Mechanical properties :
#
#
# Convention : Reuss Voigt Hill
#
# Bulk Modulus (GPa) = 33.65901 82.37304 58.01602
# Shear Modulus (GPa) = 20.08069 42.49364 31.28717
#
# Velocity S-wave (km/s) = 3.32458 4.83625 4.14983
# Velocity P-wave (km/s) = 5.76746 8.74788 7.40909
#
# Compressibility (1/GPa) = 0.02970973
#
# Stress axis : x y z
#
# Youngs Moduli (GPa) = 38.76153 27.04675 31.61000
#
# Poissons Ratio (x) = 0.19702 0.75945
# Poissons Ratio (y) = 0.28235 0.03284
# Poissons Ratio (z) = 0.93127 0.02810
#
# Static dielectric constant tensor:
#      x y z
#    x 1.624800 0.000000 0.000000 
#    y 0.000000 1.618770 0.000000 
#    z 0.000000 0.000000 1.595730 
# 
# From -- ./inp_files/4682.got.cif
#   From: 2010.05.17/outbox.cif.g08.bks.cpg/sg44_3_cif.got.tgz:4682.got - 2010.06.03 19:37:08.
