data_PCOD9374544
_publ_section_title
;
Structure prediction by ZEFSAII (Michael W. Deem and Ramdas Pophale) SiO2 
 PCOD9374544
Probable space group: I M M 2
;
_chemical_formula_sum "Si O2"
_cell_formula_units_Z 56
_cell_length_a 7.538859
_cell_length_b 15.154198
_cell_length_c 22.640279
_cell_angle_alpha 90.000000
_cell_angle_beta 90.000000
_cell_angle_gamma 90.000000
_cell_volume 2586.546870
_symmetry_space_group_name_H-M "I M M 2"
_symmetry_group_IT_number 44
_symmetry_cell_setting 'orthorhombic'
loop_
_space_group_symop_operation_xyz
x,y,z
-x,-y,z
-x,y,z
x,-y,z
1/2+x,1/2+y,1/2+z
1/2-x,1/2-y,1/2+z
1/2-x,1/2+y,1/2+z
1/2+x,1/2-y,1/2+z
loop_
_atom_site_type_symbol
_atom_site_label
_atom_site_fract_x
_atom_site_fract_y
_atom_site_fract_z
Si Si1 0.284548 0.900737 0.875000
Si Si2 0.216979 0.400896 0.238992
Si Si3 0.704388 0.716871 0.698528
Si Si4 0.287713 0.100195 0.308103
Si Si5 0.793035 0.598864 0.589950
Si Si6 0.718123 0.781844 0.983120
Si Si7 0.710933 0.402644 0.945859
O O1 0.500000 0.898614 0.874350
O O2 0.227981 0.887462 0.807389
O O3 0.226001 0.829668 0.922560
O O4 0.232759 0.000000 0.893271
O O5 0.270999 0.500000 0.220760
O O6 0.279236 0.316086 0.202425
O O7 0.000000 0.399643 0.238480
O O8 0.500000 0.724575 0.681249
O O9 0.714939 0.671914 0.762914
O O10 0.786051 0.650218 0.651641
O O11 0.500000 0.102262 0.303624
O O12 0.237172 0.115686 0.376070
O O13 0.228358 0.000000 0.292757
O O14 0.716958 0.500000 0.593598
O O15 0.718546 0.660619 0.538286
O O16 0.000000 0.589072 0.574936
O O17 0.500000 0.780288 0.983458
O O18 0.779547 0.680808 0.981965
O O19 0.500000 0.407028 0.955738
O O20 0.785899 0.500000 0.958245
#
# Coordination Sequence:
#
# PCOD9374544 Si02
#       7
#     8   8   8   8   8   8   8
#     4   8  12  20  39  67  93 115 144 186 233 279
#     4   8  15  28  47  73 101 124 152 196 247 298
#     4  11  21  33  52  75  99 131 171 214 256 296
#     4  10  20  33  50  74 105 138 168 202 250 306
#     4  10  21  36  52  71  98 133 172 212 253 300
#     4   9  16  28  47  70  96 126 161 199 240 289
#     4   9  17  30  50  76 102 127 161 206 251 298
#
# _framework density 21.650485
#
# number of rings (size 3 to 8) (size 9 to 14) (size 15 to 20)
#    0.000    2.714    0.000    3.429    0.000    6.857 
#    0.000    1.429    0.000    2.571    0.000    0.000 
#    0.000    0.000    0.000    0.000    0.000    0.000 
#
# Total GULP energy -156286.868804 kJ/mol
# GULP energy per Si atom -5581.673886 kJ/mol
# Density = 2.160121 g / cm^3
# Si number density = 21.650485 Si / 1000 Ang^3
#
#
#
# Elastic Constant Matrix: (Units=GPa)
#
#
# Indices 1 2 3 4 5 6 
#
# 1 53.7265 6.1801 -1.5127 0.0000 0.0000 0.0000
# 2 6.1801 219.3193 84.5980 0.0000 0.0000 0.0000
# 3 -1.5127 84.5980 49.2280 0.0000 0.0000 0.0000
# 4 0.0000 0.0000 0.0000 28.5171 0.0000 0.0000
# 5 0.0000 0.0000 0.0000 0.0000 8.4427 0.0000
# 6 0.0000 0.0000 0.0000 0.0000 0.0000 2.0631
#
#
#
# Elastic Compliance Matrix: (Units=1/GPa)
#
#
# Indices 1 2 3 4 5 6 
#
# 1 0.018998 -0.002256 0.004460 0.000000 0.000000 0.000000
# 2 -0.002256 0.013793 -0.023772 0.000000 0.000000 0.000000
# 3 0.004460 -0.023772 0.061303 0.000000 0.000000 0.000000
# 4 0.000000 0.000000 0.000000 0.035067 0.000000 0.000000
# 5 0.000000 0.000000 0.000000 0.000000 0.118446 0.000000
# 6 0.000000 0.000000 0.000000 0.000000 0.000000 0.484716
#
#
# Mechanical properties :
#
#
# Convention : Reuss Voigt Hill
#
# Bulk Modulus (GPa) = 19.62382 55.64495 37.63439
# Shear Modulus (GPa) = 6.30961 23.33846 14.82403
#
# Velocity S-wave (km/s) = 1.70898 3.28680 2.61951
# Velocity P-wave (km/s) = 3.60247 6.33730 5.15457
#
# Compressibility (1/GPa) = 0.05095848
#
# Stress axis : x y z
#
# Youngs Moduli (GPa) = 52.63751 72.50228 16.31253
#
# Poissons Ratio (x) = 0.16356 -0.07276
# Poissons Ratio (y) = 0.11874 0.38778
# Poissons Ratio (z) = -0.23479 1.72352
#
# Static dielectric constant tensor:
#      x y z
#    x 1.845090 0.000000 0.000000 
#    y 0.000000 1.818070 0.000000 
#    z 0.000000 0.000000 1.735220 
# 
# From -- ./inp_files/23061.got.cif
#   From: 2010.05.17/outbox.cif.g08.bks.cpg/sg44_12_cif.got.tgz:23061.got - 2010.06.03 19:37:08.
