data_PCOD9374239
_publ_section_title
;
Structure prediction by ZEFSAII (Michael W. Deem and Ramdas Pophale) SiO2 
 PCOD9374239
Probable space group: I M M 2
;
_chemical_formula_sum "Si O2"
_cell_formula_units_Z 48
_cell_length_a 8.629443
_cell_length_b 10.550609
_cell_length_c 29.096411
_cell_angle_alpha 90.000000
_cell_angle_beta 90.000000
_cell_angle_gamma 90.000000
_cell_volume 2649.108315
_symmetry_space_group_name_H-M "I M M 2"
_symmetry_group_IT_number 44
_symmetry_cell_setting 'orthorhombic'
loop_
_space_group_symop_operation_xyz
x,y,z
-x,-y,z
-x,y,z
x,-y,z
1/2+x,1/2+y,1/2+z
1/2-x,1/2-y,1/2+z
1/2-x,1/2+y,1/2+z
1/2+x,1/2-y,1/2+z
loop_
_atom_site_type_symbol
_atom_site_label
_atom_site_fract_x
_atom_site_fract_y
_atom_site_fract_z
Si Si1 0.185981 0.000000 0.381660
Si Si2 0.188492 0.646839 0.623269
Si Si3 0.184005 0.245298 0.926857
Si Si4 0.814074 0.651307 0.520422
Si Si5 0.184764 0.500000 0.374322
Si Si6 0.812270 0.000000 0.771362
Si Si7 0.312478 0.757506 0.220314
Si Si8 0.814132 0.000000 0.274507
O O1 0.248549 0.125701 0.406141
O O2 0.233098 0.000000 0.328000
O O3 0.000000 0.000000 0.383579
O O4 0.235339 0.500000 0.630319
O O5 0.236908 0.687203 0.572126
O O6 0.238474 0.727052 0.667275
O O7 0.000000 0.647255 0.622403
O O8 0.232175 0.225830 0.979797
O O9 0.000000 0.245318 0.922313
O O10 0.251729 0.125007 0.899418
O O11 0.785252 0.500000 0.515175
O O12 0.000000 0.668771 0.516692
O O13 0.239534 0.500000 0.321732
O O14 0.000000 0.500000 0.377233
O O15 0.766293 0.874105 0.743640
O O16 0.000000 0.000000 0.775810
O O17 0.500000 0.763806 0.220824
O O18 0.249507 0.875782 0.249130
O O19 0.000000 0.000000 0.272349
#
# Coordination Sequence:
#
# PCOD9374239 Si02
#       8
#     4   8   8   8   4   4   8   4
#     4  11  25  43  60  81 116 158 195 230 282 351
#     4   8  14  28  54  84 110 144 189 231 271 327
#     4  12  24  39  60  88 118 147 189 243 293 339
#     4   9  17  32  57  85 114 149 190 233 279 337
#     4  12  24  40  61  82 111 156 201 238 283 344
#     4  10  22  36  55  86 117 147 187 235 287 338
#     4  10  19  35  58  83 115 150 185 230 281 331
#     4  11  23  37  56  83 108 141 193 237 274 331
#
# _framework density 18.119304
#
# number of rings (size 3 to 8) (size 9 to 14) (size 15 to 20)
#    0.000    1.833    1.667    4.750    0.000    4.667 
#    0.000    1.667    0.000    3.000    0.000    0.000 
#    0.000    0.000    0.000    0.000    0.000    0.000 
#
# Total GULP energy -134036.040203 kJ/mol
# GULP energy per Si atom -5584.835008 kJ/mol
# Density = 1.807806 g / cm^3
# Si number density = 18.119304 Si / 1000 Ang^3
#
#
#
# Elastic Constant Matrix: (Units=GPa)
#
#
# Indices 1 2 3 4 5 6 
#
# 1 51.3639 43.4455 50.2498 0.0000 0.0000 0.0000
# 2 43.4455 151.8251 100.5309 0.0000 0.0000 0.0000
# 3 50.2498 100.5309 199.0831 0.0000 0.0000 0.0000
# 4 0.0000 0.0000 0.0000 -7.9042 0.0000 0.0000
# 5 0.0000 0.0000 0.0000 0.0000 26.9321 0.0000
# 6 0.0000 0.0000 0.0000 0.0000 0.0000 16.6046
#
#
#
# Elastic Compliance Matrix: (Units=1/GPa)
#
#
# Indices 1 2 3 4 5 6 
#
# 1 0.028209 -0.005044 -0.004573 0.000000 0.000000 0.000000
# 2 -0.005044 0.010797 -0.004179 0.000000 0.000000 0.000000
# 3 -0.004573 -0.004179 0.008288 0.000000 0.000000 0.000000
# 4 0.000000 0.000000 0.000000 -0.126515 0.000000 0.000000
# 5 0.000000 0.000000 0.000000 0.000000 0.037130 0.000000
# 6 0.000000 0.000000 0.000000 0.000000 0.000000 0.060224
#
#
# Mechanical properties :
#
#
# Convention : Reuss Voigt Hill
#
# Bulk Modulus (GPa) = 50.75763 87.85829 69.30796
# Shear Modulus (GPa) = 95.61392 20.99624 58.30508
#
# Velocity S-wave (km/s) = 7.27211 3.40777 5.67876
# Velocity P-wave (km/s) = 9.92902 8.00487 9.01841
#
# Compressibility (1/GPa) = 0.01970147
#
# Stress axis : x y z
#
# Youngs Moduli (GPa) = 35.44928 92.61768 120.66275
#
# Poissons Ratio (x) = 0.46718 0.55180
# Poissons Ratio (y) = 0.17881 0.50425
# Poissons Ratio (z) = 0.16211 0.38705
#
# Static dielectric constant tensor:
#      x y z
#    x 1.615140 0.000000 0.000000 
#    y 0.000000 1.580220 0.000000 
#    z 0.000000 0.000000 1.629310 
# 
# From -- ./inp_files/27022.got.cif
#   From: 2010.05.17/outbox.cif.g08.bks.cpg/sg44_14_cif.got.tgz:27022.got - 2010.06.03 19:37:08.
