data_PCOD9374914
_publ_section_title
;
Structure prediction by ZEFSAII (Michael W. Deem and Ramdas Pophale) SiO2 
 PCOD9374914
Probable space group: I M M 2
;
_chemical_formula_sum "Si O2"
_cell_formula_units_Z 44
_cell_length_a 17.689332
_cell_length_b 9.117347
_cell_length_c 13.461440
_cell_angle_alpha 90.000000
_cell_angle_beta 90.000000
_cell_angle_gamma 90.000000
_cell_volume 2171.058055
_symmetry_space_group_name_H-M "I M M 2"
_symmetry_group_IT_number 44
_symmetry_cell_setting 'orthorhombic'
loop_
_space_group_symop_operation_xyz
x,y,z
-x,-y,z
-x,y,z
x,-y,z
1/2+x,1/2+y,1/2+z
1/2-x,1/2-y,1/2+z
1/2-x,1/2+y,1/2+z
1/2+x,1/2-y,1/2+z
loop_
_atom_site_type_symbol
_atom_site_label
_atom_site_fract_x
_atom_site_fract_y
_atom_site_fract_z
Si Si1 0.684827 0.000000 0.016660
Si Si2 0.414027 0.191609 0.626755
Si Si3 0.294517 0.754025 0.474579
Si Si4 0.622470 0.000000 0.221473
Si Si5 0.082966 0.000000 0.209778
Si Si6 0.088310 0.500000 0.316615
Si Si7 0.726224 0.500000 0.843546
Si Si8 0.586456 0.330768 0.310341
O O1 0.739774 0.860835 0.026994
O O2 0.622863 0.000000 0.102875
O O3 0.644620 0.000000 0.908767
O O4 0.500000 0.151094 0.597641
O O5 0.348422 0.157393 0.549797
O O6 0.410756 0.363499 0.638182
O O7 0.400608 0.132247 0.738125
O O8 0.241376 0.860291 0.411629
O O9 0.351760 0.678086 0.397062
O O10 0.593588 0.834669 0.257133
O O11 0.708581 0.000000 0.260351
O O12 0.146277 0.000000 0.292103
O O13 0.000000 0.000000 0.257275
O O14 0.000000 0.500000 0.348245
O O15 0.500000 0.331189 0.347163
O O16 0.596386 0.500000 0.263609
#
# Coordination Sequence:
#
# PCOD9374914 Si02
#       8
#     4   8   8   4   4   4   4   8
#     4  12  24  39  61  87 124 165 208 256 308 372
#     4  10  20  36  60  88 118 152 193 245 304 363
#     4  11  21  37  59  95 126 157 199 253 323 378
#     4  10  23  40  61  93 131 175 215 261 317 379
#     4  10  20  35  58  82 114 158 199 241 295 361
#     4  10  23  41  60  84 115 159 206 249 298 359
#     4  10  21  37  57  86 126 161 202 253 315 377
#     4  10  21  40  67  96 130 168 212 264 321 384
#
# _framework density 20.266615000000002
#
# number of rings (size 3 to 8) (size 9 to 14) (size 15 to 20)
#    0.000    1.636    0.909    4.091    0.000    2.182 
#    1.636    2.727    0.000    0.000    0.000    0.000 
#    0.000    0.000    0.000    0.000    0.000    0.000 
#
# Total GULP energy -122476.713855 kJ/mol
# GULP energy per Si atom -5567.123357 kJ/mol
# Density = 2.022049 g / cm^3
# Si number density = 20.266615 Si / 1000 Ang^3
#
#
#
# Elastic Constant Matrix: (Units=GPa)
#
#
# Indices 1 2 3 4 5 6 
#
# 1 98.1274 23.8879 18.6155 0.0000 0.0000 0.0000
# 2 23.8879 157.6587 18.2887 0.0000 0.0000 0.0000
# 3 18.6155 18.2887 48.2544 0.0000 0.0000 0.0000
# 4 0.0000 0.0000 0.0000 22.4360 0.0000 0.0000
# 5 0.0000 0.0000 0.0000 0.0000 32.0729 0.0000
# 6 0.0000 0.0000 0.0000 0.0000 0.0000 39.8938
#
#
#
# Elastic Compliance Matrix: (Units=1/GPa)
#
#
# Indices 1 2 3 4 5 6 
#
# 1 0.011228 -0.001254 -0.003856 0.000000 0.000000 0.000000
# 2 -0.001254 0.006775 -0.002084 0.000000 0.000000 0.000000
# 3 -0.003856 -0.002084 0.023001 0.000000 0.000000 0.000000
# 4 0.000000 0.000000 0.000000 0.044571 0.000000 0.000000
# 5 0.000000 0.000000 0.000000 0.000000 0.031179 0.000000
# 6 0.000000 0.000000 0.000000 0.000000 0.000000 0.025067
#
#
# Mechanical properties :
#
#
# Convention : Reuss Voigt Hill
#
# Bulk Modulus (GPa) = 37.57236 47.29162 42.43199
# Shear Modulus (GPa) = 30.28848 35.09711 32.69280
#
# Velocity S-wave (km/s) = 3.87007 4.16597 4.02074
# Velocity P-wave (km/s) = 6.20880 6.82098 6.52208
#
# Compressibility (1/GPa) = 0.02661531
#
# Stress axis : x y z
#
# Youngs Moduli (GPa) = 89.06616 147.61183 43.47654
#
# Poissons Ratio (x) = 0.18508 0.16765
# Poissons Ratio (y) = 0.11168 0.09060
# Poissons Ratio (z) = 0.34345 0.30760
#
# Static dielectric constant tensor:
#      x y z
#    x 1.698920 0.000000 0.000000 
#    y 0.000000 1.825420 0.000000 
#    z 0.000000 0.000000 1.698150 
# 
# From -- ./inp_files/18826.got.cif
#   From: 2010.05.17/outbox.cif.g08.bks.cpg/sg44_10_cif.got.tgz:18826.got - 2010.06.03 19:37:08.
