data_PCOD9374860
_publ_section_title
;
Structure prediction by ZEFSAII (Michael W. Deem and Ramdas Pophale) SiO2 
 PCOD9374860
Probable space group: I M M 2
;
_chemical_formula_sum "Si O2"
_cell_formula_units_Z 48
_cell_length_a 8.295602
_cell_length_b 7.942050
_cell_length_c 34.452286
_cell_angle_alpha 90.000000
_cell_angle_beta 90.000000
_cell_angle_gamma 90.000000
_cell_volume 2269.857369
_symmetry_space_group_name_H-M "I M M 2"
_symmetry_group_IT_number 44
_symmetry_cell_setting 'orthorhombic'
loop_
_space_group_symop_operation_xyz
x,y,z
-x,-y,z
-x,y,z
x,-y,z
1/2+x,1/2+y,1/2+z
1/2-x,1/2-y,1/2+z
1/2-x,1/2+y,1/2+z
1/2+x,1/2-y,1/2+z
loop_
_atom_site_type_symbol
_atom_site_label
_atom_site_fract_x
_atom_site_fract_y
_atom_site_fract_z
Si Si1 0.173844 0.802052 0.516040
Si Si2 0.313732 0.293796 0.837121
Si Si3 0.822977 0.196766 0.090710
Si Si4 0.000000 0.293556 0.975710
Si Si5 0.680551 0.303432 0.168234
Si Si6 0.500000 0.794741 0.385618
Si Si7 0.693203 0.694461 0.749697
O O1 0.197289 0.783841 0.562259
O O2 0.335612 0.732519 0.496153
O O3 0.000000 0.728644 0.504594
O O4 0.169850 0.000000 0.506407
O O5 0.500000 0.242452 0.846386
O O6 0.316698 0.500000 0.836816
O O7 0.166678 0.240381 0.864729
O O8 0.273088 0.239637 0.792939
O O9 0.789498 0.215557 0.136188
O O10 0.000000 0.268077 0.082158
O O11 0.820204 0.000000 0.081194
O O12 0.000000 0.246705 0.930596
O O13 0.000000 0.500000 0.978137
O O14 0.500000 0.236086 0.164225
O O15 0.682250 0.500000 0.158413
O O16 0.734115 0.284180 0.212556
O O17 0.500000 0.000000 0.383835
O O18 0.500000 0.696935 0.745866
O O19 0.747617 0.500000 0.748165
#
# Coordination Sequence:
#
# PCOD9374860 Si02
#       7
#     8   8   8   4   8   4   8
#     4  10  20  35  56  80 109 147 183 219 271 327
#     4   8  15  27  44  71 106 140 177 222 267 317
#     4  11  23  38  57  80 105 137 180 226 273 324
#     4   9  18  32  49  77 113 145 183 227 269 325
#     4  11  24  37  50  75 108 141 179 222 269 323
#     4   9  16  26  46  75 107 145 181 215 271 327
#     4   9  18  33  52  75 103 137 180 226 271 317
#
# _framework density 21.146704
#
# number of rings (size 3 to 8) (size 9 to 14) (size 15 to 20)
#    0.000    2.333    0.833    3.000    1.167    7.667 
#    0.000    3.333    0.000    0.000    0.000    2.333 
#    0.000    2.667    0.000    0.000    0.000    0.000 
#
# Total GULP energy -133910.048664 kJ/mol
# GULP energy per Si atom -5579.585361 kJ/mol
# Density = 2.109857 g / cm^3
# Si number density = 21.146704 Si / 1000 Ang^3
#
#
#
# Elastic Constant Matrix: (Units=GPa)
#
#
# Indices 1 2 3 4 5 6 
#
# 1 152.7065 8.9245 75.8634 0.0000 0.0000 0.0000
# 2 8.9245 18.9607 -1.4069 0.0000 0.0000 0.0000
# 3 75.8634 -1.4069 108.9499 0.0000 0.0000 0.0000
# 4 0.0000 0.0000 0.0000 12.5980 0.0000 0.0000
# 5 0.0000 0.0000 0.0000 0.0000 21.9731 0.0000
# 6 0.0000 0.0000 0.0000 0.0000 0.0000 2.8421
#
#
#
# Elastic Compliance Matrix: (Units=1/GPa)
#
#
# Indices 1 2 3 4 5 6 
#
# 1 0.010559 -0.005521 -0.007424 0.000000 0.000000 0.000000
# 2 -0.005521 0.055678 0.004563 0.000000 0.000000 0.000000
# 3 -0.007424 0.004563 0.014407 0.000000 0.000000 0.000000
# 4 0.000000 0.000000 0.000000 0.079378 0.000000 0.000000
# 5 0.000000 0.000000 0.000000 0.000000 0.045510 0.000000
# 6 0.000000 0.000000 0.000000 0.000000 0.000000 0.351852
#
#
# Mechanical properties :
#
#
# Convention : Reuss Voigt Hill
#
# Bulk Modulus (GPa) = 15.65416 49.70881 32.68149
# Shear Modulus (GPa) = 8.39714 20.63171 14.51443
#
# Velocity S-wave (km/s) = 1.99487 3.12692 2.62271
# Velocity P-wave (km/s) = 3.56718 6.04934 4.96585
#
# Compressibility (1/GPa) = 0.06388079
#
# Stress axis : x y z
#
# Youngs Moduli (GPa) = 94.70326 17.96049 69.41161
#
# Poissons Ratio (x) = 0.09916 0.51530
# Poissons Ratio (y) = 0.52285 -0.31674
# Poissons Ratio (z) = 0.70307 -0.08196
#
# Static dielectric constant tensor:
#      x y z
#    x 1.784410 0.000000 0.000000 
#    y 0.000000 1.770490 0.000000 
#    z 0.000000 0.000000 1.735990 
# 
# From -- ./inp_files/26881.got.cif
#   From: 2010.05.17/outbox.cif.g08.bks.cpg/sg44_14_cif.got.tgz:26881.got - 2010.06.03 19:37:08.
