data_PCOD9374371
_publ_section_title
;
Structure prediction by ZEFSAII (Michael W. Deem and Ramdas Pophale) SiO2 
 PCOD9374371
Probable space group: I M M 2
;
_chemical_formula_sum "Si O2"
_cell_formula_units_Z 34
_cell_length_a 22.060474
_cell_length_b 8.985648
_cell_length_c 8.985563
_cell_angle_alpha 90.000000
_cell_angle_beta 90.000000
_cell_angle_gamma 90.000000
_cell_volume 1781.187074
_symmetry_space_group_name_H-M "I M M 2"
_symmetry_group_IT_number 44
_symmetry_cell_setting 'orthorhombic'
loop_
_space_group_symop_operation_xyz
x,y,z
-x,-y,z
-x,y,z
x,-y,z
1/2+x,1/2+y,1/2+z
1/2-x,1/2-y,1/2+z
1/2-x,1/2+y,1/2+z
1/2+x,1/2-y,1/2+z
loop_
_atom_site_type_symbol
_atom_site_label
_atom_site_fract_x
_atom_site_fract_y
_atom_site_fract_z
Si Si1 0.114692 0.665185 0.882670
Si Si2 0.428916 0.322529 0.684223
Si Si3 0.500000 0.000000 0.272438
Si Si4 0.210378 0.823415 0.671454
Si Si5 0.172778 0.323482 0.364265
O O1 0.140539 0.500000 0.920545
O O2 0.054168 0.627168 0.788410
O O3 0.162563 0.759013 0.790147
O O4 0.094343 0.745923 0.032999
O O5 0.500000 0.288358 0.702472
O O6 0.421430 0.500000 0.675467
O O7 0.388983 0.256281 0.817060
O O8 0.198915 0.741339 0.516731
O O9 0.277362 0.796205 0.736109
O O10 0.202162 0.000000 0.654483
O O11 0.163397 0.500000 0.378700
#
# Coordination Sequence:
#
# PCOD9374371 Si02
#       5
#     8   8   2   8   8
#     4  10  19  38  63  90 123 158 204 238 296 358
#     4  11  22  39  62  92 125 161 201 250 302 357
#     4   8  20  36  62  94 124 160 204 238 292 368
#     4  11  24  42  63  92 121 157 203 255 303 355
#     4  11  25  42  63  89 121 160 204 249 305 363
#
# _framework density 19.088393
#
# number of rings (size 3 to 8) (size 9 to 14) (size 15 to 20)
#    0.706    0.706    1.176    4.235    0.000    8.941 
#    2.118    0.000    0.000    0.000    0.000    0.000 
#    0.000    0.000    0.000    0.000    0.000    0.000 
#
# Total GULP energy -94700.894799 kJ/mol
# GULP energy per Si atom -5570.640871 kJ/mol
# Density = 1.904495 g / cm^3
# Si number density = 19.088393 Si / 1000 Ang^3
#
#
#
# Elastic Constant Matrix: (Units=GPa)
#
#
# Indices 1 2 3 4 5 6 
#
# 1 80.7137 54.6295 40.5972 0.0000 0.0000 0.0000
# 2 54.6295 87.5811 53.7061 0.0000 0.0000 0.0000
# 3 40.5972 53.7061 87.5013 0.0000 0.0000 0.0000
# 4 0.0000 0.0000 0.0000 32.4943 0.0000 0.0000
# 5 0.0000 0.0000 0.0000 0.0000 25.7873 0.0000
# 6 0.0000 0.0000 0.0000 0.0000 0.0000 33.4141
#
#
#
# Elastic Compliance Matrix: (Units=1/GPa)
#
#
# Indices 1 2 3 4 5 6 
#
# 1 0.021875 -0.011900 -0.002845 0.000000 0.000000 0.000000
# 2 -0.011900 0.024783 -0.009690 0.000000 0.000000 0.000000
# 3 -0.002845 -0.009690 0.018696 0.000000 0.000000 0.000000
# 4 0.000000 0.000000 0.000000 0.030775 0.000000 0.000000
# 5 0.000000 0.000000 0.000000 0.000000 0.038779 0.000000
# 6 0.000000 0.000000 0.000000 0.000000 0.000000 0.029927
#
#
# Mechanical properties :
#
#
# Convention : Reuss Voigt Hill
#
# Bulk Modulus (GPa) = 60.66720 61.51794 61.09257
# Shear Modulus (GPa) = 22.81040 25.46336 24.13688
#
# Velocity S-wave (km/s) = 3.46061 3.65632 3.55981
# Velocity P-wave (km/s) = 6.91513 7.07974 6.99792
#
# Compressibility (1/GPa) = 0.01648337
#
# Stress axis : x y z
#
# Youngs Moduli (GPa) = 45.71492 40.35096 53.48776
#
# Poissons Ratio (x) = 0.48017 0.15218
# Poissons Ratio (y) = 0.54400 0.51829
# Poissons Ratio (z) = 0.13007 0.39100
#
# Static dielectric constant tensor:
#      x y z
#    x 1.650540 0.000000 0.000000 
#    y 0.000000 1.643120 0.000000 
#    z 0.000000 0.000000 1.651690 
# 
# From -- ./inp_files/4303.got.cif
#   From: 2010.05.17/outbox.cif.g08.bks.cpg/sg44_3_cif.got.tgz:4303.got - 2010.06.03 19:37:08.
