data_PCOD9374280
_publ_section_title
;
Structure prediction by ZEFSAII (Michael W. Deem and Ramdas Pophale) SiO2 
 PCOD9374280
Probable space group: I M M 2
;
_chemical_formula_sum "Si O2"
_cell_formula_units_Z 64
_cell_length_a 24.240081
_cell_length_b 8.900916
_cell_length_c 15.798620
_cell_angle_alpha 90.000000
_cell_angle_beta 90.000000
_cell_angle_gamma 90.000000
_cell_volume 3408.693265
_symmetry_space_group_name_H-M "I M M 2"
_symmetry_group_IT_number 44
_symmetry_cell_setting 'orthorhombic'
loop_
_space_group_symop_operation_xyz
x,y,z
-x,-y,z
-x,y,z
x,-y,z
1/2+x,1/2+y,1/2+z
1/2-x,1/2-y,1/2+z
1/2-x,1/2+y,1/2+z
1/2+x,1/2-y,1/2+z
loop_
_atom_site_type_symbol
_atom_site_label
_atom_site_fract_x
_atom_site_fract_y
_atom_site_fract_z
Si Si1 0.373757 0.679863 0.454350
Si Si2 0.129482 0.819050 0.763611
Si Si3 0.436104 0.818945 0.107739
Si Si4 0.565003 0.178963 0.612968
Si Si5 0.251492 0.678733 0.520411
Si Si6 0.866249 0.319852 0.442326
Si Si7 0.634776 0.678692 0.764869
Si Si8 0.252053 0.179259 0.705082
O O1 0.382471 0.500000 0.461459
O O2 0.386844 0.727030 0.358509
O O3 0.408901 0.761711 0.525792
O O4 0.308903 0.706694 0.472810
O O5 0.092697 0.748504 0.690292
O O6 0.193489 0.780169 0.746551
O O7 0.125552 0.000000 0.758949
O O8 0.500000 0.774316 0.102346
O O9 0.433328 0.000000 0.112974
O O10 0.402735 0.775066 0.023317
O O11 0.500000 0.212148 0.615881
O O12 0.596622 0.256144 0.690579
O O13 0.572781 0.000000 0.618762
O O14 0.249234 0.500000 0.540924
O O15 0.197556 0.713173 0.465178
O O16 0.250305 0.770803 0.607254
O O17 0.871239 0.500000 0.430685
O O18 0.883067 0.238167 0.356602
O O19 0.634321 0.500000 0.761553
O O20 0.696395 0.739581 0.747838
O O21 0.240461 0.500000 0.212005
#
# Coordination Sequence:
#
# PCOD9374280 Si02
#       8
#     8   8   8   8   8   8   8   8
#     4  10  21  38  61  89 121 156 197 245 298 359
#     4  10  22  39  61  90 123 161 201 243 296 355
#     4  10  22  40  62  88 119 159 205 251 299 351
#     4  11  25  44  64  87 117 156 203 254 306 358
#     4  10  19  35  61  90 121 158 196 243 301 360
#     4  10  21  39  62  88 124 163 201 246 299 358
#     4  12  25  40  62  92 124 158 200 246 302 364
#     4  11  21  36  61  91 124 159 198 244 300 360
#
# _framework density 18.775524000000001
#
# number of rings (size 3 to 8) (size 9 to 14) (size 15 to 20)
#    0.000    1.500    2.500    2.625    0.000    6.250 
#    0.000    5.000    0.000    0.000    0.000    0.000 
#    0.000    0.000    0.000    0.000    0.000    0.000 
#
# Total GULP energy -178884.554484 kJ/mol
# GULP energy per Si atom -5590.142328 kJ/mol
# Density = 1.873279 g / cm^3
# Si number density = 18.775524 Si / 1000 Ang^3
#
#
#
# Elastic Constant Matrix: (Units=GPa)
#
#
# Indices 1 2 3 4 5 6 
#
# 1 124.1274 56.5985 75.4142 0.0000 0.0000 0.0000
# 2 56.5985 48.6491 59.6092 0.0000 0.0000 0.0000
# 3 75.4142 59.6092 175.4457 0.0000 0.0000 0.0000
# 4 0.0000 0.0000 0.0000 35.5245 0.0000 0.0000
# 5 0.0000 0.0000 0.0000 0.0000 -4.9720 0.0000
# 6 0.0000 0.0000 0.0000 0.0000 0.0000 26.6660
#
#
#
# Elastic Compliance Matrix: (Units=1/GPa)
#
#
# Indices 1 2 3 4 5 6 
#
# 1 0.017265 -0.018833 -0.001022 0.000000 0.000000 0.000000
# 2 -0.018833 0.055760 -0.010850 0.000000 0.000000 0.000000
# 3 -0.001022 -0.010850 0.009825 0.000000 0.000000 0.000000
# 4 0.000000 0.000000 0.000000 0.028150 0.000000 0.000000
# 5 0.000000 0.000000 0.000000 0.000000 -0.201127 0.000000
# 6 0.000000 0.000000 0.000000 0.000000 0.000000 0.037501
#
#
# Mechanical properties :
#
#
# Convention : Reuss Voigt Hill
#
# Bulk Modulus (GPa) = 46.64233 81.27400 63.95817
# Shear Modulus (GPa) = 313.87640 21.88373 167.88006
#
# Velocity S-wave (km/s) = 12.94357 3.41771 9.46617
# Velocity P-wave (km/s) = 15.75682 7.67825 12.39421
#
# Compressibility (1/GPa) = 0.02143975
#
# Stress axis : x y z
#
# Youngs Moduli (GPa) = 57.92149 17.93414 101.77619
#
# Poissons Ratio (x) = 0.33775 0.10406
# Poissons Ratio (y) = 1.09084 1.10422
# Poissons Ratio (z) = 0.05922 0.19458
#
# Static dielectric constant tensor:
#      x y z
#    x 1.635480 0.000000 0.000000 
#    y 0.000000 1.631200 0.000000 
#    z 0.000000 0.000000 1.629030 
# 
# From -- ./inp_files/16780.got.cif
#   From: 2010.05.17/outbox.cif.g08.bks.cpg/sg44_9_cif.got.tgz:16780.got - 2010.06.03 19:37:08.
