data_PCOD9374658
_publ_section_title
;
Structure prediction by ZEFSAII (Michael W. Deem and Ramdas Pophale) SiO2 
 PCOD9374658
Probable space group: I M M 2
;
_chemical_formula_sum "Si O2"
_cell_formula_units_Z 58
_cell_length_a 7.450499
_cell_length_b 26.308618
_cell_length_c 14.176316
_cell_angle_alpha 90.000000
_cell_angle_beta 90.000000
_cell_angle_gamma 90.000000
_cell_volume 2778.732760
_symmetry_space_group_name_H-M "I M M 2"
_symmetry_group_IT_number 44
_symmetry_cell_setting 'orthorhombic'
loop_
_space_group_symop_operation_xyz
x,y,z
-x,-y,z
-x,y,z
x,-y,z
1/2+x,1/2+y,1/2+z
1/2-x,1/2-y,1/2+z
1/2-x,1/2+y,1/2+z
1/2+x,1/2-y,1/2+z
loop_
_atom_site_type_symbol
_atom_site_label
_atom_site_fract_x
_atom_site_fract_y
_atom_site_fract_z
Si Si1 0.282817 0.557467 0.856760
Si Si2 0.782567 0.097123 0.155348
Si Si3 0.715267 0.703966 0.579424
Si Si4 0.218818 0.088627 0.561513
Si Si5 0.000000 0.500000 0.108584
Si Si6 0.209700 0.556197 0.450061
Si Si7 0.791079 0.832587 0.880670
Si Si8 0.286424 0.311601 0.174280
O O1 0.500000 0.556237 0.851041
O O2 0.219908 0.500000 0.874838
O O3 0.218043 0.576222 0.755326
O O4 0.239732 0.589463 0.949369
O O5 0.722891 0.155104 0.139063
O O6 0.000000 0.095718 0.156420
O O7 0.728200 0.065687 0.062544
O O8 0.500000 0.699365 0.574561
O O9 0.786260 0.695061 0.473249
O O10 0.754242 0.757402 0.626751
O O11 0.270543 0.141598 0.609400
O O12 0.000000 0.080017 0.571242
O O13 0.340688 0.044313 0.604483
O O14 0.283850 0.500000 0.426810
O O15 0.284784 0.606616 0.399949
O O16 0.000000 0.555567 0.426320
O O17 0.711385 0.817503 0.780101
O O18 0.000000 0.818021 0.877911
O O19 0.500000 0.317501 0.182083
#
# Coordination Sequence:
#
# PCOD9374658 Si02
#       8
#     8   8   8   8   2   8   8   8
#     4   9  16  31  54  79 114 154 193 242 290 342
#     4   9  18  33  55  81 111 155 198 234 286 347
#     4   9  19  35  58  84 115 144 187 242 285 346
#     4  10  22  40  60  88 121 157 203 245 287 360
#     4  12  22  40  64  86 120 166 194 240 314 338
#     4  10  20  34  50  80 116 148 186 243 291 335
#     4   9  20  40  60  81 109 150 193 232 285 351
#     4  10  22  40  62  84 112 149 192 237 288 347
#
# _framework density 20.872824999999999
#
# number of rings (size 3 to 8) (size 9 to 14) (size 15 to 20)
#    0.000    2.483    0.690    1.862    0.966    5.517 
#    2.483    1.379    0.000    0.000    0.000    0.000 
#    0.000    0.000    0.000    0.000    0.000    0.000 
#
# Total GULP energy -161528.913713 kJ/mol
# GULP energy per Si atom -5569.962542 kJ/mol
# Density = 2.082532 g / cm^3
# Si number density = 20.872825 Si / 1000 Ang^3
#
#
#
# Elastic Constant Matrix: (Units=GPa)
#
#
# Indices 1 2 3 4 5 6 
#
# 1 68.2047 -11.4540 -3.2287 0.0000 0.0000 0.0001
# 2 -11.4540 115.6549 67.9857 -0.0001 0.0000 0.0002
# 3 -3.2287 67.9857 130.0085 -0.0001 0.0001 0.0004
# 4 0.0000 -0.0001 -0.0001 12.6245 0.0000 0.0002
# 5 0.0000 0.0000 0.0001 0.0000 0.3072 0.0000
# 6 0.0001 0.0002 0.0004 0.0002 0.0000 1.9267
#
#
#
# Elastic Compliance Matrix: (Units=1/GPa)
#
#
# Indices 1 2 3 4 5 6 
#
# 1 0.014940 0.001821 -0.000581 0.000000 -0.000001 0.000000
# 2 0.001821 0.012706 -0.006599 0.000000 0.000000 0.000000
# 3 -0.000581 -0.006599 0.011128 0.000000 -0.000002 -0.000002
# 4 0.000000 0.000000 0.000000 0.079211 -0.000011 -0.000007
# 5 -0.000001 0.000000 -0.000002 -0.000011 3.254847 0.000028
# 6 0.000000 0.000000 -0.000002 -0.000007 0.000028 0.519034
#
#
# Mechanical properties :
#
#
# Convention : Reuss Voigt Hill
#
# Bulk Modulus (GPa) = 35.64300 46.71933 41.18116
# Shear Modulus (GPa) = 1.27814 20.34268 10.81041
#
# Velocity S-wave (km/s) = 0.78337 3.12525 2.27825
# Velocity P-wave (km/s) = 4.23457 5.95435 5.16652
#
# Compressibility (1/GPa) = 0.02805600
#
# Stress axis : x y z
#
# Youngs Moduli (GPa) = 66.93394 78.70306 89.86122
#
# Poissons Ratio (x) = -0.14335 0.05225
# Poissons Ratio (y) = -0.12191 0.59301
# Poissons Ratio (z) = 0.03892 0.51937
#
# Static dielectric constant tensor:
#      x y z
#    x 1.791590 0.000000 0.000000 
#    y 0.000000 1.722280 0.000000 
#    z 0.000000 0.000000 1.768880 
# 
# From -- ./inp_files/16729.got.cif
#   From: 2010.05.17/outbox.cif.g08.bks.cpg/sg44_9_cif.got.tgz:16729.got - 2010.06.03 19:37:08.
