data_PCOD9374623
_publ_section_title
;
Structure prediction by ZEFSAII (Michael W. Deem and Ramdas Pophale) SiO2 
 PCOD9374623
Probable space group: I M M 2
;
_chemical_formula_sum "Si O2"
_cell_formula_units_Z 56
_cell_length_a 16.592653
_cell_length_b 8.078670
_cell_length_c 20.129752
_cell_angle_alpha 90.000000
_cell_angle_beta 90.000000
_cell_angle_gamma 90.000000
_cell_volume 2698.324171
_symmetry_space_group_name_H-M "I M M 2"
_symmetry_group_IT_number 44
_symmetry_cell_setting 'orthorhombic'
loop_
_space_group_symop_operation_xyz
x,y,z
-x,-y,z
-x,y,z
x,-y,z
1/2+x,1/2+y,1/2+z
1/2-x,1/2-y,1/2+z
1/2-x,1/2+y,1/2+z
1/2+x,1/2-y,1/2+z
loop_
_atom_site_type_symbol
_atom_site_label
_atom_site_fract_x
_atom_site_fract_y
_atom_site_fract_z
Si Si1 0.371363 0.191733 0.646800
Si Si2 0.742867 0.185533 0.962862
Si Si3 0.585187 0.690725 0.779442
Si Si4 0.190511 0.198079 0.606060
Si Si5 0.592205 0.198794 0.233095
Si Si6 0.087667 0.307044 0.995783
Si Si7 0.745003 0.192740 0.318187
O O1 0.413612 0.304459 0.700091
O O2 0.278154 0.242175 0.636434
O O3 0.412165 0.195268 0.575294
O O4 0.374346 0.000000 0.668972
O O5 0.742805 0.296237 0.897147
O O6 0.717471 0.000000 0.946072
O O7 0.695235 0.241735 0.029290
O O8 0.837996 0.192911 0.978416
O O9 0.500000 0.764686 0.803063
O O10 0.587050 0.500000 0.803174
O O11 0.671257 0.772717 0.794166
O O12 0.124546 0.262956 0.658403
O O13 0.185264 0.000000 0.603960
O O14 0.500000 0.261538 0.242924
O O15 0.661921 0.259939 0.285265
O O16 0.588142 0.000000 0.240423
O O17 0.103898 0.500000 0.976254
O O18 0.000000 0.260517 0.969172
O O19 0.745564 0.000000 0.297631
#
# Coordination Sequence:
#
# PCOD9374623 Si02
#       7
#     8   8   8   8   8   8   8
#     4   9  17  30  51  79 110 142 177 219 269 329
#     4  11  23  37  57  82 113 154 202 253 306 356
#     4  10  20  33  53  81 110 142 181 225 277 339
#     4  10  20  37  60  85 115 154 199 242 295 356
#     4  10  21  38  63  93 122 158 204 253 308 367
#     4   9  18  33  52  77 111 149 187 227 281 350
#     4  10  21  39  58  81 119 159 196 242 303 366
#
# _framework density 20.753622
#
# number of rings (size 3 to 8) (size 9 to 14) (size 15 to 20)
#    0.000    2.143    1.429    3.000    0.000    5.429 
#    0.000    2.143    0.000    2.571    0.000    0.000 
#    0.000    0.000    0.000    0.000    0.000    0.000 
#
# Total GULP energy -155885.951689 kJ/mol
# GULP energy per Si atom -5567.355417 kJ/mol
# Density = 2.070639 g / cm^3
# Si number density = 20.753622 Si / 1000 Ang^3
#
#
#
# Elastic Constant Matrix: (Units=GPa)
#
#
# Indices 1 2 3 4 5 6 
#
# 1 145.5334 15.7272 36.1754 0.0000 0.0000 0.0000
# 2 15.7272 17.3396 1.2353 0.0000 0.0000 0.0000
# 3 36.1754 1.2353 67.7497 0.0000 0.0000 0.0000
# 4 0.0000 0.0000 0.0000 26.1844 0.0000 0.0000
# 5 0.0000 0.0000 0.0000 0.0000 1.4698 0.0000
# 6 0.0000 0.0000 0.0000 0.0000 0.0000 -6.5301
#
#
#
# Elastic Compliance Matrix: (Units=1/GPa)
#
#
# Indices 1 2 3 4 5 6 
#
# 1 0.008841 -0.007693 -0.004581 0.000000 0.000000 0.000000
# 2 -0.007693 0.064440 0.002933 0.000000 0.000000 0.000000
# 3 -0.004581 0.002933 0.017153 0.000000 0.000000 0.000000
# 4 0.000000 0.000000 0.000000 0.038191 0.000000 0.000000
# 5 0.000000 0.000000 0.000000 0.000000 0.680375 0.000000
# 6 0.000000 0.000000 0.000000 0.000000 0.000000 -0.153138
#
#
# Mechanical properties :
#
#
# Convention : Reuss Voigt Hill
#
# Bulk Modulus (GPa) = 13.93680 37.43317 25.68499
# Shear Modulus (GPa) = 7.15860 16.05715 11.60788
#
# Velocity S-wave (km/s) = 1.85925 2.78457 2.36756
# Velocity P-wave (km/s) = 3.36735 5.33053 4.45834
#
# Compressibility (1/GPa) = 0.07175247
#
# Stress axis : x y z
#
# Youngs Moduli (GPa) = 113.10698 15.51831 58.30035
#
# Poissons Ratio (x) = 0.11938 0.26705
# Poissons Ratio (y) = 0.87010 -0.17097
# Poissons Ratio (z) = 0.51809 -0.04551
#
# Static dielectric constant tensor:
#      x y z
#    x 1.826620 0.000000 0.000000 
#    y 0.000000 1.750190 0.000000 
#    z 0.000000 0.000000 1.781970 
# 
# From -- ./inp_files/23016.got.cif
#   From: 2010.05.17/outbox.cif.g08.bks.cpg/sg44_12_cif.got.tgz:23016.got - 2010.06.03 19:37:08.
