data_PCOD9374349
_publ_section_title
;
Structure prediction by ZEFSAII (Michael W. Deem and Ramdas Pophale) SiO2 
 PCOD9374349
Probable space group: I M M 2
;
_chemical_formula_sum "Si O2"
_cell_formula_units_Z 58
_cell_length_a 25.447790
_cell_length_b 12.806888
_cell_length_c 8.503835
_cell_angle_alpha 90.000000
_cell_angle_beta 90.000000
_cell_angle_gamma 90.000000
_cell_volume 2771.459323
_symmetry_space_group_name_H-M "I M M 2"
_symmetry_group_IT_number 44
_symmetry_cell_setting 'orthorhombic'
loop_
_space_group_symop_operation_xyz
x,y,z
-x,-y,z
-x,y,z
x,-y,z
1/2+x,1/2+y,1/2+z
1/2-x,1/2-y,1/2+z
1/2-x,1/2+y,1/2+z
1/2+x,1/2-y,1/2+z
loop_
_atom_site_type_symbol
_atom_site_label
_atom_site_fract_x
_atom_site_fract_y
_atom_site_fract_z
Si Si1 0.416343 0.838419 0.211460
Si Si2 0.000000 0.500000 0.833079
Si Si3 0.597171 0.115972 0.860207
Si Si4 0.122134 0.213635 0.135427
Si Si5 0.775797 0.384291 0.381634
Si Si6 0.937227 0.116680 0.851972
Si Si7 0.676444 0.887290 0.418797
Si Si8 0.731290 0.326669 0.723955
O O1 0.454532 0.907666 0.319408
O O2 0.422002 0.715301 0.243309
O O3 0.358180 0.874140 0.260961
O O4 0.427458 0.866523 0.031366
O O5 0.586520 0.211802 0.743757
O O6 0.660619 0.118285 0.883640
O O7 0.582187 0.000000 0.802286
O O8 0.168655 0.156134 0.229366
O O9 0.089949 0.140897 0.019135
O O10 0.155404 0.295472 0.028058
O O11 0.758936 0.500000 0.334881
O O12 0.752695 0.360082 0.553972
O O13 0.758126 0.295531 0.260813
O O14 0.000000 0.119045 0.868546
O O15 0.921992 0.000000 0.797484
O O16 0.735936 0.880489 0.362037
O O17 0.665991 0.000000 0.492989
#
# Coordination Sequence:
#
# PCOD9374349 Si02
#       8
#     8   2   8   8   8   8   8   8
#     4  11  21  37  63  94 123 156 197 255 307 368
#     4  12  20  36  62 102 128 148 200 256 318 360
#     4  10  19  37  59  87 125 159 189 251 321 372
#     4  10  23  38  59  87 124 156 209 253 297 368
#     4  10  21  36  56  79 118 162 198 245 304 357
#     4  10  23  45  66  86 120 168 213 253 300 359
#     4  11  20  35  58  84 116 160 200 246 306 361
#     4  11  20  37  54  86 116 156 205 246 293 364
#
# _framework density 20.927603999999999
#
# number of rings (size 3 to 8) (size 9 to 14) (size 15 to 20)
#    0.000    1.517    4.828    0.828    0.000    1.655 
#    1.241    0.690    0.000    4.138    0.000    0.000 
#    0.000    0.000    0.000    0.000    0.000    0.000 
#
# Total GULP energy -161647.229608 kJ/mol
# GULP energy per Si atom -5574.042400 kJ/mol
# Density = 2.087997 g / cm^3
# Si number density = 20.927604 Si / 1000 Ang^3
#
#
#
# Elastic Constant Matrix: (Units=GPa)
#
#
# Indices 1 2 3 4 5 6 
#
# 1 32.2645 16.4051 -8.2842 0.0000 0.0000 0.0000
# 2 16.4051 137.4121 2.1311 0.0000 0.0000 0.0000
# 3 -8.2842 2.1311 38.5056 0.0000 0.0000 0.0000
# 4 0.0000 0.0000 0.0000 8.7008 0.0000 0.0000
# 5 0.0000 0.0000 0.0000 0.0000 -1.4143 0.0000
# 6 0.0000 0.0000 0.0000 0.0000 0.0000 23.4708
#
#
#
# Elastic Compliance Matrix: (Units=1/GPa)
#
#
# Indices 1 2 3 4 5 6 
#
# 1 0.035198 -0.004323 0.007812 0.000000 0.000000 0.000000
# 2 -0.004323 0.007815 -0.001363 0.000000 0.000000 0.000000
# 3 0.007812 -0.001363 0.027726 0.000000 0.000000 0.000000
# 4 0.000000 0.000000 0.000000 0.114932 0.000000 0.000000
# 5 0.000000 0.000000 0.000000 0.000000 -0.707054 0.000000
# 6 0.000000 0.000000 0.000000 0.000000 0.000000 0.042606
#
#
# Mechanical properties :
#
#
# Convention : Reuss Voigt Hill
#
# Bulk Modulus (GPa) = 13.33503 25.40958 19.37230
# Shear Modulus (GPa) = -10.91625 19.34681 4.21528
#
# Velocity S-wave (km/s) = -2.28638 3.04380 1.42077
# Velocity P-wave (km/s) = 0.76434 4.95186 3.45953
#
# Compressibility (1/GPa) = 0.07499048
#
# Stress axis : x y z
#
# Youngs Moduli (GPa) = 28.41090 127.96469 36.06684
#
# Poissons Ratio (x) = 0.55323 -0.28175
# Poissons Ratio (y) = 0.12283 0.04915
# Poissons Ratio (z) = -0.22194 0.17437
#
# Static dielectric constant tensor:
#      x y z
#    x 1.788190 0.000000 0.000000 
#    y 0.000000 1.790590 0.000000 
#    z 0.000000 0.000000 1.787110 
# 
# From -- ./inp_files/6242.got.cif
#   From: 2010.05.17/outbox.cif.g08.bks.cpg/sg44_4_cif.got.tgz:6242.got - 2010.06.03 19:37:08.
