data_PCOD9374740
_publ_section_title
;
Structure prediction by ZEFSAII (Michael W. Deem and Ramdas Pophale) SiO2 
 PCOD9374740
Probable space group: I M M 2
;
_chemical_formula_sum "Si O2"
_cell_formula_units_Z 56
_cell_length_a 21.862354
_cell_length_b 13.973933
_cell_length_c 10.186013
_cell_angle_alpha 90.000000
_cell_angle_beta 90.000000
_cell_angle_gamma 90.000000
_cell_volume 3111.858243
_symmetry_space_group_name_H-M "I M M 2"
_symmetry_group_IT_number 44
_symmetry_cell_setting 'orthorhombic'
loop_
_space_group_symop_operation_xyz
x,y,z
-x,-y,z
-x,y,z
x,-y,z
1/2+x,1/2+y,1/2+z
1/2-x,1/2-y,1/2+z
1/2-x,1/2+y,1/2+z
1/2+x,1/2-y,1/2+z
loop_
_atom_site_type_symbol
_atom_site_label
_atom_site_fract_x
_atom_site_fract_y
_atom_site_fract_z
Si Si1 0.928894 0.699907 0.583920
Si Si2 0.426876 0.109210 0.355585
Si Si3 0.797605 0.109384 0.942534
Si Si4 0.830067 0.304650 0.353776
Si Si5 0.122390 0.105683 0.679333
Si Si6 0.718646 0.606431 0.940763
Si Si7 0.660284 0.197951 0.555186
O O1 0.908010 0.635088 0.706928
O O2 0.884348 0.687294 0.459873
O O3 0.921475 0.807752 0.640246
O O4 0.000000 0.680658 0.552823
O O5 0.500000 0.117965 0.358611
O O6 0.397041 0.178161 0.462158
O O7 0.409939 0.000000 0.385881
O O8 0.728336 0.132632 0.897542
O O9 0.842041 0.120357 0.816018
O O10 0.817922 0.192197 0.041852
O O11 0.802068 0.000000 0.989071
O O12 0.805750 0.194702 0.355291
O O13 0.650410 0.171436 0.706204
O O14 0.174519 0.105316 0.567438
O O15 0.093390 0.000000 0.681345
O O16 0.718130 0.500000 0.881381
O O17 0.785360 0.634597 0.992864
#
# Coordination Sequence:
#
# PCOD9374740 Si02
#       7
#     8   8   8   8   8   8   8
#     4  10  21  39  58  80 112 153 197 237 280 339
#     4  10  22  39  57  77 106 147 192 234 277 334
#     4  10  20  34  54  82 117 147 179 229 288 345
#     4  10  22  34  55  86 116 147 185 234 289 338
#     4   9  16  32  56  82 108 140 186 235 278 328
#     4   9  18  32  52  78 112 148 180 223 279 340
#     4  11  20  34  56  83 112 145 185 231 285 338
#
# _framework density 17.995678000000002
#
# number of rings (size 3 to 8) (size 9 to 14) (size 15 to 20)
#    0.000    2.143    2.857    0.429    0.000    2.571 
#    0.000    0.000    0.000    2.143    0.000    2.000 
#    0.000    0.000    0.000    0.000    0.000    0.000 
#
# Total GULP energy -156145.543690 kJ/mol
# GULP energy per Si atom -5576.626560 kJ/mol
# Density = 1.795472 g / cm^3
# Si number density = 17.995678 Si / 1000 Ang^3
#
#
#
# Elastic Constant Matrix: (Units=GPa)
#
#
# Indices 1 2 3 4 5 6 
#
# 1 50.3205 18.8238 42.4996 0.0000 0.0000 0.0000
# 2 18.8238 65.1619 5.5685 0.0000 0.0000 0.0000
# 3 42.4996 5.5685 90.2418 0.0000 0.0000 0.0000
# 4 0.0000 0.0000 0.0000 13.8889 0.0000 0.0000
# 5 0.0000 0.0000 0.0000 0.0000 7.5258 0.0000
# 6 0.0000 0.0000 0.0000 0.0000 0.0000 18.8626
#
#
#
# Elastic Compliance Matrix: (Units=1/GPa)
#
#
# Indices 1 2 3 4 5 6 
#
# 1 0.038087 -0.009520 -0.017350 0.000000 0.000000 0.000000
# 2 -0.009520 0.017807 0.003385 0.000000 0.000000 0.000000
# 3 -0.017350 0.003385 0.019043 0.000000 0.000000 0.000000
# 4 0.000000 0.000000 0.000000 0.072000 0.000000 0.000000
# 5 0.000000 0.000000 0.000000 0.000000 0.132876 0.000000
# 6 0.000000 0.000000 0.000000 0.000000 0.000000 0.053015
#
#
# Mechanical properties :
#
#
# Convention : Reuss Voigt Hill
#
# Bulk Modulus (GPa) = 35.75562 37.72309 36.73936
# Shear Modulus (GPa) = 12.84947 17.31095 15.08021
#
# Velocity S-wave (km/s) = 2.67503 3.10490 2.89795
# Velocity P-wave (km/s) = 5.42708 5.81908 5.62649
#
# Compressibility (1/GPa) = 0.02796763
#
# Stress axis : x y z
#
# Youngs Moduli (GPa) = 26.25570 56.15701 52.51169
#
# Poissons Ratio (x) = 0.53460 0.91106
# Poissons Ratio (y) = 0.24995 -0.17773
# Poissons Ratio (z) = 0.45553 -0.19007
#
# Static dielectric constant tensor:
#      x y z
#    x 1.596060 0.000000 0.000000 
#    y 0.000000 1.648280 0.000000 
#    z 0.000000 0.000000 1.582560 
# 
# From -- ./inp_files/18986.got.cif
#   From: 2010.05.17/outbox.cif.g08.bks.cpg/sg44_10_cif.got.tgz:18986.got - 2010.06.03 19:37:08.
