data_PCOD9374756
_publ_section_title
;
Structure prediction by ZEFSAII (Michael W. Deem and Ramdas Pophale) SiO2 
 PCOD9374756
Probable space group: I M M 2
;
_chemical_formula_sum "Si O2"
_cell_formula_units_Z 56
_cell_length_a 14.639746
_cell_length_b 8.974739
_cell_length_c 22.949728
_cell_angle_alpha 90.000000
_cell_angle_beta 90.000000
_cell_angle_gamma 90.000000
_cell_volume 3015.316553
_symmetry_space_group_name_H-M "I M M 2"
_symmetry_group_IT_number 44
_symmetry_cell_setting 'orthorhombic'
loop_
_space_group_symop_operation_xyz
x,y,z
-x,-y,z
-x,y,z
x,-y,z
1/2+x,1/2+y,1/2+z
1/2-x,1/2-y,1/2+z
1/2-x,1/2+y,1/2+z
1/2+x,1/2-y,1/2+z
loop_
_atom_site_type_symbol
_atom_site_label
_atom_site_fract_x
_atom_site_fract_y
_atom_site_fract_z
Si Si1 0.107758 0.176303 0.210600
Si Si2 0.107428 0.174842 0.650625
Si Si3 0.782850 0.820717 0.535797
Si Si4 0.603663 0.320859 0.574397
Si Si5 0.783207 0.676909 0.314051
Si Si6 0.106870 0.820206 0.420078
Si Si7 0.394704 0.822493 0.275178
O O1 0.120086 0.216658 0.142727
O O2 0.169082 0.269996 0.254127
O O3 0.000000 0.195677 0.224187
O O4 0.128547 0.000000 0.217382
O O5 0.166654 0.224557 0.595632
O O6 0.122129 0.269678 0.708681
O O7 0.000000 0.184063 0.635236
O O8 0.127302 0.000000 0.663178
O O9 0.682235 0.752472 0.536403
O O10 0.842759 0.777730 0.480015
O O11 0.777300 0.000000 0.536358
O O12 0.500000 0.274889 0.559779
O O13 0.608042 0.500000 0.570228
O O14 0.781032 0.500000 0.317113
O O15 0.842410 0.744777 0.366261
O O16 0.681075 0.742805 0.314002
O O17 0.000000 0.780522 0.421715
O O18 0.112605 0.000000 0.413955
O O19 0.500000 0.782762 0.289141
O O20 0.384924 0.000000 0.279122
#
# Coordination Sequence:
#
# PCOD9374756 Si02
#       7
#     8   8   8   8   8   8   8
#     4   9  18  34  56  81 111 148 185 220 264 321
#     4   9  17  31  53  83 117 145 171 213 269 322
#     4  10  20  34  55  82 108 140 182 222 264 315
#     4   9  19  35  54  78 109 144 180 218 264 318
#     4  12  24  36  54  81 111 142 179 226 277 323
#     4  10  22  41  61  79 105 143 183 221 263 317
#     4  10  21  37  57  81 109 143 183 222 263 320
#
# _framework density 18.571849
#
# number of rings (size 3 to 8) (size 9 to 14) (size 15 to 20)
#    0.000    2.143    0.000    4.286    0.000    9.143 
#    0.000    2.143    0.000    3.429    0.000    0.000 
#    0.000    0.000    0.000    0.000    0.000    0.000 
#
# Total GULP energy -156402.282436 kJ/mol
# GULP energy per Si atom -5585.795801 kJ/mol
# Density = 1.852958 g / cm^3
# Si number density = 18.571849 Si / 1000 Ang^3
#
#
#
# Elastic Constant Matrix: (Units=GPa)
#
#
# Indices 1 2 3 4 5 6 
#
# 1 164.6848 61.1473 87.0012 0.0000 0.0000 0.0000
# 2 61.1473 43.3698 36.1770 0.0000 0.0000 0.0000
# 3 87.0012 36.1770 56.8300 0.0000 0.0000 0.0000
# 4 0.0000 0.0000 0.0000 11.6716 0.0000 0.0000
# 5 0.0000 0.0000 0.0000 0.0000 34.9923 0.0000
# 6 0.0000 0.0000 0.0000 0.0000 0.0000 30.2434
#
#
#
# Elastic Compliance Matrix: (Units=1/GPa)
#
#
# Indices 1 2 3 4 5 6 
#
# 1 0.033488 -0.009490 -0.045227 0.000000 0.000000 0.000000
# 2 -0.009490 0.051853 -0.018481 0.000000 0.000000 0.000000
# 3 -0.045227 -0.018481 0.098599 0.000000 0.000000 0.000000
# 4 0.000000 0.000000 0.000000 0.085678 0.000000 0.000000
# 5 0.000000 0.000000 0.000000 0.000000 0.028578 0.000000
# 6 0.000000 0.000000 0.000000 0.000000 0.000000 0.033065
#
#
# Mechanical properties :
#
#
# Convention : Reuss Voigt Hill
#
# Bulk Modulus (GPa) = 26.63438 70.39284 48.51361
# Shear Modulus (GPa) = 10.20054 20.75207 15.47630
#
# Velocity S-wave (km/s) = 2.34614 3.34637 2.88986
# Velocity P-wave (km/s) = 4.65957 7.27435 6.10851
#
# Compressibility (1/GPa) = 0.03754546
#
# Stress axis : x y z
#
# Youngs Moduli (GPa) = 29.86110 19.28525 10.14213
#
# Poissons Ratio (x) = 0.18301 0.45869
# Poissons Ratio (y) = 0.28337 0.18744
# Poissons Ratio (z) = 1.35051 0.35641
#
# Static dielectric constant tensor:
#      x y z
#    x 1.648260 0.000000 0.000000 
#    y 0.000000 1.620070 0.000000 
#    z 0.000000 0.000000 1.620100 
# 
# From -- ./inp_files/23065.got.cif
#   From: 2010.05.17/outbox.cif.g08.bks.cpg/sg44_12_cif.got.tgz:23065.got - 2010.06.03 19:37:08.
