data_PCOD9374157
_publ_section_title
;
Structure prediction by ZEFSAII (Michael W. Deem and Ramdas Pophale) SiO2 
 PCOD9374157
Probable space group: I M M 2
;
_chemical_formula_sum "Si O2"
_cell_formula_units_Z 56
_cell_length_a 17.840375
_cell_length_b 7.438902
_cell_length_c 17.825610
_cell_angle_alpha 90.000000
_cell_angle_beta 90.000000
_cell_angle_gamma 90.000000
_cell_volume 2365.686637
_symmetry_space_group_name_H-M "I M M 2"
_symmetry_group_IT_number 44
_symmetry_cell_setting 'orthorhombic'
loop_
_space_group_symop_operation_xyz
x,y,z
-x,-y,z
-x,y,z
x,-y,z
1/2+x,1/2+y,1/2+z
1/2-x,1/2-y,1/2+z
1/2-x,1/2+y,1/2+z
1/2+x,1/2-y,1/2+z
loop_
_atom_site_type_symbol
_atom_site_label
_atom_site_fract_x
_atom_site_fract_y
_atom_site_fract_z
Si Si1 0.850601 0.720025 0.526950
Si Si2 0.417280 0.218821 0.872101
Si Si3 0.580942 0.292001 0.350204
Si Si4 0.858785 0.293075 0.694644
Si Si5 0.306811 0.295309 0.464958
Si Si6 0.586185 0.782400 0.600297
Si Si7 0.810656 0.717182 0.240994
O O1 0.849519 0.500000 0.531742
O O2 0.904458 0.769802 0.458529
O O3 0.867565 0.783127 0.610943
O O4 0.768191 0.782883 0.500744
O O5 0.500000 0.275965 0.845793
O O6 0.348990 0.277507 0.818750
O O7 0.416569 0.000000 0.869261
O O8 0.500000 0.210861 0.368585
O O9 0.578515 0.500000 0.374870
O O10 0.594993 0.291855 0.261926
O O11 0.652213 0.210997 0.393253
O O12 0.882411 0.500000 0.692495
O O13 0.771340 0.284152 0.718577
O O14 0.284970 0.500000 0.443896
O O15 0.369360 0.292696 0.529437
O O16 0.500000 0.725343 0.602504
O O17 0.631401 0.733972 0.675139
O O18 0.587588 0.000000 0.594733
O O19 0.804443 0.500000 0.243869
#
# Coordination Sequence:
#
# PCOD9374157 Si02
#       7
#     8   8   8   8   8   8   8
#     4   9  18  32  52  80 110 139 179 228 273 321
#     4   9  17  31  54  81 106 137 181 231 275 318
#     4  10  22  39  59  83 110 145 189 233 278 330
#     4  11  22  36  56  83 113 146 184 227 276 330
#     4  10  19  36  58  79 107 143 187 230 273 330
#     4  10  20  32  50  81 117 147 178 223 279 334
#     4  10  19  34  56  81 111 145 182 223 272 330
#
# _framework density 23.671773000000002
#
# number of rings (size 3 to 8) (size 9 to 14) (size 15 to 20)
#    0.000    2.143    1.429    2.143    0.000    6.286 
#    0.000    1.429    0.000    2.143    0.000    0.000 
#    0.000    0.000    0.000    0.000    0.000    0.000 
#
# Total GULP energy -156496.663366 kJ/mol
# GULP energy per Si atom -5589.166549 kJ/mol
# Density = 2.361789 g / cm^3
# Si number density = 23.671773 Si / 1000 Ang^3
#
#
#
# Elastic Constant Matrix: (Units=GPa)
#
#
# Indices 1 2 3 4 5 6 
#
# 1 26.9737 -6.3188 -16.0510 0.0000 0.0000 0.0000
# 2 -6.3188 71.7852 -0.8159 0.0000 0.0000 0.0000
# 3 -16.0510 -0.8159 121.6716 0.0000 0.0000 0.0000
# 4 0.0000 0.0000 0.0000 14.9216 0.0000 0.0000
# 5 0.0000 0.0000 0.0000 0.0000 34.7094 0.0000
# 6 0.0000 0.0000 0.0000 0.0000 0.0000 24.7886
#
#
#
# Elastic Compliance Matrix: (Units=1/GPa)
#
#
# Indices 1 2 3 4 5 6 
#
# 1 0.041185 0.003687 0.005458 0.000000 0.000000 0.000000
# 2 0.003687 0.014262 0.000582 0.000000 0.000000 0.000000
# 3 0.005458 0.000582 0.008943 0.000000 0.000000 0.000000
# 4 0.000000 0.000000 0.000000 0.067017 0.000000 0.000000
# 5 0.000000 0.000000 0.000000 0.000000 0.028811 0.000000
# 6 0.000000 0.000000 0.000000 0.000000 0.000000 0.040341
#
#
# Mechanical properties :
#
#
# Convention : Reuss Voigt Hill
#
# Bulk Modulus (GPa) = 11.92700 19.33990 15.63345
# Shear Modulus (GPa) = 23.91757 31.12500 27.52129
#
# Velocity S-wave (km/s) = 3.18210 3.63003 3.41342
# Velocity P-wave (km/s) = 4.30702 5.07516 4.70679
#
# Compressibility (1/GPa) = 0.08384339
#
# Stress axis : x y z
#
# Youngs Moduli (GPa) = 24.28088 70.11823 111.82240
#
# Poissons Ratio (x) = -0.25854 -0.61031
# Poissons Ratio (y) = -0.08953 -0.06509
# Poissons Ratio (z) = -0.13252 -0.04081
#
# Static dielectric constant tensor:
#      x y z
#    x 1.872390 0.000000 0.000000 
#    y 0.000000 2.026320 0.000000 
#    z 0.000000 0.000000 1.878620 
# 
# From -- ./inp_files/19194.got.cif
#   From: 2010.05.17/outbox.cif.g08.bks.cpg/sg44_10_cif.got.tgz:19194.got - 2010.06.03 19:37:08.
