data_PCOD9374556
_publ_section_title
;
Structure prediction by ZEFSAII (Michael W. Deem and Ramdas Pophale) SiO2 
 PCOD9374556
Probable space group: I M M 2
;
_chemical_formula_sum "Si O2"
_cell_formula_units_Z 64
_cell_length_a 8.589869
_cell_length_b 15.715824
_cell_length_c 23.786026
_cell_angle_alpha 90.000000
_cell_angle_beta 90.000000
_cell_angle_gamma 90.000000
_cell_volume 3211.039045
_symmetry_space_group_name_H-M "I M M 2"
_symmetry_group_IT_number 44
_symmetry_cell_setting 'orthorhombic'
loop_
_space_group_symop_operation_xyz
x,y,z
-x,-y,z
-x,y,z
x,-y,z
1/2+x,1/2+y,1/2+z
1/2-x,1/2-y,1/2+z
1/2-x,1/2+y,1/2+z
1/2+x,1/2-y,1/2+z
loop_
_atom_site_type_symbol
_atom_site_label
_atom_site_fract_x
_atom_site_fract_y
_atom_site_fract_z
Si Si1 0.320772 0.329661 0.942180
Si Si2 0.185374 0.775197 0.198968
Si Si3 0.669573 0.899370 0.549997
Si Si4 0.311888 0.902712 0.105405
Si Si5 0.190527 0.590359 0.358127
Si Si6 0.817895 0.901119 0.664601
Si Si7 0.690093 0.723962 0.821879
Si Si8 0.319900 0.133193 0.980047
O O1 0.500000 0.360010 0.942444
O O2 0.261742 0.326047 0.878086
O O3 0.321090 0.233095 0.965661
O O4 0.221215 0.379020 0.987413
O O5 0.254032 0.832264 0.149154
O O6 0.229873 0.675291 0.195371
O O7 0.238584 0.807258 0.260669
O O8 0.000000 0.781453 0.196197
O O9 0.500000 0.860383 0.562837
O O10 0.791361 0.877354 0.598680
O O11 0.656522 0.000000 0.554001
O O12 0.500000 0.897476 0.104425
O O13 0.268863 0.000000 0.120761
O O14 0.253220 0.884925 0.041549
O O15 0.236887 0.500000 0.331983
O O16 0.241044 0.677734 0.329585
O O17 0.245921 0.592894 0.423054
O O18 0.000000 0.593061 0.359033
O O19 0.000000 0.897931 0.677742
O O20 0.764816 0.000000 0.673571
O O21 0.500000 0.723965 0.823726
O O22 0.500000 0.104254 0.982958
#
# Coordination Sequence:
#
# PCOD9374556 Si02
#       8
#     8   8   8   8   8   8   8   8
#     4   9  16  30  52  74  99 132 169 208 254 314
#     4  11  22  36  54  76 107 144 182 228 274 312
#     4  10  20  33  50  76 107 133 163 210 268 325
#     4  10  20  34  53  77 104 136 177 222 267 319
#     4   8  12  21  41  69  98 123 148 186 240 301
#     4  10  21  37  57  81 109 142 180 220 266 327
#     4   8  17  31  46  69  99 133 173 212 253 305
#     4   8  14  25  45  73  99 121 151 198 252 303
#
# _framework density 19.931244
#
# number of rings (size 3 to 8) (size 9 to 14) (size 15 to 20)
#    0.000    2.750    0.000    3.750    0.000    4.750 
#    0.000    3.125    0.000    3.750    0.000    0.000 
#    0.000    4.000    0.000    0.000    0.000    0.000 
#
# Total GULP energy -178248.916998 kJ/mol
# GULP energy per Si atom -5570.278656 kJ/mol
# Density = 1.988588 g / cm^3
# Si number density = 19.931244 Si / 1000 Ang^3
#
#
#
# Elastic Constant Matrix: (Units=GPa)
#
#
# Indices 1 2 3 4 5 6 
#
# 1 16.9313 11.4110 0.3745 0.0000 0.0000 0.0000
# 2 11.4110 28.7267 21.8585 0.0000 0.0000 0.0000
# 3 0.3745 21.8585 95.2367 0.0000 0.0000 0.0000
# 4 0.0000 0.0000 0.0000 10.7608 0.0000 0.0000
# 5 0.0000 0.0000 0.0000 0.0000 16.4421 0.0000
# 6 0.0000 0.0000 0.0000 0.0000 0.0000 8.7338
#
#
#
# Elastic Compliance Matrix: (Units=1/GPa)
#
#
# Indices 1 2 3 4 5 6 
#
# 1 0.086803 -0.041462 0.009175 0.000000 0.000000 0.000000
# 2 -0.041462 0.061981 -0.014063 0.000000 0.000000 0.000000
# 3 0.009175 -0.014063 0.013692 0.000000 0.000000 0.000000
# 4 0.000000 0.000000 0.000000 0.092930 0.000000 0.000000
# 5 0.000000 0.000000 0.000000 0.000000 0.060820 0.000000
# 6 0.000000 0.000000 0.000000 0.000000 0.000000 0.114497
#
#
# Mechanical properties :
#
#
# Convention : Reuss Voigt Hill
#
# Bulk Modulus (GPa) = 14.33146 23.13142 18.73144
# Shear Modulus (GPa) = 9.14610 14.33737 11.74174
#
# Velocity S-wave (km/s) = 2.14448 2.68496 2.42980
# Velocity P-wave (km/s) = 3.65209 4.60900 4.15816
#
# Compressibility (1/GPa) = 0.06977654
#
# Stress axis : x y z
#
# Youngs Moduli (GPa) = 11.52033 16.13396 73.03689
#
# Poissons Ratio (x) = 0.66894 -0.67010
# Poissons Ratio (y) = 0.47765 1.02710
# Poissons Ratio (z) = -0.10570 0.22689
#
# Static dielectric constant tensor:
#      x y z
#    x 1.706630 0.000000 0.000000 
#    y 0.000000 1.738310 0.000000 
#    z 0.000000 0.000000 1.732750 
# 
# From -- ./inp_files/23266.got.cif
#   From: 2010.05.17/outbox.cif.g08.bks.cpg/sg44_12_cif.got.tgz:23266.got - 2010.06.03 19:37:08.
