data_PCOD9374744
_publ_section_title
;
Structure prediction by ZEFSAII (Michael W. Deem and Ramdas Pophale) SiO2 
 PCOD9374744
Probable space group: I M M 2
;
_chemical_formula_sum "Si O2"
_cell_formula_units_Z 56
_cell_length_a 8.765308
_cell_length_b 14.514217
_cell_length_c 23.402773
_cell_angle_alpha 90.000000
_cell_angle_beta 90.000000
_cell_angle_gamma 90.000000
_cell_volume 2977.337813
_symmetry_space_group_name_H-M "I M M 2"
_symmetry_group_IT_number 44
_symmetry_cell_setting 'orthorhombic'
loop_
_space_group_symop_operation_xyz
x,y,z
-x,-y,z
-x,y,z
x,-y,z
1/2+x,1/2+y,1/2+z
1/2-x,1/2-y,1/2+z
1/2-x,1/2+y,1/2+z
1/2+x,1/2-y,1/2+z
loop_
_atom_site_type_symbol
_atom_site_label
_atom_site_fract_x
_atom_site_fract_y
_atom_site_fract_z
Si Si1 0.821860 0.389677 0.992820
Si Si2 0.182474 0.106497 0.617342
Si Si3 0.317310 0.293037 0.883031
Si Si4 0.817077 0.392780 0.772828
Si Si5 0.179514 0.609976 0.561473
Si Si6 0.814317 0.396449 0.430543
Si Si7 0.180635 0.782268 0.166427
O O1 0.813792 0.500000 0.983964
O O2 0.732016 0.340654 0.942160
O O3 0.000000 0.362819 0.992350
O O4 0.749166 0.370901 0.054606
O O5 0.250426 0.180072 0.660956
O O6 0.000000 0.113991 0.615552
O O7 0.222850 0.000000 0.629997
O O8 0.500000 0.297067 0.876916
O O9 0.240234 0.345139 0.830664
O O10 0.268769 0.186019 0.889058
O O11 0.769418 0.500000 0.771439
O O12 0.750303 0.338387 0.719029
O O13 0.000000 0.389923 0.770613
O O14 0.190096 0.500000 0.571443
O O15 0.230313 0.625958 0.496085
O O16 0.272764 0.664714 0.608424
O O17 0.000000 0.635438 0.566261
O O18 0.762091 0.500000 0.416352
O O19 0.000000 0.398514 0.431369
O O20 0.000000 0.777559 0.171896
#
# Coordination Sequence:
#
# PCOD9374744 Si02
#       7
#     8   8   8   8   8   8   8
#     4  10  20  34  54  83 119 154 186 226 280 338
#     4  10  21  38  60  85 114 149 189 232 277 331
#     4  11  21  34  57  85 112 147 190 236 285 337
#     4  11  25  44  62  79 106 147 191 235 283 337
#     4   9  17  32  56  84 115 152 190 227 272 331
#     4   8  16  32  54  81 112 145 181 220 266 324
#     4  12  24  37  57  84 114 147 184 232 287 342
#
# _framework density 18.80875
#
# number of rings (size 3 to 8) (size 9 to 14) (size 15 to 20)
#    0.000    1.857    0.000    5.571    0.000    7.714 
#    0.000    1.429    0.000    6.000    0.000    0.000 
#    0.000    0.000    0.000    0.000    0.000    0.000 
#
# Total GULP energy -156463.517305 kJ/mol
# GULP energy per Si atom -5587.982761 kJ/mol
# Density = 1.876594 g / cm^3
# Si number density = 18.808750 Si / 1000 Ang^3
#
#
#
# Elastic Constant Matrix: (Units=GPa)
#
#
# Indices 1 2 3 4 5 6 
#
# 1 65.2613 46.7760 33.5084 0.0000 0.0000 0.0000
# 2 46.7760 134.2494 93.4719 0.0000 0.0000 0.0000
# 3 33.5084 93.4719 80.4824 0.0000 0.0000 0.0000
# 4 0.0000 0.0000 0.0000 33.6413 0.0000 0.0000
# 5 0.0000 0.0000 0.0000 0.0000 23.5000 0.0000
# 6 0.0000 0.0000 0.0000 0.0000 0.0000 25.2055
#
#
#
# Elastic Compliance Matrix: (Units=1/GPa)
#
#
# Indices 1 2 3 4 5 6 
#
# 1 0.020447 -0.006255 -0.001248 0.000000 0.000000 0.000000
# 2 -0.006255 0.040837 -0.044824 0.000000 0.000000 0.000000
# 3 -0.001248 -0.044824 0.065003 0.000000 0.000000 0.000000
# 4 0.000000 0.000000 0.000000 0.029725 0.000000 0.000000
# 5 0.000000 0.000000 0.000000 0.000000 0.042553 0.000000
# 6 0.000000 0.000000 0.000000 0.000000 0.000000 0.039674
#
#
# Mechanical properties :
#
#
# Convention : Reuss Voigt Hill
#
# Bulk Modulus (GPa) = 46.22604 69.72288 57.97446
# Shear Modulus (GPa) = 14.28141 23.55181 18.91661
#
# Velocity S-wave (km/s) = 2.75852 3.54244 3.17477
# Velocity P-wave (km/s) = 5.89713 7.34042 6.65800
#
# Compressibility (1/GPa) = 0.02163283
#
# Stress axis : x y z
#
# Youngs Moduli (GPa) = 48.90592 24.48755 15.38392
#
# Poissons Ratio (x) = 0.15318 0.01920
# Poissons Ratio (y) = 0.30592 0.68956
# Poissons Ratio (z) = 0.06105 1.09762
#
# Static dielectric constant tensor:
#      x y z
#    x 1.630630 0.000000 0.000000 
#    y 0.000000 1.676490 0.000000 
#    z 0.000000 0.000000 1.615820 
# 
# From -- ./inp_files/23050.got.cif
#   From: 2010.05.17/outbox.cif.g08.bks.cpg/sg44_12_cif.got.tgz:23050.got - 2010.06.03 19:37:08.
