data_PCOD9374542
_publ_section_title
;
Structure prediction by ZEFSAII (Michael W. Deem and Ramdas Pophale) SiO2 
 PCOD9374542
Probable space group: I M M 2
;
_chemical_formula_sum "Si O2"
_cell_formula_units_Z 64
_cell_length_a 8.671951
_cell_length_b 14.595137
_cell_length_c 29.115934
_cell_angle_alpha 90.000000
_cell_angle_beta 90.000000
_cell_angle_gamma 90.000000
_cell_volume 3685.154645
_symmetry_space_group_name_H-M "I M M 2"
_symmetry_group_IT_number 44
_symmetry_cell_setting 'orthorhombic'
loop_
_space_group_symop_operation_xyz
x,y,z
-x,-y,z
-x,y,z
x,-y,z
1/2+x,1/2+y,1/2+z
1/2-x,1/2-y,1/2+z
1/2-x,1/2+y,1/2+z
1/2+x,1/2-y,1/2+z
loop_
_atom_site_type_symbol
_atom_site_label
_atom_site_fract_x
_atom_site_fract_y
_atom_site_fract_z
Si Si1 0.186261 0.895014 0.870650
Si Si2 0.186301 0.105639 0.121178
Si Si3 0.315614 0.755995 0.942524
Si Si4 0.813692 0.394514 0.121024
Si Si5 0.184994 0.249735 0.691426
Si Si6 0.685495 0.249910 0.544346
Si Si7 0.686183 0.395092 0.868968
Si Si8 0.313817 0.243985 0.297098
O O1 0.248782 0.843407 0.915506
O O2 0.233259 0.832957 0.826976
O O3 0.000000 0.894475 0.872437
O O4 0.238040 0.000000 0.867404
O O5 0.254672 0.161923 0.163753
O O6 0.229101 0.161812 0.075196
O O7 0.000000 0.109040 0.124473
O O8 0.234644 0.000000 0.120022
O O9 0.500000 0.760396 0.941644
O O10 0.266458 0.667147 0.912537
O O11 0.258210 0.750576 0.994385
O O12 0.764402 0.500000 0.119953
O O13 0.747155 0.338217 0.163856
O O14 0.769776 0.338093 0.075198
O O15 0.000000 0.391531 0.123808
O O16 0.236334 0.250751 0.744354
O O17 0.000000 0.248769 0.690292
O O18 0.500000 0.249749 0.539734
O O19 0.500000 0.394616 0.867277
O O20 0.738486 0.500000 0.872274
O O21 0.748931 0.343546 0.824093
O O22 0.500000 0.239627 0.297839
#
# Coordination Sequence:
#
# PCOD9374542 Si02
#       8
#     8   8   8   8   8   8   8   8
#     4   9  18  34  54  72  94 129 169 204 240 288
#     4   9  19  36  55  73  97 133 174 211 247 293
#     4  10  20  33  50  74 103 130 159 201 250 296
#     4   9  19  36  55  75 101 133 170 209 245 289
#     4  10  20  33  51  77 107 134 162 204 256 302
#     4   9  18  33  52  74 100 130 166 205 245 292
#     4   9  19  35  52  71  98 132 167 202 242 291
#     4   9  19  34  51  74 102 130 163 204 247 291
#
# _framework density 17.366978
#
# number of rings (size 3 to 8) (size 9 to 14) (size 15 to 20)
#    0.000    2.750    0.000    1.500    0.000    6.500 
#    0.000    5.000    0.000    0.000    0.000    0.000 
#    0.000    0.000    0.000    0.000    0.000    0.000 
#
# Total GULP energy -178452.689368 kJ/mol
# GULP energy per Si atom -5576.646543 kJ/mol
# Density = 1.732745 g / cm^3
# Si number density = 17.366978 Si / 1000 Ang^3
#
#
#
# Elastic Constant Matrix: (Units=GPa)
#
#
# Indices 1 2 3 4 5 6 
#
# 1 9.2008 29.6519 29.8315 0.0000 0.0000 0.0000
# 2 29.6519 184.5164 92.8331 0.0000 0.0000 0.0000
# 3 29.8315 92.8331 177.6382 0.0000 0.0000 0.0000
# 4 0.0000 0.0000 0.0000 5.9013 0.0000 0.0000
# 5 0.0000 0.0000 0.0000 0.0000 24.3185 0.0000
# 6 0.0000 0.0000 0.0000 0.0000 0.0000 20.3024
#
#
#
# Elastic Compliance Matrix: (Units=1/GPa)
#
#
# Indices 1 2 3 4 5 6 
#
# 1 0.365347 -0.037775 -0.041613 0.000000 0.000000 0.000000
# 2 -0.037775 0.011259 0.000460 0.000000 0.000000 0.000000
# 3 -0.041613 0.000460 0.012377 0.000000 0.000000 0.000000
# 4 0.000000 0.000000 0.000000 0.169454 0.000000 0.000000
# 5 0.000000 0.000000 0.000000 0.000000 0.041121 0.000000
# 6 0.000000 0.000000 0.000000 0.000000 0.000000 0.049255
#
#
# Mechanical properties :
#
#
# Convention : Reuss Voigt Hill
#
# Bulk Modulus (GPa) = 4.32664 75.10985 39.71824
# Shear Modulus (GPa) = 5.65795 24.70703 15.18249
#
# Velocity S-wave (km/s) = 1.80692 3.77589 2.95992
# Velocity P-wave (km/s) = 2.61725 7.89635 5.88227
#
# Compressibility (1/GPa) = 0.23112641
#
# Stress axis : x y z
#
# Youngs Moduli (GPa) = 2.73712 88.82048 80.79345
#
# Poissons Ratio (x) = 3.35524 3.36206
# Poissons Ratio (y) = 0.10340 -0.03717
# Poissons Ratio (z) = 0.11390 -0.04086
#
# Static dielectric constant tensor:
#      x y z
#    x 1.588770 0.000000 0.000000 
#    y 0.000000 1.583130 0.000000 
#    z 0.000000 0.000000 1.562450 
# 
# From -- ./inp_files/27358.got.cif
#   From: 2010.05.17/outbox.cif.g08.bks.cpg/sg44_14_cif.got.tgz:27358.got - 2010.06.03 19:37:08.
