data_PCOD9374697
_publ_section_title
;
Structure prediction by ZEFSAII (Michael W. Deem and Ramdas Pophale) SiO2 
 PCOD9374697
Probable space group: I M M 2
;
_chemical_formula_sum "Si O2"
_cell_formula_units_Z 48
_cell_length_a 8.536062
_cell_length_b 30.615608
_cell_length_c 10.426633
_cell_angle_alpha 90.000000
_cell_angle_beta 90.000000
_cell_angle_gamma 90.000000
_cell_volume 2724.862153
_symmetry_space_group_name_H-M "I M M 2"
_symmetry_group_IT_number 44
_symmetry_cell_setting 'orthorhombic'
loop_
_space_group_symop_operation_xyz
x,y,z
-x,-y,z
-x,y,z
x,-y,z
1/2+x,1/2+y,1/2+z
1/2-x,1/2-y,1/2+z
1/2-x,1/2+y,1/2+z
1/2+x,1/2-y,1/2+z
loop_
_atom_site_type_symbol
_atom_site_label
_atom_site_fract_x
_atom_site_fract_y
_atom_site_fract_z
Si Si1 0.310499 0.050293 0.376390
Si Si2 0.312102 0.882841 0.884849
Si Si3 0.188007 0.214504 0.884531
Si Si4 0.189523 0.717232 0.101507
Si Si5 0.190530 0.617207 0.093422
Si Si6 0.187533 0.050302 0.094610
O O1 0.500000 0.051499 0.373419
O O2 0.254630 0.083284 0.486403
O O3 0.248804 0.062516 0.235899
O O4 0.263344 0.000000 0.402195
O O5 0.500000 0.882085 0.887494
O O6 0.251182 0.834038 0.911915
O O7 0.261682 0.894098 0.738900
O O8 0.250921 0.917323 0.987159
O O9 0.246900 0.227480 0.743015
O O10 0.000000 0.213435 0.883790
O O11 0.240059 0.248628 0.993309
O O12 0.237816 0.667418 0.069008
O O13 0.000000 0.717747 0.107709
O O14 0.000000 0.616309 0.091051
O O15 0.000000 0.051584 0.094986
O O16 0.237854 0.000000 0.070666
#
# Coordination Sequence:
#
# PCOD9374697 Si02
#       6
#     8   8   8   8   8   8
#     4   9  17  31  52  76 101 132 171 212 254 302
#     4  10  20  35  55  77 103 135 172 213 258 309
#     4  10  20  34  53  77 105 136 173 216 260 307
#     4   9  19  35  52  73 103 137 173 213 257 306
#     4   8  16  32  52  74 100 130 168 213 254 297
#     4  10  21  36  52  74 106 138 169 209 255 304
#
# _framework density 17.615569000000001
#
# number of rings (size 3 to 8) (size 9 to 14) (size 15 to 20)
#    0.000    2.667    0.000    2.500    0.000    4.333 
#    0.000    7.500    0.000    2.000    0.000    0.000 
#    0.000    0.000    0.000    0.000    0.000    0.000 
#
# Total GULP energy -133857.729582 kJ/mol
# GULP energy per Si atom -5577.405399 kJ/mol
# Density = 1.757548 g / cm^3
# Si number density = 17.615569 Si / 1000 Ang^3
#
#
#
# Elastic Constant Matrix: (Units=GPa)
#
#
# Indices 1 2 3 4 5 6 
#
# 1 23.2891 29.1448 33.4047 0.0000 0.0000 0.0000
# 2 29.1448 129.6128 143.9751 -0.0001 0.0000 0.0000
# 3 33.4047 143.9751 187.1178 0.0003 -0.0002 -0.0001
# 4 0.0000 -0.0001 0.0003 45.4009 0.0000 0.0000
# 5 0.0000 0.0000 -0.0002 0.0000 20.9432 0.0000
# 6 0.0000 0.0000 -0.0001 0.0000 0.0000 15.5962
#
#
#
# Elastic Compliance Matrix: (Units=1/GPa)
#
#
# Indices 1 2 3 4 5 6 
#
# 1 0.059893 -0.010946 -0.002270 0.000000 0.000000 0.000000
# 2 -0.010946 0.055098 -0.040440 0.000000 0.000000 0.000000
# 3 -0.002270 -0.040440 0.036866 0.000000 0.000000 0.000000
# 4 0.000000 0.000000 0.000000 0.022026 0.000000 0.000000
# 5 0.000000 0.000000 0.000000 0.000000 0.047748 0.000000
# 6 0.000000 0.000000 0.000000 0.000000 0.000000 0.064118
#
#
# Mechanical properties :
#
#
# Convention : Reuss Voigt Hill
#
# Bulk Modulus (GPa) = 22.44979 83.67434 53.06207
# Shear Modulus (GPa) = 12.25760 25.28773 18.77267
#
# Velocity S-wave (km/s) = 2.64074 3.79295 3.26803
# Velocity P-wave (km/s) = 4.69787 8.17223 6.66541
#
# Compressibility (1/GPa) = 0.04454385
#
# Stress axis : x y z
#
# Youngs Moduli (GPa) = 16.69653 18.14937 27.12542
#
# Poissons Ratio (x) = 0.19867 0.06157
# Poissons Ratio (y) = 0.18276 1.09697
# Poissons Ratio (z) = 0.03790 0.73397
#
# Static dielectric constant tensor:
#      x y z
#    x 1.597930 0.000000 0.000000 
#    y 0.000000 1.589530 0.000000 
#    z 0.000000 0.000000 1.577560 
# 
# From -- ./inp_files/4925.got.cif
#   From: 2010.05.17/outbox.cif.g08.bks.cpg/sg44_3_cif.got.tgz:4925.got - 2010.06.03 19:37:08.
