data_PCOD9374417
_publ_section_title
;
Structure prediction by ZEFSAII (Michael W. Deem and Ramdas Pophale) SiO2 
 PCOD9374417
Probable space group: I M M 2
;
_chemical_formula_sum "Si O2"
_cell_formula_units_Z 48
_cell_length_a 9.469811
_cell_length_b 7.339840
_cell_length_c 31.797206
_cell_angle_alpha 90.000000
_cell_angle_beta 90.000000
_cell_angle_gamma 90.000000
_cell_volume 2210.125140
_symmetry_space_group_name_H-M "I M M 2"
_symmetry_group_IT_number 44
_symmetry_cell_setting 'orthorhombic'
loop_
_space_group_symop_operation_xyz
x,y,z
-x,-y,z
-x,y,z
x,-y,z
1/2+x,1/2+y,1/2+z
1/2-x,1/2-y,1/2+z
1/2-x,1/2+y,1/2+z
1/2+x,1/2-y,1/2+z
loop_
_atom_site_type_symbol
_atom_site_label
_atom_site_fract_x
_atom_site_fract_y
_atom_site_fract_z
Si Si1 0.839593 0.718921 0.319450
Si Si2 0.337767 0.277533 0.144493
Si Si3 0.337314 0.777867 0.562656
Si Si4 0.158779 0.714819 0.901238
Si Si5 0.337231 0.778246 0.724931
Si Si6 0.837598 0.777348 0.480504
O O1 0.844605 0.500000 0.318000
O O2 0.732752 0.767044 0.356188
O O3 0.799963 0.780456 0.272351
O O4 0.000000 0.782283 0.328629
O O5 0.500000 0.219948 0.140858
O O6 0.337609 0.500000 0.144534
O O7 0.244314 0.220605 0.104696
O O8 0.265640 0.217971 0.187975
O O9 0.500000 0.718881 0.561910
O O10 0.251421 0.721794 0.521315
O O11 0.338673 0.000000 0.562754
O O12 0.146874 0.500000 0.909624
O O13 0.259279 0.786011 0.938234
O O14 0.000000 0.790218 0.901701
O O15 0.500000 0.725565 0.716719
O O16 0.334720 0.000000 0.724777
O O17 0.000000 0.718255 0.482257
O O18 0.839997 0.000000 0.480389
#
# Coordination Sequence:
#
# PCOD9374417 Si02
#       6
#     8   8   8   8   8   8
#     4   9  18  32  49  68  90 118 153 191 230 272
#     4   9  15  21  31  50  76 106 140 174 209 255
#     4   9  15  22  33  50  75 107 140 174 214 260
#     4  10  20  32  46  66  92 121 153 188 227 272
#     4   8  14  25  39  55  78 108 140 175 217 262
#     4   9  16  26  40  57  79 109 144 181 221 264
#
# _framework density 21.718226999999999
#
# number of rings (size 3 to 8) (size 9 to 14) (size 15 to 20)
#    0.000    3.000    0.000    3.000    0.000    8.000 
#    0.000    1.667    0.000    0.000    0.000    0.000 
#    0.000    1.333    0.000    9.667    0.000   14.667 
#
# Total GULP energy -134065.537581 kJ/mol
# GULP energy per Si atom -5586.064066 kJ/mol
# Density = 2.166880 g / cm^3
# Si number density = 21.718227 Si / 1000 Ang^3
#
#
#
# Elastic Constant Matrix: (Units=GPa)
#
#
# Indices 1 2 3 4 5 6 
#
# 1 238.7145 6.3678 162.1118 0.0000 0.0000 0.0000
# 2 6.3678 81.7123 0.7733 0.0000 0.0000 0.0000
# 3 162.1118 0.7733 204.5536 0.0000 0.0000 0.0000
# 4 0.0000 0.0000 0.0000 5.2339 0.0000 0.0000
# 5 0.0000 0.0000 0.0000 0.0000 41.8282 0.0000
# 6 0.0000 0.0000 0.0000 0.0000 0.0000 -3.2359
#
#
#
# Elastic Compliance Matrix: (Units=1/GPa)
#
#
# Indices 1 2 3 4 5 6 
#
# 1 0.009105 -0.000641 -0.007213 0.000000 0.000000 0.000000
# 2 -0.000641 0.012284 0.000462 0.000000 0.000000 0.000000
# 3 -0.007213 0.000462 0.010604 0.000000 0.000000 0.000000
# 4 0.000000 0.000000 0.000000 0.191060 0.000000 0.000000
# 5 0.000000 0.000000 0.000000 0.000000 0.023907 0.000000
# 6 0.000000 0.000000 0.000000 0.000000 0.000000 -0.309038
#
#
# Mechanical properties :
#
#
# Convention : Reuss Voigt Hill
#
# Bulk Modulus (GPa) = 58.11751 95.94290 77.03021
# Shear Modulus (GPa) = -120.31609 32.48043 -43.91783
#
# Velocity S-wave (km/s) = -7.45110 3.87141 -4.50173
# Velocity P-wave (km/s) = 6.87076 8.01598 2.91964
#
# Compressibility (1/GPa) = 0.01720652
#
# Stress axis : x y z
#
# Youngs Moduli (GPa) = 109.83316 81.40892 94.30834
#
# Poissons Ratio (x) = 0.05220 0.68026
# Poissons Ratio (y) = 0.07043 -0.04355
# Poissons Ratio (z) = 0.79225 -0.03759
#
# Static dielectric constant tensor:
#      x y z
#    x 1.739410 0.000000 0.000000 
#    y 0.000000 1.949060 0.000000 
#    z 0.000000 0.000000 1.741260 
# 
# From -- ./inp_files/26027.got.cif
#   From: 2010.05.17/outbox.cif.g08.bks.cpg/sg44_14_cif.got.tgz:26027.got - 2010.06.03 19:37:08.
