data_PCOD9374999
_publ_section_title
;
Structure prediction by ZEFSAII (Michael W. Deem and Ramdas Pophale) SiO2 
 PCOD9374999
Probable space group: I M M 2
;
_chemical_formula_sum "Si O2"
_cell_formula_units_Z 48
_cell_length_a 13.754550
_cell_length_b 19.204820
_cell_length_c 9.536825
_cell_angle_alpha 90.000000
_cell_angle_beta 90.000000
_cell_angle_gamma 90.000000
_cell_volume 2519.187199
_symmetry_space_group_name_H-M "I M M 2"
_symmetry_group_IT_number 44
_symmetry_cell_setting 'orthorhombic'
loop_
_space_group_symop_operation_xyz
x,y,z
-x,-y,z
-x,y,z
x,-y,z
1/2+x,1/2+y,1/2+z
1/2-x,1/2-y,1/2+z
1/2-x,1/2+y,1/2+z
1/2+x,1/2-y,1/2+z
loop_
_atom_site_type_symbol
_atom_site_label
_atom_site_fract_x
_atom_site_fract_y
_atom_site_fract_z
Si Si1 0.778970 0.191270 0.941830
Si Si2 0.681588 0.077820 0.142739
Si Si3 0.500000 0.848628 0.289686
Si Si4 0.500000 0.315456 0.816372
Si Si5 0.330218 0.576899 0.894794
Si Si6 0.000000 0.787554 0.606409
Si Si7 0.714353 0.326182 0.119458
Si Si8 0.000000 0.767274 0.000847
O O1 0.749806 0.186435 0.777593
O O2 0.897641 0.196627 0.952856
O O3 0.726308 0.128406 0.024258
O O4 0.743371 0.261075 0.021436
O O5 0.592712 0.110288 0.231442
O O6 0.763830 0.071578 0.259485
O O7 0.657409 0.000000 0.089690
O O8 0.500000 0.813694 0.445824
O O9 0.500000 0.777180 0.205202
O O10 0.590782 0.366157 0.846456
O O11 0.500000 0.262234 0.945705
O O12 0.500000 0.278163 0.668338
O O13 0.370795 0.500000 0.927029
O O14 0.266857 0.605614 0.026017
O O15 0.902519 0.829321 0.633051
#
# Coordination Sequence:
#
# PCOD9374999 Si02
#       8
#     8   8   4   4   8   4   8   4
#     4  12  22  38  59  91 124 156 209 264 314 371
#     4  11  24  41  62  87 122 169 211 252 313 378
#     4  12  21  42  60  90 122 160 209 252 305 367
#     4  10  21  34  59  93 122 154 196 248 312 370
#     4  10  21  39  59  86 123 165 202 246 314 381
#     4  10  20  36  58  87 119 151 192 249 313 363
#     4  11  22  37  61  89 123 157 204 262 314 367
#     4  12  22  34  61  90 121 153 199 259 314 354
#
# _framework density 19.053764999999999
#
# number of rings (size 3 to 8) (size 9 to 14) (size 15 to 20)
#    0.000    1.000    5.000    2.500    2.333    0.667 
#    0.000    0.417    0.000    2.000    0.000    3.500 
#    0.000    0.000    0.000    0.000    0.000    0.000 
#
# Total GULP energy -133632.427862 kJ/mol
# GULP energy per Si atom -5568.017828 kJ/mol
# Density = 1.901040 g / cm^3
# Si number density = 19.053765 Si / 1000 Ang^3
#
#
#
# Elastic Constant Matrix: (Units=GPa)
#
#
# Indices 1 2 3 4 5 6 
#
# 1 61.8650 15.4311 11.0649 0.0000 0.0000 0.0000
# 2 15.4311 90.3545 42.4128 0.0000 0.0000 0.0000
# 3 11.0649 42.4128 162.9952 0.0000 0.0000 0.0000
# 4 0.0000 0.0000 0.0000 28.8469 0.0000 0.0000
# 5 0.0000 0.0000 0.0000 0.0000 21.9632 0.0000
# 6 0.0000 0.0000 0.0000 0.0000 0.0000 26.4522
#
#
#
# Elastic Compliance Matrix: (Units=1/GPa)
#
#
# Indices 1 2 3 4 5 6 
#
# 1 0.016913 -0.002676 -0.000452 0.000000 0.000000 0.000000
# 2 -0.002676 0.013031 -0.003209 0.000000 0.000000 0.000000
# 3 -0.000452 -0.003209 0.007001 0.000000 0.000000 0.000000
# 4 0.000000 0.000000 0.000000 0.034666 0.000000 0.000000
# 5 0.000000 0.000000 0.000000 0.000000 0.045531 0.000000
# 6 0.000000 0.000000 0.000000 0.000000 0.000000 0.037804
#
#
# Mechanical properties :
#
#
# Convention : Reuss Voigt Hill
#
# Bulk Modulus (GPa) = 41.20300 50.33694 45.76997
# Shear Modulus (GPa) = 28.45612 31.87286 30.16449
#
# Velocity S-wave (km/s) = 3.86873 4.09441 3.98317
# Velocity P-wave (km/s) = 6.45195 6.98770 6.72516
#
# Compressibility (1/GPa) = 0.02427008
#
# Stress axis : x y z
#
# Youngs Moduli (GPa) = 59.12757 76.74032 142.83991
#
# Poissons Ratio (x) = 0.20539 0.06452
# Poissons Ratio (y) = 0.15825 0.45839
# Poissons Ratio (z) = 0.02671 0.24627
#
# Static dielectric constant tensor:
#      x y z
#    x 1.692080 0.000000 0.000000 
#    y 0.000000 1.696240 0.000000 
#    z 0.000000 0.000000 1.697900 
# 
# From -- ./inp_files/7170.got.cif
#   From: 2010.05.17/outbox.cif.g08.bks.cpg/sg44_4_cif.got.tgz:7170.got - 2010.06.03 19:37:08.
