data_PCOD9374332
_publ_section_title
;
Structure prediction by ZEFSAII (Michael W. Deem and Ramdas Pophale) SiO2 
 PCOD9374332
Probable space group: I M M 2
;
_chemical_formula_sum "Si O2"
_cell_formula_units_Z 64
_cell_length_a 16.710663
_cell_length_b 14.297755
_cell_length_c 12.793429
_cell_angle_alpha 90.000000
_cell_angle_beta 90.000000
_cell_angle_gamma 90.000000
_cell_volume 3056.669582
_symmetry_space_group_name_H-M "I M M 2"
_symmetry_group_IT_number 44
_symmetry_cell_setting 'orthorhombic'
loop_
_space_group_symop_operation_xyz
x,y,z
-x,-y,z
-x,y,z
x,-y,z
1/2+x,1/2+y,1/2+z
1/2-x,1/2-y,1/2+z
1/2-x,1/2+y,1/2+z
1/2+x,1/2-y,1/2+z
loop_
_atom_site_type_symbol
_atom_site_label
_atom_site_fract_x
_atom_site_fract_y
_atom_site_fract_z
Si Si1 0.091243 0.812228 0.361010
Si Si2 0.089497 0.399705 0.652896
Si Si3 0.413336 0.897126 0.549678
Si Si4 0.817367 0.107536 0.929708
Si Si5 0.375393 0.898278 0.911511
Si Si6 0.308503 0.255973 0.248338
Si Si7 0.647658 0.278288 0.642266
Si Si8 0.748843 0.392303 0.916793
O O1 0.097569 0.698994 0.362450
O O2 0.116372 0.837533 0.241473
O O3 0.158893 0.853429 0.440023
O O4 0.000000 0.839697 0.383988
O O5 0.129279 0.500000 0.685281
O O6 0.090067 0.400415 0.528033
O O7 0.127033 0.302493 0.685736
O O8 0.000000 0.402254 0.693970
O O9 0.500000 0.893183 0.490551
O O10 0.411286 0.807399 0.622172
O O11 0.328590 0.890378 0.488854
O O12 0.411738 0.000000 0.599905
O O13 0.720624 0.107313 0.924508
O O14 0.839504 0.160554 0.821612
O O15 0.844717 0.000000 0.932909
O O16 0.842167 0.162543 0.035315
O O17 0.394273 0.000000 0.862118
O O18 0.232316 0.270915 0.173577
O O19 0.275128 0.178747 0.328000
O O20 0.738302 0.500000 0.886719
#
# Coordination Sequence:
#
# PCOD9374332 Si02
#       8
#     8   8   8   8   8   8   8   8
#     4  11  23  38  60  92 128 169 213 257 311 375
#     4  10  21  36  60  94 126 161 208 267 330 381
#     4  10  21  38  62  90 121 157 199 253 317 378
#     4  11  22  40  64  90 123 165 213 258 310 377
#     4  10  19  36  61  92 128 163 204 260 319 377
#     4  11  21  37  63  88 120 163 208 254 316 376
#     4  11  21  38  61  89 124 161 204 254 316 376
#     4  10  21  38  58  85 119 159 200 247 307 368
#
# _framework density 20.937821
#
# number of rings (size 3 to 8) (size 9 to 14) (size 15 to 20)
#    0.000    1.500    5.000    1.125    0.000    4.500 
#    0.000    1.250    0.000    3.000    0.000    0.000 
#    0.000    0.000    0.000    0.000    0.000    0.000 
#
# Total GULP energy -178153.840187 kJ/mol
# GULP energy per Si atom -5567.307506 kJ/mol
# Density = 2.089017 g / cm^3
# Si number density = 20.937821 Si / 1000 Ang^3
#
#
#
# Elastic Constant Matrix: (Units=GPa)
#
#
# Indices 1 2 3 4 5 6 
#
# 1 114.3094 23.7737 27.9502 0.0000 0.0000 0.0000
# 2 23.7737 116.7139 45.2512 0.0000 0.0000 0.0000
# 3 27.9502 45.2512 63.1310 0.0000 0.0000 0.0000
# 4 0.0000 0.0000 0.0000 9.4468 0.0000 0.0000
# 5 0.0000 0.0000 0.0000 0.0000 45.0634 0.0000
# 6 0.0000 0.0000 0.0000 0.0000 0.0000 21.7314
#
#
#
# Elastic Compliance Matrix: (Units=1/GPa)
#
#
# Indices 1 2 3 4 5 6 
#
# 1 0.009826 -0.000436 -0.004038 0.000000 0.000000 0.000000
# 2 -0.000436 0.011885 -0.008326 0.000000 0.000000 0.000000
# 3 -0.004038 -0.008326 0.023596 0.000000 0.000000 0.000000
# 4 0.000000 0.000000 0.000000 0.105856 0.000000 0.000000
# 5 0.000000 0.000000 0.000000 0.000000 0.022191 0.000000
# 6 0.000000 0.000000 0.000000 0.000000 0.000000 0.046016
#
#
# Mechanical properties :
#
#
# Convention : Reuss Voigt Hill
#
# Bulk Modulus (GPa) = 50.74278 54.23384 52.48831
# Shear Modulus (GPa) = 19.87773 28.39359 24.13566
#
# Velocity S-wave (km/s) = 3.08453 3.68651 3.39887
# Velocity P-wave (km/s) = 6.08057 6.63920 6.36602
#
# Compressibility (1/GPa) = 0.01970724
#
# Stress axis : x y z
#
# Youngs Moduli (GPa) = 101.76896 84.14144 42.38086
#
# Poissons Ratio (x) = 0.03668 0.17113
# Poissons Ratio (y) = 0.04437 0.35285
# Poissons Ratio (z) = 0.41093 0.70054
#
# Static dielectric constant tensor:
#      x y z
#    x 1.823060 0.000000 0.000000 
#    y 0.000000 1.791930 0.000000 
#    z 0.000000 0.000000 1.817720 
# 
# From -- ./inp_files/14007.got.cif
#   From: 2010.05.17/outbox.cif.g08.bks.cpg/sg44_8_cif.got.tgz:14007.got - 2010.06.03 19:37:08.
