data_PCOD9374387
_publ_section_title
;
Structure prediction by ZEFSAII (Michael W. Deem and Ramdas Pophale) SiO2 
 PCOD9374387
Probable space group: I M M 2
;
_chemical_formula_sum "Si O2"
_cell_formula_units_Z 56
_cell_length_a 14.234898
_cell_length_b 7.676124
_cell_length_c 30.565791
_cell_angle_alpha 90.000000
_cell_angle_beta 90.000000
_cell_angle_gamma 90.000000
_cell_volume 3339.888593
_symmetry_space_group_name_H-M "I M M 2"
_symmetry_group_IT_number 44
_symmetry_cell_setting 'orthorhombic'
loop_
_space_group_symop_operation_xyz
x,y,z
-x,-y,z
-x,y,z
x,-y,z
1/2+x,1/2+y,1/2+z
1/2-x,1/2-y,1/2+z
1/2-x,1/2+y,1/2+z
1/2+x,1/2-y,1/2+z
loop_
_atom_site_type_symbol
_atom_site_label
_atom_site_fract_x
_atom_site_fract_y
_atom_site_fract_z
Si Si1 0.608661 0.790659 0.497640
Si Si2 0.107891 0.792172 0.902124
Si Si3 0.105849 0.793030 0.264587
Si Si4 0.782464 0.295237 0.177706
Si Si5 0.390399 0.213300 0.593309
Si Si6 0.393513 0.713516 0.229521
Si Si7 0.213772 0.790147 0.816899
O O1 0.500000 0.730176 0.496649
O O2 0.648520 0.738237 0.450690
O O3 0.645720 0.732917 0.545066
O O4 0.608312 0.000000 0.498320
O O5 0.172681 0.724652 0.862801
O O6 0.000000 0.723050 0.899838
O O7 0.101057 0.000000 0.896552
O O8 0.148665 0.719642 0.219474
O O9 0.180561 0.756601 0.302938
O O10 0.000000 0.728358 0.272480
O O11 0.102184 0.000000 0.258947
O O12 0.768090 0.500000 0.169346
O O13 0.830055 0.221642 0.134179
O O14 0.682287 0.224353 0.193912
O O15 0.500000 0.264217 0.597743
O O16 0.390199 0.000000 0.594247
O O17 0.500000 0.770213 0.222733
O O18 0.392805 0.500000 0.229185
O O19 0.353401 0.766994 0.276895
O O20 0.210479 0.000000 0.817632
#
# Coordination Sequence:
#
# PCOD9374387 Si02
#       7
#     8   8   8   8   8   8   8
#     4   8  14  24  37  54  78 107 135 163 199 242
#     4   9  16  26  41  62  86 107 130 165 203 235
#     4  10  20  31  41  57  83 108 129 162 206 242
#     4   9  16  26  43  62  78 105 142 170 195 232
#     4   8  13  22  37  57  79 102 133 171 201 230
#     4   8  13  22  37  58  81 101 125 161 199 230
#     4   9  17  28  43  60  77 104 138 163 190 235
#
# _framework density 16.767026000000001
#
# number of rings (size 3 to 8) (size 9 to 14) (size 15 to 20)
#    0.000    3.286    0.000    3.000    0.000    4.000 
#    0.000    0.714    0.000   12.857    0.000    1.000 
#    0.000    3.429    0.000    0.000    0.000    0.000 
#
# Total GULP energy -155876.196546 kJ/mol
# GULP energy per Si atom -5567.007019 kJ/mol
# Density = 1.672886 g / cm^3
# Si number density = 16.767026 Si / 1000 Ang^3
#
#
#
# Elastic Constant Matrix: (Units=GPa)
#
#
# Indices 1 2 3 4 5 6 
#
# 1 122.5474 0.7450 78.3156 0.0000 0.0000 0.0000
# 2 0.7450 24.8088 -0.8215 0.0000 0.0000 0.0000
# 3 78.3156 -0.8215 153.7801 0.0000 0.0000 0.0000
# 4 0.0000 0.0000 0.0000 13.7097 0.0000 0.0000
# 5 0.0000 0.0000 0.0000 0.0000 26.1021 0.0000
# 6 0.0000 0.0000 0.0000 0.0000 0.0000 -56.2647
#
#
#
# Elastic Compliance Matrix: (Units=1/GPa)
#
#
# Indices 1 2 3 4 5 6 
#
# 1 0.012105 -0.000568 -0.006168 0.000000 0.000000 0.000000
# 2 -0.000568 0.040342 0.000505 0.000000 0.000000 0.000000
# 3 -0.006168 0.000505 0.009647 0.000000 0.000000 0.000000
# 4 0.000000 0.000000 0.000000 0.072941 0.000000 0.000000
# 5 0.000000 0.000000 0.000000 0.000000 0.038311 0.000000
# 6 0.000000 0.000000 0.000000 0.000000 0.000000 -0.017773
#
#
# Mechanical properties :
#
#
# Convention : Reuss Voigt Hill
#
# Bulk Modulus (GPa) = 20.14836 50.84605 35.49721
# Shear Modulus (GPa) = 27.08871 11.56923 19.32897
#
# Velocity S-wave (km/s) = 4.02381 2.62963 3.39897
# Velocity P-wave (km/s) = 5.79920 6.29371 6.05151
#
# Compressibility (1/GPa) = 0.04963184
#
# Stress axis : x y z
#
# Youngs Moduli (GPa) = 82.60904 24.78808 103.66353
#
# Poissons Ratio (x) = 0.01407 0.63938
# Poissons Ratio (y) = 0.04690 -0.05231
# Poissons Ratio (z) = 0.50952 -0.01251
#
# Static dielectric constant tensor:
#      x y z
#    x 1.557860 0.000000 0.000000 
#    y 0.000000 1.634010 0.000000 
#    z 0.000000 0.000000 1.592080 
# 
# From -- ./inp_files/27208.got.cif
#   From: 2010.05.17/outbox.cif.g08.bks.cpg/sg44_14_cif.got.tgz:27208.got - 2010.06.03 19:37:08.
