data_PCOD9374829
_publ_section_title
;
Structure prediction by ZEFSAII (Michael W. Deem and Ramdas Pophale) SiO2 
 PCOD9374829
Probable space group: I M M 2
;
_chemical_formula_sum "Si O2"
_cell_formula_units_Z 64
_cell_length_a 33.368720
_cell_length_b 8.671907
_cell_length_c 12.099212
_cell_angle_alpha 90.000000
_cell_angle_beta 90.000000
_cell_angle_gamma 90.000000
_cell_volume 3501.154258
_symmetry_space_group_name_H-M "I M M 2"
_symmetry_group_IT_number 44
_symmetry_cell_setting 'orthorhombic'
loop_
_space_group_symop_operation_xyz
x,y,z
-x,-y,z
-x,y,z
x,-y,z
1/2+x,1/2+y,1/2+z
1/2-x,1/2-y,1/2+z
1/2-x,1/2+y,1/2+z
1/2+x,1/2-y,1/2+z
loop_
_atom_site_type_symbol
_atom_site_label
_atom_site_fract_x
_atom_site_fract_y
_atom_site_fract_z
Si Si1 0.953228 0.186609 0.842890
Si Si2 0.686477 0.183840 0.276748
Si Si3 0.547133 0.313936 0.094535
Si Si4 0.877570 0.686546 0.962354
Si Si5 0.851754 0.314871 0.205835
Si Si6 0.685718 0.674577 0.037339
Si Si7 0.602667 0.323635 0.903755
Si Si8 0.272170 0.816981 0.836561
O O1 0.941214 0.238982 0.717967
O O2 0.921234 0.251858 0.928672
O O3 0.000000 0.230173 0.861279
O O4 0.951863 0.000000 0.844315
O O5 0.654229 0.234746 0.368375
O O6 0.679266 0.261882 0.159006
O O7 0.731132 0.230730 0.312191
O O8 0.683602 0.000000 0.265935
O O9 0.500000 0.286556 0.083363
O O10 0.553609 0.500000 0.094106
O O11 0.570622 0.252423 0.988435
O O12 0.878840 0.500000 0.963732
O O13 0.862133 0.739315 0.082636
O O14 0.850257 0.500000 0.204395
O O15 0.885780 0.263328 0.292263
O O16 0.808612 0.264072 0.255613
O O17 0.701889 0.500000 0.041755
O O18 0.643336 0.671153 0.975155
O O19 0.713960 0.778847 0.961026
O O20 0.591112 0.500000 0.876037
O O21 0.266819 0.000000 0.822458
#
# Coordination Sequence:
#
# PCOD9374829 Si02
#       8
#     8   8   8   8   8   8   8   8
#     4   9  18  34  57  84 112 142 180 228 276 326
#     4  11  23  36  54  81 110 140 182 230 274 330
#     4   8  14  27  50  79 109 136 165 211 270 321
#     4  10  22  38  55  78 110 149 185 225 274 330
#     4   9  20  38  55  72 103 145 181 218 271 326
#     4  10  20  35  54  76 105 138 175 221 272 326
#     4   9  17  31  53  78 101 133 175 217 261 314
#     4  10  21  37  57  79 104 140 182 227 282 332
#
# _framework density 18.279686999999999
#
# number of rings (size 3 to 8) (size 9 to 14) (size 15 to 20)
#    0.000    2.500    0.000    2.625    1.750    3.750 
#    0.000    1.250    0.000    3.375    0.000    0.000 
#    0.000    0.000    0.000    0.000    0.000    0.000 
#
# Total GULP energy -178450.984210 kJ/mol
# GULP energy per Si atom -5576.593257 kJ/mol
# Density = 1.823808 g / cm^3
# Si number density = 18.279687 Si / 1000 Ang^3
#
#
#
# Elastic Constant Matrix: (Units=GPa)
#
#
# Indices 1 2 3 4 5 6 
#
# 1 64.5893 8.3511 52.0247 0.0000 0.0000 0.0000
# 2 8.3511 10.2385 13.0533 0.0000 0.0000 0.0000
# 3 52.0247 13.0533 138.7672 0.0000 0.0000 0.0000
# 4 0.0000 0.0000 0.0000 28.0475 0.0000 0.0000
# 5 0.0000 0.0000 0.0000 0.0000 18.1889 0.0000
# 6 0.0000 0.0000 0.0000 0.0000 0.0000 23.3324
#
#
#
# Elastic Compliance Matrix: (Units=1/GPa)
#
#
# Indices 1 2 3 4 5 6 
#
# 1 0.022853 -0.008768 -0.007743 0.000000 0.000000 0.000000
# 2 -0.008768 0.114345 -0.007469 0.000000 0.000000 0.000000
# 3 -0.007743 -0.007469 0.010812 0.000000 0.000000 0.000000
# 4 0.000000 0.000000 0.000000 0.035654 0.000000 0.000000
# 5 0.000000 0.000000 0.000000 0.000000 0.054979 0.000000
# 6 0.000000 0.000000 0.000000 0.000000 0.000000 0.042859
#
#
# Mechanical properties :
#
#
# Convention : Reuss Voigt Hill
#
# Bulk Modulus (GPa) = 9.99504 40.05034 25.02269
# Shear Modulus (GPa) = 13.78130 23.25814 18.51972
#
# Velocity S-wave (km/s) = 2.74873 3.57087 3.18643
# Velocity P-wave (km/s) = 3.94382 6.24170 5.22075
#
# Compressibility (1/GPa) = 0.10004963
#
# Stress axis : x y z
#
# Youngs Moduli (GPa) = 43.75841 8.74546 92.49247
#
# Poissons Ratio (x) = 0.07668 0.71615
# Poissons Ratio (y) = 0.38369 0.69079
# Poissons Ratio (z) = 0.33881 0.06532
#
# Static dielectric constant tensor:
#      x y z
#    x 1.623390 0.000000 0.000000 
#    y 0.000000 1.631760 0.000000 
#    z 0.000000 0.000000 1.632510 
# 
# From -- ./inp_files/15115.got.cif
#   From: 2010.05.17/outbox.cif.g08.bks.cpg/sg44_8_cif.got.tgz:15115.got - 2010.06.03 19:37:08.
