data_PCOD9374762
_publ_section_title
;
Structure prediction by ZEFSAII (Michael W. Deem and Ramdas Pophale) SiO2 
 PCOD9374762
Probable space group: I M M 2
;
_chemical_formula_sum "Si O2"
_cell_formula_units_Z 56
_cell_length_a 21.775064
_cell_length_b 9.211142
_cell_length_c 14.355742
_cell_angle_alpha 90.000000
_cell_angle_beta 90.000000
_cell_angle_gamma 90.000000
_cell_volume 2879.377206
_symmetry_space_group_name_H-M "I M M 2"
_symmetry_group_IT_number 44
_symmetry_cell_setting 'orthorhombic'
loop_
_space_group_symop_operation_xyz
x,y,z
-x,-y,z
-x,y,z
x,-y,z
1/2+x,1/2+y,1/2+z
1/2-x,1/2-y,1/2+z
1/2-x,1/2+y,1/2+z
1/2+x,1/2-y,1/2+z
loop_
_atom_site_type_symbol
_atom_site_label
_atom_site_fract_x
_atom_site_fract_y
_atom_site_fract_z
Si Si1 0.641940 0.324841 0.453310
Si Si2 0.818672 0.333306 0.132135
Si Si3 0.000000 0.166961 0.935023
Si Si4 0.570818 0.834795 0.761161
Si Si5 0.000000 0.166982 0.711500
Si Si6 0.426649 0.669435 0.945396
Si Si7 0.885629 0.672154 0.620700
Si Si8 0.295417 0.672693 0.254466
O O1 0.639902 0.500000 0.455887
O O2 0.681227 0.265558 0.540494
O O3 0.569439 0.273785 0.457824
O O4 0.676886 0.286110 0.355834
O O5 0.806444 0.500000 0.103374
O O6 0.886759 0.319936 0.172694
O O7 0.775319 0.307797 0.222861
O O8 0.000000 0.164319 0.822634
O O9 0.000000 0.000000 0.969970
O O10 0.500000 0.816122 0.735668
O O11 0.586183 0.720769 0.841136
O O12 0.578381 0.000000 0.798389
O O13 0.058183 0.251618 0.673692
O O14 0.000000 0.000000 0.677984
O O15 0.500000 0.694113 0.961359
O O16 0.414251 0.500000 0.959427
O O17 0.388984 0.766666 0.016708
O O18 0.890469 0.500000 0.622227
O O19 0.828000 0.731487 0.676296
O O20 0.309675 0.500000 0.243783
#
# Coordination Sequence:
#
# PCOD9374762 Si02
#       8
#     8   8   4   8   4   8   8   8
#     4  10  21  39  63  90 121 162 208 256 307 368
#     4  10  23  41  62  90 121 159 201 251 313 377
#     4   9  18  35  61  90 119 158 205 251 304 366
#     4   9  19  37  58  82 118 157 198 251 308 364
#     4  11  19  35  59  84 121 162 199 245 310 372
#     4  10  20  34  55  83 117 157 198 240 294 356
#     4  12  23  34  55  89 123 157 203 254 309 363
#     4  10  22  42  62  82 118 164 209 250 303 372
#
# _framework density 19.448651000000002
#
# number of rings (size 3 to 8) (size 9 to 14) (size 15 to 20)
#    0.000    1.857    2.143    1.929    1.000    3.429 
#    0.000    1.429    0.000    0.000    0.000    0.000 
#    0.000    0.000    0.000    0.000    0.000    0.000 
#
# Total GULP energy -156057.749367 kJ/mol
# GULP energy per Si atom -5573.491049 kJ/mol
# Density = 1.940439 g / cm^3
# Si number density = 19.448651 Si / 1000 Ang^3
#
#
#
# Elastic Constant Matrix: (Units=GPa)
#
#
# Indices 1 2 3 4 5 6 
#
# 1 49.7748 26.8853 40.1583 0.0000 0.0000 0.0000
# 2 26.8853 63.9367 30.3695 0.0000 0.0000 0.0000
# 3 40.1583 30.3695 64.6893 0.0000 0.0000 0.0000
# 4 0.0000 0.0000 0.0000 32.3971 0.0000 0.0000
# 5 0.0000 0.0000 0.0000 0.0000 -7.6687 0.0000
# 6 0.0000 0.0000 0.0000 0.0000 0.0000 65.3244
#
#
#
# Elastic Compliance Matrix: (Units=1/GPa)
#
#
# Indices 1 2 3 4 5 6 
#
# 1 0.042469 -0.006867 -0.023141 0.000000 0.000000 0.000000
# 2 -0.006867 0.021239 -0.005709 0.000000 0.000000 0.000000
# 3 -0.023141 -0.005709 0.032504 0.000000 0.000000 0.000000
# 4 0.000000 0.000000 0.000000 0.030867 0.000000 0.000000
# 5 0.000000 0.000000 0.000000 0.000000 -0.130401 0.000000
# 6 0.000000 0.000000 0.000000 0.000000 0.000000 0.015308
#
#
# Mechanical properties :
#
#
# Convention : Reuss Voigt Hill
#
# Bulk Modulus (GPa) = 40.35363 41.46969 40.91166
# Shear Modulus (GPa) = 54.53769 23.40975 38.97372
#
# Velocity S-wave (km/s) = 5.30120 3.47316 4.48138
# Velocity P-wave (km/s) = 7.63310 6.11986 6.91798
#
# Compressibility (1/GPa) = 0.02478092
#
# Stress axis : x y z
#
# Youngs Moduli (GPa) = 23.54634 47.08233 30.76539
#
# Poissons Ratio (x) = 0.32330 0.71194
# Poissons Ratio (y) = 0.16168 0.17562
# Poissons Ratio (z) = 0.54488 0.26877
#
# Static dielectric constant tensor:
#      x y z
#    x 2.904420 0.000000 0.000000 
#    y 0.000000 1.665000 0.000000 
#    z 0.000000 0.000000 1.670070 
# 
# From -- ./inp_files/19252.got.cif
#   From: 2010.05.17/outbox.cif.g08.bks.cpg/sg44_10_cif.got.tgz:19252.got - 2010.06.03 19:37:08.
