data_PCOD9374090
_publ_section_title
;
Structure prediction by ZEFSAII (Michael W. Deem and Ramdas Pophale) SiO2 
 PCOD9374090
Probable space group: I M M 2
;
_chemical_formula_sum "Si O2"
_cell_formula_units_Z 64
_cell_length_a 17.621949
_cell_length_b 8.955208
_cell_length_c 21.081635
_cell_angle_alpha 90.000000
_cell_angle_beta 90.000000
_cell_angle_gamma 90.000000
_cell_volume 3326.855266
_symmetry_space_group_name_H-M "I M M 2"
_symmetry_group_IT_number 44
_symmetry_cell_setting 'orthorhombic'
loop_
_space_group_symop_operation_xyz
x,y,z
-x,-y,z
-x,y,z
x,-y,z
1/2+x,1/2+y,1/2+z
1/2-x,1/2-y,1/2+z
1/2-x,1/2+y,1/2+z
1/2+x,1/2-y,1/2+z
loop_
_atom_site_type_symbol
_atom_site_label
_atom_site_fract_x
_atom_site_fract_y
_atom_site_fract_z
Si Si1 0.586043 0.676284 0.565390
Si Si2 0.626234 0.821565 0.434358
Si Si3 0.801234 0.319831 0.165369
Si Si4 0.414889 0.676103 0.045319
Si Si5 0.375927 0.673122 0.302699
Si Si6 0.134099 0.321999 0.671878
Si Si7 0.306289 0.322323 0.934200
Si Si8 0.190982 0.671573 0.305152
O O1 0.500000 0.694780 0.589392
O O2 0.603983 0.500000 0.564064
O O3 0.589756 0.742383 0.494624
O O4 0.645035 0.762844 0.609752
O O5 0.599727 0.755838 0.366934
O O6 0.716810 0.789563 0.440177
O O7 0.615154 0.000000 0.436060
O O8 0.792313 0.500000 0.163193
O O9 0.718991 0.243496 0.161714
O O10 0.833969 0.279086 0.235097
O O11 0.500000 0.685715 0.018835
O O12 0.399272 0.500000 0.058818
O O13 0.410126 0.765941 0.110380
O O14 0.354175 0.733178 0.994110
O O15 0.398887 0.500000 0.302920
O O16 0.397719 0.753387 0.237361
O O17 0.283303 0.677646 0.303133
O O18 0.136152 0.500000 0.676561
O O19 0.314279 0.500000 0.933681
O O20 0.333715 0.261812 0.866559
O O21 0.168970 0.500000 0.313799
#
# Coordination Sequence:
#
# PCOD9374090 Si02
#       8
#     8   8   8   8   8   8   8   8
#     4  11  24  39  54  77 110 146 184 226 273 324
#     4  10  19  33  56  83 109 139 178 223 270 322
#     4  10  20  36  58  82 108 141 182 223 268 324
#     4  10  21  37  54  74 106 147 186 222 264 317
#     4   9  17  32  54  80 110 139 173 220 270 320
#     4  11  21  34  56  84 111 139 177 225 275 326
#     4   9  18  32  53  80 106 135 174 218 262 313
#     4   8  16  30  51  79 106 133 168 214 264 313
#
# _framework density 19.237386000000001
#
# number of rings (size 3 to 8) (size 9 to 14) (size 15 to 20)
#    0.000    2.250    0.000    4.125    0.000    6.750 
#    0.000    1.250    0.000    6.000    0.000    0.000 
#    0.000    0.000    0.000    0.000    0.000    0.000 
#
# Total GULP energy -178641.768200 kJ/mol
# GULP energy per Si atom -5582.555256 kJ/mol
# Density = 1.919360 g / cm^3
# Si number density = 19.237386 Si / 1000 Ang^3
#
#
#
# Elastic Constant Matrix: (Units=GPa)
#
#
# Indices 1 2 3 4 5 6 
#
# 1 38.1758 29.9245 32.8540 0.0000 0.0000 0.0000
# 2 29.9245 72.1530 32.2650 0.0000 0.0000 0.0000
# 3 32.8540 32.2650 113.8476 0.0000 0.0000 0.0000
# 4 0.0000 0.0000 0.0000 40.1518 0.0000 0.0000
# 5 0.0000 0.0000 0.0000 0.0000 -18.9043 0.0000
# 6 0.0000 0.0000 0.0000 0.0000 0.0000 10.6109
#
#
#
# Elastic Compliance Matrix: (Units=1/GPa)
#
#
# Indices 1 2 3 4 5 6 
#
# 1 0.045556 -0.014904 -0.008923 0.000000 0.000000 0.000000
# 2 -0.014904 0.020747 -0.001579 0.000000 0.000000 0.000000
# 3 -0.008923 -0.001579 0.011806 0.000000 0.000000 0.000000
# 4 0.000000 0.000000 0.000000 0.024906 0.000000 0.000000
# 5 0.000000 0.000000 0.000000 0.000000 -0.052898 0.000000
# 6 0.000000 0.000000 0.000000 0.000000 0.000000 0.094243
#
#
# Mechanical properties :
#
#
# Convention : Reuss Voigt Hill
#
# Bulk Modulus (GPa) = 36.63259 46.02928 41.33093
# Shear Modulus (GPa) = 24.47760 14.98052 19.72906
#
# Velocity S-wave (km/s) = 3.57094 2.79358 3.20591
# Velocity P-wave (km/s) = 6.00715 5.86382 5.93592
#
# Compressibility (1/GPa) = 0.02729810
#
# Stress axis : x y z
#
# Youngs Moduli (GPa) = 21.95110 48.20085 84.70270
#
# Poissons Ratio (x) = 0.71837 0.75577
# Poissons Ratio (y) = 0.32715 0.13373
# Poissons Ratio (z) = 0.19586 0.07610
#
# Static dielectric constant tensor:
#      x y z
#    x 1.683550 0.000000 0.000000 
#    y 0.000000 1.642090 0.000000 
#    z 0.000000 0.000000 1.668600 
# 
# From -- ./inp_files/23254.got.cif
#   From: 2010.05.17/outbox.cif.g08.bks.cpg/sg44_12_cif.got.tgz:23254.got - 2010.06.03 19:37:08.
