data_PCOD9374781
_publ_section_title
;
Structure prediction by ZEFSAII (Michael W. Deem and Ramdas Pophale) SiO2 
 PCOD9374781
Probable space group: I M M 2
;
_chemical_formula_sum "Si O2"
_cell_formula_units_Z 64
_cell_length_a 9.045419
_cell_length_b 25.423080
_cell_length_c 13.735656
_cell_angle_alpha 90.000000
_cell_angle_beta 90.000000
_cell_angle_gamma 90.000000
_cell_volume 3158.684569
_symmetry_space_group_name_H-M "I M M 2"
_symmetry_group_IT_number 44
_symmetry_cell_setting 'orthorhombic'
loop_
_space_group_symop_operation_xyz
x,y,z
-x,-y,z
-x,y,z
x,-y,z
1/2+x,1/2+y,1/2+z
1/2-x,1/2-y,1/2+z
1/2-x,1/2+y,1/2+z
1/2+x,1/2-y,1/2+z
loop_
_atom_site_type_symbol
_atom_site_label
_atom_site_fract_x
_atom_site_fract_y
_atom_site_fract_z
Si Si1 0.163530 0.290463 0.041050
Si Si2 0.666942 0.937163 0.921845
Si Si3 0.321016 0.110146 0.311538
Si Si4 0.828261 0.936297 0.119374
Si Si5 0.166282 0.790762 0.721993
Si Si6 0.333468 0.082839 0.524780
Si Si7 0.328389 0.721764 0.857699
Si Si8 0.667548 0.417013 0.219117
O O1 0.212072 0.270716 0.145764
O O2 0.000000 0.271671 0.011306
O O3 0.155559 0.353936 0.039689
O O4 0.300501 0.278365 0.972325
O O5 0.500000 0.915390 0.922136
O O6 0.741109 0.929153 0.816537
O O7 0.657630 0.000000 0.934353
O O8 0.758832 0.917960 0.016029
O O9 0.500000 0.114576 0.311732
O O10 0.262281 0.083797 0.213026
O O11 0.280677 0.078657 0.412198
O O12 0.247109 0.167795 0.319997
O O13 0.000000 0.919998 0.126292
O O14 0.824452 0.000000 0.120402
O O15 0.230999 0.770373 0.821971
O O16 0.162470 0.853495 0.714850
O O17 0.000000 0.771042 0.705532
O O18 0.500000 0.061618 0.531471
O O19 0.237531 0.064092 0.616638
O O20 0.500000 0.724370 0.832968
O O21 0.500000 0.436362 0.229122
#
# Coordination Sequence:
#
# PCOD9374781 Si02
#       8
#     8   8   8   8   8   8   8   8
#     4   9  17  32  52  73 100 137 178 218 266 324
#     4  10  21  38  60  83 110 147 188 230 280 338
#     4  10  20  36  58  83 111 145 187 231 277 333
#     4  10  21  38  60  85 114 147 185 231 284 340
#     4  10  20  35  53  77 108 142 182 226 274 329
#     4   8  16  31  53  78 106 141 176 215 265 323
#     4  11  21  34  53  78 108 144 183 226 276 328
#     4  10  20  34  56  83 110 142 182 230 279 331
#
# _framework density 20.261597999999999
#
# number of rings (size 3 to 8) (size 9 to 14) (size 15 to 20)
#    0.000    2.250    0.000    4.125    0.000    6.500 
#    2.250    0.625    0.000    0.750    0.000    0.000 
#    0.000    0.000    0.000    0.000    0.000    0.000 
#
# Total GULP energy -178338.910412 kJ/mol
# GULP energy per Si atom -5573.090950 kJ/mol
# Density = 2.021548 g / cm^3
# Si number density = 20.261598 Si / 1000 Ang^3
#
#
#
# Elastic Constant Matrix: (Units=GPa)
#
#
# Indices 1 2 3 4 5 6 
#
# 1 140.6878 18.2722 64.4213 0.0000 0.0000 0.0000
# 2 18.2722 14.6829 -1.6926 0.0000 0.0000 0.0000
# 3 64.4213 -1.6926 115.3092 0.0001 0.0000 0.0000
# 4 0.0000 0.0000 0.0001 -4.0453 0.0000 0.0000
# 5 0.0000 0.0000 0.0000 0.0000 38.0670 0.0000
# 6 0.0000 0.0000 0.0000 0.0000 0.0000 16.4339
#
#
#
# Elastic Compliance Matrix: (Units=1/GPa)
#
#
# Indices 1 2 3 4 5 6 
#
# 1 0.012579 -0.016491 -0.007269 0.000000 0.000000 0.000000
# 2 -0.016491 0.089844 0.010532 0.000000 0.000000 0.000000
# 3 -0.007269 0.010532 0.012888 0.000000 0.000000 0.000000
# 4 0.000000 0.000000 0.000000 -0.247202 0.000000 0.000000
# 5 0.000000 0.000000 0.000000 0.000000 0.026269 0.000000
# 6 0.000000 0.000000 0.000000 0.000000 0.000000 0.060850
#
#
# Mechanical properties :
#
#
# Convention : Reuss Voigt Hill
#
# Bulk Modulus (GPa) = 11.25453 48.07576 29.66514
# Shear Modulus (GPa) = 442.35899 22.73640 232.54769
#
# Velocity S-wave (km/s) = 14.79182 3.35347 10.72482
# Velocity P-wave (km/s) = 17.24230 6.22683 12.96284
#
# Compressibility (1/GPa) = 0.08885314
#
# Stress axis : x y z
#
# Youngs Moduli (GPa) = 79.50054 11.13045 77.58988
#
# Poissons Ratio (x) = 0.18356 0.56404
# Poissons Ratio (y) = 1.31108 -0.81720
# Poissons Ratio (z) = 0.57793 -0.11723
#
# Static dielectric constant tensor:
#      x y z
#    x 1.698060 0.000000 0.000000 
#    y 0.000000 1.737790 0.000000 
#    z 0.000000 0.000000 1.705590 
# 
# From -- ./inp_files/11419.got.cif
#   From: 2010.05.17/outbox.cif.g08.bks.cpg/sg44_6_cif.got.tgz:11419.got - 2010.06.03 19:37:08.
