data_PCOD9374513
_publ_section_title
;
Structure prediction by ZEFSAII (Michael W. Deem and Ramdas Pophale) SiO2 
 PCOD9374513
Probable space group: I M M 2
;
_chemical_formula_sum "Si O2"
_cell_formula_units_Z 48
_cell_length_a 30.966215
_cell_length_b 7.743902
_cell_length_c 10.386861
_cell_angle_alpha 90.000000
_cell_angle_beta 90.000000
_cell_angle_gamma 90.000000
_cell_volume 2490.762353
_symmetry_space_group_name_H-M "I M M 2"
_symmetry_group_IT_number 44
_symmetry_cell_setting 'orthorhombic'
loop_
_space_group_symop_operation_xyz
x,y,z
-x,-y,z
-x,y,z
x,-y,z
1/2+x,1/2+y,1/2+z
1/2-x,1/2-y,1/2+z
1/2-x,1/2+y,1/2+z
1/2+x,1/2-y,1/2+z
loop_
_atom_site_type_symbol
_atom_site_label
_atom_site_fract_x
_atom_site_fract_y
_atom_site_fract_z
Si Si1 0.548967 0.208290 0.080690
Si Si2 0.283083 0.209096 0.595720
Si Si3 0.619225 0.203362 0.576410
Si Si4 0.714513 0.706665 0.888034
Si Si5 0.950682 0.711328 0.873773
Si Si6 0.117556 0.795860 0.363629
O O1 0.500000 0.266935 0.051448
O O2 0.559599 0.263607 0.226852
O O3 0.548471 0.000000 0.081213
O O4 0.583180 0.264060 0.974850
O O5 0.331873 0.274197 0.568750
O O6 0.271514 0.256800 0.741832
O O7 0.248288 0.273899 0.492834
O O8 0.284358 0.000000 0.589462
O O9 0.584369 0.274881 0.476278
O O10 0.604829 0.221590 0.724618
O O11 0.622567 0.000000 0.547816
O O12 0.712972 0.500000 0.905354
O O13 0.665305 0.773221 0.900107
O O14 0.950739 0.500000 0.876233
O O15 0.000000 0.764597 0.902928
O O16 0.121772 0.000000 0.344110
#
# Coordination Sequence:
#
# PCOD9374513 Si02
#       6
#     8   8   8   8   8   8
#     4   9  18  33  52  73  96 123 159 201 240 281
#     4   9  18  32  49  70  95 124 161 200 237 284
#     4   9  17  31  51  72  94 123 160 200 240 284
#     4   9  19  34  49  69  98 128 159 199 244 286
#     4   8  15  29  49  72  95 118 150 196 243 281
#     4  10  20  33  48  69 100 132 159 192 238 291
#
# _framework density 19.271208000000001
#
# number of rings (size 3 to 8) (size 9 to 14) (size 15 to 20)
#    0.000    3.000    0.000    1.500    0.000    3.667 
#    0.000    4.167    0.000    1.000    0.000    0.000 
#    0.000    0.000    0.000    0.000    0.000    0.000 
#
# Total GULP energy -133811.304106 kJ/mol
# GULP energy per Si atom -5575.471004 kJ/mol
# Density = 1.922735 g / cm^3
# Si number density = 19.271208 Si / 1000 Ang^3
#
#
#
# Elastic Constant Matrix: (Units=GPa)
#
#
# Indices 1 2 3 4 5 6 
#
# 1 121.8135 -3.8043 120.3520 0.0000 0.0000 0.0000
# 2 -3.8043 22.0176 -12.7728 0.0000 0.0000 0.0000
# 3 120.3520 -12.7728 146.5315 0.0000 0.0000 0.0000
# 4 0.0000 0.0000 0.0000 10.6550 0.0000 0.0000
# 5 0.0000 0.0000 0.0000 0.0000 44.1560 0.0000
# 6 0.0000 0.0000 0.0000 0.0000 0.0000 4.7433
#
#
#
# Elastic Compliance Matrix: (Units=1/GPa)
#
#
# Indices 1 2 3 4 5 6 
#
# 1 0.048019 -0.015360 -0.040779 0.000000 0.000000 0.000000
# 2 -0.015360 0.052750 0.017214 0.000000 0.000000 0.000000
# 3 -0.040779 0.017214 0.041818 0.000000 0.000000 0.000000
# 4 0.000000 0.000000 0.000000 0.093852 0.000000 0.000000
# 5 0.000000 0.000000 0.000000 0.000000 0.022647 0.000000
# 6 0.000000 0.000000 0.000000 0.000000 0.000000 0.210823
#
#
# Mechanical properties :
#
#
# Convention : Reuss Voigt Hill
#
# Bulk Modulus (GPa) = 15.44696 55.32359 35.38527
# Shear Modulus (GPa) = 8.78212 24.35006 16.56609
#
# Velocity S-wave (km/s) = 2.13706 3.55850 2.93512
# Velocity P-wave (km/s) = 3.75797 6.75678 5.46701
#
# Compressibility (1/GPa) = 0.06473768
#
# Stress axis : x y z
#
# Youngs Moduli (GPa) = 20.82494 18.95729 23.91296
#
# Poissons Ratio (x) = 0.29118 0.97515
# Poissons Ratio (y) = 0.31986 -0.41163
# Poissons Ratio (z) = 0.84922 -0.32632
#
# Static dielectric constant tensor:
#      x y z
#    x 1.682840 0.000000 0.000000 
#    y 0.000000 1.707910 0.000000 
#    z 0.000000 0.000000 1.635570 
# 
# From -- ./inp_files/4926.got.cif
#   From: 2010.05.17/outbox.cif.g08.bks.cpg/sg44_3_cif.got.tgz:4926.got - 2010.06.03 19:37:08.
