data_PCOD9374602
_publ_section_title
;
Structure prediction by ZEFSAII (Michael W. Deem and Ramdas Pophale) SiO2 
 PCOD9374602
Probable space group: I M M 2
;
_chemical_formula_sum "Si O2"
_cell_formula_units_Z 48
_cell_length_a 9.460109
_cell_length_b 7.805545
_cell_length_c 31.612956
_cell_angle_alpha 90.000000
_cell_angle_beta 90.000000
_cell_angle_gamma 90.000000
_cell_volume 2334.341974
_symmetry_space_group_name_H-M "I M M 2"
_symmetry_group_IT_number 44
_symmetry_cell_setting 'orthorhombic'
loop_
_space_group_symop_operation_xyz
x,y,z
-x,-y,z
-x,y,z
x,-y,z
1/2+x,1/2+y,1/2+z
1/2-x,1/2-y,1/2+z
1/2-x,1/2+y,1/2+z
1/2+x,1/2-y,1/2+z
loop_
_atom_site_type_symbol
_atom_site_label
_atom_site_fract_x
_atom_site_fract_y
_atom_site_fract_z
Si Si1 0.662590 0.709060 0.689530
Si Si2 0.339194 0.793718 0.852489
Si Si3 0.659761 0.297368 0.012792
Si Si4 0.840458 0.796244 0.931854
Si Si5 0.160651 0.293124 0.769668
Si Si6 0.337990 0.707002 0.594001
O O1 0.500000 0.759685 0.698085
O O2 0.664892 0.500000 0.689609
O O3 0.765869 0.768778 0.726431
O O4 0.699341 0.763228 0.641728
O O5 0.500000 0.728123 0.851498
O O6 0.252051 0.726715 0.892908
O O7 0.255562 0.753564 0.809758
O O8 0.346852 0.000000 0.856178
O O9 0.500000 0.226708 0.010801
O O10 0.652158 0.500000 0.006400
O O11 0.731569 0.264753 0.057985
O O12 0.758811 0.227529 0.975712
O O13 0.000000 0.725689 0.933174
O O14 0.852199 0.000000 0.925019
O O15 0.155989 0.500000 0.767512
O O16 0.000000 0.230331 0.774262
O O17 0.500000 0.762745 0.585121
O O18 0.338730 0.500000 0.593904
#
# Coordination Sequence:
#
# PCOD9374602 Si02
#       6
#     8   8   8   8   8   8
#     4   8  15  30  52  77 105 137 175 219 262 306
#     4  10  21  37  57  80 106 138 176 216 260 311
#     4  11  24  38  52  76 110 143 175 213 259 311
#     4  10  21  38  60  82 103 132 173 218 263 313
#     4  10  20  33  52  80 111 142 177 216 260 310
#     4   9  18  34  57  82 105 134 176 221 264 312
#
# _framework density 20.562539999999998
#
# number of rings (size 3 to 8) (size 9 to 14) (size 15 to 20)
#    0.000    2.333    0.000    3.500    0.000    8.000 
#    0.000    2.500    0.000    1.000    0.000    0.000 
#    0.000    0.000    0.000    0.000    0.000    0.000 
#
# Total GULP energy -134038.364545 kJ/mol
# GULP energy per Si atom -5584.931856 kJ/mol
# Density = 2.051574 g / cm^3
# Si number density = 20.562540 Si / 1000 Ang^3
#
#
#
# Elastic Constant Matrix: (Units=GPa)
#
#
# Indices 1 2 3 4 5 6 
#
# 1 210.6550 7.7965 127.6598 0.0000 0.0000 0.0000
# 2 7.7965 24.3540 -3.5147 0.0000 0.0000 0.0000
# 3 127.6598 -3.5147 161.0150 0.0000 0.0000 0.0000
# 4 0.0000 0.0000 0.0000 24.1342 0.0000 0.0000
# 5 0.0000 0.0000 0.0000 0.0000 43.1575 0.0000
# 6 0.0000 0.0000 0.0000 0.0000 0.0000 14.1166
#
#
#
# Elastic Compliance Matrix: (Units=1/GPa)
#
#
# Indices 1 2 3 4 5 6 
#
# 1 0.009540 -0.004159 -0.007654 0.000000 0.000000 0.000000
# 2 -0.004159 0.043004 0.004236 0.000000 0.000000 0.000000
# 3 -0.007654 0.004236 0.012372 0.000000 0.000000 0.000000
# 4 0.000000 0.000000 0.000000 0.041435 0.000000 0.000000
# 5 0.000000 0.000000 0.000000 0.000000 0.023171 0.000000
# 6 0.000000 0.000000 0.000000 0.000000 0.000000 0.070839
#
#
# Mechanical properties :
#
#
# Convention : Reuss Voigt Hill
#
# Bulk Modulus (GPa) = 20.09612 73.32302 46.70957
# Shear Modulus (GPa) = 21.54246 33.88716 27.71481
#
# Velocity S-wave (km/s) = 3.24026 4.06397 3.67526
# Velocity P-wave (km/s) = 4.87785 7.59981 6.38555
#
# Compressibility (1/GPa) = 0.04976084
#
# Stress axis : x y z
#
# Youngs Moduli (GPa) = 104.82723 23.25391 80.83038
#
# Poissons Ratio (x) = 0.09670 0.61869
# Poissons Ratio (y) = 0.43592 -0.34238
# Poissons Ratio (z) = 0.80236 -0.09850
#
# Static dielectric constant tensor:
#      x y z
#    x 1.726800 0.000000 0.000000 
#    y 0.000000 1.771190 0.000000 
#    z 0.000000 0.000000 1.693410 
# 
# From -- ./inp_files/26857.got.cif
#   From: 2010.05.17/outbox.cif.g08.bks.cpg/sg44_14_cif.got.tgz:26857.got - 2010.06.03 19:37:08.
