data_PCOD9374712
_publ_section_title
;
Structure prediction by ZEFSAII (Michael W. Deem and Ramdas Pophale) SiO2 
 PCOD9374712
Probable space group: I M M 2
;
_chemical_formula_sum "Si O2"
_cell_formula_units_Z 48
_cell_length_a 9.681096
_cell_length_b 8.662765
_cell_length_c 32.138968
_cell_angle_alpha 90.000000
_cell_angle_beta 90.000000
_cell_angle_gamma 90.000000
_cell_volume 2695.336466
_symmetry_space_group_name_H-M "I M M 2"
_symmetry_group_IT_number 44
_symmetry_cell_setting 'orthorhombic'
loop_
_space_group_symop_operation_xyz
x,y,z
-x,-y,z
-x,y,z
x,-y,z
1/2+x,1/2+y,1/2+z
1/2-x,1/2-y,1/2+z
1/2-x,1/2+y,1/2+z
1/2+x,1/2-y,1/2+z
loop_
_atom_site_type_symbol
_atom_site_label
_atom_site_fract_x
_atom_site_fract_y
_atom_site_fract_z
Si Si1 0.659550 0.811165 0.293540
Si Si2 0.839423 0.816414 0.614630
Si Si3 0.659097 0.684677 0.539993
Si Si4 0.832226 0.678200 0.702431
Si Si5 0.159009 0.188055 0.371003
Si Si6 0.338508 0.313613 0.964849
O O1 0.500000 0.764233 0.298073
O O2 0.713653 0.763278 0.247866
O O3 0.747155 0.758278 0.332985
O O4 0.661382 0.000000 0.292754
O O5 0.741854 0.741495 0.580399
O O6 0.794798 0.771938 0.661396
O O7 0.000000 0.764884 0.609293
O O8 0.836887 0.000000 0.609631
O O9 0.500000 0.738986 0.540382
O O10 0.659073 0.500000 0.539593
O O11 0.740174 0.744701 0.499606
O O12 0.788508 0.500000 0.697178
O O13 0.000000 0.678474 0.704762
O O14 0.200647 0.234579 0.417760
O O15 0.000000 0.233700 0.364754
O O16 0.162617 0.000000 0.370762
O O17 0.500000 0.271503 0.971703
O O18 0.331639 0.500000 0.966918
#
# Coordination Sequence:
#
# PCOD9374712 Si02
#       6
#     8   8   8   8   8   8
#     4   8  13  22  39  64  92 124 163 200 233 274
#     4  10  20  34  54  77  98 125 164 204 242 290
#     4  11  24  38  51  71  99 128 160 200 247 298
#     4   8  14  26  45  69  97 128 162 200 238 277
#     4   8  14  25  42  67  98 126 154 194 239 279
#     4   9  18  33  53  76 100 128 165 204 241 287
#
# _framework density 17.808537000000001
#
# number of rings (size 3 to 8) (size 9 to 14) (size 15 to 20)
#    0.000    3.000    0.000    3.500    0.000    5.333 
#    0.000    2.500    0.000    4.000    0.000    2.333 
#    0.000    0.000    0.000    0.000    0.000    0.000 
#
# Total GULP energy -133733.124451 kJ/mol
# GULP energy per Si atom -5572.213519 kJ/mol
# Density = 1.776800 g / cm^3
# Si number density = 17.808537 Si / 1000 Ang^3
#
#
#
# Elastic Constant Matrix: (Units=GPa)
#
#
# Indices 1 2 3 4 5 6 
#
# 1 88.1444 24.8824 101.6423 0.0000 0.0000 0.0000
# 2 24.8824 16.7294 30.3952 0.0000 0.0000 0.0000
# 3 101.6423 30.3952 195.3411 0.0000 0.0000 0.0000
# 4 0.0000 0.0000 0.0000 23.1169 0.0000 0.0000
# 5 0.0000 0.0000 0.0000 0.0000 30.5789 0.0000
# 6 0.0000 0.0000 0.0000 0.0000 0.0000 15.8408
#
#
#
# Elastic Compliance Matrix: (Units=1/GPa)
#
#
# Indices 1 2 3 4 5 6 
#
# 1 0.035204 -0.026599 -0.014179 0.000000 0.000000 0.000000
# 2 -0.026599 0.103432 -0.002254 0.000000 0.000000 0.000000
# 3 -0.014179 -0.002254 0.012848 0.000000 0.000000 0.000000
# 4 0.000000 0.000000 0.000000 0.043258 0.000000 0.000000
# 5 0.000000 0.000000 0.000000 0.000000 0.032702 0.000000
# 6 0.000000 0.000000 0.000000 0.000000 0.000000 0.063128
#
#
# Mechanical properties :
#
#
# Convention : Reuss Voigt Hill
#
# Bulk Modulus (GPa) = 15.28582 68.22830 41.75706
# Shear Modulus (GPa) = 12.54888 23.46034 18.00461
#
# Velocity S-wave (km/s) = 2.65741 3.63349 3.18309
# Velocity P-wave (km/s) = 4.24474 7.48320 6.08343
#
# Compressibility (1/GPa) = 0.06542013
#
# Stress axis : x y z
#
# Youngs Moduli (GPa) = 28.40604 9.66819 77.83536
#
# Poissons Ratio (x) = 0.25716 1.10361
# Poissons Ratio (y) = 0.75557 0.17542
# Poissons Ratio (z) = 0.40276 0.02179
#
# Static dielectric constant tensor:
#      x y z
#    x 1.596040 0.000000 0.000000 
#    y 0.000000 1.612760 0.000000 
#    z 0.000000 0.000000 1.618900 
# 
# From -- ./inp_files/26868.got.cif
#   From: 2010.05.17/outbox.cif.g08.bks.cpg/sg44_14_cif.got.tgz:26868.got - 2010.06.03 19:37:08.
