data_PCOD9374584
_publ_section_title
;
Structure prediction by ZEFSAII (Michael W. Deem and Ramdas Pophale) SiO2 
 PCOD9374584
Probable space group: I M M 2
;
_chemical_formula_sum "Si O2"
_cell_formula_units_Z 64
_cell_length_a 8.911053
_cell_length_b 16.699023
_cell_length_c 23.084185
_cell_angle_alpha 90.000000
_cell_angle_beta 90.000000
_cell_angle_gamma 90.000000
_cell_volume 3435.062440
_symmetry_space_group_name_H-M "I M M 2"
_symmetry_group_IT_number 44
_symmetry_cell_setting 'orthorhombic'
loop_
_space_group_symop_operation_xyz
x,y,z
-x,-y,z
-x,y,z
x,-y,z
1/2+x,1/2+y,1/2+z
1/2-x,1/2-y,1/2+z
1/2-x,1/2+y,1/2+z
1/2+x,1/2-y,1/2+z
loop_
_atom_site_type_symbol
_atom_site_label
_atom_site_fract_x
_atom_site_fract_y
_atom_site_fract_z
Si Si1 0.820317 0.750047 0.650750
Si Si2 0.322286 0.088363 0.608245
Si Si3 0.172889 0.883447 0.487282
Si Si4 0.830369 0.699919 0.523849
Si Si5 0.178777 0.086270 0.936327
Si Si6 0.181788 0.907853 0.802359
Si Si7 0.682452 0.590319 0.854259
Si Si8 0.680254 0.263309 0.769435
O O1 0.767879 0.841623 0.639974
O O2 0.781932 0.706289 0.590444
O O3 0.737357 0.713248 0.705647
O O4 0.000000 0.748619 0.658069
O O5 0.500000 0.104152 0.612289
O O6 0.272553 0.087124 0.540808
O O7 0.291024 0.000000 0.632599
O O8 0.167450 0.788755 0.497656
O O9 0.226100 0.901276 0.422143
O O10 0.000000 0.911970 0.493247
O O11 0.728211 0.650052 0.482107
O O12 0.000000 0.668285 0.522496
O O13 0.226319 0.098605 0.870163
O O14 0.000000 0.084374 0.933941
O O15 0.236826 0.000000 0.955426
O O16 0.253184 0.826739 0.776935
O O17 0.000000 0.902910 0.796740
O O18 0.223124 0.000000 0.783785
O O19 0.500000 0.591972 0.853562
O O20 0.727907 0.500000 0.834489
O O21 0.729637 0.667733 0.815816
O O22 0.500000 0.258438 0.771919
#
# Coordination Sequence:
#
# PCOD9374584 Si02
#       8
#     8   8   8   8   8   8   8   8
#     4  10  22  39  55  71  97 136 179 216 256 314
#     4  10  20  33  51  79 111 136 164 208 257 305
#     4   9  17  31  53  79 107 139 172 205 249 312
#     4   9  18  32  51  76 102 130 168 214 263 311
#     4   9  18  32  51  77 106 135 169 208 254 312
#     4   9  19  36  56  79 110 146 178 209 256 322
#     4   9  18  33  54  80 109 142 179 217 261 316
#     4  11  22  36  56  80 106 138 180 229 270 304
#
# _framework density 18.631395000000001
#
# number of rings (size 3 to 8) (size 9 to 14) (size 15 to 20)
#    0.000    2.500    0.000    3.750    0.000    6.500 
#    0.000    3.125    0.000    5.250    0.000    0.000 
#    0.000    0.000    0.000    0.000    0.000    0.000 
#
# Total GULP energy -178279.909363 kJ/mol
# GULP energy per Si atom -5571.247168 kJ/mol
# Density = 1.858899 g / cm^3
# Si number density = 18.631395 Si / 1000 Ang^3
#
#
#
# Elastic Constant Matrix: (Units=GPa)
#
#
# Indices 1 2 3 4 5 6 
#
# 1 17.8658 14.3470 14.9386 0.0000 0.0000 0.0000
# 2 14.3470 68.4954 43.2953 0.0000 0.0000 0.0000
# 3 14.9386 43.2953 84.1777 0.0000 0.0000 0.0000
# 4 0.0000 0.0000 0.0000 0.7079 0.0000 0.0000
# 5 0.0000 0.0000 0.0000 0.0000 28.4392 0.0000
# 6 0.0000 0.0000 0.0000 0.0000 0.0000 22.4794
#
#
#
# Elastic Compliance Matrix: (Units=1/GPa)
#
#
# Indices 1 2 3 4 5 6 
#
# 1 0.070155 -0.010113 -0.007249 0.000000 0.000000 0.000000
# 2 -0.010113 0.023090 -0.010081 0.000000 0.000000 0.000000
# 3 -0.007249 -0.010081 0.018351 0.000000 0.000000 0.000000
# 4 0.000000 0.000000 0.000000 1.412672 0.000000 0.000000
# 5 0.000000 0.000000 0.000000 0.000000 0.035163 0.000000
# 6 0.000000 0.000000 0.000000 0.000000 0.000000 0.044485
#
#
# Mechanical properties :
#
#
# Convention : Reuss Voigt Hill
#
# Bulk Modulus (GPa) = 17.63338 35.07787 26.35562
# Shear Modulus (GPa) = 2.98026 16.85583 9.91805
#
# Velocity S-wave (km/s) = 1.26612 3.01109 2.30973
# Velocity P-wave (km/s) = 3.40915 5.56390 4.61407
#
# Compressibility (1/GPa) = 0.05671062
#
# Stress axis : x y z
#
# Youngs Moduli (GPa) = 14.25413 43.30877 54.49250
#
# Poissons Ratio (x) = 0.43797 0.39500
# Poissons Ratio (y) = 0.14415 0.54935
# Poissons Ratio (z) = 0.10332 0.43661
#
# Static dielectric constant tensor:
#      x y z
#    x 1.633890 0.000000 0.000000 
#    y 0.000000 1.707510 0.000000 
#    z 0.000000 0.000000 1.654830 
# 
# From -- ./inp_files/23323.got.cif
#   From: 2010.05.17/outbox.cif.g08.bks.cpg/sg44_12_cif.got.tgz:23323.got - 2010.06.03 19:37:08.
