data_PCOD9374351
_publ_section_title
;
Structure prediction by ZEFSAII (Michael W. Deem and Ramdas Pophale) SiO2 
 PCOD9374351
Probable space group: I M M 2
;
_chemical_formula_sum "Si O2"
_cell_formula_units_Z 48
_cell_length_a 8.988922
_cell_length_b 14.737647
_cell_length_c 20.779297
_cell_angle_alpha 90.000000
_cell_angle_beta 90.000000
_cell_angle_gamma 90.000000
_cell_volume 2752.748993
_symmetry_space_group_name_H-M "I M M 2"
_symmetry_group_IT_number 44
_symmetry_cell_setting 'orthorhombic'
loop_
_space_group_symop_operation_xyz
x,y,z
-x,-y,z
-x,y,z
x,-y,z
1/2+x,1/2+y,1/2+z
1/2-x,1/2-y,1/2+z
1/2-x,1/2+y,1/2+z
1/2+x,1/2-y,1/2+z
loop_
_atom_site_type_symbol
_atom_site_label
_atom_site_fract_x
_atom_site_fract_y
_atom_site_fract_z
Si Si1 0.822283 0.315111 0.269780
Si Si2 0.178296 0.807456 0.905216
Si Si3 0.177854 0.000000 0.719608
Si Si4 0.322698 0.000000 0.110567
Si Si5 0.178620 0.687354 0.028779
Si Si6 0.321716 0.500000 0.469427
Si Si7 0.177130 0.000000 0.566993
Si Si8 0.678537 0.314347 0.650376
O O1 0.762394 0.287373 0.339447
O O2 0.746656 0.410062 0.250580
O O3 0.786097 0.241286 0.214883
O O4 0.000000 0.326463 0.270630
O O5 0.000000 0.803546 0.894885
O O6 0.213556 0.909242 0.929765
O O7 0.216493 0.738868 0.962871
O O8 0.212033 0.000000 0.643394
O O9 0.000000 0.000000 0.728350
O O10 0.260391 0.090274 0.144291
O O11 0.500000 0.000000 0.110109
O O12 0.260568 0.000000 0.037539
O O13 0.255143 0.590669 0.036666
O O14 0.219144 0.751800 0.089022
O O15 0.000000 0.675708 0.030920
O O16 0.500000 0.500000 0.482086
O O17 0.000000 0.000000 0.560082
O O18 0.500000 0.329104 0.647637
#
# Coordination Sequence:
#
# PCOD9374351 Si02
#       8
#     8   8   4   4   8   4   4   8
#     4  11  23  38  60  88 118 154 194 242 290 341
#     4  10  21  37  60  87 118 157 192 234 290 349
#     4  11  22  36  57  87 124 158 187 233 294 350
#     4  12  24  35  58  93 120 146 190 249 292 330
#     4  10  20  38  63  85 112 155 200 236 280 350
#     4  10  19  37  60  84 118 158 193 226 285 356
#     4  11  23  36  57  90 122 150 188 248 297 328
#     4  10  21  40  62  83 114 155 196 235 286 350
#
# _framework density 17.437114999999999
#
# number of rings (size 3 to 8) (size 9 to 14) (size 15 to 20)
#    0.000    1.500    3.333    2.250    0.000    4.667 
#    0.000    0.833    0.000    0.000    0.000    0.000 
#    0.000    0.000    0.000    0.000    0.000    0.000 
#
# Total GULP energy -134128.676346 kJ/mol
# GULP energy per Si atom -5588.694848 kJ/mol
# Density = 1.739743 g / cm^3
# Si number density = 17.437115 Si / 1000 Ang^3
#
#
#
# Elastic Constant Matrix: (Units=GPa)
#
#
# Indices 1 2 3 4 5 6 
#
# 1 45.8119 59.1482 66.9039 0.0000 0.0000 0.0000
# 2 59.1482 150.2918 87.9698 0.0000 0.0000 0.0000
# 3 66.9039 87.9698 163.0213 0.0000 0.0000 0.0000
# 4 0.0000 0.0000 0.0000 16.1946 0.0000 0.0000
# 5 0.0000 0.0000 0.0000 0.0000 32.3999 0.0000
# 6 0.0000 0.0000 0.0000 0.0000 0.0000 10.2278
#
#
#
# Elastic Compliance Matrix: (Units=1/GPa)
#
#
# Indices 1 2 3 4 5 6 
#
# 1 0.075819 -0.016993 -0.021946 0.000000 0.000000 0.000000
# 2 -0.016993 0.013534 -0.000329 0.000000 0.000000 0.000000
# 3 -0.021946 -0.000329 0.015319 0.000000 0.000000 0.000000
# 4 0.000000 0.000000 0.000000 0.061749 0.000000 0.000000
# 5 0.000000 0.000000 0.000000 0.000000 0.030864 0.000000
# 6 0.000000 0.000000 0.000000 0.000000 0.000000 0.097773
#
#
# Mechanical properties :
#
#
# Convention : Reuss Voigt Hill
#
# Bulk Modulus (GPa) = 38.26409 87.46319 62.86364
# Shear Modulus (GPa) = 13.07854 21.43801 17.25827
#
# Velocity S-wave (km/s) = 2.74166 3.51015 3.14943
# Velocity P-wave (km/s) = 5.65809 8.16678 7.02532
#
# Compressibility (1/GPa) = 0.02613417
#
# Stress axis : x y z
#
# Youngs Moduli (GPa) = 13.18939 73.88633 65.28045
#
# Poissons Ratio (x) = 1.25557 1.43264
# Poissons Ratio (y) = 0.22413 0.02150
# Poissons Ratio (z) = 0.28945 0.02434
#
# Static dielectric constant tensor:
#      x y z
#    x 1.579170 0.000000 0.000000 
#    y 0.000000 1.561310 0.000000 
#    z 0.000000 0.000000 1.578820 
# 
# From -- ./inp_files/20361.got.cif
#   From: 2010.05.17/outbox.cif.g08.bks.cpg/sg44_11_cif.got.tgz:20361.got - 2010.06.03 19:37:08.
