data_PCOD9374889
_publ_section_title
;
Structure prediction by ZEFSAII (Michael W. Deem and Ramdas Pophale) SiO2 
 PCOD9374889
Probable space group: I M M 2
;
_chemical_formula_sum "Si O2"
_cell_formula_units_Z 48
_cell_length_a 23.963757
_cell_length_b 7.907728
_cell_length_c 11.950901
_cell_angle_alpha 90.000000
_cell_angle_beta 90.000000
_cell_angle_gamma 90.000000
_cell_volume 2264.682261
_symmetry_space_group_name_H-M "I M M 2"
_symmetry_group_IT_number 44
_symmetry_cell_setting 'orthorhombic'
loop_
_space_group_symop_operation_xyz
x,y,z
-x,-y,z
-x,y,z
x,-y,z
1/2+x,1/2+y,1/2+z
1/2-x,1/2-y,1/2+z
1/2-x,1/2+y,1/2+z
1/2+x,1/2-y,1/2+z
loop_
_atom_site_type_symbol
_atom_site_label
_atom_site_fract_x
_atom_site_fract_y
_atom_site_fract_z
Si Si1 0.352583 0.703654 0.787370
Si Si2 0.230479 0.292981 0.736362
Si Si3 0.643748 0.190881 0.410435
Si Si4 0.355020 0.797933 0.045187
Si Si5 0.563966 0.697065 0.222263
Si Si6 0.063122 0.798674 0.108278
O O1 0.353342 0.500000 0.778687
O O2 0.294310 0.762492 0.732950
O O3 0.406550 0.768331 0.720199
O O4 0.349969 0.748638 0.917129
O O5 0.229074 0.500000 0.739884
O O6 0.199103 0.233974 0.850732
O O7 0.195415 0.240359 0.627122
O O8 0.601138 0.194576 0.305929
O O9 0.608422 0.272320 0.509878
O O10 0.656709 0.000000 0.445078
O O11 0.410358 0.720067 0.100036
O O12 0.357960 0.000000 0.053319
O O13 0.500000 0.746440 0.227481
O O14 0.568865 0.500000 0.256022
O O15 0.000000 0.731457 0.087089
O O16 0.057223 0.000000 0.119435
#
# Coordination Sequence:
#
# PCOD9374889 Si02
#       6
#     8   8   8   8   8   8
#     4  10  21  38  58  78 110 154 193 235 283 338
#     4   8  18  36  56  80 111 144 183 232 289 345
#     4  10  20  35  57  85 116 146 184 239 292 337
#     4  10  21  37  56  83 115 143 183 236 288 341
#     4  10  20  35  57  83 111 147 190 230 275 336
#     4  10  22  38  56  81 114 154 198 236 278 342
#
# _framework density 21.195027
#
# number of rings (size 3 to 8) (size 9 to 14) (size 15 to 20)
#    0.000    2.333    0.000    3.000    2.333    5.000 
#    0.000    5.833    0.000    0.000    0.000    0.000 
#    0.000    0.000    0.000    0.000    0.000    0.000 
#
# Total GULP energy -133889.971030 kJ/mol
# GULP energy per Si atom -5578.748793 kJ/mol
# Density = 2.114679 g / cm^3
# Si number density = 21.195027 Si / 1000 Ang^3
#
#
#
# Elastic Constant Matrix: (Units=GPa)
#
#
# Indices 1 2 3 4 5 6 
#
# 1 67.1853 12.3467 18.3886 0.0000 0.0000 0.0000
# 2 12.3467 23.5717 -3.0082 0.0000 0.0000 0.0000
# 3 18.3886 -3.0082 95.1226 0.0000 0.0000 0.0000
# 4 0.0000 0.0000 0.0000 -132.5003 0.0000 0.0000
# 5 0.0000 0.0000 0.0000 0.0000 15.1411 0.0000
# 6 0.0000 0.0000 0.0000 0.0000 0.0000 4.5876
#
#
#
# Elastic Compliance Matrix: (Units=1/GPa)
#
#
# Indices 1 2 3 4 5 6 
#
# 1 0.017696 -0.009745 -0.003729 0.000000 0.000000 0.000000
# 2 -0.009745 0.047962 0.003401 0.000000 0.000000 0.000000
# 3 -0.003729 0.003401 0.011341 0.000000 0.000000 0.000000
# 4 0.000000 0.000000 0.000000 -0.007547 0.000000 0.000000
# 5 0.000000 0.000000 0.000000 0.000000 0.066046 0.000000
# 6 0.000000 0.000000 0.000000 0.000000 0.000000 0.217980
#
#
# Mechanical properties :
#
#
# Convention : Reuss Voigt Hill
#
# Bulk Modulus (GPa) = 17.58941 26.81485 22.20213
# Shear Modulus (GPa) = 12.73645 -12.01082 0.36281
#
# Velocity S-wave (km/s) = 2.45402 -2.38309 0.41419
# Velocity P-wave (km/s) = 4.04308 2.25982 3.27515
#
# Compressibility (1/GPa) = 0.05685238
#
# Stress axis : x y z
#
# Youngs Moduli (GPa) = 56.51115 20.84990 88.17438
#
# Poissons Ratio (x) = 0.20318 0.32880
# Poissons Ratio (y) = 0.55069 -0.29984
# Poissons Ratio (z) = 0.21073 -0.07090
#
# Static dielectric constant tensor:
#      x y z
#    x 1.793150 0.000000 0.000000 
#    y 0.000000 1.947220 0.000000 
#    z 0.000000 0.000000 1.762680 
# 
# From -- ./inp_files/11145.got.cif
#   From: 2010.05.17/outbox.cif.g08.bks.cpg/sg44_6_cif.got.tgz:11145.got - 2010.06.03 19:37:08.
