data_PCOD9374325
_publ_section_title
;
Structure prediction by ZEFSAII (Michael W. Deem and Ramdas Pophale) SiO2 
 PCOD9374325
Probable space group: I M M 2
;
_chemical_formula_sum "Si O2"
_cell_formula_units_Z 40
_cell_length_a 11.966007
_cell_length_b 8.184604
_cell_length_c 20.830649
_cell_angle_alpha 90.000000
_cell_angle_beta 90.000000
_cell_angle_gamma 90.000000
_cell_volume 2040.091870
_symmetry_space_group_name_H-M "I M M 2"
_symmetry_group_IT_number 44
_symmetry_cell_setting 'orthorhombic'
loop_
_space_group_symop_operation_xyz
x,y,z
-x,-y,z
-x,y,z
x,-y,z
1/2+x,1/2+y,1/2+z
1/2-x,1/2-y,1/2+z
1/2-x,1/2+y,1/2+z
1/2+x,1/2-y,1/2+z
loop_
_atom_site_type_symbol
_atom_site_label
_atom_site_fract_x
_atom_site_fract_y
_atom_site_fract_z
Si Si1 0.500000 0.804457 0.632630
Si Si2 0.500000 0.307624 0.779477
Si Si3 0.220732 0.196835 0.057513
Si Si4 0.873943 0.696817 0.669933
Si Si5 0.245804 0.305588 0.296367
Si Si6 0.870661 0.199918 0.923832
O O1 0.500000 0.732232 0.703770
O O2 0.608425 0.743674 0.595067
O O3 0.500000 0.000000 0.636878
O O4 0.500000 0.500000 0.789176
O O5 0.384016 0.236857 0.805740
O O6 0.321600 0.256597 0.102569
O O7 0.228677 0.000000 0.054867
O O8 0.203280 0.254838 0.984619
O O9 0.878084 0.500000 0.666847
O O10 0.793673 0.739815 0.729217
O O11 0.000000 0.758137 0.680656
O O12 0.256432 0.500000 0.293591
O O13 0.319059 0.244816 0.356421
O O14 0.000000 0.250495 0.931387
O O15 0.870327 0.000000 0.923793
#
# Coordination Sequence:
#
# PCOD9374325 Si02
#       6
#     4   4   8   8   8   8
#     4  12  22  34  58  92 118 139 182 245 296 341
#     4  12  24  40  60  82 114 155 192 235 296 361
#     4  10  19  36  61  84 114 154 193 233 283 347
#     4  10  21  36  56  85 117 154 197 235 283 346
#     4  11  22  37  59  88 116 147 194 246 292 339
#     4   9  18  34  58  87 115 149 191 234 283 341
#
# _framework density 19.606959
#
# number of rings (size 3 to 8) (size 9 to 14) (size 15 to 20)
#    0.000    1.600    3.000    3.000    0.000    1.200 
#    1.800    2.000    0.000    0.000    0.000    0.000 
#    0.000    0.000    0.000    0.000    0.000    0.000 
#
# Total GULP energy -111676.637919 kJ/mol
# GULP energy per Si atom -5583.831896 kJ/mol
# Density = 1.956233 g / cm^3
# Si number density = 19.606959 Si / 1000 Ang^3
#
#
#
# Elastic Constant Matrix: (Units=GPa)
#
#
# Indices 1 2 3 4 5 6 
#
# 1 119.2167 3.7105 44.6755 0.0000 0.0000 0.0000
# 2 3.7105 12.1336 7.6801 0.0000 0.0000 0.0000
# 3 44.6755 7.6801 131.0968 0.0000 0.0000 0.0000
# 4 0.0000 0.0000 0.0000 17.2735 0.0000 0.0000
# 5 0.0000 0.0000 0.0000 0.0000 12.7090 0.0000
# 6 0.0000 0.0000 0.0000 0.0000 0.0000 16.1992
#
#
#
# Elastic Compliance Matrix: (Units=1/GPa)
#
#
# Indices 1 2 3 4 5 6 
#
# 1 0.009626 -0.000901 -0.003227 0.000000 0.000000 0.000000
# 2 -0.000901 0.085674 -0.004712 0.000000 0.000000 0.000000
# 3 -0.003227 -0.004712 0.009004 0.000000 0.000000 0.000000
# 4 0.000000 0.000000 0.000000 0.057892 0.000000 0.000000
# 5 0.000000 0.000000 0.000000 0.000000 0.078685 0.000000
# 6 0.000000 0.000000 0.000000 0.000000 0.000000 0.061731
#
#
# Mechanical properties :
#
#
# Convention : Reuss Voigt Hill
#
# Bulk Modulus (GPa) = 11.54434 41.61992 26.58213
# Shear Modulus (GPa) = 14.31984 22.99507 18.65746
#
# Velocity S-wave (km/s) = 2.70542 3.42833 3.08810
# Velocity P-wave (km/s) = 3.95724 6.07820 5.12856
#
# Compressibility (1/GPa) = 0.08662254
#
# Stress axis : x y z
#
# Youngs Moduli (GPa) = 103.88978 11.67220 111.06329
#
# Poissons Ratio (x) = 0.01051 0.35845
# Poissons Ratio (y) = 0.09357 0.52335
# Poissons Ratio (z) = 0.33530 0.05500
#
# Static dielectric constant tensor:
#      x y z
#    x 4.449030 0.000000 0.000000 
#    y 0.000000 1.689020 0.000000 
#    z 0.000000 0.000000 1.679450 
# 
# From -- ./inp_files/22781.got.cif
#   From: 2010.05.17/outbox.cif.g08.bks.cpg/sg44_12_cif.got.tgz:22781.got - 2010.06.03 19:37:08.
