data_PCOD9374005
_publ_section_title
;
Structure prediction by ZEFSAII (Michael W. Deem and Ramdas Pophale) SiO2 
 PCOD9374005
Probable space group: I M M 2
;
_chemical_formula_sum "Si O2"
_cell_formula_units_Z 64
_cell_length_a 18.629380
_cell_length_b 12.786759
_cell_length_c 13.836129
_cell_angle_alpha 90.000000
_cell_angle_beta 90.000000
_cell_angle_gamma 90.000000
_cell_volume 3295.895882
_symmetry_space_group_name_H-M "I M M 2"
_symmetry_group_IT_number 44
_symmetry_cell_setting 'orthorhombic'
loop_
_space_group_symop_operation_xyz
x,y,z
-x,-y,z
-x,y,z
x,-y,z
1/2+x,1/2+y,1/2+z
1/2-x,1/2-y,1/2+z
1/2-x,1/2+y,1/2+z
1/2+x,1/2-y,1/2+z
loop_
_atom_site_type_symbol
_atom_site_label
_atom_site_fract_x
_atom_site_fract_y
_atom_site_fract_z
Si Si1 0.776031 0.324587 0.562680
Si Si2 0.916209 0.714119 0.478775
Si Si3 0.420946 0.874373 0.762711
Si Si4 0.166761 0.875772 0.368612
Si Si5 0.282363 0.698795 0.359810
Si Si6 0.916522 0.874613 0.950940
Si Si7 0.636324 0.618157 0.657491
Si Si8 0.224268 0.620751 0.159118
O O1 0.861749 0.334477 0.557809
O O2 0.750306 0.356238 0.455511
O O3 0.722689 0.380100 0.637513
O O4 0.755389 0.203247 0.583519
O O5 0.907607 0.656214 0.374753
O O6 0.882694 0.827726 0.452911
O O7 0.000000 0.714989 0.503793
O O8 0.500000 0.833728 0.735379
O O9 0.357487 0.849800 0.687628
O O10 0.422916 0.000000 0.762178
O O11 0.240861 0.809846 0.361064
O O12 0.125928 0.848591 0.267693
O O13 0.176881 0.000000 0.375055
O O14 0.366490 0.692305 0.380079
O O15 0.264341 0.640438 0.260919
O O16 0.000000 0.863041 0.931345
O O17 0.898979 0.000000 0.942966
O O18 0.898788 0.837343 0.060432
O O19 0.609303 0.500000 0.657176
O O20 0.229227 0.500000 0.129707
#
# Coordination Sequence:
#
# PCOD9374005 Si02
#       8
#     8   8   8   8   8   8   8   8
#     4  10  19  33  51  78 107 139 184 224 267 327
#     4  10  20  34  51  76 111 146 178 222 278 333
#     4   9  17  31  54  84 112 138 175 229 290 342
#     4  10  19  33  53  77 103 136 181 226 271 326
#     4  10  19  35  55  77 107 145 186 223 270 324
#     4   9  18  32  52  82 113 138 173 224 277 325
#     4   9  17  30  52  77 104 136 176 225 274 325
#     4  11  20  34  56  81 108 146 186 230 275 327
#
# _framework density 19.418088999999998
#
# number of rings (size 3 to 8) (size 9 to 14) (size 15 to 20)
#    0.000    2.250    3.750    0.375    0.000    3.750 
#    0.000    5.625    0.000    1.125    0.000    1.750 
#    0.000    0.000    0.000    0.000    0.000    0.000 
#
# Total GULP energy -178166.833452 kJ/mol
# GULP energy per Si atom -5567.713545 kJ/mol
# Density = 1.937389 g / cm^3
# Si number density = 19.418089 Si / 1000 Ang^3
#
#
#
# Elastic Constant Matrix: (Units=GPa)
#
#
# Indices 1 2 3 4 5 6 
#
# 1 131.6481 0.6990 13.6698 0.0000 0.0000 0.0000
# 2 0.6990 38.9106 -12.3010 0.0000 0.0000 0.0000
# 3 13.6698 -12.3010 39.1237 0.0000 0.0000 0.0000
# 4 0.0000 0.0000 0.0000 19.0592 0.0000 0.0000
# 5 0.0000 0.0000 0.0000 0.0000 21.9972 0.0000
# 6 0.0000 0.0000 0.0000 0.0000 0.0000 18.9640
#
#
#
# Elastic Compliance Matrix: (Units=1/GPa)
#
#
# Indices 1 2 3 4 5 6 
#
# 1 0.007926 -0.001130 -0.003125 0.000000 0.000000 0.000000
# 2 -0.001130 0.028698 0.009418 0.000000 0.000000 0.000000
# 3 -0.003125 0.009418 0.029613 0.000000 0.000000 0.000000
# 4 0.000000 0.000000 0.000000 0.052468 0.000000 0.000000
# 5 0.000000 0.000000 0.000000 0.000000 0.045460 0.000000
# 6 0.000000 0.000000 0.000000 0.000000 0.000000 0.052731
#
#
# Mechanical properties :
#
#
# Convention : Reuss Voigt Hill
#
# Bulk Modulus (GPa) = 13.06128 23.75757 18.40942
# Shear Modulus (GPa) = 21.54316 25.84505 23.69410
#
# Velocity S-wave (km/s) = 3.33444 3.65222 3.49694
# Velocity P-wave (km/s) = 4.64387 5.48144 5.07995
#
# Compressibility (1/GPa) = 0.07656215
#
# Stress axis : x y z
#
# Youngs Moduli (GPa) = 126.15937 34.84618 33.76911
#
# Poissons Ratio (x) = 0.03939 0.10552
# Poissons Ratio (y) = 0.14260 -0.31803
# Poissons Ratio (z) = 0.39423 -0.32817
#
# Static dielectric constant tensor:
#      x y z
#    x 1.736340 0.000000 0.000000 
#    y 0.000000 1.749070 0.000000 
#    z 0.000000 0.000000 1.676390 
# 
# From -- ./inp_files/18594.got.cif
#   From: 2010.05.17/outbox.cif.g08.bks.cpg/sg44_10_cif.got.tgz:18594.got - 2010.06.03 19:37:08.
