data_PCOD9374894
_publ_section_title
;
Structure prediction by ZEFSAII (Michael W. Deem and Ramdas Pophale) SiO2 
 PCOD9374894
Probable space group: I M M 2
;
_chemical_formula_sum "Si O2"
_cell_formula_units_Z 64
_cell_length_a 17.401979
_cell_length_b 9.073082
_cell_length_c 21.097648
_cell_angle_alpha 90.000000
_cell_angle_beta 90.000000
_cell_angle_gamma 90.000000
_cell_volume 3331.098833
_symmetry_space_group_name_H-M "I M M 2"
_symmetry_group_IT_number 44
_symmetry_cell_setting 'orthorhombic'
loop_
_space_group_symop_operation_xyz
x,y,z
-x,-y,z
-x,y,z
x,-y,z
1/2+x,1/2+y,1/2+z
1/2-x,1/2-y,1/2+z
1/2-x,1/2+y,1/2+z
1/2+x,1/2-y,1/2+z
loop_
_atom_site_type_symbol
_atom_site_label
_atom_site_fract_x
_atom_site_fract_y
_atom_site_fract_z
Si Si1 0.587645 0.326963 0.559710
Si Si2 0.622110 0.826316 0.428699
Si Si3 0.811614 0.325701 0.165984
Si Si4 0.415630 0.825014 0.030848
Si Si5 0.371742 0.677131 0.300113
Si Si6 0.126608 0.173445 0.659602
Si Si7 0.307588 0.329161 0.932906
Si Si8 0.203779 0.823558 0.292669
O O1 0.500000 0.313677 0.583306
O O2 0.607763 0.500000 0.557055
O O3 0.591059 0.257507 0.489797
O O4 0.644884 0.240801 0.605895
O O5 0.595310 0.754545 0.362504
O O6 0.715249 0.811244 0.432570
O O7 0.604102 0.000000 0.430198
O O8 0.826363 0.500000 0.172183
O O9 0.719440 0.307083 0.158560
O O10 0.835639 0.238941 0.229771
O O11 0.500000 0.779875 0.006345
O O12 0.406463 0.762989 0.101477
O O13 0.411749 0.000000 0.033093
O O14 0.349405 0.765957 0.985283
O O15 0.373548 0.500000 0.306931
O O16 0.402928 0.714111 0.229999
O O17 0.284133 0.735726 0.296721
O O18 0.111133 0.000000 0.650555
O O19 0.323147 0.500000 0.947272
O O20 0.334987 0.297953 0.860939
O O21 0.217722 0.000000 0.287421
#
# Coordination Sequence:
#
# PCOD9374894 Si02
#       8
#     8   8   8   8   8   8   8   8
#     4  11  24  39  54  76 108 145 184 223 264 316
#     4  10  20  35  57  84 110 137 175 220 267 321
#     4  10  20  35  57  84 110 137 175 220 267 321
#     4  11  24  37  50  74 106 139 178 221 262 308
#     4   9  17  31  53  82 111 137 172 218 266 316
#     4   9  19  35  56  81 106 136 174 214 259 315
#     4   9  19  35  56  81 106 136 174 214 259 315
#     4   9  17  31  53  82 111 137 172 218 266 316
#
# _framework density 19.212879999999998
#
# number of rings (size 3 to 8) (size 9 to 14) (size 15 to 20)
#    0.000    2.250    0.000    4.500    0.000   11.000 
#    0.000    1.250    0.000    1.500    0.000    0.000 
#    0.000    0.000    0.000    0.000    0.000    0.000 
#
# Total GULP energy -178588.386610 kJ/mol
# GULP energy per Si atom -5580.887082 kJ/mol
# Density = 1.916915 g / cm^3
# Si number density = 19.212880 Si / 1000 Ang^3
#
#
#
# Elastic Constant Matrix: (Units=GPa)
#
#
# Indices 1 2 3 4 5 6 
#
# 1 38.4932 31.5386 29.6841 0.0000 0.0000 0.0000
# 2 31.5386 69.0007 40.1629 0.0000 0.0000 0.0000
# 3 29.6841 40.1629 104.1941 0.0000 0.0000 0.0000
# 4 0.0000 0.0000 0.0000 41.5318 0.0000 0.0000
# 5 0.0000 0.0000 0.0000 0.0000 -27.4794 0.0000
# 6 0.0000 0.0000 0.0000 0.0000 0.0000 7.2322
#
#
#
# Elastic Compliance Matrix: (Units=1/GPa)
#
#
# Indices 1 2 3 4 5 6 
#
# 1 0.044464 -0.016696 -0.006232 0.000000 0.000000 0.000000
# 2 -0.016696 0.024954 -0.004862 0.000000 0.000000 0.000000
# 3 -0.006232 -0.004862 0.013247 0.000000 0.000000 0.000000
# 4 0.000000 0.000000 0.000000 0.024078 0.000000 0.000000
# 5 0.000000 0.000000 0.000000 0.000000 -0.036391 0.000000
# 6 0.000000 0.000000 0.000000 0.000000 0.000000 0.138270
#
#
# Mechanical properties :
#
#
# Convention : Reuss Voigt Hill
#
# Bulk Modulus (GPa) = 36.92101 46.05102 41.48602
# Shear Modulus (GPa) = 18.29962 11.61043 14.95503
#
# Velocity S-wave (km/s) = 3.08955 2.46093 2.79298
# Velocity P-wave (km/s) = 5.65558 5.66531 5.66045
#
# Compressibility (1/GPa) = 0.02708485
#
# Stress axis : x y z
#
# Youngs Moduli (GPa) = 22.49028 40.07347 75.48849
#
# Poissons Ratio (x) = 0.66907 0.47042
# Poissons Ratio (y) = 0.37550 0.36705
# Poissons Ratio (z) = 0.14015 0.19485
#
# Static dielectric constant tensor:
#      x y z
#    x 1.670800 0.000000 0.000000 
#    y 0.000000 1.634340 0.000000 
#    z 0.000000 0.000000 1.683580 
# 
# From -- ./inp_files/23297.got.cif
#   From: 2010.05.17/outbox.cif.g08.bks.cpg/sg44_12_cif.got.tgz:23297.got - 2010.06.03 19:37:08.
