data_PCOD9374819
_publ_section_title
;
Structure prediction by ZEFSAII (Michael W. Deem and Ramdas Pophale) SiO2 
 PCOD9374819
Probable space group: I M M 2
;
_chemical_formula_sum "Si O2"
_cell_formula_units_Z 20
_cell_length_a 5.602975
_cell_length_b 13.587494
_cell_length_c 11.852981
_cell_angle_alpha 90.000000
_cell_angle_beta 90.000000
_cell_angle_gamma 90.000000
_cell_volume 902.372057
_symmetry_space_group_name_H-M "I M M 2"
_symmetry_group_IT_number 44
_symmetry_cell_setting 'orthorhombic'
loop_
_space_group_symop_operation_xyz
x,y,z
-x,-y,z
-x,y,z
x,-y,z
1/2+x,1/2+y,1/2+z
1/2-x,1/2-y,1/2+z
1/2-x,1/2+y,1/2+z
1/2+x,1/2-y,1/2+z
loop_
_atom_site_type_symbol
_atom_site_label
_atom_site_fract_x
_atom_site_fract_y
_atom_site_fract_z
Si Si1 0.000000 0.117868 0.368510
Si Si2 0.248687 0.881586 0.908358
Si Si3 0.500000 0.307702 0.616196
Si Si4 0.500000 0.883045 0.495924
O O1 0.252810 0.142086 0.429908
O O2 0.000000 0.155064 0.241225
O O3 0.000000 0.000000 0.364956
O O4 0.500000 0.843210 0.866019
O O5 0.000000 0.847435 0.852544
O O6 0.251880 0.000000 0.900763
O O7 0.215448 0.851647 0.039401
O O8 0.500000 0.190351 0.601645
O O9 0.500000 0.000000 0.521050
#
# Coordination Sequence:
#
# PCOD9374819 Si02
#       4
#     4   8   4   4
#     4  10  22  39  59  89 116 151 199 250 291 346
#     4   8  15  25  44  77 104 132 175 225 276 323
#     4  10  20  34  62  78 116 156 200 226 302 342
#     4  10  24  39  57  87 124 153 195 244 295 350
#
# _framework density 22.163806999999998
#
# number of rings (size 3 to 8) (size 9 to 14) (size 15 to 20)
#    1.200    1.600    0.000    1.200    5.600    0.000 
#    0.000    0.000    0.000    7.200    0.000    0.000 
#    0.000    0.000    0.000    0.000    0.000    0.000 
#
# Total GULP energy -55675.195171 kJ/mol
# GULP energy per Si atom -5567.519517 kJ/mol
# Density = 2.211336 g / cm^3
# Si number density = 22.163807 Si / 1000 Ang^3
#
#
#
# Elastic Constant Matrix: (Units=GPa)
#
#
# Indices 1 2 3 4 5 6 
#
# 1 235.1479 32.1423 36.1151 0.0000 0.0000 0.0000
# 2 32.1423 45.9222 7.9474 0.0000 0.0000 0.0000
# 3 36.1151 7.9474 63.5103 0.0000 0.0000 0.0000
# 4 0.0000 0.0000 0.0000 30.7452 0.0000 0.0000
# 5 0.0000 0.0000 0.0000 0.0000 4.8565 0.0000
# 6 0.0000 0.0000 0.0000 0.0000 0.0000 28.8379
#
#
#
# Elastic Compliance Matrix: (Units=1/GPa)
#
#
# Indices 1 2 3 4 5 6 
#
# 1 0.005060 -0.003111 -0.002488 0.000000 0.000000 0.000000
# 2 -0.003111 0.024171 -0.001256 0.000000 0.000000 0.000000
# 3 -0.002488 -0.001256 0.017317 0.000000 0.000000 0.000000
# 4 0.000000 0.000000 0.000000 0.032525 0.000000 0.000000
# 5 0.000000 0.000000 0.000000 0.000000 0.205910 0.000000
# 6 0.000000 0.000000 0.000000 0.000000 0.000000 0.034677
#
#
# Mechanical properties :
#
#
# Convention : Reuss Voigt Hill
#
# Bulk Modulus (GPa) = 30.45165 55.22110 42.83638
# Shear Modulus (GPa) = 14.52155 30.77963 22.65059
#
# Velocity S-wave (km/s) = 2.56245 3.73061 3.20028
# Velocity P-wave (km/s) = 4.74595 6.59740 5.74673
#
# Compressibility (1/GPa) = 0.03283894
#
# Stress axis : x y z
#
# Youngs Moduli (GPa) = 197.62756 41.37225 57.74534
#
# Poissons Ratio (x) = 0.12871 0.14367
# Poissons Ratio (y) = 0.61483 0.07250
# Poissons Ratio (z) = 0.49171 0.05194
#
# Static dielectric constant tensor:
#      x y z
#    x 1.939050 0.000000 0.000000 
#    y 0.000000 1.852020 0.000000 
#    z 0.000000 0.000000 1.705170 
# 
# From -- ./inp_files/10228.got.cif
#   From: 2010.05.17/outbox.cif.g08.bks.cpg/sg44_6_cif.got.tgz:10228.got - 2010.06.03 19:37:08.
