data_PCOD9374804
_publ_section_title
;
Structure prediction by ZEFSAII (Michael W. Deem and Ramdas Pophale) SiO2 
 PCOD9374804
Probable space group: I M M 2
;
_chemical_formula_sum "Si O2"
_cell_formula_units_Z 48
_cell_length_a 8.738410
_cell_length_b 28.682277
_cell_length_c 10.503850
_cell_angle_alpha 90.000000
_cell_angle_beta 90.000000
_cell_angle_gamma 90.000000
_cell_volume 2632.658664
_symmetry_space_group_name_H-M "I M M 2"
_symmetry_group_IT_number 44
_symmetry_cell_setting 'orthorhombic'
loop_
_space_group_symop_operation_xyz
x,y,z
-x,-y,z
-x,y,z
x,-y,z
1/2+x,1/2+y,1/2+z
1/2-x,1/2-y,1/2+z
1/2-x,1/2+y,1/2+z
1/2+x,1/2-y,1/2+z
loop_
_atom_site_type_symbol
_atom_site_label
_atom_site_fract_x
_atom_site_fract_y
_atom_site_fract_z
Si Si1 0.816126 0.803001 0.475590
Si Si2 0.818528 0.446740 0.603165
Si Si3 0.682179 0.854233 0.721191
Si Si4 0.316504 0.641791 0.719788
Si Si5 0.682496 0.553726 0.321977
Si Si6 0.316449 0.300772 0.464992
O O1 0.758334 0.830390 0.599121
O O2 0.773783 0.831574 0.348477
O O3 0.741636 0.752038 0.470858
O O4 0.000000 0.798339 0.478967
O O5 0.786794 0.500000 0.643554
O O6 0.762072 0.408015 0.700962
O O7 0.733928 0.439038 0.468407
O O8 0.000000 0.442192 0.581672
O O9 0.500000 0.850919 0.712653
O O10 0.734560 0.907682 0.737663
O O11 0.740128 0.827300 0.846967
O O12 0.500000 0.635481 0.719738
O O13 0.276991 0.673065 0.596624
O O14 0.500000 0.559985 0.313576
O O15 0.719789 0.500000 0.289218
O O16 0.500000 0.301993 0.450248
#
# Coordination Sequence:
#
# PCOD9374804 Si02
#       6
#     8   8   8   8   8   8
#     4  11  24  41  60  86 121 159 200 247 298 353
#     4  10  20  34  57  89 119 149 190 239 292 351
#     4  12  24  39  60  89 122 159 200 243 296 356
#     4  10  22  39  60  86 117 154 197 241 292 350
#     4  10  20  36  60  88 117 151 194 245 298 350
#     4  11  22  39  63  90 118 152 199 249 296 352
#
# _framework density 18.232517999999999
#
# number of rings (size 3 to 8) (size 9 to 14) (size 15 to 20)
#    0.000    1.333    1.667    4.500    0.000    5.333 
#    0.000    0.833    0.000    1.000    0.000    0.000 
#    0.000    0.000    0.000    0.000    0.000    0.000 
#
# Total GULP energy -134180.372916 kJ/mol
# GULP energy per Si atom -5590.848871 kJ/mol
# Density = 1.819102 g / cm^3
# Si number density = 18.232518 Si / 1000 Ang^3
#
#
#
# Elastic Constant Matrix: (Units=GPa)
#
#
# Indices 1 2 3 4 5 6 
#
# 1 41.5621 25.9196 21.8980 0.0002 0.0000 0.0000
# 2 25.9196 112.7895 37.6503 0.0006 0.0000 0.0000
# 3 21.8980 37.6503 94.3909 -0.0013 0.0003 0.0001
# 4 0.0002 0.0006 -0.0013 -24.0770 0.0001 0.0000
# 5 0.0000 0.0000 0.0003 0.0001 19.9096 0.0000
# 6 0.0000 0.0000 0.0001 0.0000 0.0000 37.1912
#
#
#
# Elastic Compliance Matrix: (Units=1/GPa)
#
#
# Indices 1 2 3 4 5 6 
#
# 1 0.029885 -0.005253 -0.004838 0.000000 0.000000 0.000000
# 2 -0.005253 0.011151 -0.003229 0.000000 0.000000 0.000000
# 3 -0.004838 -0.003229 0.013005 -0.000001 0.000000 0.000000
# 4 0.000000 0.000000 -0.000001 -0.041533 0.000000 0.000000
# 5 0.000000 0.000000 0.000000 0.000000 0.050227 0.000000
# 6 0.000000 0.000000 0.000000 0.000000 0.000000 0.026888
#
#
# Mechanical properties :
#
#
# Convention : Reuss Voigt Hill
#
# Bulk Modulus (GPa) = 36.49507 46.63091 41.56299
# Shear Modulus (GPa) = 39.87346 17.48972 28.68159
#
# Velocity S-wave (km/s) = 4.68155 3.10055 3.97054
# Velocity P-wave (km/s) = 7.02015 6.20073 6.62312
#
# Compressibility (1/GPa) = 0.02740096
#
# Stress axis : x y z
#
# Youngs Moduli (GPa) = 33.46138 89.67667 76.89522
#
# Poissons Ratio (x) = 0.47105 0.37201
# Poissons Ratio (y) = 0.17577 0.24832
# Poissons Ratio (z) = 0.16188 0.28960
#
# Static dielectric constant tensor:
#      x y z
#    x 1.609010 0.000000 0.000000 
#    y 0.000000 1.620030 0.000000 
#    z 0.000000 0.000000 1.593170 
# 
# From -- ./inp_files/4929.got.cif
#   From: 2010.05.17/outbox.cif.g08.bks.cpg/sg44_3_cif.got.tgz:4929.got - 2010.06.03 19:37:08.
