data_PCOD9374382
_publ_section_title
;
Structure prediction by ZEFSAII (Michael W. Deem and Ramdas Pophale) SiO2 
 PCOD9374382
Probable space group: I M M 2
;
_chemical_formula_sum "Si O2"
_cell_formula_units_Z 58
_cell_length_a 7.296907
_cell_length_b 21.641683
_cell_length_c 14.590168
_cell_angle_alpha 90.000000
_cell_angle_beta 90.000000
_cell_angle_gamma 90.000000
_cell_volume 2304.040640
_symmetry_space_group_name_H-M "I M M 2"
_symmetry_group_IT_number 44
_symmetry_cell_setting 'orthorhombic'
loop_
_space_group_symop_operation_xyz
x,y,z
-x,-y,z
-x,y,z
x,-y,z
1/2+x,1/2+y,1/2+z
1/2-x,1/2-y,1/2+z
1/2-x,1/2+y,1/2+z
1/2+x,1/2-y,1/2+z
loop_
_atom_site_type_symbol
_atom_site_label
_atom_site_fract_x
_atom_site_fract_y
_atom_site_fract_z
Si Si1 0.704402 0.188819 0.794470
Si Si2 0.790954 0.401948 0.625350
Si Si3 0.283494 0.851541 0.494617
Si Si4 0.723989 0.930167 0.327813
Si Si5 0.276438 0.095599 0.926493
Si Si6 0.000000 0.000000 0.853298
Si Si7 0.776303 0.241098 0.123006
Si Si8 0.720244 0.570576 0.171629
O O1 0.500000 0.211594 0.812691
O O2 0.775534 0.164671 0.891819
O O3 0.790985 0.236033 0.723409
O O4 0.697526 0.125975 0.732617
O O5 0.711595 0.419189 0.723553
O O6 0.714830 0.423586 0.528203
O O7 0.787144 0.328316 0.612351
O O8 0.000000 0.424216 0.627675
O O9 0.500000 0.841251 0.482590
O O10 0.212337 0.877376 0.398139
O O11 0.213614 0.789708 0.545385
O O12 0.256415 0.906409 0.568228
O O13 0.500000 0.927465 0.327242
O O14 0.773704 0.000000 0.356352
O O15 0.500000 0.090385 0.920780
O O16 0.161184 0.052133 0.861670
O O17 0.000000 0.242460 0.124233
O O18 0.500000 0.569093 0.184805
O O19 0.785399 0.500000 0.183341
#
# Coordination Sequence:
#
# PCOD9374382 Si02
#       8
#     8   8   8   8   8   2   8   8
#     4   9  20  38  57  82 117 159 197 250 307 364
#     4  10  22  39  59  87 117 159 206 256 308 362
#     4   9  18  35  57  82 110 150 195 243 300 364
#     4   9  18  34  59  86 113 147 195 245 296 358
#     4  10  24  43  63  91 129 165 212 258 313 379
#     4  12  26  40  68  94 124 170 210 260 318 374
#     4   9  19  36  58  84 120 155 201 253 303 365
#     4  10  20  30  48  78 116 149 190 241 295 362
#
# _framework density 25.173165999999998
#
# number of rings (size 3 to 8) (size 9 to 14) (size 15 to 20)
#    0.000    2.483    0.000    1.862    3.862    4.966 
#    0.000    0.690    0.000    0.828    0.000    0.000 
#    0.000    0.000    0.000    0.000    0.000    0.000 
#
# Total GULP energy -161696.873626 kJ/mol
# GULP energy per Si atom -5575.754263 kJ/mol
# Density = 2.511587 g / cm^3
# Si number density = 25.173166 Si / 1000 Ang^3
#
#
#
# Elastic Constant Matrix: (Units=GPa)
#
#
# Indices 1 2 3 4 5 6 
#
# 1 117.9988 -6.0841 -1.6826 0.0000 0.0000 0.0000
# 2 -6.0841 86.1550 0.6957 0.0000 0.0000 0.0000
# 3 -1.6826 0.6957 112.8397 -0.0001 0.0000 0.0000
# 4 0.0000 0.0000 -0.0001 15.9240 0.0000 0.0000
# 5 0.0000 0.0000 0.0000 0.0000 -18.4211 0.0000
# 6 0.0000 0.0000 0.0000 0.0000 0.0000 23.9877
#
#
#
# Elastic Compliance Matrix: (Units=1/GPa)
#
#
# Indices 1 2 3 4 5 6 
#
# 1 0.008507 0.000600 0.000123 0.000000 0.000000 0.000000
# 2 0.000600 0.011650 -0.000063 0.000000 0.000000 0.000000
# 3 0.000123 -0.000063 0.008864 0.000000 0.000000 0.000000
# 4 0.000000 0.000000 0.000000 0.062798 0.000000 0.000000
# 5 0.000000 0.000000 0.000000 0.000000 -0.054286 0.000000
# 6 0.000000 0.000000 0.000000 0.000000 0.000000 0.041688
#
#
# Mechanical properties :
#
#
# Convention : Reuss Voigt Hill
#
# Bulk Modulus (GPa) = 32.95801 33.65018 33.30409
# Shear Modulus (GPa) = 56.80777 25.90242 41.35510
#
# Velocity S-wave (km/s) = 4.75561 3.21124 4.05757
# Velocity P-wave (km/s) = 6.57840 5.21017 5.93385
#
# Compressibility (1/GPa) = 0.03034164
#
# Stress axis : x y z
#
# Youngs Moduli (GPa) = 117.54552 85.83806 112.81139
#
# Poissons Ratio (x) = -0.05148 -0.01389
# Poissons Ratio (y) = -0.07050 0.00709
# Poissons Ratio (z) = -0.01448 0.00540
#
# Static dielectric constant tensor:
#      x y z
#    x 1.941320 0.000000 0.000000 
#    y 0.000000 1.885410 0.000000 
#    z 0.000000 0.000000 2.070190 
# 
# From -- ./inp_files/16715.got.cif
#   From: 2010.05.17/outbox.cif.g08.bks.cpg/sg44_9_cif.got.tgz:16715.got - 2010.06.03 19:37:08.
