data_PCOD9374326
_publ_section_title
;
Structure prediction by ZEFSAII (Michael W. Deem and Ramdas Pophale) SiO2 
 PCOD9374326
Probable space group: I M M 2
;
_chemical_formula_sum "Si O2"
_cell_formula_units_Z 48
_cell_length_a 14.906839
_cell_length_b 8.448545
_cell_length_c 20.998034
_cell_angle_alpha 90.000000
_cell_angle_beta 90.000000
_cell_angle_gamma 90.000000
_cell_volume 2644.515502
_symmetry_space_group_name_H-M "I M M 2"
_symmetry_group_IT_number 44
_symmetry_cell_setting 'orthorhombic'
loop_
_space_group_symop_operation_xyz
x,y,z
-x,-y,z
-x,y,z
x,-y,z
1/2+x,1/2+y,1/2+z
1/2-x,1/2-y,1/2+z
1/2-x,1/2+y,1/2+z
1/2+x,1/2-y,1/2+z
loop_
_atom_site_type_symbol
_atom_site_label
_atom_site_fract_x
_atom_site_fract_y
_atom_site_fract_z
Si Si1 0.500000 0.307312 0.462430
Si Si2 0.306729 0.189614 0.656617
Si Si3 0.694998 0.808324 0.894957
Si Si4 0.000000 0.810086 0.814226
Si Si5 0.691318 0.308474 0.516879
Si Si6 0.000000 0.692923 0.354367
Si Si7 0.500000 0.192686 0.706291
Si Si8 0.191523 0.311824 0.774234
O O1 0.500000 0.500000 0.462160
O O2 0.500000 0.257193 0.388514
O O3 0.590797 0.255834 0.497324
O O4 0.283598 0.244322 0.585787
O O5 0.408184 0.245787 0.673148
O O6 0.239931 0.253623 0.710236
O O7 0.306270 0.000000 0.660038
O O8 0.592278 0.755080 0.886982
O O9 0.752176 0.751577 0.834598
O O10 0.696247 0.000000 0.893597
O O11 0.742083 0.757878 0.960356
O O12 0.909621 0.750307 0.781321
O O13 0.000000 0.000000 0.814265
O O14 0.691526 0.500000 0.518928
O O15 0.000000 0.741311 0.280279
O O16 0.000000 0.500000 0.354901
O O17 0.500000 0.000000 0.705321
O O18 0.191363 0.500000 0.775687
#
# Coordination Sequence:
#
# PCOD9374326 Si02
#       8
#     4   8   8   4   8   4   4   8
#     4   9  17  32  58  87 116 150 187 235 297 360
#     4  11  22  38  58  83 117 160 199 239 295 354
#     4  10  19  36  61  84 114 155 196 239 294 356
#     4  11  21  40  65  89 115 153 197 238 293 358
#     4  10  20  35  55  84 118 153 193 240 293 351
#     4   9  16  31  58  88 110 140 196 245 279 334
#     4   9  17  31  57  86 111 143 194 242 281 342
#     4  12  24  38  58  88 120 151 194 247 293 345
#
# _framework density 18.150770999999999
#
# number of rings (size 3 to 8) (size 9 to 14) (size 15 to 20)
#    0.000    1.667    3.333    2.750    0.000    0.667 
#    0.000    3.333    0.000    2.000    0.000    0.000 
#    0.000    0.000    0.000    0.000    0.000    0.000 
#
# Total GULP energy -134065.225414 kJ/mol
# GULP energy per Si atom -5586.051059 kJ/mol
# Density = 1.810946 g / cm^3
# Si number density = 18.150771 Si / 1000 Ang^3
#
#
#
# Elastic Constant Matrix: (Units=GPa)
#
#
# Indices 1 2 3 4 5 6 
#
# 1 166.4545 28.5057 97.6010 0.0000 0.0000 0.0000
# 2 28.5057 28.4022 29.9616 0.0000 0.0000 0.0000
# 3 97.6010 29.9616 177.5155 0.0000 0.0000 0.0000
# 4 0.0000 0.0000 0.0000 24.4764 0.0000 0.0000
# 5 0.0000 0.0000 0.0000 0.0000 23.5715 0.0000
# 6 0.0000 0.0000 0.0000 0.0000 0.0000 -30.3686
#
#
#
# Elastic Compliance Matrix: (Units=1/GPa)
#
#
# Indices 1 2 3 4 5 6 
#
# 1 0.009382 -0.004835 -0.004342 0.000000 0.000000 0.000000
# 2 -0.004835 0.045328 -0.004992 0.000000 0.000000 0.000000
# 3 -0.004342 -0.004992 0.008863 0.000000 0.000000 0.000000
# 4 0.000000 0.000000 0.000000 0.040856 0.000000 0.000000
# 5 0.000000 0.000000 0.000000 0.000000 0.042424 0.000000
# 6 0.000000 0.000000 0.000000 0.000000 0.000000 -0.032929
#
#
# Mechanical properties :
#
#
# Convention : Reuss Voigt Hill
#
# Bulk Modulus (GPa) = 28.38194 76.05653 52.21923
# Shear Modulus (GPa) = 32.46607 17.95614 25.21111
#
# Velocity S-wave (km/s) = 4.23388 3.14869 3.73095
# Velocity P-wave (km/s) = 6.29060 7.43052 6.88419
#
# Compressibility (1/GPa) = 0.03523368
#
# Stress axis : x y z
#
# Youngs Moduli (GPa) = 106.59034 22.06161 112.82587
#
# Poissons Ratio (x) = 0.10668 0.48990
# Poissons Ratio (y) = 0.51541 0.56322
# Poissons Ratio (z) = 0.46282 0.11013
#
# Static dielectric constant tensor:
#      x y z
#    x 1.619240 0.000000 0.000000 
#    y 0.000000 1.618850 0.000000 
#    z 0.000000 0.000000 1.591670 
# 
# From -- ./inp_files/21762.got.cif
#   From: 2010.05.17/outbox.cif.g08.bks.cpg/sg44_11_cif.got.tgz:21762.got - 2010.06.03 19:37:08.
