data_PCOD9374797
_publ_section_title
;
Structure prediction by ZEFSAII (Michael W. Deem and Ramdas Pophale) SiO2 
 PCOD9374797
Probable space group: I M M 2
;
_chemical_formula_sum "Si O2"
_cell_formula_units_Z 32
_cell_length_a 7.816069
_cell_length_b 11.054688
_cell_length_c 20.444033
_cell_angle_alpha 90.000000
_cell_angle_beta 90.000000
_cell_angle_gamma 90.000000
_cell_volume 1766.450402
_symmetry_space_group_name_H-M "I M M 2"
_symmetry_group_IT_number 44
_symmetry_cell_setting 'orthorhombic'
loop_
_space_group_symop_operation_xyz
x,y,z
-x,-y,z
-x,y,z
x,-y,z
1/2+x,1/2+y,1/2+z
1/2-x,1/2-y,1/2+z
1/2-x,1/2+y,1/2+z
1/2+x,1/2-y,1/2+z
loop_
_atom_site_type_symbol
_atom_site_label
_atom_site_fract_x
_atom_site_fract_y
_atom_site_fract_z
Si Si1 0.500000 0.229557 0.104460
Si Si2 0.500000 0.000000 0.009485
Si Si3 0.184819 0.500000 0.197292
Si Si4 0.294599 0.357115 0.700981
Si Si5 0.500000 0.500000 0.100528
Si Si6 0.314399 0.500000 0.411118
Si Si7 0.695621 0.803468 0.811297
O O1 0.332620 0.210225 0.150704
O O2 0.500000 0.363454 0.071365
O O3 0.500000 0.120412 0.053188
O O4 0.664890 0.000000 0.963188
O O5 0.335390 0.500000 0.146918
O O6 0.194572 0.388591 0.247090
O O7 0.000000 0.500000 0.164262
O O8 0.500000 0.331715 0.692040
O O9 0.270374 0.500000 0.691357
O O10 0.248977 0.320119 0.776217
O O11 0.500000 0.500000 0.442536
O O12 0.295356 0.380872 0.365040
O O13 0.500000 0.792119 0.835171
#
# Coordination Sequence:
#
# PCOD9374797 Si02
#       7
#     4   2   4   8   2   4   8
#     4  12  24  38  62  88 130 172 204 259 300 388
#     4  12  26  48  58  82 128 174 224 250 296 370
#     4   9  17  28  48  82 122 142 169 238 306 364
#     4  10  20  34  56  93 129 162 196 250 330 376
#     4  12  22  32  58  94 112 162 204 240 320 358
#     4  11  23  38  64  86 110 168 217 261 299 364
#     4   9  17  32  55  87 122 143 188 259 312 352
#
# _framework density 18.115425999999999
#
# number of rings (size 3 to 8) (size 9 to 14) (size 15 to 20)
#    0.000    1.750    5.000    0.750    5.250    1.000 
#    0.000    0.000    2.750    0.000    0.000    0.000 
#    0.000    0.000    0.000    0.000    0.000    0.000 
#
# Total GULP energy -89081.273904 kJ/mol
# GULP energy per Si atom -5567.579619 kJ/mol
# Density = 1.807419 g / cm^3
# Si number density = 18.115426 Si / 1000 Ang^3
#
#
#
# Elastic Constant Matrix: (Units=GPa)
#
#
# Indices 1 2 3 4 5 6 
#
# 1 111.6322 21.9100 42.3585 0.0000 0.0000 0.0000
# 2 21.9100 111.8307 26.0068 0.0000 0.0000 0.0000
# 3 42.3585 26.0068 58.8183 0.0000 0.0000 0.0000
# 4 0.0000 0.0000 0.0000 23.7411 0.0000 0.0000
# 5 0.0000 0.0000 0.0000 0.0000 17.3579 0.0000
# 6 0.0000 0.0000 0.0000 0.0000 0.0000 12.4232
#
#
#
# Elastic Compliance Matrix: (Units=1/GPa)
#
#
# Indices 1 2 3 4 5 6 
#
# 1 0.012342 -0.000391 -0.008715 0.000000 0.000000 0.000000
# 2 -0.000391 0.009979 -0.004131 0.000000 0.000000 0.000000
# 3 -0.008715 -0.004131 0.025104 0.000000 0.000000 0.000000
# 4 0.000000 0.000000 0.000000 0.042121 0.000000 0.000000
# 5 0.000000 0.000000 0.000000 0.000000 0.057611 0.000000
# 6 0.000000 0.000000 0.000000 0.000000 0.000000 0.080495
#
#
# Mechanical properties :
#
#
# Convention : Reuss Voigt Hill
#
# Bulk Modulus (GPa) = 47.72969 51.42576 49.57772
# Shear Modulus (GPa) = 19.14910 23.50483 21.32696
#
# Velocity S-wave (km/s) = 3.25477 3.60600 3.43488
# Velocity P-wave (km/s) = 6.36628 6.76661 6.56949
#
# Compressibility (1/GPa) = 0.02095132
#
# Stress axis : x y z
#
# Youngs Moduli (GPa) = 81.02643 100.20696 39.83423
#
# Poissons Ratio (x) = 0.03921 0.34715
# Poissons Ratio (y) = 0.03170 0.16454
# Poissons Ratio (z) = 0.70614 0.41392
#
# Static dielectric constant tensor:
#      x y z
#    x 1.633730 0.000000 0.000000 
#    y 0.000000 1.778900 0.000000 
#    z 0.000000 0.000000 1.580220 
# 
# From -- ./inp_files/20025.got.cif
#   From: 2010.05.17/outbox.cif.g08.bks.cpg/sg44_11_cif.got.tgz:20025.got - 2010.06.03 19:37:08.
