data_PCOD9374960
_publ_section_title
;
Structure prediction by ZEFSAII (Michael W. Deem and Ramdas Pophale) SiO2 
 PCOD9374960
Probable space group: I M M 2
;
_chemical_formula_sum "Si O2"
_cell_formula_units_Z 40
_cell_length_a 7.719055
_cell_length_b 9.331524
_cell_length_c 30.319807
_cell_angle_alpha 90.000000
_cell_angle_beta 90.000000
_cell_angle_gamma 90.000000
_cell_volume 2183.952283
_symmetry_space_group_name_H-M "I M M 2"
_symmetry_group_IT_number 44
_symmetry_cell_setting 'orthorhombic'
loop_
_space_group_symop_operation_xyz
x,y,z
-x,-y,z
-x,y,z
x,-y,z
1/2+x,1/2+y,1/2+z
1/2-x,1/2-y,1/2+z
1/2-x,1/2+y,1/2+z
1/2+x,1/2-y,1/2+z
loop_
_atom_site_type_symbol
_atom_site_label
_atom_site_fract_x
_atom_site_fract_y
_atom_site_fract_z
Si Si1 0.000000 0.171758 0.723680
Si Si2 0.702657 0.171137 0.792972
Si Si3 0.211348 0.164029 0.381770
Si Si4 0.790185 0.665812 0.467998
Si Si5 0.692493 0.674167 0.565807
Si Si6 0.500000 0.826203 0.130331
O O1 0.169282 0.207047 0.753020
O O2 0.000000 0.254943 0.677906
O O3 0.000000 0.000000 0.716179
O O4 0.500000 0.205493 0.783933
O O5 0.758736 0.251508 0.837489
O O6 0.713558 0.000000 0.800498
O O7 0.269654 0.242897 0.426253
O O8 0.000000 0.164944 0.382910
O O9 0.268913 0.000000 0.380300
O O10 0.734993 0.500000 0.462948
O O11 0.730064 0.720916 0.515679
O O12 0.000000 0.666460 0.468732
O O13 0.500000 0.717214 0.578928
O O14 0.700855 0.500000 0.564097
O O15 0.834647 0.718458 0.601122
O O16 0.500000 0.000000 0.134332
#
# Coordination Sequence:
#
# PCOD9374960 Si02
#       6
#     4   8   8   8   8   4
#     4  10  22  38  56  80 104 132 174 218 263 312
#     4   9  18  35  56  75 100 135 174 214 252 301
#     4   9  17  29  48  76 108 140 171 207 257 309
#     4   9  15  27  49  73 100 138 178 212 249 297
#     4   9  17  31  52  77 103 133 173 217 254 298
#     4  10  20  36  56  78 104 134 172 218 265 308
#
# _framework density 18.31542
#
# number of rings (size 3 to 8) (size 9 to 14) (size 15 to 20)
#    0.000    2.800    1.000    0.600    0.000    4.000 
#    1.800    1.000    0.000    1.200    0.000    0.000 
#    0.000    0.000    0.000    0.000    0.000    0.000 
#
# Total GULP energy -111560.048707 kJ/mol
# GULP energy per Si atom -5578.002435 kJ/mol
# Density = 1.827373 g / cm^3
# Si number density = 18.315420 Si / 1000 Ang^3
#
#
#
# Elastic Constant Matrix: (Units=GPa)
#
#
# Indices 1 2 3 4 5 6 
#
# 1 101.2315 37.9547 88.6908 0.0000 0.0000 0.0000
# 2 37.9547 44.5985 70.7049 0.0000 0.0000 0.0000
# 3 88.6908 70.7049 204.8910 0.0000 0.0000 0.0000
# 4 0.0000 0.0000 0.0000 35.2998 0.0000 0.0000
# 5 0.0000 0.0000 0.0000 0.0000 -13.6179 0.0000
# 6 0.0000 0.0000 0.0000 0.0000 0.0000 4.0145
#
#
#
# Elastic Compliance Matrix: (Units=1/GPa)
#
#
# Indices 1 2 3 4 5 6 
#
# 1 0.016621 -0.006047 -0.005108 0.000000 0.000000 0.000000
# 2 -0.006047 0.051707 -0.015226 0.000000 0.000000 0.000000
# 3 -0.005108 -0.015226 0.012346 0.000000 0.000000 0.000000
# 4 0.000000 0.000000 0.000000 0.028329 0.000000 0.000000
# 5 0.000000 0.000000 0.000000 0.000000 -0.073432 0.000000
# 6 0.000000 0.000000 0.000000 0.000000 0.000000 0.249097
#
#
# Mechanical properties :
#
#
# Convention : Reuss Voigt Hill
#
# Bulk Modulus (GPa) = 35.82655 82.82467 59.32561
# Shear Modulus (GPa) = 14.42040 15.36397 14.89218
#
# Velocity S-wave (km/s) = 2.80900 2.89944 2.85458
# Velocity P-wave (km/s) = 5.48853 7.51854 6.58226
#
# Compressibility (1/GPa) = 0.02791226
#
# Stress axis : x y z
#
# Youngs Moduli (GPa) = 60.16651 19.33987 80.99889
#
# Poissons Ratio (x) = 0.11694 0.41373
# Poissons Ratio (y) = 0.36382 1.23327
# Poissons Ratio (z) = 0.30732 0.29446
#
# Static dielectric constant tensor:
#      x y z
#    x 1.660340 0.000000 0.000000 
#    y 0.000000 1.613490 0.000000 
#    z 0.000000 0.000000 1.589840 
# 
# From -- ./inp_files/25935.got.cif
#   From: 2010.05.17/outbox.cif.g08.bks.cpg/sg44_13_cif.got.tgz:25935.got - 2010.06.03 19:37:08.
