data_PCOD9374968
_publ_section_title
;
Structure prediction by ZEFSAII (Michael W. Deem and Ramdas Pophale) SiO2 
 PCOD9374968
Probable space group: I M M 2
;
_chemical_formula_sum "Si O2"
_cell_formula_units_Z 64
_cell_length_a 25.980157
_cell_length_b 7.583663
_cell_length_c 15.512581
_cell_angle_alpha 90.000000
_cell_angle_beta 90.000000
_cell_angle_gamma 90.000000
_cell_volume 3056.362477
_symmetry_space_group_name_H-M "I M M 2"
_symmetry_group_IT_number 44
_symmetry_cell_setting 'orthorhombic'
loop_
_space_group_symop_operation_xyz
x,y,z
-x,-y,z
-x,y,z
x,-y,z
1/2+x,1/2+y,1/2+z
1/2-x,1/2-y,1/2+z
1/2-x,1/2+y,1/2+z
1/2+x,1/2-y,1/2+z
loop_
_atom_site_type_symbol
_atom_site_label
_atom_site_fract_x
_atom_site_fract_y
_atom_site_fract_z
Si Si1 0.057017 0.211732 0.469520
Si Si2 0.780560 0.786646 0.681366
Si Si3 0.266152 0.287152 0.382499
Si Si4 0.833269 0.716651 0.154920
Si Si5 0.846573 0.710525 0.350034
Si Si6 0.892637 0.783499 0.645731
Si Si7 0.368461 0.202035 0.478357
Si Si8 0.442437 0.292321 0.323436
O O1 0.102444 0.252540 0.403208
O O2 0.074196 0.274406 0.564206
O O3 0.000000 0.277611 0.446338
O O4 0.054274 0.000000 0.474124
O O5 0.780472 0.743740 0.783230
O O6 0.726236 0.726642 0.643505
O O7 0.833295 0.725034 0.638903
O O8 0.780173 0.000000 0.676809
O O9 0.268589 0.500000 0.391118
O O10 0.207010 0.225934 0.393332
O O11 0.309900 0.211278 0.443557
O O12 0.833974 0.500000 0.153341
O O13 0.849344 0.773327 0.250867
O O14 0.866913 0.779758 0.074534
O O15 0.840334 0.500000 0.344582
O O16 0.915725 0.721385 0.736752
O O17 0.892233 0.000000 0.645983
O O18 0.405755 0.277783 0.405944
O O19 0.384276 0.000000 0.486116
O O20 0.500000 0.220230 0.337014
O O21 0.447537 0.500000 0.307091
#
# Coordination Sequence:
#
# PCOD9374968 Si02
#       8
#     8   8   8   8   8   8   8   8
#     4  10  21  35  53  80 109 135 173 225 270 308
#     4   8  13  26  50  75  99 132 171 208 244 298
#     4   9  17  32  53  77 105 136 173 214 255 308
#     4   8  17  32  50  75 105 138 176 213 255 310
#     4   9  19  37  58  76 101 140 182 220 260 309
#     4   9  16  29  53  79 103 137 177 212 251 311
#     4  11  21  32  52  81 111 139 172 217 266 312
#     4  10  20  36  57  77 102 141 185 219 254 310
#
# _framework density 20.939924000000001
#
# number of rings (size 3 to 8) (size 9 to 14) (size 15 to 20)
#    0.000    2.750    1.250    2.250    1.750    2.500 
#    0.000    2.500    0.000    6.750    0.000    0.000 
#    0.000    0.000    0.000    0.000    0.000    0.000 
#
# Total GULP energy -178551.757310 kJ/mol
# GULP energy per Si atom -5579.742416 kJ/mol
# Density = 2.089226 g / cm^3
# Si number density = 20.939924 Si / 1000 Ang^3
#
#
#
# Elastic Constant Matrix: (Units=GPa)
#
#
# Indices 1 2 3 4 5 6 
#
# 1 148.0484 -2.1244 70.9123 0.0000 0.0000 0.0000
# 2 -2.1244 41.7701 -2.0809 0.0000 0.0000 0.0000
# 3 70.9123 -2.0809 98.6798 0.0000 0.0000 0.0000
# 4 0.0000 0.0000 0.0000 12.9148 0.0000 0.0000
# 5 0.0000 0.0000 0.0000 0.0000 22.8268 0.0000
# 6 0.0000 0.0000 0.0000 0.0000 0.0000 14.6200
#
#
#
# Elastic Compliance Matrix: (Units=1/GPa)
#
#
# Indices 1 2 3 4 5 6 
#
# 1 0.010301 0.000155 -0.007399 0.000000 0.000000 0.000000
# 2 0.000155 0.023968 0.000394 0.000000 0.000000 0.000000
# 3 -0.007399 0.000394 0.015459 0.000000 0.000000 0.000000
# 4 0.000000 0.000000 0.000000 0.077431 0.000000 0.000000
# 5 0.000000 0.000000 0.000000 0.000000 0.043808 0.000000
# 6 0.000000 0.000000 0.000000 0.000000 0.000000 0.068400
#
#
# Mechanical properties :
#
#
# Convention : Reuss Voigt Hill
#
# Bulk Modulus (GPa) = 27.75600 46.87915 37.31758
# Shear Modulus (GPa) = 18.86256 24.85839 21.86048
#
# Velocity S-wave (km/s) = 3.00458 3.44921 3.23454
# Velocity P-wave (km/s) = 5.03195 6.18860 5.64000
#
# Compressibility (1/GPa) = 0.03602825
#
# Stress axis : x y z
#
# Youngs Moduli (GPa) = 97.08063 41.72214 64.68711
#
# Poissons Ratio (x) = -0.00648 0.47862
# Poissons Ratio (y) = -0.01507 -0.02548
# Poissons Ratio (z) = 0.71829 -0.01643
#
# Static dielectric constant tensor:
#      x y z
#    x 1.757610 0.000000 0.000000 
#    y 0.000000 1.801060 0.000000 
#    z 0.000000 0.000000 1.748700 
# 
# From -- ./inp_files/16897.got.cif
#   From: 2010.05.17/outbox.cif.g08.bks.cpg/sg44_9_cif.got.tgz:16897.got - 2010.06.03 19:37:08.
