data_PCOD9374795
_publ_section_title
;
Structure prediction by ZEFSAII (Michael W. Deem and Ramdas Pophale) SiO2 
 PCOD9374795
Probable space group: I M M 2
;
_chemical_formula_sum "Si O2"
_cell_formula_units_Z 64
_cell_length_a 33.209629
_cell_length_b 8.785086
_cell_length_c 11.921262
_cell_angle_alpha 90.000000
_cell_angle_beta 90.000000
_cell_angle_gamma 90.000000
_cell_volume 3478.021594
_symmetry_space_group_name_H-M "I M M 2"
_symmetry_group_IT_number 44
_symmetry_cell_setting 'orthorhombic'
loop_
_space_group_symop_operation_xyz
x,y,z
-x,-y,z
-x,y,z
x,-y,z
1/2+x,1/2+y,1/2+z
1/2-x,1/2-y,1/2+z
1/2-x,1/2+y,1/2+z
1/2+x,1/2-y,1/2+z
loop_
_atom_site_type_symbol
_atom_site_label
_atom_site_fract_x
_atom_site_fract_y
_atom_site_fract_z
Si Si1 0.187161 0.180847 0.912520
Si Si2 0.324563 0.178860 0.173964
Si Si3 0.354096 0.680800 0.815322
Si Si4 0.547455 0.682543 0.444802
Si Si5 0.279395 0.817494 0.951254
Si Si6 0.897390 0.179609 0.541192
Si Si7 0.452002 0.173916 0.206216
Si Si8 0.379242 0.181212 0.577814
O O1 0.178228 0.222023 0.784494
O O2 0.233460 0.228609 0.932127
O O3 0.184060 0.000000 0.931968
O O4 0.155465 0.263739 0.992402
O O5 0.365259 0.222170 0.110319
O O6 0.322975 0.000000 0.201577
O O7 0.290836 0.213956 0.080535
O O8 0.350920 0.500000 0.796238
O O9 0.312147 0.738969 0.870182
O O10 0.366206 0.762123 0.700817
O O11 0.388082 0.708106 0.910907
O O12 0.500000 0.723206 0.463012
O O13 0.550094 0.500000 0.443077
O O14 0.560655 0.746607 0.322782
O O15 0.578396 0.748080 0.535931
O O16 0.282930 0.000000 0.934516
O O17 0.938531 0.233255 0.596978
O O18 0.890953 0.000000 0.560319
O O19 0.500000 0.169885 0.209533
O O20 0.436969 0.000000 0.202974
O O21 0.382352 0.000000 0.575611
#
# Coordination Sequence:
#
# PCOD9374795 Si02
#       8
#     8   8   8   8   8   8   8   8
#     4  11  23  38  57  84 116 150 191 240 290 343
#     4  10  20  36  56  80 109 144 186 231 282 335
#     4  10  22  40  61  83 113 153 196 242 292 347
#     4  10  21  39  63  89 119 155 195 243 298 352
#     4   9  21  39  58  82 112 149 190 237 291 343
#     4  10  20  36  58  82 109 146 187 231 283 339
#     4  10  20  34  56  87 120 151 185 232 288 344
#     4  12  25  40  60  87 118 156 199 243 294 353
#
# _framework density 18.401266
#
# number of rings (size 3 to 8) (size 9 to 14) (size 15 to 20)
#    0.000    1.750    0.000    4.125    1.750    4.500 
#    0.000    0.625    0.000    0.750    0.000    0.000 
#    0.000    0.000    0.000    0.000    0.000    0.000 
#
# Total GULP energy -178680.681074 kJ/mol
# GULP energy per Si atom -5583.771284 kJ/mol
# Density = 1.835938 g / cm^3
# Si number density = 18.401266 Si / 1000 Ang^3
#
#
#
# Elastic Constant Matrix: (Units=GPa)
#
#
# Indices 1 2 3 4 5 6 
#
# 1 71.7363 37.4381 54.0563 0.0000 0.0000 0.0000
# 2 37.4381 68.4829 38.9753 0.0000 0.0000 0.0000
# 3 54.0563 38.9753 102.8997 0.0000 0.0000 0.0000
# 4 0.0000 0.0000 0.0000 32.4483 0.0000 0.0000
# 5 0.0000 0.0000 0.0000 0.0000 9.2013 0.0000
# 6 0.0000 0.0000 0.0000 0.0000 0.0000 27.6050
#
#
#
# Elastic Compliance Matrix: (Units=1/GPa)
#
#
# Indices 1 2 3 4 5 6 
#
# 1 0.026328 -0.008314 -0.010682 0.000000 0.000000 0.000000
# 2 -0.008314 0.021240 -0.003678 0.000000 0.000000 0.000000
# 3 -0.010682 -0.003678 0.016723 0.000000 0.000000 0.000000
# 4 0.000000 0.000000 0.000000 0.030818 0.000000 0.000000
# 5 0.000000 0.000000 0.000000 0.000000 0.108680 0.000000
# 6 0.000000 0.000000 0.000000 0.000000 0.000000 0.036225
#
#
# Mechanical properties :
#
#
# Convention : Reuss Voigt Hill
#
# Bulk Modulus (GPa) = 52.78622 56.00648 54.39635
# Shear Modulus (GPa) = 17.14234 21.36089 19.25162
#
# Velocity S-wave (km/s) = 3.05550 3.41080 3.23803
# Velocity P-wave (km/s) = 6.41845 6.78334 6.60342
#
# Compressibility (1/GPa) = 0.01894434
#
# Stress axis : x y z
#
# Youngs Moduli (GPa) = 37.98243 47.08077 59.79862
#
# Poissons Ratio (x) = 0.39141 0.63877
# Poissons Ratio (y) = 0.31577 0.21993
# Poissons Ratio (z) = 0.40573 0.17315
#
# Static dielectric constant tensor:
#      x y z
#    x 1.672740 0.000000 0.000000 
#    y 0.000000 1.620940 0.000000 
#    z 0.000000 0.000000 1.623920 
# 
# From -- ./inp_files/15034.got.cif
#   From: 2010.05.17/outbox.cif.g08.bks.cpg/sg44_8_cif.got.tgz:15034.got - 2010.06.03 19:37:08.
