data_PCOD9374753
_publ_section_title
;
Structure prediction by ZEFSAII (Michael W. Deem and Ramdas Pophale) SiO2 
 PCOD9374753
Probable space group: I M M 2
;
_chemical_formula_sum "Si O2"
_cell_formula_units_Z 48
_cell_length_a 8.026293
_cell_length_b 7.776538
_cell_length_c 38.535149
_cell_angle_alpha 90.000000
_cell_angle_beta 90.000000
_cell_angle_gamma 90.000000
_cell_volume 2405.239629
_symmetry_space_group_name_H-M "I M M 2"
_symmetry_group_IT_number 44
_symmetry_cell_setting 'orthorhombic'
loop_
_space_group_symop_operation_xyz
x,y,z
-x,-y,z
-x,y,z
x,-y,z
1/2+x,1/2+y,1/2+z
1/2-x,1/2-y,1/2+z
1/2-x,1/2+y,1/2+z
1/2+x,1/2-y,1/2+z
loop_
_atom_site_type_symbol
_atom_site_label
_atom_site_fract_x
_atom_site_fract_y
_atom_site_fract_z
Si Si1 0.198970 0.000000 0.214940
Si Si2 0.200901 0.696248 0.166608
Si Si3 0.695316 0.697838 0.346861
Si Si4 0.820940 0.203948 0.016209
Si Si5 0.000000 0.203454 0.394508
Si Si6 0.500000 0.790993 0.975240
Si Si7 0.190907 0.207549 0.589894
Si Si8 0.698813 0.000000 0.294166
O O1 0.263435 0.170286 0.195356
O O2 0.230471 0.000000 0.255697
O O3 0.000000 0.000000 0.209822
O O4 0.263186 0.500000 0.171163
O O5 0.247763 0.758589 0.128007
O O6 0.000000 0.689254 0.168305
O O7 0.500000 0.732272 0.356931
O O8 0.702726 0.500000 0.335058
O O9 0.831774 0.722326 0.377008
O O10 0.742891 0.831890 0.316697
O O11 0.793772 0.227561 0.057221
O O12 0.000000 0.277812 0.006030
O O13 0.824652 0.000000 0.009440
O O14 0.663545 0.274160 0.995319
O O15 0.000000 0.239890 0.435294
O O16 0.000000 0.000000 0.388224
O O17 0.500000 0.000000 0.977081
O O18 0.000000 0.262864 0.585172
O O19 0.197960 0.000000 0.589110
O O20 0.500000 0.000000 0.290724
#
# Coordination Sequence:
#
# PCOD9374753 Si02
#       8
#     4   8   8   8   4   4   8   4
#     4  10  22  36  56  84 120 160 204 258 316 377
#     4   9  19  36  53  77 115 157 204 254 310 373
#     4  10  22  42  67  96 130 169 215 262 315 382
#     4  10  21  37  58  83 116 159 204 252 309 368
#     4  12  24  40  68  97 131 168 209 269 322 387
#     4  10  22  40  56  86 128 159 207 260 311 379
#     4  10  20  34  55  81 111 150 202 260 309 368
#     4  10  22  40  62  92 128 160 208 265 315 386
#
# _framework density 19.956430999999998
#
# number of rings (size 3 to 8) (size 9 to 14) (size 15 to 20)
#    0.000    2.000    1.667    1.250    2.333    3.667 
#    0.000    1.667    0.000    0.000    0.000    0.000 
#    0.000    0.000    0.000    0.000    0.000    0.000 
#
# Total GULP energy -133992.951218 kJ/mol
# GULP energy per Si atom -5583.039634 kJ/mol
# Density = 1.991101 g / cm^3
# Si number density = 19.956431 Si / 1000 Ang^3
#
#
#
# Elastic Constant Matrix: (Units=GPa)
#
#
# Indices 1 2 3 4 5 6 
#
# 1 103.5062 38.6676 63.2666 0.0000 0.0000 0.0000
# 2 38.6676 82.8216 45.3708 0.0000 0.0000 0.0000
# 3 63.2666 45.3708 145.1847 0.0000 0.0000 0.0000
# 4 0.0000 0.0000 0.0000 28.9351 0.0000 0.0000
# 5 0.0000 0.0000 0.0000 0.0000 30.6484 0.0000
# 6 0.0000 0.0000 0.0000 0.0000 0.0000 9.6811
#
#
#
# Elastic Compliance Matrix: (Units=1/GPa)
#
#
# Indices 1 2 3 4 5 6 
#
# 1 0.014137 -0.003892 -0.004944 0.000000 0.000000 0.000000
# 2 -0.003892 0.015639 -0.003191 0.000000 0.000000 0.000000
# 3 -0.004944 -0.003191 0.010040 0.000000 0.000000 0.000000
# 4 0.000000 0.000000 0.000000 0.034560 0.000000 0.000000
# 5 0.000000 0.000000 0.000000 0.000000 0.032628 0.000000
# 6 0.000000 0.000000 0.000000 0.000000 0.000000 0.103294
#
#
# Mechanical properties :
#
#
# Convention : Reuss Voigt Hill
#
# Bulk Modulus (GPa) = 63.44694 69.56917 66.50806
# Shear Modulus (GPa) = 20.86744 26.13342 23.50043
#
# Velocity S-wave (km/s) = 3.23716 3.62266 3.43532
# Velocity P-wave (km/s) = 6.77008 7.24116 7.00958
#
# Compressibility (1/GPa) = 0.01576120
#
# Stress axis : x y z
#
# Youngs Moduli (GPa) = 70.73482 63.94076 99.60447
#
# Poissons Ratio (x) = 0.24885 0.49248
# Poissons Ratio (y) = 0.27529 0.31789
# Poissons Ratio (z) = 0.34974 0.20407
#
# Static dielectric constant tensor:
#      x y z
#    x 1.712280 0.000000 0.000000 
#    y 0.000000 1.716540 0.000000 
#    z 0.000000 0.000000 1.651630 
# 
# From -- ./inp_files/27062.got.cif
#   From: 2010.05.17/outbox.cif.g08.bks.cpg/sg44_14_cif.got.tgz:27062.got - 2010.06.03 19:37:08.
