data_PCOD9374813
_publ_section_title
;
Structure prediction by ZEFSAII (Michael W. Deem and Ramdas Pophale) SiO2 
 PCOD9374813
Probable space group: I M M 2
;
_chemical_formula_sum "Si O2"
_cell_formula_units_Z 48
_cell_length_a 13.548377
_cell_length_b 18.463556
_cell_length_c 8.787849
_cell_angle_alpha 90.000000
_cell_angle_beta 90.000000
_cell_angle_gamma 90.000000
_cell_volume 2198.291126
_symmetry_space_group_name_H-M "I M M 2"
_symmetry_group_IT_number 44
_symmetry_cell_setting 'orthorhombic'
loop_
_space_group_symop_operation_xyz
x,y,z
-x,-y,z
-x,y,z
x,-y,z
1/2+x,1/2+y,1/2+z
1/2-x,1/2-y,1/2+z
1/2-x,1/2+y,1/2+z
1/2+x,1/2-y,1/2+z
loop_
_atom_site_type_symbol
_atom_site_label
_atom_site_fract_x
_atom_site_fract_y
_atom_site_fract_z
Si Si1 0.293547 0.414562 0.294880
Si Si2 0.381044 0.913954 0.329329
Si Si3 0.253147 0.188601 0.546184
Si Si4 0.390731 0.087229 0.986344
Si Si5 0.618438 0.723992 0.787191
Si Si6 0.382912 0.420165 0.621320
O O1 0.306659 0.500000 0.259524
O O2 0.180634 0.400374 0.345924
O O3 0.350313 0.398787 0.451474
O O4 0.313533 0.361718 0.156296
O O5 0.500000 0.904674 0.344379
O O6 0.321080 0.864283 0.444486
O O7 0.355580 0.891556 0.154927
O O8 0.361784 0.000000 0.352224
O O9 0.327310 0.235019 0.649741
O O10 0.180306 0.236331 0.441483
O O11 0.500000 0.116337 0.960149
O O12 0.397144 0.000000 0.997967
O O13 0.500000 0.736012 0.793977
O O14 0.635931 0.639215 0.748023
O O15 0.500000 0.426410 0.615328
O O16 0.339499 0.500000 0.652401
#
# Coordination Sequence:
#
# PCOD9374813 Si02
#       6
#     8   8   8   8   8   8
#     4  10  20  34  58  91 121 152 194 243 297 361
#     4   9  18  34  60  95 130 163 202 250 308 375
#     4  12  24  41  61  86 122 167 208 257 316 371
#     4   8  15  29  50  80 119 157 190 229 283 350
#     4  11  26  45  64  90 123 162 211 261 312 374
#     4   9  19  39  65  89 116 152 195 245 299 357
#
# _framework density 21.835142999999999
#
# number of rings (size 3 to 8) (size 9 to 14) (size 15 to 20)
#    0.000    2.167    0.000    4.000    0.000    4.667 
#    0.000    5.000    0.000    0.000    0.000    0.000 
#    0.000    0.000    0.000    0.000    0.000    0.000 
#
# Total GULP energy -134087.744911 kJ/mol
# GULP energy per Si atom -5586.989371 kJ/mol
# Density = 2.178545 g / cm^3
# Si number density = 21.835143 Si / 1000 Ang^3
#
#
#
# Elastic Constant Matrix: (Units=GPa)
#
#
# Indices 1 2 3 4 5 6 
#
# 1 104.0361 21.1113 34.3685 0.0000 0.0000 0.0000
# 2 21.1113 66.4967 44.5544 0.0000 0.0000 0.0000
# 3 34.3685 44.5544 87.6632 0.0000 0.0000 0.0000
# 4 0.0000 0.0000 0.0000 48.7152 0.0000 0.0000
# 5 0.0000 0.0000 0.0000 0.0000 6.2986 0.0000
# 6 0.0000 0.0000 0.0000 0.0000 0.0000 19.1195
#
#
#
# Elastic Compliance Matrix: (Units=1/GPa)
#
#
# Indices 1 2 3 4 5 6 
#
# 1 0.011079 -0.000921 -0.003876 0.000000 0.000000 0.000000
# 2 -0.000921 0.022880 -0.011268 0.000000 0.000000 0.000000
# 3 -0.003876 -0.011268 0.018654 0.000000 0.000000 0.000000
# 4 0.000000 0.000000 0.000000 0.020527 0.000000 0.000000
# 5 0.000000 0.000000 0.000000 0.000000 0.158766 0.000000
# 6 0.000000 0.000000 0.000000 0.000000 0.000000 0.052303
#
#
# Mechanical properties :
#
#
# Convention : Reuss Voigt Hill
#
# Bulk Modulus (GPa) = 48.81680 50.91827 49.86754
# Shear Modulus (GPa) = 15.47190 25.37078 20.42134
#
# Velocity S-wave (km/s) = 2.66480 3.41240 3.06151
# Velocity P-wave (km/s) = 5.64568 6.23667 5.94852
#
# Compressibility (1/GPa) = 0.02048475
#
# Stress axis : x y z
#
# Youngs Moduli (GPa) = 90.25916 43.70548 53.60875
#
# Poissons Ratio (x) = 0.04023 0.20777
# Poissons Ratio (y) = 0.08309 0.60406
# Poissons Ratio (z) = 0.34982 0.49247
#
# Static dielectric constant tensor:
#      x y z
#    x 1.803640 0.000000 0.000000 
#    y 0.000000 1.847050 0.000000 
#    z 0.000000 0.000000 1.782110 
# 
# From -- ./inp_files/7118.got.cif
#   From: 2010.05.17/outbox.cif.g08.bks.cpg/sg44_4_cif.got.tgz:7118.got - 2010.06.03 19:37:08.
