data_PCOD9374518
_publ_section_title
;
Structure prediction by ZEFSAII (Michael W. Deem and Ramdas Pophale) SiO2 
 PCOD9374518
Probable space group: I M M 2
;
_chemical_formula_sum "Si O2"
_cell_formula_units_Z 64
_cell_length_a 14.867792
_cell_length_b 8.697306
_cell_length_c 29.117369
_cell_angle_alpha 90.000000
_cell_angle_beta 90.000000
_cell_angle_gamma 90.000000
_cell_volume 3765.159315
_symmetry_space_group_name_H-M "I M M 2"
_symmetry_group_IT_number 44
_symmetry_cell_setting 'orthorhombic'
loop_
_space_group_symop_operation_xyz
x,y,z
-x,-y,z
-x,y,z
x,-y,z
1/2+x,1/2+y,1/2+z
1/2-x,1/2-y,1/2+z
1/2-x,1/2+y,1/2+z
1/2+x,1/2-y,1/2+z
loop_
_atom_site_type_symbol
_atom_site_label
_atom_site_fract_x
_atom_site_fract_y
_atom_site_fract_z
Si Si1 0.104004 0.185661 0.032130
Si Si2 0.105993 0.183039 0.868293
Si Si3 0.606276 0.317637 0.811404
Si Si4 0.896500 0.316609 0.410854
Si Si5 0.219592 0.187511 0.222410
Si Si6 0.102039 0.314241 0.767710
Si Si7 0.222827 0.317588 0.951108
Si Si8 0.602651 0.687379 0.637380
O O1 0.122298 0.232606 0.084899
O O2 0.000000 0.227826 0.021376
O O3 0.109055 0.000000 0.029616
O O4 0.172751 0.255881 0.996175
O O5 0.126029 0.250131 0.817979
O O6 0.166213 0.257672 0.907419
O O7 0.000000 0.213067 0.877407
O O8 0.119628 0.000000 0.868309
O O9 0.500000 0.297827 0.802077
O O10 0.622824 0.500000 0.818370
O O11 0.627744 0.232453 0.858751
O O12 0.662668 0.266261 0.767360
O O13 0.892957 0.500000 0.414280
O O14 0.823794 0.244226 0.444673
O O15 0.000000 0.266152 0.418692
O O16 0.322275 0.234040 0.231462
O O17 0.171999 0.241862 0.175934
O O18 0.217126 0.000000 0.221276
O O19 0.103181 0.500000 0.770437
O O20 0.000000 0.265406 0.756857
O O21 0.223369 0.500000 0.951116
O O22 0.500000 0.733449 0.648650
O O23 0.603472 0.500000 0.637821
#
# Coordination Sequence:
#
# PCOD9374518 Si02
#       8
#     8   8   8   8   8   8   8   8
#     4   9  18  33  52  73  97 124 156 198 246 293
#     4  10  20  33  49  70  98 131 166 203 242 287
#     4   9  16  26  43  69  98 124 154 194 237 281
#     4  10  21  36  52  70  96 130 166 203 239 277
#     4   9  15  24  42  67  93 123 158 195 235 277
#     4   9  17  28  42  64  96 130 162 196 234 277
#     4  12  23  33  50  73  97 127 161 198 242 293
#     4   8  14  26  46  71  95 119 151 193 239 283
#
# _framework density 16.997952999999999
#
# number of rings (size 3 to 8) (size 9 to 14) (size 15 to 20)
#    0.000    2.500    0.000    4.125    0.000    5.750 
#    0.000    0.000    0.000    2.250    0.000    5.250 
#    0.000    0.000    0.000    0.000    0.000    0.000 
#
# Total GULP energy -178531.051674 kJ/mol
# GULP energy per Si atom -5579.095365 kJ/mol
# Density = 1.695926 g / cm^3
# Si number density = 16.997953 Si / 1000 Ang^3
#
#
#
# Elastic Constant Matrix: (Units=GPa)
#
#
# Indices 1 2 3 4 5 6 
#
# 1 120.0821 34.1871 102.3168 0.0000 0.0000 0.0000
# 2 34.1871 24.7920 27.0006 0.0000 0.0000 0.0000
# 3 102.3168 27.0006 116.2287 0.0000 0.0000 0.0000
# 4 0.0000 0.0000 0.0000 18.5721 0.0000 0.0000
# 5 0.0000 0.0000 0.0000 0.0000 33.0147 0.0000
# 6 0.0000 0.0000 0.0000 0.0000 0.0000 16.2148
#
#
#
# Elastic Compliance Matrix: (Units=1/GPa)
#
#
# Indices 1 2 3 4 5 6 
#
# 1 0.041406 -0.023293 -0.031039 0.000000 0.000000 0.000000
# 2 -0.023293 0.067100 0.004917 0.000000 0.000000 0.000000
# 3 -0.031039 0.004917 0.034785 0.000000 0.000000 0.000000
# 4 0.000000 0.000000 0.000000 0.053844 0.000000 0.000000
# 5 0.000000 0.000000 0.000000 0.000000 0.030290 0.000000
# 6 0.000000 0.000000 0.000000 0.000000 0.000000 0.061672
#
#
# Mechanical properties :
#
#
# Convention : Reuss Voigt Hill
#
# Bulk Modulus (GPa) = 22.49103 65.34575 43.91839
# Shear Modulus (GPa) = 12.41473 20.06686 16.24080
#
# Velocity S-wave (km/s) = 2.70546 3.43963 3.09440
# Velocity P-wave (km/s) = 4.79788 7.36896 6.21777
#
# Compressibility (1/GPa) = 0.04446217
#
# Stress axis : x y z
#
# Youngs Moduli (GPa) = 24.15113 14.90303 28.74796
#
# Poissons Ratio (x) = 0.34714 0.89230
# Poissons Ratio (y) = 0.56255 -0.14136
# Poissons Ratio (z) = 0.74962 -0.07328
#
# Static dielectric constant tensor:
#      x y z
#    x 1.594910 0.000000 0.000000 
#    y 0.000000 1.576260 0.000000 
#    z 0.000000 0.000000 1.551750 
# 
# From -- ./inp_files/27308.got.cif
#   From: 2010.05.17/outbox.cif.g08.bks.cpg/sg44_14_cif.got.tgz:27308.got - 2010.06.03 19:37:08.
