data_PCOD9374931
_publ_section_title
;
Structure prediction by ZEFSAII (Michael W. Deem and Ramdas Pophale) SiO2 
 PCOD9374931
Probable space group: I M M 2
;
_chemical_formula_sum "Si O2"
_cell_formula_units_Z 56
_cell_length_a 8.864983
_cell_length_b 19.989030
_cell_length_c 15.545168
_cell_angle_alpha 90.000000
_cell_angle_beta 90.000000
_cell_angle_gamma 90.000000
_cell_volume 2754.641251
_symmetry_space_group_name_H-M "I M M 2"
_symmetry_group_IT_number 44
_symmetry_cell_setting 'orthorhombic'
loop_
_space_group_symop_operation_xyz
x,y,z
-x,-y,z
-x,y,z
x,-y,z
1/2+x,1/2+y,1/2+z
1/2-x,1/2-y,1/2+z
1/2-x,1/2+y,1/2+z
1/2+x,1/2-y,1/2+z
loop_
_atom_site_type_symbol
_atom_site_label
_atom_site_fract_x
_atom_site_fract_y
_atom_site_fract_z
Si Si1 0.176976 0.255456 0.640450
Si Si2 0.174137 0.110990 0.728875
Si Si3 0.165629 0.579833 0.882381
Si Si4 0.825420 0.193927 0.303502
Si Si5 0.819187 0.783204 0.957181
Si Si6 0.835133 0.924140 0.539881
Si Si7 0.320876 0.077138 0.905323
O O1 0.191311 0.186104 0.693476
O O2 0.256557 0.303793 0.708185
O O3 0.253741 0.254740 0.547068
O O4 0.000000 0.269947 0.629658
O O5 0.197129 0.072750 0.640023
O O6 0.282156 0.088982 0.804689
O O7 0.000000 0.101911 0.757957
O O8 0.165704 0.500000 0.870569
O O9 0.297037 0.618414 0.834463
O O10 0.198815 0.600030 0.981558
O O11 0.000000 0.604865 0.856400
O O12 0.744334 0.242096 0.374338
O O13 0.000000 0.212513 0.301921
O O14 0.764192 0.860722 0.950265
O O15 0.000000 0.780190 0.955666
O O16 0.000000 0.889294 0.529160
O O17 0.853653 0.000000 0.509717
O O18 0.500000 0.083710 0.919801
O O19 0.277246 0.000000 0.927438
#
# Coordination Sequence:
#
# PCOD9374931 Si02
#       7
#     8   8   8   8   8   8   8
#     4  11  23  40  64  95 128 164 210 266 326 390
#     4  10  20  35  58  88 121 160 205 256 317 385
#     4  10  21  37  58  86 121 161 206 258 317 380
#     4  12  24  41  65  93 127 166 211 265 320 383
#     4  12  25  43  67  96 130 172 220 273 328 390
#     4   9  17  30  50  80 118 157 197 241 298 370
#     4  11  24  41  63  92 129 173 220 274 334 395
#
# _framework density 20.329325000000001
#
# number of rings (size 3 to 8) (size 9 to 14) (size 15 to 20)
#    0.000    1.286    1.429    5.143    0.000    4.857 
#    0.000    2.143    0.000    4.286    0.000    0.000 
#    0.000    0.000    0.000    0.000    0.000    0.000 
#
# Total GULP energy -156181.717377 kJ/mol
# GULP energy per Si atom -5577.918478 kJ/mol
# Density = 2.028305 g / cm^3
# Si number density = 20.329325 Si / 1000 Ang^3
#
#
#
# Elastic Constant Matrix: (Units=GPa)
#
#
# Indices 1 2 3 4 5 6 
#
# 1 107.6992 26.9771 33.2624 0.0000 0.0000 0.0000
# 2 26.9771 65.9440 12.5467 0.0000 0.0000 0.0000
# 3 33.2624 12.5467 78.1548 0.0000 0.0000 0.0000
# 4 0.0000 0.0000 0.0000 38.0396 0.0000 0.0000
# 5 0.0000 0.0000 0.0000 0.0000 35.3540 0.0000
# 6 0.0000 0.0000 0.0000 0.0000 0.0000 26.3396
#
#
#
# Elastic Compliance Matrix: (Units=1/GPa)
#
#
# Indices 1 2 3 4 5 6 
#
# 1 0.011598 -0.003925 -0.004306 0.000000 0.000000 0.000000
# 2 -0.003925 0.016971 -0.001054 0.000000 0.000000 0.000000
# 3 -0.004306 -0.001054 0.014797 0.000000 0.000000 0.000000
# 4 0.000000 0.000000 0.000000 0.026288 0.000000 0.000000
# 5 0.000000 0.000000 0.000000 0.000000 0.028285 0.000000
# 6 0.000000 0.000000 0.000000 0.000000 0.000000 0.037966
#
#
# Mechanical properties :
#
#
# Convention : Reuss Voigt Hill
#
# Bulk Modulus (GPa) = 40.32997 44.15228 42.24112
# Shear Modulus (GPa) = 30.72367 31.88076 31.30222
#
# Velocity S-wave (km/s) = 3.89176 3.96437 3.92823
# Velocity P-wave (km/s) = 6.33054 6.53610 6.43414
#
# Compressibility (1/GPa) = 0.02479546
#
# Stress axis : x y z
#
# Youngs Moduli (GPa) = 86.21960 58.92491 67.58174
#
# Poissons Ratio (x) = 0.23131 0.29101
# Poissons Ratio (y) = 0.33845 0.07121
# Poissons Ratio (z) = 0.37126 0.06209
#
# Static dielectric constant tensor:
#      x y z
#    x 1.741820 0.000000 0.000000 
#    y 0.000000 1.593150 0.000000 
#    z 0.000000 0.000000 1.718170 
# 
# From -- ./inp_files/16458.got.cif
#   From: 2010.05.17/outbox.cif.g08.bks.cpg/sg44_9_cif.got.tgz:16458.got - 2010.06.03 19:37:08.
