data_PCOD9374784
_publ_section_title
;
Structure prediction by ZEFSAII (Michael W. Deem and Ramdas Pophale) SiO2 
 PCOD9374784
Probable space group: I M M 2
;
_chemical_formula_sum "Si O2"
_cell_formula_units_Z 48
_cell_length_a 8.907180
_cell_length_b 25.357309
_cell_length_c 12.546392
_cell_angle_alpha 90.000000
_cell_angle_beta 90.000000
_cell_angle_gamma 90.000000
_cell_volume 2833.754640
_symmetry_space_group_name_H-M "I M M 2"
_symmetry_group_IT_number 44
_symmetry_cell_setting 'orthorhombic'
loop_
_space_group_symop_operation_xyz
x,y,z
-x,-y,z
-x,y,z
x,-y,z
1/2+x,1/2+y,1/2+z
1/2-x,1/2-y,1/2+z
1/2-x,1/2+y,1/2+z
1/2+x,1/2-y,1/2+z
loop_
_atom_site_type_symbol
_atom_site_label
_atom_site_fract_x
_atom_site_fract_y
_atom_site_fract_z
Si Si1 0.178955 0.670763 0.175950
Si Si2 0.179026 0.438006 0.791673
Si Si3 0.179891 0.060848 0.064227
Si Si4 0.824136 0.133522 0.472332
Si Si5 0.320302 0.653702 0.405415
Si Si6 0.176196 0.248582 0.525028
O O1 0.242223 0.656668 0.290910
O O2 0.000000 0.673701 0.175938
O O3 0.237317 0.630035 0.085205
O O4 0.250134 0.725924 0.133396
O O5 0.215200 0.500000 0.809219
O O6 0.240212 0.424077 0.674515
O O7 0.254141 0.402089 0.881367
O O8 0.000000 0.431965 0.794750
O O9 0.000000 0.063713 0.080720
O O10 0.218587 0.000000 0.039984
O O11 0.218542 0.100562 0.969600
O O12 0.812182 0.196548 0.449169
O O13 0.000000 0.121793 0.486936
O O14 0.500000 0.656360 0.392715
O O15 0.262565 0.702710 0.475547
O O16 0.000000 0.260117 0.539799
#
# Coordination Sequence:
#
# PCOD9374784 Si02
#       6
#     8   8   8   8   8   8
#     4  10  20  36  56  79 112 146 182 229 277 325
#     4  10  20  34  56  85 114 145 184 230 279 330
#     4   9  20  38  57  79 109 145 187 232 276 328
#     4   9  19  36  56  79 110 146 184 226 273 325
#     4  11  21  35  58  84 111 147 188 227 279 335
#     4   9  20  36  54  80 111 143 182 225 272 327
#
# _framework density 16.938656999999999
#
# number of rings (size 3 to 8) (size 9 to 14) (size 15 to 20)
#    1.000    1.333    0.000    3.000    0.000    3.667 
#    0.000    2.500    0.000    3.000    0.000    0.000 
#    0.000    0.000    0.000    0.000    0.000    0.000 
#
# Total GULP energy -133699.151529 kJ/mol
# GULP energy per Si atom -5570.797980 kJ/mol
# Density = 1.690010 g / cm^3
# Si number density = 16.938657 Si / 1000 Ang^3
#
#
#
# Elastic Constant Matrix: (Units=GPa)
#
#
# Indices 1 2 3 4 5 6 
#
# 1 89.9519 46.8612 62.8074 0.0000 0.0000 0.0000
# 2 46.8612 68.2080 70.6461 0.0000 0.0000 0.0000
# 3 62.8074 70.6461 134.6180 0.0001 0.0000 0.0000
# 4 0.0000 0.0000 0.0001 30.4090 0.0000 0.0000
# 5 0.0000 0.0000 0.0000 0.0000 31.3123 0.0000
# 6 0.0000 0.0000 0.0000 0.0000 0.0000 25.2945
#
#
#
# Elastic Compliance Matrix: (Units=1/GPa)
#
#
# Indices 1 2 3 4 5 6 
#
# 1 0.018368 -0.008201 -0.004266 0.000000 0.000000 0.000000
# 2 -0.008201 0.035781 -0.014951 0.000000 0.000000 0.000000
# 3 -0.004266 -0.014951 0.017265 0.000000 0.000000 0.000000
# 4 0.000000 0.000000 0.000000 0.032885 0.000000 0.000000
# 5 0.000000 0.000000 0.000000 0.000000 0.031936 0.000000
# 6 0.000000 0.000000 0.000000 0.000000 0.000000 0.039534
#
#
# Mechanical properties :
#
#
# Convention : Reuss Voigt Hill
#
# Bulk Modulus (GPa) = 60.32216 72.60081 66.46149
# Shear Modulus (GPa) = 21.17458 24.90073 23.03766
#
# Velocity S-wave (km/s) = 3.53948 3.83829 3.69191
# Velocity P-wave (km/s) = 7.23832 7.91185 7.58257
#
# Compressibility (1/GPa) = 0.01657766
#
# Stress axis : x y z
#
# Youngs Moduli (GPa) = 54.44221 27.94777 57.92047
#
# Poissons Ratio (x) = 0.22920 0.24709
# Poissons Ratio (y) = 0.44648 0.86598
# Poissons Ratio (z) = 0.23225 0.41785
#
# Static dielectric constant tensor:
#      x y z
#    x 1.561620 0.000000 0.000000 
#    y 0.000000 1.571000 0.000000 
#    z 0.000000 0.000000 1.546450 
# 
# From -- ./inp_files/11211.got.cif
#   From: 2010.05.17/outbox.cif.g08.bks.cpg/sg44_6_cif.got.tgz:11211.got - 2010.06.03 19:37:08.
