data_PCOD9374616
_publ_section_title
;
Structure prediction by ZEFSAII (Michael W. Deem and Ramdas Pophale) SiO2 
 PCOD9374616
Probable space group: I M M 2
;
_chemical_formula_sum "Si O2"
_cell_formula_units_Z 58
_cell_length_a 7.415368
_cell_length_b 16.119448
_cell_length_c 19.468813
_cell_angle_alpha 90.000000
_cell_angle_beta 90.000000
_cell_angle_gamma 90.000000
_cell_volume 2327.139125
_symmetry_space_group_name_H-M "I M M 2"
_symmetry_group_IT_number 44
_symmetry_cell_setting 'orthorhombic'
loop_
_space_group_symop_operation_xyz
x,y,z
-x,-y,z
-x,y,z
x,-y,z
1/2+x,1/2+y,1/2+z
1/2-x,1/2-y,1/2+z
1/2-x,1/2+y,1/2+z
1/2+x,1/2-y,1/2+z
loop_
_atom_site_type_symbol
_atom_site_label
_atom_site_fract_x
_atom_site_fract_y
_atom_site_fract_z
Si Si1 0.717889 0.406164 0.486810
Si Si2 0.220908 0.774695 0.871620
Si Si3 0.218036 0.874902 0.147623
Si Si4 0.705902 0.090872 0.359719
Si Si5 0.794784 0.089421 0.768195
Si Si6 0.714847 0.589701 0.017256
Si Si7 0.292549 0.813518 0.644583
Si Si8 0.500000 0.000000 0.208697
O O1 0.500000 0.406288 0.482201
O O2 0.776814 0.500000 0.464411
O O3 0.775351 0.326600 0.440543
O O4 0.761653 0.396483 0.567614
O O5 0.286138 0.682500 0.850210
O O6 0.282544 0.836177 0.811828
O O7 0.000000 0.766015 0.874582
O O8 0.267463 0.779108 0.158315
O O9 0.339568 0.929176 0.196913
O O10 0.000000 0.885616 0.156078
O O11 0.500000 0.086942 0.332862
O O12 0.699960 0.091273 0.442678
O O13 0.787328 0.000000 0.341406
O O14 0.802751 0.117475 0.689747
O O15 0.000000 0.083130 0.794033
O O16 0.708854 0.000000 0.776025
O O17 0.500000 0.593539 0.008247
O O18 0.761036 0.500000 0.049203
O O19 0.774112 0.663865 0.065147
O O20 0.500000 0.819232 0.663619
#
# Coordination Sequence:
#
# PCOD9374616 Si02
#       8
#     8   8   8   8   8   8   8   2
#     4   9  15  28  51  78 112 147 184 230 281 344
#     4   9  17  31  54  80 107 147 194 235 286 347
#     4  10  22  38  58  88 121 158 197 243 297 362
#     4   9  17  31  53  79 110 145 185 230 285 348
#     4  10  21  37  58  82 111 147 193 246 293 346
#     4  10  20  33  52  83 118 149 186 235 289 347
#     4  11  23  38  58  79 112 152 192 238 291 351
#     4  12  22  36  64  86 122 160 194 240 308 352
#
# _framework density 24.923304000000002
#
# number of rings (size 3 to 8) (size 9 to 14) (size 15 to 20)
#    0.000    2.207    0.690    2.690    1.931    6.621 
#    0.000    0.690    3.034    0.000    0.000    0.000 
#    0.000    0.000    0.000    0.000    0.000    0.000 
#
# Total GULP energy -161749.564902 kJ/mol
# GULP energy per Si atom -5577.571204 kJ/mol
# Density = 2.486658 g / cm^3
# Si number density = 24.923304 Si / 1000 Ang^3
#
#
#
# Elastic Constant Matrix: (Units=GPa)
#
#
# Indices 1 2 3 4 5 6 
#
# 1 90.0488 28.0022 0.0459 0.0000 0.0000 0.0000
# 2 28.0022 235.4173 33.4115 0.0000 0.0000 0.0000
# 3 0.0459 33.4115 72.6103 0.0000 0.0000 0.0000
# 4 0.0000 0.0000 0.0000 2.0425 0.0000 0.0000
# 5 0.0000 0.0000 0.0000 0.0000 11.2749 0.0000
# 6 0.0000 0.0000 0.0000 0.0000 0.0000 203.7835
#
#
#
# Elastic Compliance Matrix: (Units=1/GPa)
#
#
# Indices 1 2 3 4 5 6 
#
# 1 0.011562 -0.001470 0.000669 0.000000 0.000000 0.000000
# 2 -0.001470 0.004732 -0.002176 0.000000 0.000000 0.000000
# 3 0.000669 -0.002176 0.014773 0.000000 0.000000 0.000000
# 4 0.000000 0.000000 0.000000 0.489599 0.000000 0.000000
# 5 0.000000 0.000000 0.000000 0.000000 0.088693 0.000000
# 6 0.000000 0.000000 0.000000 0.000000 0.000000 0.004907
#
#
# Mechanical properties :
#
#
# Convention : Reuss Voigt Hill
#
# Bulk Modulus (GPa) = 39.82157 57.88840 48.85498
# Shear Modulus (GPa) = 7.95431 65.86129 36.90780
#
# Velocity S-wave (km/s) = 1.78842 5.14616 3.85236
# Velocity P-wave (km/s) = 4.50299 7.65426 6.27951
#
# Compressibility (1/GPa) = 0.02511202
#
# Stress axis : x y z
#
# Youngs Moduli (GPa) = 86.49063 211.34843 67.69042
#
# Poissons Ratio (x) = 0.31073 -0.04530
# Poissons Ratio (y) = 0.12716 0.14731
# Poissons Ratio (z) = -0.05788 0.45995
#
# Static dielectric constant tensor:
#      x y z
#    x 1.984380 0.000000 0.000000 
#    y 0.000000 2.023880 0.000000 
#    z 0.000000 0.000000 1.998240 
# 
# From -- ./inp_files/25038.got.cif
#   From: 2010.05.17/outbox.cif.g08.bks.cpg/sg44_13_cif.got.tgz:25038.got - 2010.06.03 19:37:08.
