data_PCOD9374620
_publ_section_title
;
Structure prediction by ZEFSAII (Michael W. Deem and Ramdas Pophale) SiO2 
 PCOD9374620
Probable space group: I M M 2
;
_chemical_formula_sum "Si O2"
_cell_formula_units_Z 64
_cell_length_a 18.380376
_cell_length_b 28.463941
_cell_length_c 5.413387
_cell_angle_alpha 90.000000
_cell_angle_beta 90.000000
_cell_angle_gamma 90.000000
_cell_volume 2832.164648
_symmetry_space_group_name_H-M "I M M 2"
_symmetry_group_IT_number 44
_symmetry_cell_setting 'orthorhombic'
loop_
_space_group_symop_operation_xyz
x,y,z
-x,-y,z
-x,y,z
x,-y,z
1/2+x,1/2+y,1/2+z
1/2-x,1/2-y,1/2+z
1/2-x,1/2+y,1/2+z
1/2+x,1/2-y,1/2+z
loop_
_atom_site_type_symbol
_atom_site_label
_atom_site_fract_x
_atom_site_fract_y
_atom_site_fract_z
Si Si1 0.224718 0.174004 0.317040
Si Si2 0.646916 0.111548 0.165658
Si Si3 0.656927 0.056052 0.660885
Si Si4 0.423704 0.448977 0.632086
Si Si5 0.824855 0.052970 0.749599
Si Si6 0.914834 0.285377 0.589692
Si Si7 0.832829 0.262604 0.079222
Si Si8 0.080835 0.131818 0.516754
O O1 0.269672 0.131190 0.196160
O O2 0.213355 0.215381 0.118520
O O3 0.278016 0.194533 0.526576
O O4 0.145510 0.165787 0.433825
O O5 0.629228 0.082604 0.415607
O O6 0.600694 0.159328 0.138852
O O7 0.635508 0.080335 0.920398
O O8 0.744706 0.061863 0.660177
O O9 0.641222 0.000000 0.658571
O O10 0.500000 0.448758 0.473030
O O11 0.429600 0.500000 0.756088
O O12 0.340629 0.449790 0.538918
O O13 0.428857 0.402598 0.786658
O O14 0.880717 0.095040 0.699248
O O15 0.845377 0.000000 0.669784
O O16 0.877378 0.272104 0.329594
O O17 0.000000 0.276103 0.573140
O O18 0.881310 0.259814 0.831303
O O19 0.000000 0.149720 0.587777
#
# Coordination Sequence:
#
# PCOD9374620 Si02
#       8
#     8   8   8   8   8   8   8   8
#     4  11  23  44  67  97 132 178 239 272 353 416
#     4  11  22  41  69  97 133 179 224 285 332 415
#     4  11  23  38  62  98 136 176 227 283 337 395
#     4   9  18  33  51  75 115 168 220 266 317 374
#     4  10  20  33  53  80 120 170 221 271 315 375
#     4  11  25  46  76 108 137 175 231 289 364 436
#     4  11  25  45  73 102 139 181 225 297 352 430
#     4  11  22  36  56  86 126 168 216 276 325 384
#
# _framework density 22.597556000000001
#
# number of rings (size 3 to 8) (size 9 to 14) (size 15 to 20)
#    0.000    1.375    1.250    5.250    0.000    3.250 
#    4.500    0.000    0.000    2.250    0.000    0.000 
#    0.000    0.000    0.000    0.000    0.000    0.000 
#
# Total GULP energy -178296.698394 kJ/mol
# GULP energy per Si atom -5571.771825 kJ/mol
# Density = 2.254612 g / cm^3
# Si number density = 22.597556 Si / 1000 Ang^3
#
#
#
# Elastic Constant Matrix: (Units=GPa)
#
#
# Indices 1 2 3 4 5 6 
#
# 1 64.4895 2.9489 18.4026 0.0000 0.0000 0.0000
# 2 2.9489 78.5045 34.9860 0.0000 0.0001 0.0000
# 3 18.4026 34.9860 130.0616 0.0000 -0.0009 -0.0001
# 4 0.0000 0.0000 0.0000 38.3086 0.0000 0.0000
# 5 0.0000 0.0001 -0.0009 0.0000 27.6960 -0.0001
# 6 0.0000 0.0000 -0.0001 0.0000 -0.0001 18.3183
#
#
#
# Elastic Compliance Matrix: (Units=1/GPa)
#
#
# Indices 1 2 3 4 5 6 
#
# 1 0.016174 0.000468 -0.002415 0.000000 0.000000 0.000000
# 2 0.000468 0.014487 -0.003963 0.000000 0.000000 0.000000
# 3 -0.002415 -0.003963 0.009096 0.000000 0.000000 0.000000
# 4 0.000000 0.000000 0.000000 0.026104 0.000000 0.000000
# 5 0.000000 0.000000 0.000000 0.000000 0.036106 0.000000
# 6 0.000000 0.000000 0.000000 0.000000 0.000000 0.054590
#
#
# Mechanical properties :
#
#
# Convention : Reuss Voigt Hill
#
# Bulk Modulus (GPa) = 35.79262 42.85898 39.32580
# Shear Modulus (GPa) = 28.13909 31.31245 29.72577
#
# Velocity S-wave (km/s) = 3.53261 3.72648 3.63084
# Velocity P-wave (km/s) = 5.70198 6.12559 5.91758
#
# Compressibility (1/GPa) = 0.02793872
#
# Stress axis : x y z
#
# Youngs Moduli (GPa) = 61.82770 69.02872 109.93398
#
# Poissons Ratio (x) = -0.03234 0.26544
# Poissons Ratio (y) = -0.02896 0.43569
# Poissons Ratio (z) = 0.14928 0.27357
#
# Static dielectric constant tensor:
#      x y z
#    x 1.859970 0.000000 0.000000 
#    y 0.000000 1.863060 0.000000 
#    z 0.000000 0.000000 1.988230 
# 
# From -- ./inp_files/2533.got.cif
#   From: 2010.05.17/outbox.cif.g08.bks.cpg/sg44_2_cif.got.tgz:2533.got - 2010.06.03 19:37:08.
