data_PCOD9374142
_publ_section_title
;
Structure prediction by ZEFSAII (Michael W. Deem and Ramdas Pophale) SiO2 
 PCOD9374142
Probable space group: I M M 2
;
_chemical_formula_sum "Si O2"
_cell_formula_units_Z 48
_cell_length_a 7.567570
_cell_length_b 18.120042
_cell_length_c 17.879985
_cell_angle_alpha 90.000000
_cell_angle_beta 90.000000
_cell_angle_gamma 90.000000
_cell_volume 2451.787333
_symmetry_space_group_name_H-M "I M M 2"
_symmetry_group_IT_number 44
_symmetry_cell_setting 'orthorhombic'
loop_
_space_group_symop_operation_xyz
x,y,z
-x,-y,z
-x,y,z
x,-y,z
1/2+x,1/2+y,1/2+z
1/2-x,1/2-y,1/2+z
1/2-x,1/2+y,1/2+z
1/2+x,1/2-y,1/2+z
loop_
_atom_site_type_symbol
_atom_site_label
_atom_site_fract_x
_atom_site_fract_y
_atom_site_fract_z
Si Si1 0.285579 0.914851 0.621650
Si Si2 0.797108 0.343843 0.968176
Si Si3 0.000000 0.089884 0.196417
Si Si4 0.784359 0.585495 0.289693
Si Si5 0.285857 0.823282 0.933048
Si Si6 0.000000 0.912047 0.366057
Si Si7 0.295351 0.088468 0.081244
O O1 0.500000 0.914316 0.624154
O O2 0.234300 0.863369 0.552479
O O3 0.226472 0.894238 0.705449
O O4 0.231674 0.000000 0.607198
O O5 0.786013 0.257489 0.950180
O O6 0.000000 0.368980 0.961559
O O7 0.670731 0.384507 0.910312
O O8 0.000000 0.116952 0.281074
O O9 0.170339 0.112878 0.148714
O O10 0.000000 0.000000 0.198895
O O11 0.733199 0.500000 0.303584
O O12 0.725399 0.639395 0.355722
O O13 0.000000 0.586437 0.290412
O O14 0.500000 0.817747 0.929881
O O15 0.241183 0.875267 0.003134
O O16 0.000000 0.000000 0.364182
O O17 0.500000 0.106778 0.095654
O O18 0.281449 0.000000 0.074235
#
# Coordination Sequence:
#
# PCOD9374142 Si02
#       7
#     8   8   4   8   8   4   8
#     4   8  15  31  56  84 109 142 194 242 286 344
#     4  11  23  39  58  87 120 154 193 242 301 355
#     4   9  20  38  60  87 111 144 200 250 295 346
#     4   8  14  28  55  87 116 152 197 241 286 344
#     4  10  19  34  55  86 124 159 194 235 287 354
#     4  11  24  44  66  85 110 150 202 254 298 350
#     4   9  18  34  58  87 119 156 198 241 287 347
#
# _framework density 19.577555
#
# number of rings (size 3 to 8) (size 9 to 14) (size 15 to 20)
#    0.000    2.667    0.833    2.000    1.167    3.667 
#    3.000    1.667    1.833    0.000    0.000    0.000 
#    0.000    0.000    0.000    0.000    0.000    0.000 
#
# Total GULP energy -133949.088475 kJ/mol
# GULP energy per Si atom -5581.212020 kJ/mol
# Density = 1.953300 g / cm^3
# Si number density = 19.577555 Si / 1000 Ang^3
#
#
#
# Elastic Constant Matrix: (Units=GPa)
#
#
# Indices 1 2 3 4 5 6 
#
# 1 74.5758 25.3751 58.4436 0.0000 0.0000 0.0000
# 2 25.3751 71.5533 85.3617 0.0000 0.0000 0.0000
# 3 58.4436 85.3617 216.4390 0.0000 0.0000 0.0000
# 4 0.0000 0.0000 0.0000 13.0396 0.0000 0.0000
# 5 0.0000 0.0000 0.0000 0.0000 23.1599 0.0000
# 6 0.0000 0.0000 0.0000 0.0000 0.0000 8.4567
#
#
#
# Elastic Compliance Matrix: (Units=1/GPa)
#
#
# Indices 1 2 3 4 5 6 
#
# 1 0.017050 -0.001046 -0.004191 0.000000 0.000000 0.000000
# 2 -0.001046 0.026458 -0.010152 0.000000 0.000000 0.000000
# 3 -0.004191 -0.010152 0.009756 0.000000 0.000000 0.000000
# 4 0.000000 0.000000 0.000000 0.076690 0.000000 0.000000
# 5 0.000000 0.000000 0.000000 0.000000 0.043178 0.000000
# 6 0.000000 0.000000 0.000000 0.000000 0.000000 0.118249
#
#
# Mechanical properties :
#
#
# Convention : Reuss Voigt Hill
#
# Bulk Modulus (GPa) = 44.47590 77.88098 61.17844
# Shear Modulus (GPa) = 15.16735 21.82375 18.49555
#
# Velocity S-wave (km/s) = 2.78642 3.34238 3.07698
# Velocity P-wave (km/s) = 5.75494 7.40017 6.62879
#
# Compressibility (1/GPa) = 0.02248409
#
# Stress axis : x y z
#
# Youngs Moduli (GPa) = 58.65190 37.79534 102.50170
#
# Poissons Ratio (x) = 0.03955 0.42959
# Poissons Ratio (y) = 0.06138 1.04063
# Poissons Ratio (z) = 0.24582 0.38371
#
# Static dielectric constant tensor:
#      x y z
#    x 1.724480 0.000000 0.000000 
#    y 0.000000 1.629960 0.000000 
#    z 0.000000 0.000000 1.672830 
# 
# From -- ./inp_files/16183.got.cif
#   From: 2010.05.17/outbox.cif.g08.bks.cpg/sg44_9_cif.got.tgz:16183.got - 2010.06.03 19:37:08.
