data_PCOD9374549
_publ_section_title
;
Structure prediction by ZEFSAII (Michael W. Deem and Ramdas Pophale) SiO2 
 PCOD9374549
Probable space group: I M M 2
;
_chemical_formula_sum "Si O2"
_cell_formula_units_Z 64
_cell_length_a 27.682452
_cell_length_b 8.839991
_cell_length_c 15.128752
_cell_angle_alpha 90.000000
_cell_angle_beta 90.000000
_cell_angle_gamma 90.000000
_cell_volume 3702.196638
_symmetry_space_group_name_H-M "I M M 2"
_symmetry_group_IT_number 44
_symmetry_cell_setting 'orthorhombic'
loop_
_space_group_symop_operation_xyz
x,y,z
-x,-y,z
-x,y,z
x,-y,z
1/2+x,1/2+y,1/2+z
1/2-x,1/2-y,1/2+z
1/2-x,1/2+y,1/2+z
1/2+x,1/2-y,1/2+z
loop_
_atom_site_type_symbol
_atom_site_label
_atom_site_fract_x
_atom_site_fract_y
_atom_site_fract_z
Si Si1 0.359797 0.818266 0.216310
Si Si2 0.054935 0.316020 0.586877
Si Si3 0.216174 0.680643 0.396329
Si Si4 0.669515 0.319733 0.396105
Si Si5 0.442695 0.819494 0.885579
Si Si6 0.168149 0.320173 0.085310
Si Si7 0.138357 0.820189 0.265483
Si Si8 0.717202 0.319851 0.086451
O O1 0.406383 0.768459 0.159407
O O2 0.358591 0.752539 0.314481
O O3 0.313573 0.756535 0.163222
O O4 0.358477 0.000000 0.218968
O O5 0.054372 0.500000 0.586382
O O6 0.068590 0.271639 0.486721
O O7 0.000000 0.265773 0.604547
O O8 0.209213 0.500000 0.397679
O O9 0.273090 0.712030 0.382430
O O10 0.183232 0.752259 0.320936
O O11 0.203009 0.749371 0.491841
O O12 0.663650 0.500000 0.397573
O O13 0.655501 0.249974 0.490415
O O14 0.500000 0.796583 0.872249
O O15 0.433280 0.000000 0.878584
O O16 0.409457 0.732937 0.816881
O O17 0.160723 0.500000 0.084327
O O18 0.140701 0.245738 0.166935
O O19 0.225648 0.292219 0.098638
O O20 0.141800 0.000000 0.263553
O O21 0.709310 0.500000 0.086077
#
# Coordination Sequence:
#
# PCOD9374549 Si02
#       8
#     8   8   8   8   8   8   8   8
#     4  11  20  30  51  78 103 136 173 208 250 306
#     4   8  16  32  53  77 103 131 166 206 246 293
#     4  10  20  34  51  72 102 140 177 211 251 305
#     4  10  21  36  52  72 102 137 173 217 262 301
#     4   9  18  35  58  80 104 136 172 210 255 309
#     4  10  21  37  54  72  99 136 177 216 255 305
#     4  12  23  33  51  78 107 138 172 213 259 306
#     4  10  20  33  50  75 106 136 168 213 262 305
#
# _framework density 17.287036000000001
#
# number of rings (size 3 to 8) (size 9 to 14) (size 15 to 20)
#    0.000    2.000    0.000    5.250    0.000    7.250 
#    0.000    0.625    0.000    3.750    0.000    1.750 
#    0.000    0.000    0.000    0.000    0.000    0.000 
#
# Total GULP energy -178749.961053 kJ/mol
# GULP energy per Si atom -5585.936283 kJ/mol
# Density = 1.724769 g / cm^3
# Si number density = 17.287036 Si / 1000 Ang^3
#
#
#
# Elastic Constant Matrix: (Units=GPa)
#
#
# Indices 1 2 3 4 5 6 
#
# 1 57.2009 41.4315 70.6781 0.0000 0.0000 0.0000
# 2 41.4315 62.6220 61.8222 0.0000 0.0000 0.0000
# 3 70.6781 61.8222 170.7572 0.0000 0.0000 0.0000
# 4 0.0000 0.0000 0.0000 32.6990 0.0000 0.0000
# 5 0.0000 0.0000 0.0000 0.0000 22.6360 0.0000
# 6 0.0000 0.0000 0.0000 0.0000 0.0000 18.9157
#
#
#
# Elastic Compliance Matrix: (Units=1/GPa)
#
#
# Indices 1 2 3 4 5 6 
#
# 1 0.046064 -0.018136 -0.012500 0.000000 0.000000 0.000000
# 2 -0.018136 0.031991 -0.004076 0.000000 0.000000 0.000000
# 3 -0.012500 -0.004076 0.012506 0.000000 0.000000 0.000000
# 4 0.000000 0.000000 0.000000 0.030582 0.000000 0.000000
# 5 0.000000 0.000000 0.000000 0.000000 0.044177 0.000000
# 6 0.000000 0.000000 0.000000 0.000000 0.000000 0.052866
#
#
# Mechanical properties :
#
#
# Convention : Reuss Voigt Hill
#
# Bulk Modulus (GPa) = 47.30954 70.93817 59.12386
# Shear Modulus (GPa) = 16.96895 22.62670 19.79783
#
# Velocity S-wave (km/s) = 3.13645 3.62177 3.38781
# Velocity P-wave (km/s) = 6.36733 7.65599 7.04120
#
# Compressibility (1/GPa) = 0.02113739
#
# Stress axis : x y z
#
# Youngs Moduli (GPa) = 21.70911 31.25837 79.96238
#
# Poissons Ratio (x) = 0.56689 0.99955
# Poissons Ratio (y) = 0.39371 0.32592
# Poissons Ratio (z) = 0.27137 0.12740
#
# Static dielectric constant tensor:
#      x y z
#    x 1.580380 0.000000 0.000000 
#    y 0.000000 1.571770 0.000000 
#    z 0.000000 0.000000 1.573980 
# 
# From -- ./inp_files/19700.got.cif
#   From: 2010.05.17/outbox.cif.g08.bks.cpg/sg44_10_cif.got.tgz:19700.got - 2010.06.03 19:37:08.
