data_PCOD9374786
_publ_section_title
;
Structure prediction by ZEFSAII (Michael W. Deem and Ramdas Pophale) SiO2 
 PCOD9374786
Probable space group: I M M 2
;
_chemical_formula_sum "Si O2"
_cell_formula_units_Z 64
_cell_length_a 29.040334
_cell_length_b 8.195830
_cell_length_c 12.881371
_cell_angle_alpha 90.000000
_cell_angle_beta 90.000000
_cell_angle_gamma 90.000000
_cell_volume 3065.890482
_symmetry_space_group_name_H-M "I M M 2"
_symmetry_group_IT_number 44
_symmetry_cell_setting 'orthorhombic'
loop_
_space_group_symop_operation_xyz
x,y,z
-x,-y,z
-x,y,z
x,-y,z
1/2+x,1/2+y,1/2+z
1/2-x,1/2-y,1/2+z
1/2-x,1/2+y,1/2+z
1/2+x,1/2-y,1/2+z
loop_
_atom_site_type_symbol
_atom_site_label
_atom_site_fract_x
_atom_site_fract_y
_atom_site_fract_z
Si Si1 0.430304 0.813489 0.745030
Si Si2 0.791034 0.693006 0.982808
Si Si3 0.166304 0.186181 0.195273
Si Si4 0.091581 0.302574 0.468194
Si Si5 0.447427 0.304151 0.188590
Si Si6 0.194787 0.694984 0.403508
Si Si7 0.951674 0.807342 0.025059
Si Si8 0.876362 0.801963 0.867183
O O1 0.375902 0.805059 0.720851
O O2 0.434390 0.748933 0.862240
O O3 0.450451 0.719220 0.647732
O O4 0.446169 0.000000 0.741775
O O5 0.790552 0.500000 0.997126
O O6 0.739600 0.757441 0.967344
O O7 0.825265 0.735874 0.887136
O O8 0.811696 0.776037 0.085471
O O9 0.199343 0.215438 0.292730
O O10 0.148926 0.000000 0.195418
O O11 0.089871 0.500000 0.469048
O O12 0.068661 0.238376 0.572453
O O13 0.145617 0.255953 0.454788
O O14 0.500000 0.243706 0.207639
O O15 0.449221 0.500000 0.199785
O O16 0.407509 0.249058 0.268973
O O17 0.193624 0.500000 0.388785
O O18 0.000000 0.737933 0.984221
O O19 0.951903 0.000000 0.004041
O O20 0.906877 0.744862 0.966366
O O21 0.872918 0.000000 0.865648
#
# Coordination Sequence:
#
# PCOD9374786 Si02
#       8
#     8   8   8   8   8   8   8   8
#     4  10  20  36  57  83 115 152 194 245 303 362
#     4  12  24  38  60  91 124 161 207 254 308 377
#     4  11  21  37  60  85 116 154 194 245 307 366
#     4   9  21  40  61  85 118 158 201 251 307 364
#     4  10  22  40  63  90 122 164 212 260 310 371
#     4  10  22  41  62  88 121 160 207 259 314 372
#     4  10  20  34  56  85 115 151 195 243 302 368
#     4  10  21  39  60  84 119 161 205 257 312 364
#
# _framework density 20.874849000000001
#
# number of rings (size 3 to 8) (size 9 to 14) (size 15 to 20)
#    0.000    1.750    1.250    4.125    0.000    7.000 
#    0.000    5.000    0.000    2.250    0.000    0.000 
#    0.000    0.000    0.000    0.000    0.000    0.000 
#
# Total GULP energy -178613.845733 kJ/mol
# GULP energy per Si atom -5581.682679 kJ/mol
# Density = 2.082734 g / cm^3
# Si number density = 20.874849 Si / 1000 Ang^3
#
#
#
# Elastic Constant Matrix: (Units=GPa)
#
#
# Indices 1 2 3 4 5 6 
#
# 1 64.1941 6.1792 12.5545 0.0000 0.0000 0.0000
# 2 6.1792 46.9213 0.5568 0.0000 0.0000 0.0000
# 3 12.5545 0.5568 91.5913 0.0000 0.0000 0.0000
# 4 0.0000 0.0000 0.0000 25.8680 0.0000 0.0000
# 5 0.0000 0.0000 0.0000 0.0000 -265.4165 0.0000
# 6 0.0000 0.0000 0.0000 0.0000 0.0000 -4.9726
#
#
#
# Elastic Compliance Matrix: (Units=1/GPa)
#
#
# Indices 1 2 3 4 5 6 
#
# 1 0.016213 -0.002109 -0.002209 0.000000 0.000000 0.000000
# 2 -0.002109 0.021588 0.000158 0.000000 0.000000 0.000000
# 3 -0.002209 0.000158 0.011220 0.000000 0.000000 0.000000
# 4 0.000000 0.000000 0.000000 0.038658 0.000000 0.000000
# 5 0.000000 0.000000 0.000000 0.000000 -0.003768 0.000000
# 6 0.000000 0.000000 0.000000 0.000000 0.000000 -0.201104
#
#
# Mechanical properties :
#
#
# Convention : Reuss Voigt Hill
#
# Bulk Modulus (GPa) = 24.57013 26.80976 25.68994
# Shear Modulus (GPa) = -52.46305 -36.67647 -44.56976
#
# Velocity S-wave (km/s) = -5.01864 -4.19617 -4.62572
# Velocity P-wave (km/s) = 4.66761 3.25671 4.02447
#
# Compressibility (1/GPa) = 0.04069982
#
# Stress axis : x y z
#
# Youngs Moduli (GPa) = 61.67944 46.32178 89.12682
#
# Poissons Ratio (x) = 0.09769 0.19693
# Poissons Ratio (y) = 0.13008 -0.01407
# Poissons Ratio (z) = 0.13628 -0.00731
#
# Static dielectric constant tensor:
#      x y z
#    x 1.931510 0.000000 0.000000 
#    y 0.000000 1.759110 0.000000 
#    z 0.000000 0.000000 1.755960 
# 
# From -- ./inp_files/15067.got.cif
#   From: 2010.05.17/outbox.cif.g08.bks.cpg/sg44_8_cif.got.tgz:15067.got - 2010.06.03 19:37:08.
