data_PCOD9374800
_publ_section_title
;
Structure prediction by ZEFSAII (Michael W. Deem and Ramdas Pophale) SiO2 
 PCOD9374800
Probable space group: I M M 2
;
_chemical_formula_sum "Si O2"
_cell_formula_units_Z 58
_cell_length_a 25.996307
_cell_length_b 8.686027
_cell_length_c 13.889259
_cell_angle_alpha 90.000000
_cell_angle_beta 90.000000
_cell_angle_gamma 90.000000
_cell_volume 3136.258913
_symmetry_space_group_name_H-M "I M M 2"
_symmetry_group_IT_number 44
_symmetry_cell_setting 'orthorhombic'
loop_
_space_group_symop_operation_xyz
x,y,z
-x,-y,z
-x,y,z
x,-y,z
1/2+x,1/2+y,1/2+z
1/2-x,1/2-y,1/2+z
1/2-x,1/2+y,1/2+z
1/2+x,1/2-y,1/2+z
loop_
_atom_site_type_symbol
_atom_site_label
_atom_site_fract_x
_atom_site_fract_y
_atom_site_fract_z
Si Si1 0.100207 0.329857 0.017330
Si Si2 0.500000 0.000000 0.457688
Si Si3 0.057007 0.686669 0.613510
Si Si4 0.334883 0.814459 0.196235
Si Si5 0.791807 0.183719 0.499578
Si Si6 0.606224 0.814904 0.909759
Si Si7 0.190719 0.181984 0.902249
Si Si8 0.060528 0.815794 0.212949
O O1 0.124924 0.500000 0.029625
O O2 0.088028 0.258938 0.121143
O O3 0.045996 0.368206 0.965637
O O4 0.138022 0.225470 0.956279
O O5 0.055757 0.500000 0.619247
O O6 0.105564 0.735291 0.677871
O O7 0.071132 0.725201 0.502919
O O8 0.000000 0.743348 0.639477
O O9 0.313605 0.747006 0.294550
O O10 0.333714 0.000000 0.198858
O O11 0.303260 0.755806 0.104231
O O12 0.837882 0.245733 0.432032
O O13 0.737869 0.239455 0.457739
O O14 0.794029 0.000000 0.505041
O O15 0.583005 0.749433 0.812060
O O16 0.609363 0.000000 0.905362
O O17 0.198457 0.000000 0.900689
O O18 0.000000 0.776259 0.207436
O O19 0.065822 0.000000 0.210759
#
# Coordination Sequence:
#
# PCOD9374800 Si02
#       8
#     8   2   8   8   8   8   8   8
#     4  10  20  40  61  86 115 157 197 245 291 352
#     4   8  20  40  66  84 120 154 206 244 294 348
#     4   8  15  31  54  84 115 152 195 240 284 339
#     4  10  21  40  63  90 122 157 198 243 294 354
#     4  11  23  42  64  88 119 156 197 252 305 353
#     4  10  20  34  57  85 119 159 206 249 298 359
#     4  12  25  42  64  92 121 156 200 245 296 357
#     4  11  21  34  54  86 124 162 201 251 305 358
#
# _framework density 18.493372000000001
#
# number of rings (size 3 to 8) (size 9 to 14) (size 15 to 20)
#    0.414    1.379    0.690    5.379    0.000    2.483 
#    1.241    5.517    0.000    7.862    0.000    0.000 
#    0.000    0.000    0.000    0.000    0.000    0.000 
#
# Total GULP energy -161623.833360 kJ/mol
# GULP energy per Si atom -5573.235633 kJ/mol
# Density = 1.845128 g / cm^3
# Si number density = 18.493372 Si / 1000 Ang^3
#
#
#
# Elastic Constant Matrix: (Units=GPa)
#
#
# Indices 1 2 3 4 5 6 
#
# 1 88.8094 5.6099 30.4916 0.0000 0.0000 0.0000
# 2 5.6099 66.5792 13.9830 0.0000 0.0000 0.0000
# 3 30.4916 13.9830 64.0550 0.0000 0.0000 0.0000
# 4 0.0000 0.0000 0.0000 32.4586 0.0000 0.0000
# 5 0.0000 0.0000 0.0000 0.0000 12.5980 0.0000
# 6 0.0000 0.0000 0.0000 0.0000 0.0000 30.9912
#
#
#
# Elastic Compliance Matrix: (Units=1/GPa)
#
#
# Indices 1 2 3 4 5 6 
#
# 1 0.013463 0.000222 -0.006457 0.000000 0.000000 0.000000
# 2 0.000222 0.015745 -0.003543 0.000000 0.000000 0.000000
# 3 -0.006457 -0.003543 0.019459 0.000000 0.000000 0.000000
# 4 0.000000 0.000000 0.000000 0.030809 0.000000 0.000000
# 5 0.000000 0.000000 0.000000 0.000000 0.079378 0.000000
# 6 0.000000 0.000000 0.000000 0.000000 0.000000 0.032267
#
#
# Mechanical properties :
#
#
# Convention : Reuss Voigt Hill
#
# Bulk Modulus (GPa) = 34.35160 35.51250 34.93205
# Shear Modulus (GPa) = 22.68810 26.50016 24.59413
#
# Velocity S-wave (km/s) = 3.50640 3.78955 3.65072
# Velocity P-wave (km/s) = 5.91680 6.19613 6.05808
#
# Compressibility (1/GPa) = 0.02911072
#
# Stress axis : x y z
#
# Youngs Moduli (GPa) = 74.27751 63.51206 51.39104
#
# Poissons Ratio (x) = -0.01408 0.33184
# Poissons Ratio (y) = -0.01647 0.18206
# Poissons Ratio (z) = 0.47962 0.22500
#
# Static dielectric constant tensor:
#      x y z
#    x 1.633250 0.000000 0.000000 
#    y 0.000000 1.623510 0.000000 
#    z 0.000000 0.000000 1.612210 
# 
# From -- ./inp_files/14880.got.cif
#   From: 2010.05.17/outbox.cif.g08.bks.cpg/sg44_8_cif.got.tgz:14880.got - 2010.06.03 19:37:08.
