data_PCOD9374798
_publ_section_title
;
Structure prediction by ZEFSAII (Michael W. Deem and Ramdas Pophale) SiO2 
 PCOD9374798
Probable space group: I M M 2
;
_chemical_formula_sum "Si O2"
_cell_formula_units_Z 48
_cell_length_a 10.318131
_cell_length_b 7.889846
_cell_length_c 28.880206
_cell_angle_alpha 90.000000
_cell_angle_beta 90.000000
_cell_angle_gamma 90.000000
_cell_volume 2351.093228
_symmetry_space_group_name_H-M "I M M 2"
_symmetry_group_IT_number 44
_symmetry_cell_setting 'orthorhombic'
loop_
_space_group_symop_operation_xyz
x,y,z
-x,-y,z
-x,y,z
x,-y,z
1/2+x,1/2+y,1/2+z
1/2-x,1/2-y,1/2+z
1/2-x,1/2+y,1/2+z
1/2+x,1/2-y,1/2+z
loop_
_atom_site_type_symbol
_atom_site_label
_atom_site_fract_x
_atom_site_fract_y
_atom_site_fract_z
Si Si1 0.752425 0.705495 0.506940
Si Si2 0.757351 0.202303 0.726975
Si Si3 0.500000 0.702211 0.671412
Si Si4 0.500000 0.707480 0.563858
Si Si5 0.500000 0.202955 0.062333
Si Si6 0.150613 0.796892 0.405761
Si Si7 0.000000 0.204289 0.668397
Si Si8 0.149982 0.701585 0.827995
O O1 0.749993 0.500000 0.506562
O O2 0.624169 0.761537 0.533928
O O3 0.780775 0.761560 0.454786
O O4 0.873094 0.768130 0.537071
O O5 0.624682 0.244374 0.701056
O O6 0.873268 0.267187 0.694622
O O7 0.784342 0.271845 0.778054
O O8 0.766431 0.000000 0.730791
O O9 0.500000 0.500000 0.668392
O O10 0.500000 0.765461 0.617738
O O11 0.500000 0.500000 0.565428
O O12 0.500000 0.243554 0.115741
O O13 0.500000 0.000000 0.057058
O O14 0.248661 0.729782 0.366213
O O15 0.000000 0.732885 0.404853
O O16 0.141602 0.000000 0.399908
O O17 0.000000 0.000000 0.670447
O O18 0.139686 0.500000 0.835953
O O19 0.000000 0.768037 0.828962
#
# Coordination Sequence:
#
# PCOD9374798 Si02
#       8
#     8   8   4   4   4   8   4   8
#     4  10  20  37  58  84 116 151 194 243 291 346
#     4  11  23  41  61  89 125 158 197 248 304 362
#     4  11  23  41  64  89 120 163 209 249 298 353
#     4   9  20  37  58  85 118 154 197 244 288 343
#     4  10  20  34  57  84 113 150 197 244 287 348
#     4  10  22  39  59  86 119 152 192 243 297 354
#     4  10  22  38  59  86 121 157 193 241 301 362
#     4  10  22  40  62  88 117 154 201 247 296 360
#
# _framework density 20.416032999999999
#
# number of rings (size 3 to 8) (size 9 to 14) (size 15 to 20)
#    0.000    1.833    1.667    1.750    2.333    4.000 
#    0.000    1.667    0.000    0.000    0.000    0.000 
#    0.000    0.000    0.000    0.000    0.000    0.000 
#
# Total GULP energy -133983.343114 kJ/mol
# GULP energy per Si atom -5582.639296 kJ/mol
# Density = 2.036957 g / cm^3
# Si number density = 20.416033 Si / 1000 Ang^3
#
#
#
# Elastic Constant Matrix: (Units=GPa)
#
#
# Indices 1 2 3 4 5 6 
#
# 1 220.9204 3.3975 120.2269 0.0000 0.0000 0.0000
# 2 3.3975 17.9641 -11.3805 0.0000 0.0000 0.0000
# 3 120.2269 -11.3805 207.2758 0.0000 0.0000 0.0000
# 4 0.0000 0.0000 0.0000 27.7652 0.0000 0.0000
# 5 0.0000 0.0000 0.0000 0.0000 42.5478 0.0000
# 6 0.0000 0.0000 0.0000 0.0000 0.0000 -124.0605
#
#
#
# Elastic Compliance Matrix: (Units=1/GPa)
#
#
# Indices 1 2 3 4 5 6 
#
# 1 0.006877 -0.003965 -0.004206 0.000000 0.000000 0.000000
# 2 -0.003965 0.059959 0.005592 0.000000 0.000000 0.000000
# 3 -0.004206 0.005592 0.007571 0.000000 0.000000 0.000000
# 4 0.000000 0.000000 0.000000 0.036016 0.000000 0.000000
# 5 0.000000 0.000000 0.000000 0.000000 0.023503 0.000000
# 6 0.000000 0.000000 0.000000 0.000000 0.000000 -0.008061
#
#
# Mechanical properties :
#
#
# Convention : Reuss Voigt Hill
#
# Bulk Modulus (GPa) = 14.44084 74.51647 44.47865
# Shear Modulus (GPa) = 32.44475 11.51159 21.97817
#
# Velocity S-wave (km/s) = 3.99078 2.37713 3.28459
# Velocity P-wave (km/s) = 5.32200 6.64173 6.01815
#
# Compressibility (1/GPa) = 0.06924806
#
# Stress axis : x y z
#
# Youngs Moduli (GPa) = 145.41923 16.67796 132.07621
#
# Poissons Ratio (x) = 0.06613 0.55557
# Poissons Ratio (y) = 0.57665 -0.73859
# Poissons Ratio (z) = 0.61169 -0.09327
#
# Static dielectric constant tensor:
#      x y z
#    x 1.754460 0.000000 0.000000 
#    y 0.000000 1.750450 0.000000 
#    z 0.000000 0.000000 1.699410 
# 
# From -- ./inp_files/27032.got.cif
#   From: 2010.05.17/outbox.cif.g08.bks.cpg/sg44_14_cif.got.tgz:27032.got - 2010.06.03 19:37:08.
