data_PCOD9374358
_publ_section_title
;
Structure prediction by ZEFSAII (Michael W. Deem and Ramdas Pophale) SiO2 
 PCOD9374358
Probable space group: I M M 2
;
_chemical_formula_sum "Si O2"
_cell_formula_units_Z 40
_cell_length_a 8.621572
_cell_length_b 9.931302
_cell_length_c 26.409347
_cell_angle_alpha 90.000000
_cell_angle_beta 90.000000
_cell_angle_gamma 90.000000
_cell_volume 2261.259013
_symmetry_space_group_name_H-M "I M M 2"
_symmetry_group_IT_number 44
_symmetry_cell_setting 'orthorhombic'
loop_
_space_group_symop_operation_xyz
x,y,z
-x,-y,z
-x,y,z
x,-y,z
1/2+x,1/2+y,1/2+z
1/2-x,1/2-y,1/2+z
1/2-x,1/2+y,1/2+z
1/2+x,1/2-y,1/2+z
loop_
_atom_site_type_symbol
_atom_site_label
_atom_site_fract_x
_atom_site_fract_y
_atom_site_fract_z
Si Si1 0.812828 0.000000 0.946000
Si Si2 0.815098 0.000000 0.672514
Si Si3 0.184561 0.500000 0.841299
Si Si4 0.686935 0.500000 0.289856
Si Si5 0.812853 0.000000 0.228184
Si Si6 0.688913 0.500000 0.562543
Si Si7 0.314485 0.787208 0.867990
Si Si8 0.686728 0.716819 0.643868
O O1 0.749436 0.870488 0.915883
O O2 0.762428 0.000000 0.004432
O O3 0.000000 0.000000 0.943326
O O4 0.754272 0.135277 0.646865
O O5 0.764549 0.000000 0.731470
O O6 0.000000 0.000000 0.672002
O O7 0.231773 0.500000 0.782080
O O8 0.253969 0.635453 0.865397
O O9 0.000000 0.500000 0.846218
O O10 0.500000 0.500000 0.293241
O O11 0.751690 0.370097 0.319382
O O12 0.771772 0.129469 0.193787
O O13 0.000000 0.000000 0.235409
O O14 0.500000 0.500000 0.562794
O O15 0.737591 0.630028 0.595174
O O16 0.500000 0.790461 0.867615
O O17 0.500000 0.723795 0.642912
#
# Coordination Sequence:
#
# PCOD9374358 Si02
#       8
#     4   4   4   4   4   4   8   8
#     4  10  19  37  62  82 102 131 172 219 267 316
#     4  11  22  32  46  76 113 143 173 212 255 300
#     4  12  23  35  52  77 110 144 177 215 262 309
#     4  10  20  35  53  76 109 147 183 214 253 308
#     4   9  18  33  54  79 106 138 177 215 254 305
#     4   8  17  36  61  82  98 127 174 219 257 310
#     4  11  22  36  54  79 108 138 177 218 261 313
#     4   9  18  34  55  78 104 137 176 213 253 306
#
# _framework density 17.689260000000001
#
# number of rings (size 3 to 8) (size 9 to 14) (size 15 to 20)
#    0.000    2.000    0.000    7.200    0.000    5.600 
#    0.000    4.500    0.000    2.400    0.000    0.000 
#    0.000    0.000    0.000    0.000    0.000    0.000 
#
# Total GULP energy -111703.300466 kJ/mol
# GULP energy per Si atom -5585.165023 kJ/mol
# Density = 1.764900 g / cm^3
# Si number density = 17.689260 Si / 1000 Ang^3
#
#
#
# Elastic Constant Matrix: (Units=GPa)
#
#
# Indices 1 2 3 4 5 6 
#
# 1 78.4005 49.7701 42.0496 0.0000 0.0000 0.0000
# 2 49.7701 193.3658 86.0903 0.0000 0.0000 0.0000
# 3 42.0496 86.0903 143.7473 0.0000 0.0000 0.0000
# 4 0.0000 0.0000 0.0000 1.7646 0.0000 0.0000
# 5 0.0000 0.0000 0.0000 0.0000 22.2438 0.0000
# 6 0.0000 0.0000 0.0000 0.0000 0.0000 20.7253
#
#
#
# Elastic Compliance Matrix: (Units=1/GPa)
#
#
# Indices 1 2 3 4 5 6 
#
# 1 0.016172 -0.002804 -0.003051 0.000000 0.000000 0.000000
# 2 -0.002804 0.007538 -0.003694 0.000000 0.000000 0.000000
# 3 -0.003051 -0.003694 0.010062 0.000000 0.000000 0.000000
# 4 0.000000 0.000000 0.000000 0.566704 0.000000 0.000000
# 5 0.000000 0.000000 0.000000 0.000000 0.044956 0.000000
# 6 0.000000 0.000000 0.000000 0.000000 0.000000 0.048250
#
#
# Mechanical properties :
#
#
# Convention : Reuss Voigt Hill
#
# Bulk Modulus (GPa) = 68.15571 85.70372 76.92971
# Shear Modulus (GPa) = 6.96698 24.78699 15.87698
#
# Velocity S-wave (km/s) = 1.98673 3.74738 2.99916
# Velocity P-wave (km/s) = 6.62389 8.20235 7.45501
#
# Compressibility (1/GPa) = 0.01467229
#
# Stress axis : x y z
#
# Youngs Moduli (GPa) = 61.83713 132.66107 99.38602
#
# Poissons Ratio (x) = 0.37196 0.30326
# Poissons Ratio (y) = 0.17338 0.36716
# Poissons Ratio (z) = 0.18869 0.49009
#
# Static dielectric constant tensor:
#      x y z
#    x 1.595540 0.000000 0.000000 
#    y 0.000000 1.588710 0.000000 
#    z 0.000000 0.000000 1.589770 
# 
# From -- ./inp_files/26005.got.cif
#   From: 2010.05.17/outbox.cif.g08.bks.cpg/sg44_14_cif.got.tgz:26005.got - 2010.06.03 19:37:08.
