data_PCOD9374878
_publ_section_title
;
Structure prediction by ZEFSAII (Michael W. Deem and Ramdas Pophale) SiO2 
 PCOD9374878
Probable space group: I M M 2
;
_chemical_formula_sum "Si O2"
_cell_formula_units_Z 64
_cell_length_a 24.165329
_cell_length_b 7.767451
_cell_length_c 15.940392
_cell_angle_alpha 90.000000
_cell_angle_beta 90.000000
_cell_angle_gamma 90.000000
_cell_volume 2992.059542
_symmetry_space_group_name_H-M "I M M 2"
_symmetry_group_IT_number 44
_symmetry_cell_setting 'orthorhombic'
loop_
_space_group_symop_operation_xyz
x,y,z
-x,-y,z
-x,y,z
x,-y,z
1/2+x,1/2+y,1/2+z
1/2-x,1/2-y,1/2+z
1/2-x,1/2+y,1/2+z
1/2+x,1/2-y,1/2+z
loop_
_atom_site_type_symbol
_atom_site_label
_atom_site_fract_x
_atom_site_fract_y
_atom_site_fract_z
Si Si1 0.363270 0.703390 0.790670
Si Si2 0.436045 0.289201 0.633678
Si Si3 0.937879 0.706773 0.612325
Si Si4 0.753702 0.208224 0.716471
Si Si5 0.618410 0.301172 0.462965
Si Si6 0.126239 0.791664 0.778883
Si Si7 0.765714 0.300446 0.025666
Si Si8 0.352443 0.799638 0.973674
O O1 0.372733 0.500000 0.797557
O O2 0.399154 0.769836 0.712213
O O3 0.299068 0.735525 0.769497
O O4 0.376502 0.783034 0.880619
O O5 0.500000 0.241877 0.642812
O O6 0.432676 0.500000 0.633201
O O7 0.411436 0.226459 0.544985
O O8 0.939698 0.500000 0.602202
O O9 0.915319 0.745412 0.704731
O O10 0.893990 0.772807 0.543751
O O11 0.000000 0.773593 0.600373
O O12 0.812286 0.269574 0.752691
O O13 0.744507 0.265502 0.620338
O O14 0.755327 0.000000 0.715721
O O15 0.600041 0.500000 0.458642
O O16 0.609449 0.224855 0.370721
O O17 0.684067 0.295497 0.481218
O O18 0.129014 0.000000 0.783920
O O19 0.782379 0.500000 0.030756
O O20 0.707415 0.287435 0.978784
O O21 0.342609 0.000000 0.992363
#
# Coordination Sequence:
#
# PCOD9374878 Si02
#       8
#     8   8   8   8   8   8   8   8
#     4  11  22  36  59  87 115 152 197 239 288 344
#     4   9  19  36  56  81 115 153 195 239 281 335
#     4  10  23  42  61  82 112 152 194 237 288 345
#     4  10  20  35  56  85 122 153 185 235 289 342
#     4  10  20  36  60  88 118 154 192 233 286 345
#     4  10  21  37  59  87 116 148 188 236 287 340
#     4  11  21  35  59  88 119 152 190 236 285 341
#     4  11  23  39  60  84 115 152 191 238 294 348
#
# _framework density 21.389948
#
# number of rings (size 3 to 8) (size 9 to 14) (size 15 to 20)
#    0.000    1.750    2.500    1.875    0.000    4.250 
#    0.000    1.250    0.000    3.000    0.000    0.000 
#    0.000    0.000    0.000    0.000    0.000    0.000 
#
# Total GULP energy -178845.644060 kJ/mol
# GULP energy per Si atom -5588.926377 kJ/mol
# Density = 2.134126 g / cm^3
# Si number density = 21.389948 Si / 1000 Ang^3
#
#
#
# Elastic Constant Matrix: (Units=GPa)
#
#
# Indices 1 2 3 4 5 6 
#
# 1 82.3698 -11.8845 16.7085 0.0000 0.0000 0.0000
# 2 -11.8845 30.4657 -8.4173 0.0000 0.0000 0.0000
# 3 16.7085 -8.4173 128.1818 0.0000 0.0000 0.0000
# 4 0.0000 0.0000 0.0000 17.6643 0.0000 0.0000
# 5 0.0000 0.0000 0.0000 0.0000 -2.0103 0.0000
# 6 0.0000 0.0000 0.0000 0.0000 0.0000 -14.6096
#
#
#
# Elastic Compliance Matrix: (Units=1/GPa)
#
#
# Indices 1 2 3 4 5 6 
#
# 1 0.013106 0.004726 -0.001398 0.000000 0.000000 0.000000
# 2 0.004726 0.035135 0.001691 0.000000 0.000000 0.000000
# 3 -0.001398 0.001691 0.008095 0.000000 0.000000 0.000000
# 4 0.000000 0.000000 0.000000 0.056611 0.000000 0.000000
# 5 0.000000 0.000000 0.000000 0.000000 -0.497441 0.000000
# 6 0.000000 0.000000 0.000000 0.000000 0.000000 -0.068448
#
#
# Mechanical properties :
#
#
# Convention : Reuss Voigt Hill
#
# Bulk Modulus (GPa) = 15.06613 25.98118 20.52366
# Shear Modulus (GPa) = -11.34156 16.51625 2.58735
#
# Velocity S-wave (km/s) = -2.30517 2.78177 1.10102
# Velocity P-wave (km/s) = 0.16190 4.74241 3.35144
#
# Compressibility (1/GPa) = 0.06637406
#
# Stress axis : x y z
#
# Youngs Moduli (GPa) = 76.30166 28.46191 123.53765
#
# Poissons Ratio (x) = -0.13452 0.17270
# Poissons Ratio (y) = -0.36062 -0.20892
# Poissons Ratio (z) = 0.10667 -0.04813
#
# Static dielectric constant tensor:
#      x y z
#    x 1.732070 0.000000 0.000000 
#    y 0.000000 1.790800 0.000000 
#    z 0.000000 0.000000 1.779690 
# 
# From -- ./inp_files/16825.got.cif
#   From: 2010.05.17/outbox.cif.g08.bks.cpg/sg44_9_cif.got.tgz:16825.got - 2010.06.03 19:37:08.
