data_PCOD9374199
_publ_section_title
;
Structure prediction by ZEFSAII (Michael W. Deem and Ramdas Pophale) SiO2 
 PCOD9374199
Probable space group: I M M 2
;
_chemical_formula_sum "Si O2"
_cell_formula_units_Z 64
_cell_length_a 8.385008
_cell_length_b 18.411957
_cell_length_c 21.234129
_cell_angle_alpha 90.000000
_cell_angle_beta 90.000000
_cell_angle_gamma 90.000000
_cell_volume 3278.218408
_symmetry_space_group_name_H-M "I M M 2"
_symmetry_group_IT_number 44
_symmetry_cell_setting 'orthorhombic'
loop_
_space_group_symop_operation_xyz
x,y,z
-x,-y,z
-x,y,z
x,-y,z
1/2+x,1/2+y,1/2+z
1/2-x,1/2-y,1/2+z
1/2-x,1/2+y,1/2+z
1/2+x,1/2-y,1/2+z
loop_
_atom_site_type_symbol
_atom_site_label
_atom_site_fract_x
_atom_site_fract_y
_atom_site_fract_z
Si Si1 0.192902 0.666323 0.035540
Si Si2 0.693065 0.416097 0.409692
Si Si3 0.191283 0.669205 0.286997
Si Si4 0.310486 0.834304 0.287449
Si Si5 0.693110 0.583865 0.663073
Si Si6 0.308935 0.583549 0.911620
Si Si7 0.694775 0.083767 0.661968
Si Si8 0.194798 0.166141 0.036468
O O1 0.246460 0.624464 0.098456
O O2 0.246579 0.750089 0.035890
O O3 0.000000 0.666637 0.035796
O O4 0.248671 0.625179 0.973280
O O5 0.500000 0.415313 0.409182
O O6 0.745220 0.500000 0.408847
O O7 0.752825 0.373526 0.348730
O O8 0.745748 0.375957 0.473604
O O9 0.252919 0.751267 0.287555
O O10 0.246340 0.626908 0.224210
O O11 0.000000 0.670969 0.286022
O O12 0.500000 0.835616 0.288882
O O13 0.250292 0.874565 0.224892
O O14 0.246864 0.875562 0.348985
O O15 0.500000 0.584272 0.663276
O O16 0.745523 0.500000 0.663262
O O17 0.746192 0.624886 0.599691
O O18 0.500000 0.583032 0.912349
O O19 0.251863 0.500000 0.911704
O O20 0.500000 0.083663 0.661945
O O21 0.746796 0.000000 0.663018
O O22 0.000000 0.165983 0.036649
#
# Coordination Sequence:
#
# PCOD9374199 Si02
#       8
#     8   8   8   8   8   8   8   8
#     4  10  19  34  59  86 114 151 194 237 280 331
#     4  10  20  35  56  84 119 157 197 240 285 336
#     4  11  22  38  60  84 113 151 196 242 287 339
#     4  12  25  40  59  84 115 149 187 234 289 347
#     4  10  20  37  62  88 114 148 191 236 282 335
#     4  11  24  41  60  84 115 150 189 233 282 339
#     4   9  18  33  55  84 116 151 192 235 280 334
#     4   9  18  34  57  85 116 153 194 232 277 336
#
# _framework density 19.522798999999999
#
# number of rings (size 3 to 8) (size 9 to 14) (size 15 to 20)
#    0.000    1.750    0.000    4.875    0.000    8.500 
#    0.000    3.750    0.000    4.500    0.000    0.000 
#    0.000    0.000    0.000    0.000    0.000    0.000 
#
# Total GULP energy -178897.800332 kJ/mol
# GULP energy per Si atom -5590.556260 kJ/mol
# Density = 1.947836 g / cm^3
# Si number density = 19.522799 Si / 1000 Ang^3
#
#
#
# Elastic Constant Matrix: (Units=GPa)
#
#
# Indices 1 2 3 4 5 6 
#
# 1 20.4919 26.7822 22.0689 0.0000 0.0000 0.0000
# 2 26.7822 232.0197 134.3123 0.0000 0.0000 0.0000
# 3 22.0689 134.3123 225.7759 0.0000 0.0000 0.0000
# 4 0.0000 0.0000 0.0000 46.7773 0.0000 0.0000
# 5 0.0000 0.0000 0.0000 0.0000 30.7464 0.0000
# 6 0.0000 0.0000 0.0000 0.0000 0.0000 16.2366
#
#
#
# Elastic Compliance Matrix: (Units=1/GPa)
#
#
# Indices 1 2 3 4 5 6 
#
# 1 0.058448 -0.005246 -0.002592 0.000000 0.000000 0.000000
# 2 -0.005246 0.007045 -0.003678 0.000000 0.000000 0.000000
# 3 -0.002592 -0.003678 0.006871 0.000000 0.000000 0.000000
# 4 0.000000 0.000000 0.000000 0.021378 0.000000 0.000000
# 5 0.000000 0.000000 0.000000 0.000000 0.032524 0.000000
# 6 0.000000 0.000000 0.000000 0.000000 0.000000 0.061589
#
#
# Mechanical properties :
#
#
# Convention : Reuss Voigt Hill
#
# Bulk Modulus (GPa) = 20.27140 93.84603 57.05871
# Shear Modulus (GPa) = 21.99435 38.42699 30.21067
#
# Velocity S-wave (km/s) = 3.36012 4.44138 3.93804
# Velocity P-wave (km/s) = 5.04578 8.62992 7.06878
#
# Compressibility (1/GPa) = 0.04933060
#
# Stress axis : x y z
#
# Youngs Moduli (GPa) = 17.10920 141.95081 145.54776
#
# Poissons Ratio (x) = 0.74468 0.37730
# Poissons Ratio (y) = 0.08976 0.53533
# Poissons Ratio (z) = 0.04435 0.52210
#
# Static dielectric constant tensor:
#      x y z
#    x 1.683130 0.000000 0.000000 
#    y 0.000000 1.660930 0.000000 
#    z 0.000000 0.000000 1.645430 
# 
# From -- ./inp_files/23316.got.cif
#   From: 2010.05.17/outbox.cif.g08.bks.cpg/sg44_12_cif.got.tgz:23316.got - 2010.06.03 19:37:08.
