data_PCOD9374538
_publ_section_title
;
Structure prediction by ZEFSAII (Michael W. Deem and Ramdas Pophale) SiO2 
 PCOD9374538
Probable space group: I M M 2
;
_chemical_formula_sum "Si O2"
_cell_formula_units_Z 48
_cell_length_a 24.007348
_cell_length_b 7.523545
_cell_length_c 12.166596
_cell_angle_alpha 90.000000
_cell_angle_beta 90.000000
_cell_angle_gamma 90.000000
_cell_volume 2197.534986
_symmetry_space_group_name_H-M "I M M 2"
_symmetry_group_IT_number 44
_symmetry_cell_setting 'orthorhombic'
loop_
_space_group_symop_operation_xyz
x,y,z
-x,-y,z
-x,y,z
x,-y,z
1/2+x,1/2+y,1/2+z
1/2-x,1/2-y,1/2+z
1/2-x,1/2+y,1/2+z
1/2+x,1/2-y,1/2+z
loop_
_atom_site_type_symbol
_atom_site_label
_atom_site_fract_x
_atom_site_fract_y
_atom_site_fract_z
Si Si1 0.641215 0.713574 0.402320
Si Si2 0.353471 0.291605 0.771744
Si Si3 0.064834 0.783013 0.698714
Si Si4 0.730511 0.209228 0.577389
Si Si5 0.562212 0.282439 0.601474
Si Si6 0.350416 0.717873 0.018341
O O1 0.643485 0.500000 0.394555
O O2 0.610407 0.774529 0.291030
O O3 0.700429 0.763855 0.458194
O O4 0.598785 0.769773 0.497951
O O5 0.363220 0.500000 0.789015
O O6 0.305228 0.280355 0.679775
O O7 0.407559 0.217937 0.710575
O O8 0.345617 0.218186 0.892943
O O9 0.093742 0.731771 0.583462
O O10 0.000000 0.725074 0.713053
O O11 0.062971 0.000000 0.704246
O O12 0.793421 0.277821 0.576628
O O13 0.732245 0.000000 0.595395
O O14 0.500000 0.220902 0.591051
O O15 0.562288 0.500000 0.602105
O O16 0.349024 0.500000 0.020153
#
# Coordination Sequence:
#
# PCOD9374538 Si02
#       6
#     8   8   8   8   8   8
#     4   9  17  30  51  77 103 131 167 209 251 301
#     4   9  18  33  50  71  99 129 166 208 251 305
#     4   9  17  30  51  80 109 135 168 215 267 310
#     4  10  20  33  50  73 103 135 170 211 256 303
#     4   8  13  23  43  70  94 118 153 198 241 281
#     4   9  19  32  47  72 105 135 164 209 262 310
#
# _framework density 21.842655000000001
#
# number of rings (size 3 to 8) (size 9 to 14) (size 15 to 20)
#    0.000    3.000    0.000    2.000    2.333    2.667 
#    0.000    4.167    0.000   13.500    0.000    0.000 
#    0.000    0.000    0.000    0.000    0.000    0.000 
#
# Total GULP energy -133718.447413 kJ/mol
# GULP energy per Si atom -5571.601976 kJ/mol
# Density = 2.179294 g / cm^3
# Si number density = 21.842655 Si / 1000 Ang^3
#
#
#
# Elastic Constant Matrix: (Units=GPa)
#
#
# Indices 1 2 3 4 5 6 
#
# 1 86.2758 -5.9403 15.9084 0.0000 0.0000 0.0000
# 2 -5.9403 48.8211 -7.1049 0.0000 0.0000 0.0000
# 3 15.9084 -7.1049 94.2129 0.0000 0.0000 0.0000
# 4 0.0000 0.0000 0.0000 3.3848 0.0000 0.0000
# 5 0.0000 0.0000 0.0000 0.0000 16.9828 0.0000
# 6 0.0000 0.0000 0.0000 0.0000 0.0000 10.4988
#
#
#
# Elastic Compliance Matrix: (Units=1/GPa)
#
#
# Indices 1 2 3 4 5 6 
#
# 1 0.012030 0.001181 -0.001942 0.000000 0.000000 0.000000
# 2 0.001181 0.020826 0.001371 0.000000 0.000000 0.000000
# 3 -0.001942 0.001371 0.011046 0.000000 0.000000 0.000000
# 4 0.000000 0.000000 0.000000 0.295440 0.000000 0.000000
# 5 0.000000 0.000000 0.000000 0.000000 0.058883 0.000000
# 6 0.000000 0.000000 0.000000 0.000000 0.000000 0.095249
#
#
# Mechanical properties :
#
#
# Convention : Reuss Voigt Hill
#
# Bulk Modulus (GPa) = 22.16220 26.11516 24.13868
# Shear Modulus (GPa) = 9.85621 21.26972 15.56296
#
# Velocity S-wave (km/s) = 2.12654 3.12391 2.67217
# Velocity P-wave (km/s) = 4.02466 4.99938 4.53826
#
# Compressibility (1/GPa) = 0.04512187
#
# Stress axis : x y z
#
# Youngs Moduli (GPa) = 83.12413 48.01644 90.53359
#
# Poissons Ratio (x) = -0.05671 0.17584
# Poissons Ratio (y) = -0.09818 -0.12413
# Poissons Ratio (z) = 0.16145 -0.06584
#
# Static dielectric constant tensor:
#      x y z
#    x 1.797180 0.000000 0.000000 
#    y 0.000000 1.849580 0.000000 
#    z 0.000000 0.000000 1.808700 
# 
# From -- ./inp_files/11155.got.cif
#   From: 2010.05.17/outbox.cif.g08.bks.cpg/sg44_6_cif.got.tgz:11155.got - 2010.06.03 19:37:08.
