data_PCOD9374321
_publ_section_title
;
Structure prediction by ZEFSAII (Michael W. Deem and Ramdas Pophale) SiO2 
 PCOD9374321
Probable space group: I M M 2
;
_chemical_formula_sum "Si O2"
_cell_formula_units_Z 64
_cell_length_a 9.112605
_cell_length_b 25.397331
_cell_length_c 14.833232
_cell_angle_alpha 90.000000
_cell_angle_beta 90.000000
_cell_angle_gamma 90.000000
_cell_volume 3432.941589
_symmetry_space_group_name_H-M "I M M 2"
_symmetry_group_IT_number 44
_symmetry_cell_setting 'orthorhombic'
loop_
_space_group_symop_operation_xyz
x,y,z
-x,-y,z
-x,y,z
x,-y,z
1/2+x,1/2+y,1/2+z
1/2-x,1/2-y,1/2+z
1/2-x,1/2+y,1/2+z
1/2+x,1/2-y,1/2+z
loop_
_atom_site_type_symbol
_atom_site_label
_atom_site_fract_x
_atom_site_fract_y
_atom_site_fract_z
Si Si1 0.826689 0.345499 0.525200
Si Si2 0.824473 0.602798 0.245378
Si Si3 0.169530 0.276713 0.216641
Si Si4 0.171113 0.669922 0.738486
Si Si5 0.674057 0.362176 0.907241
Si Si6 0.828839 0.263505 0.000542
Si Si7 0.824971 0.060451 0.920390
Si Si8 0.828187 0.562790 0.045009
O O1 0.808795 0.344458 0.633583
O O2 0.747174 0.293057 0.488722
O O3 0.754795 0.397202 0.483403
O O4 0.000000 0.343304 0.504441
O O5 0.794066 0.665248 0.251770
O O6 0.735226 0.571659 0.320187
O O7 0.789127 0.583633 0.144578
O O8 0.000000 0.595259 0.258489
O O9 0.273592 0.230054 0.248836
O O10 0.000000 0.264555 0.240825
O O11 0.177525 0.277218 0.107492
O O12 0.265027 0.634574 0.805919
O O13 0.000000 0.665847 0.760785
O O14 0.500000 0.359163 0.908485
O O15 0.744072 0.309031 0.948456
O O16 0.732044 0.409116 0.969706
O O17 0.000000 0.261807 0.974811
O O18 0.000000 0.068028 0.923404
O O19 0.792393 0.000000 0.945366
O O20 0.814553 0.500000 0.042865
O O21 0.000000 0.576859 0.030145
#
# Coordination Sequence:
#
# PCOD9374321 Si02
#       8
#     8   8   8   8   8   8   8   8
#     4  10  22  41  64  90 117 150 198 252 305 357
#     4  10  20  37  61  89 120 157 200 245 295 353
#     4   9  18  34  57  86 120 155 193 237 290 351
#     4  10  22  39  60  86 120 157 198 247 302 358
#     4  12  24  37  58  88 124 161 201 246 295 353
#     4  10  19  36  60  86 120 157 194 238 292 353
#     4  11  25  42  60  86 120 159 203 248 298 356
#     4  10  21  40  64  88 119 160 204 248 297 353
#
# _framework density 18.642904000000001
#
# number of rings (size 3 to 8) (size 9 to 14) (size 15 to 20)
#    0.000    1.750    1.250    3.000    1.750    4.750 
#    0.000    0.625    0.000    0.750    0.000    0.000 
#    0.000    0.000    0.000    0.000    0.000    0.000 
#
# Total GULP energy -178893.857236 kJ/mol
# GULP energy per Si atom -5590.433039 kJ/mol
# Density = 1.860047 g / cm^3
# Si number density = 18.642904 Si / 1000 Ang^3
#
#
#
# Elastic Constant Matrix: (Units=GPa)
#
#
# Indices 1 2 3 4 5 6 
#
# 1 106.6808 50.8947 42.7846 0.0000 0.0000 0.0000
# 2 50.8947 84.6282 24.8982 0.0000 0.0000 0.0000
# 3 42.7846 24.8982 42.6185 -0.0001 0.0000 0.0000
# 4 0.0000 0.0000 -0.0001 26.9861 0.0000 0.0000
# 5 0.0000 0.0000 0.0000 0.0000 26.7423 0.0000
# 6 0.0000 0.0000 0.0000 0.0000 0.0000 24.9968
#
#
#
# Elastic Compliance Matrix: (Units=1/GPa)
#
#
# Indices 1 2 3 4 5 6 
#
# 1 0.018464 -0.006824 -0.014550 0.000000 0.000000 0.000000
# 2 -0.006824 0.016791 -0.002959 0.000000 0.000000 0.000000
# 3 -0.014550 -0.002959 0.039799 0.000000 0.000000 0.000000
# 4 0.000000 0.000000 0.000000 0.037056 0.000000 0.000000
# 5 0.000000 0.000000 0.000000 0.000000 0.037394 0.000000
# 6 0.000000 0.000000 0.000000 0.000000 0.000000 0.040005
#
#
# Mechanical properties :
#
#
# Convention : Reuss Voigt Hill
#
# Bulk Modulus (GPa) = 37.89435 52.34250 45.11842
# Shear Modulus (GPa) = 20.24528 23.43504 21.84016
#
# Velocity S-wave (km/s) = 3.29895 3.54933 3.42643
# Velocity P-wave (km/s) = 5.90604 6.70331 6.31727
#
# Compressibility (1/GPa) = 0.02638916
#
# Stress axis : x y z
#
# Youngs Moduli (GPa) = 54.15823 59.55695 25.12606
#
# Poissons Ratio (x) = 0.40640 0.36558
# Poissons Ratio (y) = 0.36956 0.07435
# Poissons Ratio (z) = 0.78800 0.17623
#
# Static dielectric constant tensor:
#      x y z
#    x 1.619780 0.000000 0.000000 
#    y 0.000000 1.613700 0.000000 
#    z 0.000000 0.000000 1.662480 
# 
# From -- ./inp_files/16815.got.cif
#   From: 2010.05.17/outbox.cif.g08.bks.cpg/sg44_9_cif.got.tgz:16815.got - 2010.06.03 19:37:08.
