data_PCOD9374936
_publ_section_title
;
Structure prediction by ZEFSAII (Michael W. Deem and Ramdas Pophale) SiO2 
 PCOD9374936
Probable space group: I M M 2
;
_chemical_formula_sum "Si O2"
_cell_formula_units_Z 64
_cell_length_a 13.782345
_cell_length_b 19.996864
_cell_length_c 12.215549
_cell_angle_alpha 90.000000
_cell_angle_beta 90.000000
_cell_angle_gamma 90.000000
_cell_volume 3366.650240
_symmetry_space_group_name_H-M "I M M 2"
_symmetry_group_IT_number 44
_symmetry_cell_setting 'orthorhombic'
loop_
_space_group_symop_operation_xyz
x,y,z
-x,-y,z
-x,y,z
x,-y,z
1/2+x,1/2+y,1/2+z
1/2-x,1/2-y,1/2+z
1/2-x,1/2+y,1/2+z
1/2+x,1/2-y,1/2+z
loop_
_atom_site_type_symbol
_atom_site_label
_atom_site_fract_x
_atom_site_fract_y
_atom_site_fract_z
Si Si1 0.395292 0.318790 0.006910
Si Si2 0.108408 0.073951 0.698113
Si Si3 0.770414 0.363611 0.330620
Si Si4 0.384326 0.079145 0.036401
Si Si5 0.195729 0.267273 0.931955
Si Si6 0.613732 0.230016 0.662587
Si Si7 0.264566 0.848900 0.219014
Si Si8 0.603858 0.573716 0.813228
O O1 0.500000 0.283836 0.011243
O O2 0.383963 0.365499 0.112304
O O3 0.303041 0.273767 0.986060
O O4 0.396378 0.370120 0.905799
O O5 0.197995 0.083086 0.778036
O O6 0.000000 0.078864 0.748096
O O7 0.113477 0.000000 0.645959
O O8 0.835365 0.396468 0.423944
O O9 0.699138 0.306502 0.381055
O O10 0.838227 0.327455 0.238918
O O11 0.500000 0.085783 0.030761
O O12 0.341473 0.127897 0.130016
O O13 0.362625 0.000000 0.055770
O O14 0.189225 0.318908 0.830557
O O15 0.124103 0.282182 0.032113
O O16 0.500000 0.240404 0.691026
O O17 0.683952 0.293737 0.683717
O O18 0.198056 0.913136 0.242996
O O19 0.500000 0.579262 0.753137
O O20 0.607552 0.500000 0.862690
#
# Coordination Sequence:
#
# PCOD9374936 Si02
#       8
#     8   8   8   8   8   8   8   8
#     4   9  17  32  55  84 117 146 183 233 290 349
#     4  10  20  35  59  89 120 153 190 237 294 352
#     4  11  22  40  60  86 120 159 199 243 294 355
#     4  11  24  42  63  85 115 159 206 248 291 354
#     4  10  21  37  58  87 116 153 193 239 302 349
#     4  11  22  39  61  87 118 153 195 249 304 355
#     4  10  21  38  58  84 116 153 195 241 294 350
#     4   9  16  28  51  83 115 147 183 225 279 344
#
# _framework density 19.009995
#
# number of rings (size 3 to 8) (size 9 to 14) (size 15 to 20)
#    0.000    1.875    2.500    1.875    0.000    6.000 
#    0.000    1.875    0.000    2.250    0.000    0.000 
#    0.000    0.000    0.000    0.000    0.000    0.000 
#
# Total GULP energy -178400.668421 kJ/mol
# GULP energy per Si atom -5575.020888 kJ/mol
# Density = 1.896673 g / cm^3
# Si number density = 19.009995 Si / 1000 Ang^3
#
#
#
# Elastic Constant Matrix: (Units=GPa)
#
#
# Indices 1 2 3 4 5 6 
#
# 1 76.9605 17.3256 43.1310 0.0000 0.0000 0.0000
# 2 17.3256 58.8948 20.7630 0.0000 0.0000 0.0000
# 3 43.1310 20.7630 97.4664 0.0000 0.0000 0.0000
# 4 0.0000 0.0000 0.0000 73.9805 0.0000 0.0000
# 5 0.0000 0.0000 0.0000 0.0000 22.1358 0.0000
# 6 0.0000 0.0000 0.0000 0.0000 0.0000 30.4889
#
#
#
# Elastic Compliance Matrix: (Units=1/GPa)
#
#
# Indices 1 2 3 4 5 6 
#
# 1 0.017650 -0.002637 -0.007249 0.000000 0.000000 0.000000
# 2 -0.002637 0.018752 -0.002828 0.000000 0.000000 0.000000
# 3 -0.007249 -0.002828 0.014070 0.000000 0.000000 0.000000
# 4 0.000000 0.000000 0.000000 0.013517 0.000000 0.000000
# 5 0.000000 0.000000 0.000000 0.000000 0.045176 0.000000
# 6 0.000000 0.000000 0.000000 0.000000 0.000000 0.032799
#
#
# Mechanical properties :
#
#
# Convention : Reuss Voigt Hill
#
# Bulk Modulus (GPa) = 39.92777 43.97345 41.95061
# Shear Modulus (GPa) = 28.45139 35.46117 31.95628
#
# Velocity S-wave (km/s) = 3.87286 4.32371 4.10448
# Velocity P-wave (km/s) = 6.40686 6.93599 6.67667
#
# Compressibility (1/GPa) = 0.02504523
#
# Stress axis : x y z
#
# Youngs Moduli (GPa) = 56.65845 53.32750 71.07295
#
# Poissons Ratio (x) = 0.14061 0.51518
# Poissons Ratio (y) = 0.14939 0.20099
# Poissons Ratio (z) = 0.41070 0.15081
#
# Static dielectric constant tensor:
#      x y z
#    x 1.668790 0.000000 0.000000 
#    y 0.000000 1.609460 0.000000 
#    z 0.000000 0.000000 1.688320 
# 
# From -- ./inp_files/12663.got.cif
#   From: 2010.05.17/outbox.cif.g08.bks.cpg/sg44_7_cif.got.tgz:12663.got - 2010.06.03 19:37:08.
