data_PCOD9374611
_publ_section_title
;
Structure prediction by ZEFSAII (Michael W. Deem and Ramdas Pophale) SiO2 
 PCOD9374611
Probable space group: I M M 2
;
_chemical_formula_sum "Si O2"
_cell_formula_units_Z 40
_cell_length_a 7.642042
_cell_length_b 27.115801
_cell_length_c 10.422353
_cell_angle_alpha 90.000000
_cell_angle_beta 90.000000
_cell_angle_gamma 90.000000
_cell_volume 2159.720928
_symmetry_space_group_name_H-M "I M M 2"
_symmetry_group_IT_number 44
_symmetry_cell_setting 'orthorhombic'
loop_
_space_group_symop_operation_xyz
x,y,z
-x,-y,z
-x,y,z
x,-y,z
1/2+x,1/2+y,1/2+z
1/2-x,1/2-y,1/2+z
1/2-x,1/2+y,1/2+z
1/2+x,1/2-y,1/2+z
loop_
_atom_site_type_symbol
_atom_site_label
_atom_site_fract_x
_atom_site_fract_y
_atom_site_fract_z
Si Si1 0.299296 0.706251 0.556590
Si Si2 0.000000 0.442709 0.703796
Si Si3 0.500000 0.057355 0.894716
Si Si4 0.703129 0.368451 0.770681
Si Si5 0.713503 0.182269 0.535048
Si Si6 0.699116 0.853090 0.811633
O O1 0.500000 0.714760 0.595181
O O2 0.224801 0.672520 0.669986
O O3 0.225634 0.760804 0.537052
O O4 0.293887 0.674955 0.425968
O O5 0.000000 0.438645 0.548687
O O6 0.171159 0.415097 0.756218
O O7 0.000000 0.500000 0.737821
O O8 0.334894 0.089222 0.842343
O O9 0.500000 0.000000 0.858701
O O10 0.500000 0.379513 0.738981
O O11 0.714676 0.345809 0.911991
O O12 0.500000 0.180395 0.524956
O O13 0.766316 0.157536 0.669870
O O14 0.500000 0.832096 0.815309
#
# Coordination Sequence:
#
# PCOD9374611 Si02
#       6
#     8   4   4   8   8   8
#     4  10  20  33  52  81 117 157 196 239 286 350
#     4  11  22  41  67  89 115 155 201 255 306 346
#     4   9  18  35  63  85 103 149 201 245 300 348
#     4  11  22  39  59  88 122 154 199 250 291 354
#     4  10  20  34  53  82 121 158 191 233 297 354
#     4   9  18  34  54  78 110 145 191 245 281 348
#
# _framework density 18.520911000000002
#
# number of rings (size 3 to 8) (size 9 to 14) (size 15 to 20)
#    0.600    1.400    3.000    1.200    0.000    3.600 
#    0.000    2.000    0.000    0.600    0.000    0.000 
#    0.000    0.000    0.000    0.000    0.000    0.000 
#
# Total GULP energy -111484.690948 kJ/mol
# GULP energy per Si atom -5574.234547 kJ/mol
# Density = 1.847876 g / cm^3
# Si number density = 18.520911 Si / 1000 Ang^3
#
#
#
# Elastic Constant Matrix: (Units=GPa)
#
#
# Indices 1 2 3 4 5 6 
#
# 1 64.9830 35.1781 10.0090 0.0000 0.0000 -0.0003
# 2 35.1781 179.4451 72.1642 0.0000 0.0000 -0.0001
# 3 10.0090 72.1642 128.3844 -0.0001 -0.0002 -0.0012
# 4 0.0000 0.0000 -0.0001 3.7364 0.0000 -0.0003
# 5 0.0000 0.0000 -0.0002 0.0000 -3.0988 0.0006
# 6 -0.0003 -0.0001 -0.0012 -0.0003 0.0006 -99.0041
#
#
#
# Elastic Compliance Matrix: (Units=1/GPa)
#
#
# Indices 1 2 3 4 5 6 
#
# 1 0.017267 -0.003674 0.000719 0.000000 0.000000 0.000000
# 2 -0.003674 0.007982 -0.004200 0.000000 0.000000 0.000000
# 3 0.000719 -0.004200 0.010094 0.000000 -0.000001 0.000000
# 4 0.000000 0.000000 0.000000 0.267640 0.000000 -0.000001
# 5 0.000000 0.000000 -0.000001 0.000000 -0.322702 -0.000002
# 6 0.000000 0.000000 0.000000 -0.000001 -0.000002 -0.010101
#
#
# Mechanical properties :
#
#
# Convention : Reuss Voigt Hill
#
# Bulk Modulus (GPa) = 47.54594 67.50169 57.52381
# Shear Modulus (GPa) = -588.39465 -2.64257 -295.51861
#
# Velocity S-wave (km/s) = -17.84325 -1.19579 -12.64539
# Velocity P-wave (km/s) = 19.96952 5.88377 13.49376
#
# Compressibility (1/GPa) = 0.02103229
#
# Stress axis : x y z
#
# Youngs Moduli (GPa) = 57.91446 125.27932 99.06862
#
# Poissons Ratio (x) = 0.46029 -0.07124
# Poissons Ratio (y) = 0.21279 0.41612
# Poissons Ratio (z) = -0.04164 0.52621
#
# Static dielectric constant tensor:
#      x y z
#    x 1.694980 0.000000 0.000000 
#    y 0.000000 1.629830 0.000000 
#    z 0.000000 0.000000 1.625070 
# 
# From -- ./inp_files/4642.got.cif
#   From: 2010.05.17/outbox.cif.g08.bks.cpg/sg44_3_cif.got.tgz:4642.got - 2010.06.03 19:37:08.
