data_PCOD9374394
_publ_section_title
;
Structure prediction by ZEFSAII (Michael W. Deem and Ramdas Pophale) SiO2 
 PCOD9374394
Probable space group: I M M 2
;
_chemical_formula_sum "Si O2"
_cell_formula_units_Z 64
_cell_length_a 8.997049
_cell_length_b 14.712706
_cell_length_c 29.003454
_cell_angle_alpha 90.000000
_cell_angle_beta 90.000000
_cell_angle_gamma 90.000000
_cell_volume 3839.214377
_symmetry_space_group_name_H-M "I M M 2"
_symmetry_group_IT_number 44
_symmetry_cell_setting 'orthorhombic'
loop_
_space_group_symop_operation_xyz
x,y,z
-x,-y,z
-x,y,z
x,-y,z
1/2+x,1/2+y,1/2+z
1/2-x,1/2-y,1/2+z
1/2-x,1/2+y,1/2+z
1/2+x,1/2-y,1/2+z
loop_
_atom_site_type_symbol
_atom_site_label
_atom_site_fract_x
_atom_site_fract_y
_atom_site_fract_z
Si Si1 0.823024 0.599925 0.222660
Si Si2 0.331368 0.355816 0.314898
Si Si3 0.178888 0.605757 0.598948
Si Si4 0.179943 0.785832 0.910810
Si Si5 0.678888 0.394243 0.501586
Si Si6 0.676976 0.599925 0.877874
Si Si7 0.831368 0.644184 0.785636
Si Si8 0.679943 0.785832 0.189724
O O1 0.782135 0.500000 0.203701
O O2 0.771595 0.601592 0.276104
O O3 0.746568 0.685976 0.198264
O O4 0.000000 0.610354 0.220197
O O5 0.500000 0.392347 0.312787
O O6 0.277951 0.351054 0.367618
O O7 0.339925 0.250000 0.300267
O O8 0.218908 0.500000 0.607808
O O9 0.250001 0.632623 0.550267
O O10 0.224312 0.668890 0.641624
O O11 0.000000 0.610093 0.595368
O O12 0.224313 0.831110 0.958910
O O13 0.246568 0.685976 0.902270
O O14 0.000000 0.779053 0.908897
O O15 0.500000 0.389907 0.505166
O O16 0.718908 0.500000 0.492725
O O17 0.500000 0.610354 0.880336
O O18 0.717865 0.500000 0.896833
O O19 0.728405 0.601591 0.824430
O O20 0.777951 0.648946 0.732916
O O21 0.000000 0.607654 0.787747
O O22 0.500000 0.779053 0.191637
#
# Coordination Sequence:
#
# PCOD9374394 Si02
#       8
#     8   8   8   8   8   8   8   8
#     4  10  20  31  44  67  99 131 161 195 234 274
#     4   8  15  28  45  65  89 120 158 194 227 266
#     4   9  18  33  52  74  98 121 149 189 237 287
#     4   9  18  32  50  71  94 124 161 196 231 275
#     4   9  18  33  52  74  98 121 149 189 237 287
#     4  10  20  31  44  67  99 131 161 195 234 274
#     4   8  15  28  45  65  89 120 158 194 227 266
#     4   9  18  32  50  71  94 124 161 196 231 275
#
# _framework density 16.670078
#
# number of rings (size 3 to 8) (size 9 to 14) (size 15 to 20)
#    0.000    3.000    0.000    2.250    0.000    8.500 
#    0.000    2.500    0.000    3.750    0.000    0.000 
#    0.000    0.000    0.000    0.000    0.000    0.000 
#
# Total GULP energy -178213.492663 kJ/mol
# GULP energy per Si atom -5569.171646 kJ/mol
# Density = 1.663214 g / cm^3
# Si number density = 16.670078 Si / 1000 Ang^3
#
#
#
# Elastic Constant Matrix: (Units=GPa)
#
#
# Indices 1 2 3 4 5 6 
#
# 1 21.1253 27.2729 29.5625 0.0000 0.0000 0.0000
# 2 27.2729 92.5530 67.0010 0.0000 0.0000 0.0000
# 3 29.5625 67.0010 146.1036 0.0000 0.0000 0.0000
# 4 0.0000 0.0000 0.0000 20.6957 0.0000 0.0000
# 5 0.0000 0.0000 0.0000 0.0000 24.0291 0.0000
# 6 0.0000 0.0000 0.0000 0.0000 0.0000 26.8846
#
#
#
# Elastic Compliance Matrix: (Units=1/GPa)
#
#
# Indices 1 2 3 4 5 6 
#
# 1 0.082639 -0.018333 -0.008314 0.000000 0.000000 0.000000
# 2 -0.018333 0.020241 -0.005573 0.000000 0.000000 0.000000
# 3 -0.008314 -0.005573 0.011082 0.000000 0.000000 0.000000
# 4 0.000000 0.000000 0.000000 0.048319 0.000000 0.000000
# 5 0.000000 0.000000 0.000000 0.000000 0.041616 0.000000
# 6 0.000000 0.000000 0.000000 0.000000 0.000000 0.037196
#
#
# Mechanical properties :
#
#
# Convention : Reuss Voigt Hill
#
# Bulk Modulus (GPa) = 20.19259 56.38386 38.28822
# Shear Modulus (GPa) = 15.52601 23.38493 19.45547
#
# Velocity S-wave (km/s) = 3.05515 3.74947 3.41997
# Velocity P-wave (km/s) = 4.95829 7.25545 6.21394
#
# Compressibility (1/GPa) = 0.04952312
#
# Stress axis : x y z
#
# Youngs Moduli (GPa) = 12.10085 49.40455 90.23395
#
# Poissons Ratio (x) = 0.90572 0.75020
# Poissons Ratio (y) = 0.22184 0.50286
# Poissons Ratio (z) = 0.10061 0.27532
#
# Static dielectric constant tensor:
#      x y z
#    x 1.559100 0.000000 0.000000 
#    y 0.000000 1.578160 0.000000 
#    z 0.000000 0.000000 1.564410 
# 
# From -- ./inp_files/27361.got.cif
#   From: 2010.05.17/outbox.cif.g08.bks.cpg/sg44_14_cif.got.tgz:27361.got - 2010.06.03 19:37:08.
