data_PCOD9374831
_publ_section_title
;
Structure prediction by ZEFSAII (Michael W. Deem and Ramdas Pophale) SiO2 
 PCOD9374831
Probable space group: I M M 2
;
_chemical_formula_sum "Si O2"
_cell_formula_units_Z 64
_cell_length_a 7.513192
_cell_length_b 18.401697
_cell_length_c 21.330625
_cell_angle_alpha 90.000000
_cell_angle_beta 90.000000
_cell_angle_gamma 90.000000
_cell_volume 2949.075855
_symmetry_space_group_name_H-M "I M M 2"
_symmetry_group_IT_number 44
_symmetry_cell_setting 'orthorhombic'
loop_
_space_group_symop_operation_xyz
x,y,z
-x,-y,z
-x,y,z
x,-y,z
1/2+x,1/2+y,1/2+z
1/2-x,1/2-y,1/2+z
1/2-x,1/2+y,1/2+z
1/2+x,1/2-y,1/2+z
loop_
_atom_site_type_symbol
_atom_site_label
_atom_site_fract_x
_atom_site_fract_y
_atom_site_fract_z
Si Si1 0.282280 0.416221 0.410330
Si Si2 0.715154 0.416487 0.915157
Si Si3 0.289461 0.673621 0.289729
Si Si4 0.792524 0.158109 0.288669
Si Si5 0.717740 0.584068 0.661784
Si Si6 0.210836 0.667980 0.042857
Si Si7 0.214498 0.417148 0.164721
Si Si8 0.217860 0.833232 0.036112
O O1 0.500000 0.416719 0.409649
O O2 0.225176 0.500000 0.408721
O O3 0.221630 0.371889 0.349312
O O4 0.226242 0.375861 0.473790
O O5 0.500000 0.417056 0.913727
O O6 0.775988 0.500000 0.915187
O O7 0.781790 0.374324 0.853359
O O8 0.765708 0.375667 0.978693
O O9 0.500000 0.681586 0.297932
O O10 0.216945 0.755072 0.286936
O O11 0.256486 0.629278 0.226261
O O12 0.718280 0.123553 0.224941
O O13 0.000000 0.137041 0.288811
O O14 0.500000 0.585865 0.661437
O O15 0.770742 0.500000 0.660982
O O16 0.774246 0.625826 0.599187
O O17 0.282268 0.623370 0.102362
O O18 0.280368 0.749942 0.036753
O O19 0.000000 0.675609 0.054021
O O20 0.280564 0.500000 0.169348
O O21 0.000000 0.420901 0.160259
O O22 0.000000 0.833112 0.035242
#
# Coordination Sequence:
#
# PCOD9374831 Si02
#       8
#     8   8   8   8   8   8   8   8
#     4   9  17  29  45  69 102 134 164 205 257 306
#     4  10  21  36  54  78 108 142 180 224 274 324
#     4  11  22  35  53  77 106 141 180 222 267 318
#     4  10  20  35  54  77 108 141 174 217 266 319
#     4   9  16  28  50  77 101 130 170 213 258 310
#     4  10  20  35  55  79 107 139 176 219 268 323
#     4  10  21  37  56  78 106 141 180 223 273 327
#     4   9  16  27  47  75 104 131 164 210 259 308
#
# _framework density 21.701713000000002
#
# number of rings (size 3 to 8) (size 9 to 14) (size 15 to 20)
#    0.000    2.250    0.000    3.375    0.000    8.500 
#    0.000    0.000    0.000    1.125    0.000    0.000 
#    0.000    7.000    0.000    0.000    0.000    0.000 
#
# Total GULP energy -178881.598075 kJ/mol
# GULP energy per Si atom -5590.049940 kJ/mol
# Density = 2.165232 g / cm^3
# Si number density = 21.701713 Si / 1000 Ang^3
#
#
#
# Elastic Constant Matrix: (Units=GPa)
#
#
# Indices 1 2 3 4 5 6 
#
# 1 51.6024 -16.2494 -11.8409 0.0000 0.0000 0.0000
# 2 -16.2494 197.2236 123.8506 0.0000 -0.0004 0.0000
# 3 -11.8409 123.8506 236.4189 0.0000 -0.0002 0.0000
# 4 0.0000 0.0000 0.0000 47.8823 -0.0003 0.0000
# 5 0.0000 -0.0004 -0.0002 -0.0003 6448.0384 0.0001
# 6 0.0000 0.0000 0.0000 0.0000 0.0001 3.5943
#
#
#
# Elastic Compliance Matrix: (Units=1/GPa)
#
#
# Indices 1 2 3 4 5 6 
#
# 1 0.019902 0.001511 0.000205 0.000000 0.000000 0.000000
# 2 0.001511 0.007671 -0.003943 0.000000 0.000000 0.000000
# 3 0.000205 -0.003943 0.006306 0.000000 0.000000 0.000000
# 4 0.000000 0.000000 0.000000 0.020885 0.000000 0.000000
# 5 0.000000 0.000000 0.000000 0.000000 0.000155 0.000000
# 6 0.000000 0.000000 0.000000 0.000000 0.000000 0.278220
#
#
# Mechanical properties :
#
#
# Convention : Reuss Voigt Hill
#
# Bulk Modulus (GPa) = 33.98489 75.19615 54.59052
# Shear Modulus (GPa) = 14.39265 1325.86864 670.13064
#
# Velocity S-wave (km/s) = 2.57807 24.74424 17.59153
# Velocity P-wave (km/s) = 4.95539 29.17353 20.92428
#
# Compressibility (1/GPa) = 0.02942484
#
# Stress axis : x y z
#
# Youngs Moduli (GPa) = 50.24669 130.36451 158.59110
#
# Poissons Ratio (x) = -0.19695 -0.03256
# Poissons Ratio (y) = -0.07591 0.62529
# Poissons Ratio (z) = -0.01032 0.51400
#
# Static dielectric constant tensor:
#      x y z
#    x 1.712850 0.000000 0.000000 
#    y 0.000000 1.740990 0.000000 
#    z 0.000000 0.000000 1.741490 
# 
# From -- ./inp_files/23256.got.cif
#   From: 2010.05.17/outbox.cif.g08.bks.cpg/sg44_12_cif.got.tgz:23256.got - 2010.06.03 19:37:08.
