data_PCOD9374440
_publ_section_title
;
Structure prediction by ZEFSAII (Michael W. Deem and Ramdas Pophale) SiO2 
 PCOD9374440
Probable space group: I M M 2
;
_chemical_formula_sum "Si O2"
_cell_formula_units_Z 64
_cell_length_a 20.446970
_cell_length_b 7.682906
_cell_length_c 21.380504
_cell_angle_alpha 90.000000
_cell_angle_beta 90.000000
_cell_angle_gamma 90.000000
_cell_volume 3358.709309
_symmetry_space_group_name_H-M "I M M 2"
_symmetry_group_IT_number 44
_symmetry_cell_setting 'orthorhombic'
loop_
_space_group_symop_operation_xyz
x,y,z
-x,-y,z
-x,y,z
x,-y,z
1/2+x,1/2+y,1/2+z
1/2-x,1/2-y,1/2+z
1/2-x,1/2+y,1/2+z
1/2+x,1/2-y,1/2+z
loop_
_atom_site_type_symbol
_atom_site_label
_atom_site_fract_x
_atom_site_fract_y
_atom_site_fract_z
Si Si1 0.706773 0.293746 0.501100
Si Si2 0.072446 0.705278 0.056467
Si Si3 0.288330 0.286423 0.741654
Si Si4 0.428083 0.210609 0.071014
Si Si5 0.428149 0.707024 0.924250
Si Si6 0.289111 0.291046 0.879038
Si Si7 0.290631 0.786688 0.120151
Si Si8 0.427698 0.702193 0.698908
O O1 0.708115 0.500000 0.506470
O O2 0.631861 0.238979 0.509962
O O3 0.741254 0.248086 0.436259
O O4 0.748615 0.225580 0.560261
O O5 0.070837 0.500000 0.068911
O O6 0.083996 0.792094 0.124042
O O7 0.000000 0.759603 0.034278
O O8 0.289250 0.500000 0.739147
O O9 0.266278 0.232439 0.810658
O O10 0.243140 0.229370 0.684260
O O11 0.362916 0.224723 0.730691
O O12 0.500000 0.269162 0.092658
O O13 0.365386 0.269468 0.109975
O O14 0.427742 0.000000 0.071220
O O15 0.420810 0.266564 0.998801
O O16 0.500000 0.777801 0.906031
O O17 0.429938 0.500000 0.912037
O O18 0.362372 0.777925 0.893009
O O19 0.294382 0.500000 0.876478
O O20 0.290025 0.000000 0.119912
O O21 0.500000 0.779349 0.710607
O O22 0.431107 0.500000 0.718040
#
# Coordination Sequence:
#
# PCOD9374440 Si02
#       8
#     8   8   8   8   8   8   8   8
#     4  11  20  33  54  75  98 129 170 213 251 298
#     4  10  20  33  51  77 106 131 160 204 256 305
#     4   9  17  30  47  69  98 132 167 206 247 290
#     4   9  16  27  46  70  93 120 157 200 243 284
#     4   9  17  28  42  65  97 128 159 194 235 288
#     4  10  20  32  48  70 100 136 170 206 254 302
#     4   9  16  28  48  72  94 122 163 208 246 285
#     4   9  16  28  48  73 100 134 175 208 241 293
#
# _framework density 19.054938
#
# number of rings (size 3 to 8) (size 9 to 14) (size 15 to 20)
#    0.000    2.500    2.500    0.750    0.000    1.250 
#    0.000    3.125    0.000    0.750    0.000    7.000 
#    0.000    0.000    0.000    0.000    0.000    0.000 
#
# Total GULP energy -178470.499505 kJ/mol
# GULP energy per Si atom -5577.203110 kJ/mol
# Density = 1.901157 g / cm^3
# Si number density = 19.054938 Si / 1000 Ang^3
#
#
#
# Elastic Constant Matrix: (Units=GPa)
#
#
# Indices 1 2 3 4 5 6 
#
# 1 134.9759 4.9255 71.8621 0.0000 0.0000 0.0000
# 2 4.9255 34.7909 4.5588 0.0000 0.0000 0.0000
# 3 71.8621 4.5588 100.2246 0.0000 0.0000 0.0000
# 4 0.0000 0.0000 0.0000 12.8903 0.0000 0.0000
# 5 0.0000 0.0000 0.0000 0.0000 24.7610 0.0000
# 6 0.0000 0.0000 0.0000 0.0000 0.0000 7.2201
#
#
#
# Elastic Compliance Matrix: (Units=1/GPa)
#
#
# Indices 1 2 3 4 5 6 
#
# 1 0.011995 -0.000575 -0.008574 0.000000 0.000000 0.000000
# 2 -0.000575 0.028943 -0.000904 0.000000 0.000000 0.000000
# 3 -0.008574 -0.000904 0.016166 0.000000 0.000000 0.000000
# 4 0.000000 0.000000 0.000000 0.077578 0.000000 0.000000
# 5 0.000000 0.000000 0.000000 0.000000 0.040386 0.000000
# 6 0.000000 0.000000 0.000000 0.000000 0.000000 0.138502
#
#
# Mechanical properties :
#
#
# Convention : Reuss Voigt Hill
#
# Bulk Modulus (GPa) = 27.02874 48.07602 37.55238
# Shear Modulus (GPa) = 14.45050 21.55062 18.00056
#
# Velocity S-wave (km/s) = 2.75682 3.36664 3.07688
# Velocity P-wave (km/s) = 4.93446 6.35589 5.68974
#
# Compressibility (1/GPa) = 0.03699766
#
# Stress axis : x y z
#
# Youngs Moduli (GPa) = 83.37067 34.55062 61.85638
#
# Poissons Ratio (x) = 0.01985 0.53037
# Poissons Ratio (y) = 0.04791 0.05595
# Poissons Ratio (z) = 0.71483 0.03125
#
# Static dielectric constant tensor:
#      x y z
#    x 1.639240 0.000000 0.000000 
#    y 0.000000 1.709770 0.000000 
#    z 0.000000 0.000000 1.647140 
# 
# From -- ./inp_files/20732.got.cif
#   From: 2010.05.17/outbox.cif.g08.bks.cpg/sg44_11_cif.got.tgz:20732.got - 2010.06.03 19:37:08.
