data_PCOD9374955
_publ_section_title
;
Structure prediction by ZEFSAII (Michael W. Deem and Ramdas Pophale) SiO2 
 PCOD9374955
Probable space group: I M M 2
;
_chemical_formula_sum "Si O2"
_cell_formula_units_Z 64
_cell_length_a 27.521499
_cell_length_b 7.593348
_cell_length_c 13.419480
_cell_angle_alpha 90.000000
_cell_angle_beta 90.000000
_cell_angle_gamma 90.000000
_cell_volume 2804.407216
_symmetry_space_group_name_H-M "I M M 2"
_symmetry_group_IT_number 44
_symmetry_cell_setting 'orthorhombic'
loop_
_space_group_symop_operation_xyz
x,y,z
-x,-y,z
-x,y,z
x,-y,z
1/2+x,1/2+y,1/2+z
1/2-x,1/2-y,1/2+z
1/2-x,1/2+y,1/2+z
1/2+x,1/2-y,1/2+z
loop_
_atom_site_type_symbol
_atom_site_label
_atom_site_fract_x
_atom_site_fract_y
_atom_site_fract_z
Si Si1 0.877775 0.284440 0.629830
Si Si2 0.445679 0.208231 0.309468
Si Si3 0.597523 0.292733 0.523544
Si Si4 0.278356 0.215313 0.227961
Si Si5 0.445445 0.787178 0.736205
Si Si6 0.757318 0.793640 0.430805
Si Si7 0.869799 0.287370 0.405172
Si Si8 0.196606 0.802806 0.105725
O O1 0.877242 0.500000 0.630520
O O2 0.914023 0.222846 0.716823
O O3 0.824080 0.225321 0.664376
O O4 0.888024 0.231411 0.515862
O O5 0.500000 0.283460 0.311815
O O6 0.422284 0.224071 0.418984
O O7 0.449279 0.000000 0.290695
O O8 0.603428 0.500000 0.506489
O O9 0.564775 0.265223 0.621716
O O10 0.649836 0.216941 0.556868
O O11 0.280104 0.258135 0.343719
O O12 0.276432 0.000000 0.222526
O O13 0.225823 0.286183 0.194162
O O14 0.500000 0.730169 0.765025
O O15 0.403784 0.725018 0.813723
O O16 0.444490 0.000000 0.738786
O O17 0.813313 0.766656 0.401826
O O18 0.739903 0.688084 0.525846
O O19 0.750931 0.000000 0.452345
O O20 0.870956 0.500000 0.402875
O O21 0.181796 0.000000 0.137585
#
# Coordination Sequence:
#
# PCOD9374955 Si02
#       8
#     8   8   8   8   8   8   8   8
#     4   9  17  33  58  82 109 149 191 233 285 342
#     4  10  21  37  59  86 114 147 192 245 295 347
#     4  11  23  38  59  86 117 153 195 244 297 357
#     4   9  17  31  52  75 105 143 180 220 271 328
#     4  10  22  39  60  87 117 152 198 251 299 346
#     4  11  21  33  54  84 115 148 188 233 279 337
#     4  10  20  37  60  83 116 157 194 238 291 348
#     4  10  20  36  55  77 108 147 187 225 275 337
#
# _framework density 22.821221000000001
#
# number of rings (size 3 to 8) (size 9 to 14) (size 15 to 20)
#    0.000    2.000    1.250    2.625    0.000    6.000 
#    0.000    4.375    0.000    0.000    0.000    1.750 
#    0.000    0.000    0.000    0.000    0.000    0.000 
#
# Total GULP energy -178622.832072 kJ/mol
# GULP energy per Si atom -5581.963502 kJ/mol
# Density = 2.276928 g / cm^3
# Si number density = 22.821221 Si / 1000 Ang^3
#
#
#
# Elastic Constant Matrix: (Units=GPa)
#
#
# Indices 1 2 3 4 5 6 
#
# 1 101.1967 -1.7625 24.4372 0.0000 0.0000 0.0000
# 2 -1.7625 56.9824 -0.4277 0.0000 0.0000 0.0000
# 3 24.4372 -0.4277 120.7084 0.0000 0.0000 0.0000
# 4 0.0000 0.0000 0.0000 5.1754 0.0000 0.0000
# 5 0.0000 0.0000 0.0000 0.0000 38.5188 0.0000
# 6 0.0000 0.0000 0.0000 0.0000 0.0000 10.9358
#
#
#
# Elastic Compliance Matrix: (Units=1/GPa)
#
#
# Indices 1 2 3 4 5 6 
#
# 1 0.010395 0.000306 -0.002103 0.000000 0.000000 0.000000
# 2 0.000306 0.017559 0.000000 0.000000 0.000000 0.000000
# 3 -0.002103 0.000000 0.008710 0.000000 0.000000 0.000000
# 4 0.000000 0.000000 0.000000 0.193220 0.000000 0.000000
# 5 0.000000 0.000000 0.000000 0.000000 0.025961 0.000000
# 6 0.000000 0.000000 0.000000 0.000000 0.000000 0.091443
#
#
# Mechanical properties :
#
#
# Convention : Reuss Voigt Hill
#
# Bulk Modulus (GPa) = 30.23948 35.93128 33.08538
# Shear Modulus (GPa) = 13.81573 28.03538 20.92556
#
# Velocity S-wave (km/s) = 2.46314 3.50877 3.03138
# Velocity P-wave (km/s) = 4.62263 5.67399 5.17508
#
# Compressibility (1/GPa) = 0.03306935
#
# Stress axis : x y z
#
# Youngs Moduli (GPa) = 96.20015 56.95174 114.80728
#
# Poissons Ratio (x) = -0.01741 0.24148
# Poissons Ratio (y) = -0.02941 -0.00004
# Poissons Ratio (z) = 0.20234 -0.00002
#
# Static dielectric constant tensor:
#      x y z
#    x 1.860710 0.000000 0.000000 
#    y 0.000000 1.880100 0.000000 
#    z 0.000000 0.000000 1.859100 
# 
# From -- ./inp_files/15062.got.cif
#   From: 2010.05.17/outbox.cif.g08.bks.cpg/sg44_8_cif.got.tgz:15062.got - 2010.06.03 19:37:08.
