data_PCOD9374286
_publ_section_title
;
Structure prediction by ZEFSAII (Michael W. Deem and Ramdas Pophale) SiO2 
 PCOD9374286
Probable space group: I M M 2
;
_chemical_formula_sum "Si O2"
_cell_formula_units_Z 58
_cell_length_a 22.803548
_cell_length_b 9.195260
_cell_length_c 13.261889
_cell_angle_alpha 90.000000
_cell_angle_beta 90.000000
_cell_angle_gamma 90.000000
_cell_volume 2780.813264
_symmetry_space_group_name_H-M "I M M 2"
_symmetry_group_IT_number 44
_symmetry_cell_setting 'orthorhombic'
loop_
_space_group_symop_operation_xyz
x,y,z
-x,-y,z
-x,y,z
x,-y,z
1/2+x,1/2+y,1/2+z
1/2-x,1/2-y,1/2+z
1/2-x,1/2+y,1/2+z
1/2+x,1/2-y,1/2+z
loop_
_atom_site_type_symbol
_atom_site_label
_atom_site_fract_x
_atom_site_fract_y
_atom_site_fract_z
Si Si1 0.850773 0.171767 0.176000
Si Si2 0.221355 0.160826 0.456267
Si Si3 0.360053 0.158557 0.478508
Si Si4 0.770113 0.162032 0.690051
Si Si5 0.069858 0.828412 0.563890
Si Si6 0.894647 0.232326 0.772791
Si Si7 0.500000 0.500000 0.298313
Si Si8 0.878136 0.671133 0.370915
O O1 0.782573 0.221904 0.191605
O O2 0.886606 0.257811 0.261562
O O3 0.856013 0.000000 0.186969
O O4 0.870395 0.221989 0.064322
O O5 0.291038 0.167338 0.452602
O O6 0.206685 0.167807 0.574724
O O7 0.189304 0.290546 0.400071
O O8 0.202849 0.000000 0.417629
O O9 0.392825 0.170304 0.372412
O O10 0.370562 0.000000 0.525017
O O11 0.826873 0.178284 0.760585
O O12 0.744252 0.000000 0.704120
O O13 0.091566 0.727450 0.656540
O O14 0.088038 0.760292 0.457579
O O15 0.000000 0.834012 0.570296
O O16 0.088781 0.000000 0.575720
O O17 0.947469 0.122580 0.794792
O O18 0.889733 0.500000 0.373255
#
# Coordination Sequence:
#
# PCOD9374286 Si02
#       8
#     8   8   8   8   8   8   2   8
#     4  11  24  41  65  96 129 170 219 265 325 409
#     4   9  18  36  60  91 127 168 214 256 319 397
#     4  10  24  42  63  92 132 172 212 270 333 392
#     4  10  19  35  62  93 133 171 208 265 326 385
#     4  11  22  42  68  93 124 167 221 271 321 381
#     4  12  21  39  69  94 131 172 222 272 325 376
#     4  12  24  40  66 104 126 180 238 276 322 382
#     4  12  24  38  61  90 131 169 207 263 327 390
#
# _framework density 20.857208
#
# number of rings (size 3 to 8) (size 9 to 14) (size 15 to 20)
#    0.000    1.241    3.448    4.138    0.966    4.690 
#    0.000    0.345    1.517    0.000    0.000    0.000 
#    0.000    0.000    0.000    0.000    0.000    0.000 
#
# Total GULP energy -161453.509121 kJ/mol
# GULP energy per Si atom -5567.362383 kJ/mol
# Density = 2.080974 g / cm^3
# Si number density = 20.857208 Si / 1000 Ang^3
#
#
#
# Elastic Constant Matrix: (Units=GPa)
#
#
# Indices 1 2 3 4 5 6 
#
# 1 35.2644 14.1293 31.0387 0.0000 0.0000 0.0000
# 2 14.1293 108.5532 53.3395 0.0000 0.0000 0.0000
# 3 31.0387 53.3395 122.6931 0.0000 0.0000 0.0000
# 4 0.0000 0.0000 0.0000 14.4305 0.0000 0.0000
# 5 0.0000 0.0000 0.0000 0.0000 16.1643 0.0000
# 6 0.0000 0.0000 0.0000 0.0000 0.0000 22.7981
#
#
#
# Elastic Compliance Matrix: (Units=1/GPa)
#
#
# Indices 1 2 3 4 5 6 
#
# 1 0.036486 -0.000272 -0.009112 0.000000 0.000000 0.000000
# 2 -0.000272 0.011716 -0.005025 0.000000 0.000000 0.000000
# 3 -0.009112 -0.005025 0.012640 0.000000 0.000000 0.000000
# 4 0.000000 0.000000 0.000000 0.069298 0.000000 0.000000
# 5 0.000000 0.000000 0.000000 0.000000 0.061865 0.000000
# 6 0.000000 0.000000 0.000000 0.000000 0.000000 0.043863
#
#
# Mechanical properties :
#
#
# Convention : Reuss Voigt Hill
#
# Bulk Modulus (GPa) = 31.22505 51.50284 41.36395
# Shear Modulus (GPa) = 18.15795 21.87879 20.01837
#
# Velocity S-wave (km/s) = 2.95377 3.24231 3.10140
# Velocity P-wave (km/s) = 5.16104 6.22603 5.71838
#
# Compressibility (1/GPa) = 0.03202557
#
# Stress axis : x y z
#
# Youngs Moduli (GPa) = 27.40749 85.34972 79.11316
#
# Poissons Ratio (x) = 0.02318 0.72089
# Poissons Ratio (y) = 0.00744 0.39754
# Poissons Ratio (z) = 0.24974 0.42887
#
# Static dielectric constant tensor:
#      x y z
#    x 1.770480 0.000000 0.000000 
#    y 0.000000 1.736230 0.000000 
#    z 0.000000 0.000000 1.815010 
# 
# From -- ./inp_files/19437.got.cif
#   From: 2010.05.17/outbox.cif.g08.bks.cpg/sg44_10_cif.got.tgz:19437.got - 2010.06.03 19:37:08.
