data_PCOD9374411
_publ_section_title
;
Structure prediction by ZEFSAII (Michael W. Deem and Ramdas Pophale) SiO2 
 PCOD9374411
Probable space group: I M M 2
;
_chemical_formula_sum "Si O2"
_cell_formula_units_Z 52
_cell_length_a 21.644978
_cell_length_b 7.588699
_cell_length_c 19.212877
_cell_angle_alpha 90.000000
_cell_angle_beta 90.000000
_cell_angle_gamma 90.000000
_cell_volume 3155.853820
_symmetry_space_group_name_H-M "I M M 2"
_symmetry_group_IT_number 44
_symmetry_cell_setting 'orthorhombic'
loop_
_space_group_symop_operation_xyz
x,y,z
-x,-y,z
-x,y,z
x,-y,z
1/2+x,1/2+y,1/2+z
1/2-x,1/2-y,1/2+z
1/2-x,1/2+y,1/2+z
1/2+x,1/2-y,1/2+z
loop_
_atom_site_type_symbol
_atom_site_label
_atom_site_fract_x
_atom_site_fract_y
_atom_site_fract_z
Si Si1 0.753590 0.788153 0.085710
Si Si2 0.147053 0.000000 0.585710
Si Si3 0.573327 0.500000 0.941255
Si Si4 0.785799 0.211278 0.237928
Si Si5 0.426673 0.500000 0.230165
Si Si6 0.848333 0.701469 0.374257
Si Si7 0.151667 0.298531 0.797163
Si Si8 0.285799 0.288722 0.433492
O O1 0.691748 0.671164 0.085710
O O2 0.790058 0.746257 0.156639
O O3 0.740216 0.000000 0.085710
O O4 0.790058 0.746257 0.014782
O O5 0.105380 0.000000 0.516880
O O6 0.105381 0.000000 0.654541
O O7 0.500000 0.500000 0.946889
O O8 0.598749 0.669521 0.899716
O O9 0.834365 0.290063 0.291874
O O10 0.716636 0.263432 0.262504
O O11 0.789392 0.000000 0.245953
O O12 0.500000 0.500000 0.224531
O O13 0.401251 0.330479 0.271705
O O14 0.859262 0.500000 0.395448
O O15 0.783364 0.763431 0.408916
O O16 0.140738 0.500000 0.775972
O O17 0.165635 0.290065 0.879547
O O18 0.289393 0.500000 0.425466
#
# Coordination Sequence:
#
# PCOD9374411 Si02
#       8
#     8   4   4   8   4   8   8   8
#     4  10  20  31  51  85 118 143 169 219 281 340
#     4  12  23  36  56  76 110 152 191 216 262 324
#     4  12  25  40  54  75 110 155 197 224 258 315
#     4   9  17  31  53  81 113 137 171 224 284 333
#     4  12  25  40  54  75 110 155 197 224 258 315
#     4  10  20  34  54  78 105 141 184 230 276 321
#     4  10  20  34  54  78 105 141 184 230 276 321
#     4   9  17  31  53  81 113 137 171 224 284 333
#
# _framework density 16.477316999999999
#
# number of rings (size 3 to 8) (size 9 to 14) (size 15 to 20)
#    0.000    1.846    4.615    0.231    4.308    0.615 
#    0.000    0.000    0.000    2.769    0.000    2.154 
#    0.000    2.462    0.000    0.000    0.000    0.000 
#
# Total GULP energy -145061.566011 kJ/mol
# GULP energy per Si atom -5579.291000 kJ/mol
# Density = 1.643981 g / cm^3
# Si number density = 16.477317 Si / 1000 Ang^3
#
#
#
# Elastic Constant Matrix: (Units=GPa)
#
#
# Indices 1 2 3 4 5 6 
#
# 1 56.6166 36.3943 35.2169 0.0000 0.0000 0.0000
# 2 36.3943 75.9929 31.8741 0.0000 0.0000 0.0000
# 3 35.2169 31.8741 137.5041 0.0000 0.0000 0.0000
# 4 0.0000 0.0000 0.0000 16.2870 0.0000 0.0000
# 5 0.0000 0.0000 0.0000 0.0000 12.9234 0.0000
# 6 0.0000 0.0000 0.0000 0.0000 0.0000 18.2466
#
#
#
# Elastic Compliance Matrix: (Units=1/GPa)
#
#
# Indices 1 2 3 4 5 6 
#
# 1 0.027793 -0.011437 -0.004467 0.000000 0.000000 0.000000
# 2 -0.011437 0.019283 -0.001541 0.000000 0.000000 0.000000
# 3 -0.004467 -0.001541 0.008774 0.000000 0.000000 0.000000
# 4 0.000000 0.000000 0.000000 0.061399 0.000000 0.000000
# 5 0.000000 0.000000 0.000000 0.000000 0.077379 0.000000
# 6 0.000000 0.000000 0.000000 0.000000 0.000000 0.054805
#
#
# Mechanical properties :
#
#
# Convention : Reuss Voigt Hill
#
# Bulk Modulus (GPa) = 47.70952 53.00935 50.35944
# Shear Modulus (GPa) = 17.16394 20.59996 18.88195
#
# Velocity S-wave (km/s) = 3.23099 3.53965 3.38884
# Velocity P-wave (km/s) = 6.55260 6.99618 6.77802
#
# Compressibility (1/GPa) = 0.02096018
#
# Stress axis : x y z
#
# Youngs Moduli (GPa) = 35.98000 51.86001 113.97661
#
# Poissons Ratio (x) = 0.59312 0.50915
# Poissons Ratio (y) = 0.41150 0.17560
# Poissons Ratio (z) = 0.16073 0.07990
#
# Static dielectric constant tensor:
#      x y z
#    x 1.500180 0.000000 0.000000 
#    y 0.000000 1.602550 0.000000 
#    z 0.000000 0.000000 1.592160 
# 
# From -- ./inp_files/22107.got.cif
#   From: 2010.05.17/outbox.cif.g08.bks.cpg/sg44_12_cif.got.tgz:22107.got - 2010.06.03 19:37:08.
