data_PCOD9374916
_publ_section_title
;
Structure prediction by ZEFSAII (Michael W. Deem and Ramdas Pophale) SiO2 
 PCOD9374916
Probable space group: I M M 2
;
_chemical_formula_sum "Si O2"
_cell_formula_units_Z 48
_cell_length_a 7.673823
_cell_length_b 8.358830
_cell_length_c 34.237996
_cell_angle_alpha 90.000000
_cell_angle_beta 90.000000
_cell_angle_gamma 90.000000
_cell_volume 2196.168244
_symmetry_space_group_name_H-M "I M M 2"
_symmetry_group_IT_number 44
_symmetry_cell_setting 'orthorhombic'
loop_
_space_group_symop_operation_xyz
x,y,z
-x,-y,z
-x,y,z
x,-y,z
1/2+x,1/2+y,1/2+z
1/2-x,1/2-y,1/2+z
1/2-x,1/2+y,1/2+z
1/2+x,1/2-y,1/2+z
loop_
_atom_site_type_symbol
_atom_site_label
_atom_site_fract_x
_atom_site_fract_y
_atom_site_fract_z
Si Si1 0.287023 0.000000 0.215070
Si Si2 0.297134 0.681715 0.257869
Si Si3 0.705373 0.323647 0.509180
Si Si4 0.797129 0.173233 0.585407
Si Si5 0.204262 0.689760 0.345914
Si Si6 0.287425 0.000000 0.123744
Si Si7 0.710587 0.680379 0.927834
O O1 0.223164 0.165355 0.234903
O O2 0.245959 0.000000 0.169414
O O3 0.500000 0.000000 0.219085
O O4 0.500000 0.670318 0.246589
O O5 0.222499 0.500000 0.252717
O O6 0.287973 0.721098 0.304026
O O7 0.500000 0.321374 0.516818
O O8 0.776505 0.500000 0.518338
O O9 0.788362 0.198198 0.538747
O O10 0.732452 0.288767 0.463714
O O11 0.722273 0.335408 0.604128
O O12 0.000000 0.168498 0.597097
O O13 0.719611 0.000000 0.595781
O O14 0.216047 0.500000 0.352908
O O15 0.274965 0.772625 0.384788
O O16 0.000000 0.732458 0.341915
O O17 0.500000 0.000000 0.119682
O O18 0.500000 0.688674 0.926266
O O19 0.763925 0.500000 0.936903
#
# Coordination Sequence:
#
# PCOD9374916 Si02
#       7
#     4   8   8   8   8   4   8
#     4   9  18  32  53  81 111 141 177 221 273 321
#     4   9  18  32  51  76 106 141 179 219 264 318
#     4  11  23  37  54  77 107 144 183 222 271 327
#     4  10  20  35  58  84 108 141 182 223 272 325
#     4   9  18  33  52  74 102 137 176 219 268 316
#     4   9  18  34  55  83 113 139 177 229 273 321
#     4  10  21  35  52  77 106 138 180 227 272 320
#
# _framework density 21.856248999999998
#
# number of rings (size 3 to 8) (size 9 to 14) (size 15 to 20)
#    0.000    2.333    0.833    1.500    1.167    5.667 
#    0.000    5.000    0.000    2.000    0.000    2.333 
#    0.000    0.000    0.000    0.000    0.000    0.000 
#
# Total GULP energy -133939.813341 kJ/mol
# GULP energy per Si atom -5580.825556 kJ/mol
# Density = 2.180650 g / cm^3
# Si number density = 21.856249 Si / 1000 Ang^3
#
#
#
# Elastic Constant Matrix: (Units=GPa)
#
#
# Indices 1 2 3 4 5 6 
#
# 1 38.6317 12.7929 -4.8924 0.0000 0.0000 0.0000
# 2 12.7929 168.8412 78.5465 0.0000 0.0000 0.0000
# 3 -4.8924 78.5465 103.2511 0.0000 0.0000 0.0000
# 4 0.0000 0.0000 0.0000 19.6917 0.0000 0.0000
# 5 0.0000 0.0000 0.0000 0.0000 9.0185 0.0000
# 6 0.0000 0.0000 0.0000 0.0000 0.0000 1.9627
#
#
#
# Elastic Compliance Matrix: (Units=1/GPa)
#
#
# Indices 1 2 3 4 5 6 
#
# 1 0.027855 -0.004217 0.004528 0.000000 0.000000 0.000000
# 2 -0.004217 0.009805 -0.007659 0.000000 0.000000 0.000000
# 3 0.004528 -0.007659 0.015726 0.000000 0.000000 0.000000
# 4 0.000000 0.000000 0.000000 0.050783 0.000000 0.000000
# 5 0.000000 0.000000 0.000000 0.000000 0.110883 0.000000
# 6 0.000000 0.000000 0.000000 0.000000 0.000000 0.509503
#
#
# Mechanical properties :
#
#
# Convention : Reuss Voigt Hill
#
# Bulk Modulus (GPa) = 25.84610 53.73533 39.79071
# Shear Modulus (GPa) = 6.64762 21.08638 13.86700
#
# Velocity S-wave (km/s) = 1.74589 3.10945 2.52159
# Velocity P-wave (km/s) = 3.98940 6.12624 5.16943
#
# Compressibility (1/GPa) = 0.03869056
#
# Stress axis : x y z
#
# Youngs Moduli (GPa) = 35.89973 101.98576 63.58840
#
# Poissons Ratio (x) = 0.43007 -0.28792
# Poissons Ratio (y) = 0.15139 0.48702
# Poissons Ratio (z) = -0.16255 0.78111
#
# Static dielectric constant tensor:
#      x y z
#    x 1.827290 0.000000 0.000000 
#    y 0.000000 1.818190 0.000000 
#    z 0.000000 0.000000 1.755640 
# 
# From -- ./inp_files/26877.got.cif
#   From: 2010.05.17/outbox.cif.g08.bks.cpg/sg44_14_cif.got.tgz:26877.got - 2010.06.03 19:37:08.
