data_PCOD9374379
_publ_section_title
;
Structure prediction by ZEFSAII (Michael W. Deem and Ramdas Pophale) SiO2 
 PCOD9374379
Probable space group: I M M 2
;
_chemical_formula_sum "Si O2"
_cell_formula_units_Z 48
_cell_length_a 8.344448
_cell_length_b 7.352303
_cell_length_c 35.059358
_cell_angle_alpha 90.000000
_cell_angle_beta 90.000000
_cell_angle_gamma 90.000000
_cell_volume 2150.923520
_symmetry_space_group_name_H-M "I M M 2"
_symmetry_group_IT_number 44
_symmetry_cell_setting 'orthorhombic'
loop_
_space_group_symop_operation_xyz
x,y,z
-x,-y,z
-x,y,z
x,-y,z
1/2+x,1/2+y,1/2+z
1/2-x,1/2-y,1/2+z
1/2-x,1/2+y,1/2+z
1/2+x,1/2-y,1/2+z
loop_
_atom_site_type_symbol
_atom_site_label
_atom_site_fract_x
_atom_site_fract_y
_atom_site_fract_z
Si Si1 0.175894 0.221670 0.308840
Si Si2 0.320222 0.282612 0.544575
Si Si3 0.675985 0.283542 0.963014
Si Si4 0.500000 0.221928 0.265922
Si Si5 0.000000 0.278242 0.677606
Si Si6 0.177186 0.278527 0.886028
Si Si7 0.813159 0.221705 0.130317
O O1 0.334265 0.280799 0.285980
O O2 0.200305 0.275170 0.353073
O O3 0.000000 0.280377 0.294945
O O4 0.176447 0.000000 0.307407
O O5 0.500000 0.214330 0.537658
O O6 0.326041 0.500000 0.547451
O O7 0.221666 0.244130 0.506812
O O8 0.271354 0.220790 0.586786
O O9 0.500000 0.209270 0.956174
O O10 0.671638 0.500000 0.958129
O O11 0.788094 0.215646 0.928988
O O12 0.500000 0.274743 0.221723
O O13 0.500000 0.000000 0.267847
O O14 0.833787 0.219923 0.657196
O O15 0.000000 0.500000 0.675956
O O16 0.177997 0.500000 0.886298
O O17 0.000000 0.221804 0.874164
O O18 0.000000 0.276719 0.138275
O O19 0.815612 0.000000 0.131578
#
# Coordination Sequence:
#
# PCOD9374379 Si02
#       7
#     8   8   8   4   4   8   8
#     4   9  15  23  35  50  73 107 143 179 218 264
#     4   9  18  32  48  65  86 117 158 196 232 277
#     4  10  20  30  42  66  94 119 153 194 233 275
#     4   9  16  24  32  52  78 103 143 183 217 263
#     4   9  16  24  38  56  77 107 143 183 225 269
#     4   9  15  25  40  55  77 111 148 182 220 268
#     4   8  15  27  41  58  79 106 144 184 221 269
#
# _framework density 22.315996999999999
#
# number of rings (size 3 to 8) (size 9 to 14) (size 15 to 20)
#    0.000    3.000    0.833    2.000    1.167    4.000 
#    0.000    3.333    0.000    0.000    0.000    0.000 
#    0.000    0.000    0.000    3.000    0.000   14.333 
#
# Total GULP energy -133839.350972 kJ/mol
# GULP energy per Si atom -5576.639624 kJ/mol
# Density = 2.226520 g / cm^3
# Si number density = 22.315997 Si / 1000 Ang^3
#
#
#
# Elastic Constant Matrix: (Units=GPa)
#
#
# Indices 1 2 3 4 5 6 
#
# 1 175.6577 3.7060 100.1791 0.0000 0.0000 0.0000
# 2 3.7060 80.1773 0.4107 0.0000 0.0000 0.0000
# 3 100.1791 0.4107 143.3203 0.0000 0.0000 0.0000
# 4 0.0000 0.0000 0.0000 -2.1412 0.0000 0.0000
# 5 0.0000 0.0000 0.0000 0.0000 31.7554 0.0000
# 6 0.0000 0.0000 0.0000 0.0000 0.0000 -7.2151
#
#
#
# Elastic Compliance Matrix: (Units=1/GPa)
#
#
# Indices 1 2 3 4 5 6 
#
# 1 0.009480 -0.000404 -0.006625 0.000000 0.000000 0.000000
# 2 -0.000404 0.012490 0.000247 0.000000 0.000000 0.000000
# 3 -0.006625 0.000247 0.011608 0.000000 0.000000 0.000000
# 4 0.000000 0.000000 0.000000 -0.467031 0.000000 0.000000
# 5 0.000000 0.000000 0.000000 0.000000 0.031491 0.000000
# 6 0.000000 0.000000 0.000000 0.000000 0.000000 -0.138598
#
#
# Mechanical properties :
#
#
# Convention : Reuss Voigt Hill
#
# Bulk Modulus (GPa) = 49.97013 67.52741 58.74877
# Shear Modulus (GPa) = -9.60937 24.13711 7.26387
#
# Velocity S-wave (km/s) = -2.07735 3.29235 1.80612
# Velocity P-wave (km/s) = 4.08495 6.69164 5.54368
#
# Compressibility (1/GPa) = 0.02001196
#
# Stress axis : x y z
#
# Youngs Moduli (GPa) = 105.48798 80.06551 86.15111
#
# Poissons Ratio (x) = 0.03237 0.57076
# Poissons Ratio (y) = 0.04264 -0.02126
# Poissons Ratio (z) = 0.69887 -0.01976
#
# Static dielectric constant tensor:
#      x y z
#    x 1.817470 0.000000 0.000000 
#    y 0.000000 1.780910 0.000000 
#    z 0.000000 0.000000 1.791970 
# 
# From -- ./inp_files/26961.got.cif
#   From: 2010.05.17/outbox.cif.g08.bks.cpg/sg44_14_cif.got.tgz:26961.got - 2010.06.03 19:37:08.
