data_PCOD9374318
_publ_section_title
;
Structure prediction by ZEFSAII (Michael W. Deem and Ramdas Pophale) SiO2 
 PCOD9374318
Probable space group: I M M 2
;
_chemical_formula_sum "Si O2"
_cell_formula_units_Z 44
_cell_length_a 15.386085
_cell_length_b 7.513919
_cell_length_c 20.413366
_cell_angle_alpha 90.000000
_cell_angle_beta 90.000000
_cell_angle_gamma 90.000000
_cell_volume 2359.985087
_symmetry_space_group_name_H-M "I M M 2"
_symmetry_group_IT_number 44
_symmetry_cell_setting 'orthorhombic'
loop_
_space_group_symop_operation_xyz
x,y,z
-x,-y,z
-x,y,z
x,-y,z
1/2+x,1/2+y,1/2+z
1/2-x,1/2-y,1/2+z
1/2-x,1/2+y,1/2+z
1/2+x,1/2-y,1/2+z
loop_
_atom_site_type_symbol
_atom_site_label
_atom_site_fract_x
_atom_site_fract_y
_atom_site_fract_z
Si Si1 0.237257 0.210584 0.397150
Si Si2 0.792028 0.712191 0.040249
Si Si3 0.352771 0.000000 0.064359
Si Si4 0.595869 0.000000 0.205557
Si Si5 0.268776 0.708344 0.248215
Si Si6 0.094964 0.500000 0.420387
Si Si7 0.598591 0.215244 0.665093
O O1 0.296402 0.250093 0.461801
O O2 0.271808 0.265460 0.326385
O O3 0.150141 0.326208 0.402969
O O4 0.220924 0.000000 0.397612
O O5 0.777500 0.500000 0.046943
O O6 0.869337 0.758784 0.090850
O O7 0.710391 0.828404 0.063334
O O8 0.409230 0.000000 0.127922
O O9 0.406791 0.000000 0.998475
O O10 0.653401 0.171048 0.222852
O O11 0.500000 0.000000 0.235691
O O12 0.278708 0.500000 0.232213
O O13 0.176331 0.768282 0.215293
O O14 0.000000 0.500000 0.390252
O O15 0.500000 0.280056 0.677868
O O16 0.595195 0.000000 0.669207
#
# Coordination Sequence:
#
# PCOD9374318 Si02
#       7
#     8   8   4   4   8   4   8
#     4  10  20  36  60  83 113 163 202 238 298 355
#     4   9  18  34  57  85 114 154 193 238 291 353
#     4  10  19  36  60  82 112 150 198 246 300 346
#     4  12  25  40  62  88 113 152 210 260 299 351
#     4  11  22  40  61  86 122 160 195 247 305 360
#     4  10  21  36  56  88 121 152 194 248 303 363
#     4   9  18  34  59  89 120 154 191 237 297 365
#
# _framework density 18.644186000000001
#
# number of rings (size 3 to 8) (size 9 to 14) (size 15 to 20)
#    0.000    2.000    3.636    0.273    0.000    1.455 
#    0.000    2.727    0.000    3.273    0.000    0.000 
#    0.000    0.000    0.000    0.000    0.000    0.000 
#
# Total GULP energy -122560.440810 kJ/mol
# GULP energy per Si atom -5570.929128 kJ/mol
# Density = 1.860175 g / cm^3
# Si number density = 18.644186 Si / 1000 Ang^3
#
#
#
# Elastic Constant Matrix: (Units=GPa)
#
#
# Indices 1 2 3 4 5 6 
#
# 1 118.4661 40.3099 42.6909 0.0000 0.0000 0.0000
# 2 40.3099 84.2408 18.0134 0.0000 0.0000 0.0000
# 3 42.6909 18.0134 109.7586 0.0000 0.0000 0.0000
# 4 0.0000 0.0000 0.0000 10.9801 0.0000 0.0000
# 5 0.0000 0.0000 0.0000 0.0000 2.4026 0.0000
# 6 0.0000 0.0000 0.0000 0.0000 0.0000 14.6998
#
#
#
# Elastic Compliance Matrix: (Units=1/GPa)
#
#
# Indices 1 2 3 4 5 6 
#
# 1 0.011336 -0.004644 -0.003647 0.000000 0.000000 0.000000
# 2 -0.004644 0.014205 -0.000525 0.000000 0.000000 0.000000
# 3 -0.003647 -0.000525 0.010615 0.000000 0.000000 0.000000
# 4 0.000000 0.000000 0.000000 0.091074 0.000000 0.000000
# 5 0.000000 0.000000 0.000000 0.000000 0.416216 0.000000
# 6 0.000000 0.000000 0.000000 0.000000 0.000000 0.068028
#
#
# Mechanical properties :
#
#
# Convention : Reuss Voigt Hill
#
# Bulk Modulus (GPa) = 53.98317 57.16598 55.57458
# Shear Modulus (GPa) = 7.87052 19.71325 13.79189
#
# Velocity S-wave (km/s) = 2.05684 3.25520 2.72277
# Velocity P-wave (km/s) = 5.88711 6.69751 6.30534
#
# Compressibility (1/GPa) = 0.01852429
#
# Stress axis : x y z
#
# Youngs Moduli (GPa) = 88.21639 70.39585 94.20194
#
# Poissons Ratio (x) = 0.32695 0.34354
# Poissons Ratio (y) = 0.40972 0.04945
# Poissons Ratio (z) = 0.32171 0.03695
#
# Static dielectric constant tensor:
#      x y z
#    x 1.641670 0.000000 0.000000 
#    y 0.000000 1.635010 0.000000 
#    z 0.000000 0.000000 1.684790 
# 
# From -- ./inp_files/21686.got.cif
#   From: 2010.05.17/outbox.cif.g08.bks.cpg/sg44_11_cif.got.tgz:21686.got - 2010.06.03 19:37:08.
