data_PCOD9374827
_publ_section_title
;
Structure prediction by ZEFSAII (Michael W. Deem and Ramdas Pophale) SiO2 
 PCOD9374827
Probable space group: I M M 2
;
_chemical_formula_sum "Si O2"
_cell_formula_units_Z 64
_cell_length_a 7.795687
_cell_length_b 16.050402
_cell_length_c 23.591331
_cell_angle_alpha 90.000000
_cell_angle_beta 90.000000
_cell_angle_gamma 90.000000
_cell_volume 2951.839582
_symmetry_space_group_name_H-M "I M M 2"
_symmetry_group_IT_number 44
_symmetry_cell_setting 'orthorhombic'
loop_
_space_group_symop_operation_xyz
x,y,z
-x,-y,z
-x,y,z
x,-y,z
1/2+x,1/2+y,1/2+z
1/2-x,1/2-y,1/2+z
1/2-x,1/2+y,1/2+z
1/2+x,1/2-y,1/2+z
loop_
_atom_site_type_symbol
_atom_site_label
_atom_site_fract_x
_atom_site_fract_y
_atom_site_fract_z
Si Si1 0.790642 0.594602 0.875000
Si Si2 0.702009 0.780458 0.471815
Si Si3 0.794598 0.730737 0.092914
Si Si4 0.199055 0.625087 0.746948
Si Si5 0.302893 0.905692 0.948882
Si Si6 0.300097 0.412205 0.623390
Si Si7 0.805027 0.902494 0.822410
Si Si8 0.196892 0.181589 0.714117
O O1 0.747394 0.500000 0.893289
O O2 0.728400 0.666514 0.918416
O O3 0.732583 0.606645 0.809722
O O4 0.000000 0.599903 0.872265
O O5 0.500000 0.798878 0.470906
O O6 0.772116 0.805443 0.533760
O O7 0.719562 0.679750 0.470625
O O8 0.723222 0.824747 0.102822
O O9 0.764007 0.680259 0.150435
O O10 0.000000 0.738258 0.087807
O O11 0.291034 0.589248 0.691748
O O12 0.201593 0.723529 0.735576
O O13 0.000000 0.597627 0.744673
O O14 0.500000 0.906277 0.967308
O O15 0.292710 0.892612 0.881045
O O16 0.230533 0.000000 0.960054
O O17 0.500000 0.412309 0.606723
O O18 0.222402 0.500000 0.603330
O O19 0.720020 0.867182 0.765992
O O20 0.000000 0.866301 0.830300
O O21 0.822896 0.000000 0.813706
O O22 0.000000 0.152735 0.711259
#
# Coordination Sequence:
#
# PCOD9374827 Si02
#       8
#     8   8   8   8   8   8   8   8
#     4   9  17  30  50  75 100 126 162 209 252 290
#     4  10  20  35  54  73  97 135 179 216 251 298
#     4   9  19  33  48  68  94 127 167 204 240 288
#     4   9  16  27  46  70  93 118 149 187 235 290
#     4  10  21  35  52  78 109 136 164 206 263 319
#     4   9  17  29  44  64  92 121 148 185 233 282
#     4   9  17  31  52  76 100 128 165 206 249 305
#     4   9  17  30  49  72  97 125 159 200 245 293
#
# _framework density 21.681394999999998
#
# number of rings (size 3 to 8) (size 9 to 14) (size 15 to 20)
#    0.000    2.750    0.000    1.500    0.000    5.000 
#    0.000    5.000    0.000    1.875    0.000    0.000 
#    0.000    0.000    0.000    0.000    0.000    0.000 
#
# Total GULP energy -178287.738560 kJ/mol
# GULP energy per Si atom -5571.491830 kJ/mol
# Density = 2.163205 g / cm^3
# Si number density = 21.681395 Si / 1000 Ang^3
#
#
#
# Elastic Constant Matrix: (Units=GPa)
#
#
# Indices 1 2 3 4 5 6 
#
# 1 28.1270 -1.2660 -3.5627 0.0000 0.0000 0.0000
# 2 -1.2660 26.0228 35.7902 0.0000 0.0000 0.0000
# 3 -3.5627 35.7902 119.4143 0.0000 0.0000 0.0000
# 4 0.0000 0.0000 0.0000 -9.6190 0.0000 0.0000
# 5 0.0000 0.0000 0.0000 0.0000 15.6238 0.0000
# 6 0.0000 0.0000 0.0000 0.0000 0.0000 9.6706
#
#
#
# Elastic Compliance Matrix: (Units=1/GPa)
#
#
# Indices 1 2 3 4 5 6 
#
# 1 0.035691 0.000463 0.000926 0.000000 0.000000 0.000000
# 2 0.000463 0.065383 -0.019582 0.000000 0.000000 0.000000
# 3 0.000926 -0.019582 0.014271 0.000000 0.000000 0.000000
# 4 0.000000 0.000000 0.000000 -0.103961 0.000000 0.000000
# 5 0.000000 0.000000 0.000000 0.000000 0.064005 0.000000
# 6 0.000000 0.000000 0.000000 0.000000 0.000000 0.103406
#
#
# Mechanical properties :
#
#
# Convention : Reuss Voigt Hill
#
# Bulk Modulus (GPa) = 12.66505 26.16526 19.41515
# Shear Modulus (GPa) = 20.70384 12.64193 16.67288
#
# Velocity S-wave (km/s) = 3.09352 2.41732 2.77608
# Velocity P-wave (km/s) = 4.31439 4.45932 4.38745
#
# Compressibility (1/GPa) = 0.07895743
#
# Stress axis : x y z
#
# Youngs Moduli (GPa) = 28.01817 15.29460 70.07249
#
# Poissons Ratio (x) = -0.00707 -0.06490
# Poissons Ratio (y) = -0.01296 1.37218
# Poissons Ratio (z) = -0.02595 0.29950
#
# Static dielectric constant tensor:
#      x y z
#    x 1.829830 0.000000 0.000000 
#    y 0.000000 1.824410 0.000000 
#    z 0.000000 0.000000 1.836130 
# 
# From -- ./inp_files/23271.got.cif
#   From: 2010.05.17/outbox.cif.g08.bks.cpg/sg44_12_cif.got.tgz:23271.got - 2010.06.03 19:37:08.
