data_PCOD9374446
_publ_section_title
;
Structure prediction by ZEFSAII (Michael W. Deem and Ramdas Pophale) SiO2 
 PCOD9374446
Probable space group: I M M 2
;
_chemical_formula_sum "Si O2"
_cell_formula_units_Z 48
_cell_length_a 9.689757
_cell_length_b 7.926137
_cell_length_c 32.379675
_cell_angle_alpha 90.000000
_cell_angle_beta 90.000000
_cell_angle_gamma 90.000000
_cell_volume 2486.834856
_symmetry_space_group_name_H-M "I M M 2"
_symmetry_group_IT_number 44
_symmetry_cell_setting 'orthorhombic'
loop_
_space_group_symop_operation_xyz
x,y,z
-x,-y,z
-x,y,z
x,-y,z
1/2+x,1/2+y,1/2+z
1/2-x,1/2-y,1/2+z
1/2-x,1/2+y,1/2+z
1/2+x,1/2-y,1/2+z
loop_
_atom_site_type_symbol
_atom_site_label
_atom_site_fract_x
_atom_site_fract_y
_atom_site_fract_z
Si Si1 0.341734 0.298918 0.205080
Si Si2 0.656219 0.201940 0.871753
Si Si3 0.840946 0.205995 0.040321
Si Si4 0.342199 0.202727 0.116268
Si Si5 0.658387 0.200170 0.294631
Si Si6 0.340651 0.293850 0.447462
O O1 0.500000 0.231188 0.204657
O O2 0.345748 0.500000 0.205565
O O3 0.280165 0.244164 0.161288
O O4 0.283948 0.240688 0.248961
O O5 0.500000 0.268450 0.868919
O O6 0.745040 0.233909 0.830834
O O7 0.740071 0.267401 0.911540
O O8 0.647238 0.000000 0.876712
O O9 0.745291 0.266300 0.077512
O O10 0.000000 0.255788 0.046646
O O11 0.837735 0.000000 0.040699
O O12 0.799696 0.257927 0.993921
O O13 0.500000 0.267805 0.114842
O O14 0.347935 0.000000 0.113286
O O15 0.500000 0.268489 0.297572
O O16 0.650588 0.000000 0.298711
O O17 0.500000 0.242998 0.440153
O O18 0.339901 0.500000 0.446924
#
# Coordination Sequence:
#
# PCOD9374446 Si02
#       6
#     8   8   8   8   8   8
#     4   9  17  30  49  71  94 122 157 196 237 284
#     4  10  20  32  48  73 103 131 160 198 245 294
#     4   8  14  25  42  66  95 125 157 193 233 276
#     4   9  16  26  43  68  95 121 153 195 237 276
#     4  10  20  34  53  74  95 124 164 205 244 290
#     4   8  14  26  45  68  94 125 161 199 236 277
#
# _framework density 19.301644
#
# number of rings (size 3 to 8) (size 9 to 14) (size 15 to 20)
#    0.000    3.000    0.000    2.500    0.000    4.667 
#    0.000    4.167    0.000    4.500    0.000    4.667 
#    0.000    0.000    0.000    0.000    0.000    0.000 
#
# Total GULP energy -133754.873709 kJ/mol
# GULP energy per Si atom -5573.119738 kJ/mol
# Density = 1.925771 g / cm^3
# Si number density = 19.301644 Si / 1000 Ang^3
#
#
#
# Elastic Constant Matrix: (Units=GPa)
#
#
# Indices 1 2 3 4 5 6 
#
# 1 89.8264 6.9354 105.1159 0.0000 0.0000 0.0000
# 2 6.9354 18.5792 3.1954 0.0000 0.0000 0.0000
# 3 105.1159 3.1954 214.3850 0.0000 0.0000 0.0000
# 4 0.0000 0.0000 0.0000 17.8510 0.0000 0.0000
# 5 0.0000 0.0000 0.0000 0.0000 29.2727 0.0000
# 6 0.0000 0.0000 0.0000 0.0000 0.0000 7.9157
#
#
#
# Elastic Compliance Matrix: (Units=1/GPa)
#
#
# Indices 1 2 3 4 5 6 
#
# 1 0.027225 -0.007887 -0.013231 0.000000 0.000000 0.000000
# 2 -0.007887 0.056247 0.003029 0.000000 0.000000 0.000000
# 3 -0.013231 0.003029 0.011107 0.000000 0.000000 0.000000
# 4 0.000000 0.000000 0.000000 0.056019 0.000000 0.000000
# 5 0.000000 0.000000 0.000000 0.000000 0.034162 0.000000
# 6 0.000000 0.000000 0.000000 0.000000 0.000000 0.126331
#
#
# Mechanical properties :
#
#
# Convention : Reuss Voigt Hill
#
# Bulk Modulus (GPa) = 17.12342 61.47601 39.29972
# Shear Modulus (GPa) = 13.63381 24.84414 19.23898
#
# Velocity S-wave (km/s) = 2.66062 3.59158 3.16056
# Velocity P-wave (km/s) = 4.28127 7.00846 5.80723
#
# Compressibility (1/GPa) = 0.05839954
#
# Stress axis : x y z
#
# Youngs Moduli (GPa) = 36.73128 17.77878 90.03529
#
# Poissons Ratio (x) = 0.14022 1.19127
# Poissons Ratio (y) = 0.28970 -0.27270
# Poissons Ratio (z) = 0.48600 -0.05385
#
# Static dielectric constant tensor:
#      x y z
#    x 1.708900 0.000000 0.000000 
#    y 0.000000 1.704330 0.000000 
#    z 0.000000 0.000000 1.682520 
# 
# From -- ./inp_files/26034.got.cif
#   From: 2010.05.17/outbox.cif.g08.bks.cpg/sg44_14_cif.got.tgz:26034.got - 2010.06.03 19:37:08.
