data_PCOD9374478
_publ_section_title
;
Structure prediction by ZEFSAII (Michael W. Deem and Ramdas Pophale) SiO2 
 PCOD9374478
Probable space group: I M M 2
;
_chemical_formula_sum "Si O2"
_cell_formula_units_Z 64
_cell_length_a 12.835480
_cell_length_b 14.402934
_cell_length_c 17.185889
_cell_angle_alpha 90.000000
_cell_angle_beta 90.000000
_cell_angle_gamma 90.000000
_cell_volume 3177.130746
_symmetry_space_group_name_H-M "I M M 2"
_symmetry_group_IT_number 44
_symmetry_cell_setting 'orthorhombic'
loop_
_space_group_symop_operation_xyz
x,y,z
-x,-y,z
-x,y,z
x,-y,z
1/2+x,1/2+y,1/2+z
1/2-x,1/2-y,1/2+z
1/2-x,1/2+y,1/2+z
1/2+x,1/2-y,1/2+z
loop_
_atom_site_type_symbol
_atom_site_label
_atom_site_fract_x
_atom_site_fract_y
_atom_site_fract_z
Si Si1 0.614970 0.111045 0.766320
Si Si2 0.162965 0.390555 0.088008
Si Si3 0.111043 0.889274 0.644955
Si Si4 0.180232 0.776408 0.787337
Si Si5 0.686916 0.768469 0.454066
Si Si6 0.119154 0.891697 0.397808
Si Si7 0.621817 0.390588 0.555542
Si Si8 0.796080 0.106308 0.226928
O O1 0.500000 0.134534 0.796654
O O2 0.616648 0.129313 0.673078
O O3 0.709357 0.169890 0.800663
O O4 0.632246 0.000000 0.775447
O O5 0.152289 0.500000 0.074788
O O6 0.285157 0.364374 0.098604
O O7 0.125372 0.334044 0.014194
O O8 0.118330 0.841536 0.728817
O O9 0.000000 0.866161 0.607763
O O10 0.116490 0.000000 0.655236
O O11 0.206921 0.681329 0.742590
O O12 0.134945 0.753425 0.871251
O O13 0.793130 0.823594 0.431836
O O14 0.694052 0.672587 0.501392
O O15 0.131963 0.888413 0.303823
O O16 0.000000 0.869542 0.418012
O O17 0.139536 0.000000 0.421471
O O18 0.500000 0.370416 0.540094
O O19 0.638514 0.500000 0.542018
O O20 0.645813 0.372135 0.646499
O O21 0.758035 0.000000 0.222403
#
# Coordination Sequence:
#
# PCOD9374478 Si02
#       8
#     8   8   8   8   8   8   8   8
#     4   9  18  34  56  77  97 127 167 210 255 301
#     4   9  18  33  52  77 105 130 162 206 257 312
#     4   9  18  34  56  77  97 129 175 220 254 290
#     4  10  20  32  50  76 105 136 167 205 253 306
#     4  11  22  32  48  76 111 143 168 203 259 317
#     4   9  18  34  57  83 108 134 167 211 263 316
#     4  10  21  36  54  76 103 139 181 220 257 300
#     4   9  18  34  56  78 100 130 172 220 261 299
#
# _framework density 20.143961000000001
#
# number of rings (size 3 to 8) (size 9 to 14) (size 15 to 20)
#    0.000    2.500    0.000    3.375    0.000    8.000 
#    0.000    2.500    0.000    1.875    0.000    7.000 
#    0.000    0.000    0.000    0.000    0.000    0.000 
#
# Total GULP energy -178538.355560 kJ/mol
# GULP energy per Si atom -5579.323611 kJ/mol
# Density = 2.009811 g / cm^3
# Si number density = 20.143961 Si / 1000 Ang^3
#
#
#
# Elastic Constant Matrix: (Units=GPa)
#
#
# Indices 1 2 3 4 5 6 
#
# 1 74.5121 26.5235 12.0943 0.0000 0.0000 0.0000
# 2 26.5235 68.5721 34.5373 0.0000 0.0000 0.0000
# 3 12.0943 34.5373 85.9999 0.0000 0.0000 0.0000
# 4 0.0000 0.0000 0.0000 35.4321 0.0000 0.0000
# 5 0.0000 0.0000 0.0000 0.0000 -2.8407 0.0000
# 6 0.0000 0.0000 0.0000 0.0000 0.0000 16.5424
#
#
#
# Elastic Compliance Matrix: (Units=1/GPa)
#
#
# Indices 1 2 3 4 5 6 
#
# 1 0.015569 -0.006167 0.000287 0.000000 0.000000 0.000000
# 2 -0.006167 0.020723 -0.007455 0.000000 0.000000 0.000000
# 3 0.000287 -0.007455 0.014582 0.000000 0.000000 0.000000
# 4 0.000000 0.000000 0.000000 0.028223 0.000000 0.000000
# 5 0.000000 0.000000 0.000000 0.000000 -0.352023 0.000000
# 6 0.000000 0.000000 0.000000 0.000000 0.000000 0.060451
#
#
# Mechanical properties :
#
#
# Convention : Reuss Voigt Hill
#
# Bulk Modulus (GPa) = 41.31492 41.71046 41.51269
# Shear Modulus (GPa) = -28.13138 20.22203 -3.95468
#
# Velocity S-wave (km/s) = -3.74105 3.17184 -1.40266
# Velocity P-wave (km/s) = 1.37612 5.84510 4.24611
#
# Compressibility (1/GPa) = 0.02420433
#
# Stress axis : x y z
#
# Youngs Moduli (GPa) = 64.22953 48.25472 68.57979
#
# Poissons Ratio (x) = 0.29757 -0.01968
# Poissons Ratio (y) = 0.39608 0.51128
# Poissons Ratio (z) = -0.01843 0.35975
#
# Static dielectric constant tensor:
#      x y z
#    x 1.729670 0.000000 0.000000 
#    y 0.000000 1.727140 0.000000 
#    z 0.000000 0.000000 1.722990 
# 
# From -- ./inp_files/21967.got.cif
#   From: 2010.05.17/outbox.cif.g08.bks.cpg/sg44_11_cif.got.tgz:21967.got - 2010.06.03 19:37:08.
