data_PCOD9374064
_publ_section_title
;
Structure prediction by ZEFSAII (Michael W. Deem and Ramdas Pophale) SiO2 
 PCOD9374064
Probable space group: I M M 2
;
_chemical_formula_sum "Si O2"
_cell_formula_units_Z 64
_cell_length_a 9.161216
_cell_length_b 33.521047
_cell_length_c 11.866218
_cell_angle_alpha 90.000000
_cell_angle_beta 90.000000
_cell_angle_gamma 90.000000
_cell_volume 3644.039036
_symmetry_space_group_name_H-M "I M M 2"
_symmetry_group_IT_number 44
_symmetry_cell_setting 'orthorhombic'
loop_
_space_group_symop_operation_xyz
x,y,z
-x,-y,z
-x,y,z
x,-y,z
1/2+x,1/2+y,1/2+z
1/2-x,1/2-y,1/2+z
1/2-x,1/2+y,1/2+z
1/2+x,1/2-y,1/2+z
loop_
_atom_site_type_symbol
_atom_site_label
_atom_site_fract_x
_atom_site_fract_y
_atom_site_fract_z
Si Si1 0.675525 0.546182 0.020720
Si Si2 0.333351 0.829551 0.239885
Si Si3 0.824612 0.849774 0.906042
Si Si4 0.171636 0.899135 0.124083
Si Si5 0.324142 0.375234 0.152192
Si Si6 0.166087 0.547632 0.788094
Si Si7 0.671574 0.223917 0.026015
Si Si8 0.829070 0.691801 0.001277
O O1 0.500000 0.546237 0.009867
O O2 0.719537 0.500000 0.045939
O O3 0.715347 0.579873 0.112288
O O4 0.744902 0.558472 0.900906
O O5 0.500000 0.844552 0.221222
O O6 0.217038 0.862601 0.204979
O O7 0.314797 0.793259 0.152885
O O8 0.318551 0.817748 0.368732
O O9 0.786915 0.864738 0.781352
O O10 0.000000 0.842930 0.911305
O O11 0.789687 0.883568 0.999385
O O12 0.743821 0.809406 0.944746
O O13 0.260630 0.935446 0.175939
O O14 0.000000 0.907066 0.128498
O O15 0.500000 0.371621 0.141202
O O16 0.247683 0.343033 0.072069
O O17 0.165738 0.500000 0.783507
O O18 0.000000 0.561989 0.799021
O O19 0.500000 0.227987 0.999912
O O20 0.751539 0.265957 0.019820
O O21 0.000000 0.694176 0.031302
#
# Coordination Sequence:
#
# PCOD9374064 Si02
#       8
#     8   8   8   8   8   8   8   8
#     4   9  18  34  57  84 112 143 182 228 275 325
#     4   9  20  37  54  73 102 137 171 212 266 319
#     4   9  20  38  56  76 108 146 181 222 273 324
#     4  10  19  33  55  79 103 135 176 220 264 314
#     4  10  21  37  56  80 111 147 184 225 274 328
#     4  10  20  33  52  79 111 144 175 216 272 327
#     4  10  21  37  56  78 103 139 181 222 272 324
#     4  11  23  36  53  79 108 139 177 224 272 322
#
# _framework density 17.562929
#
# number of rings (size 3 to 8) (size 9 to 14) (size 15 to 20)
#    0.000    2.250    0.000    2.250    1.750    5.750 
#    0.000    0.625    0.000    2.250    0.000    1.750 
#    0.000    0.000    0.000    0.000    0.000    0.000 
#
# Total GULP energy -178526.138630 kJ/mol
# GULP energy per Si atom -5578.941832 kJ/mol
# Density = 1.752296 g / cm^3
# Si number density = 17.562929 Si / 1000 Ang^3
#
#
#
# Elastic Constant Matrix: (Units=GPa)
#
#
# Indices 1 2 3 4 5 6 
#
# 1 50.1761 42.0923 51.1294 0.0000 0.0000 0.0000
# 2 42.0923 95.8473 73.2179 0.0001 0.0000 0.0000
# 3 51.1294 73.2179 112.7235 0.0003 0.0000 0.0000
# 4 0.0000 0.0001 0.0003 10.5444 0.0000 0.0000
# 5 0.0000 0.0000 0.0000 0.0000 19.7354 0.0000
# 6 0.0000 0.0000 0.0000 0.0000 0.0000 29.5146
#
#
#
# Elastic Compliance Matrix: (Units=1/GPa)
#
#
# Indices 1 2 3 4 5 6 
#
# 1 0.039446 -0.007255 -0.013179 0.000001 0.000000 0.000000
# 2 -0.007255 0.022043 -0.011027 0.000000 0.000000 0.000000
# 3 -0.013179 -0.011027 0.022011 -0.000001 0.000000 0.000000
# 4 0.000001 0.000000 -0.000001 0.094838 0.000000 0.000000
# 5 0.000000 0.000000 0.000000 0.000000 0.050670 0.000000
# 6 0.000000 0.000000 0.000000 0.000000 0.000000 0.033882
#
#
# Mechanical properties :
#
#
# Convention : Reuss Voigt Hill
#
# Bulk Modulus (GPa) = 48.59703 65.73624 57.16664
# Shear Modulus (GPa) = 15.02982 18.11269 16.57126
#
# Velocity S-wave (km/s) = 2.92853 3.21487 3.07504
# Velocity P-wave (km/s) = 6.25822 7.16176 6.72518
#
# Compressibility (1/GPa) = 0.02057739
#
# Stress axis : x y z
#
# Youngs Moduli (GPa) = 25.35106 45.36623 45.43089
#
# Poissons Ratio (x) = 0.32915 0.59875
# Poissons Ratio (y) = 0.18393 0.50095
# Poissons Ratio (z) = 0.33411 0.50024
#
# Static dielectric constant tensor:
#      x y z
#    x 1.604160 0.000000 0.000000 
#    y 0.000000 1.599020 0.000000 
#    z 0.000000 0.000000 1.578440 
# 
# From -- ./inp_files/11484.got.cif
#   From: 2010.05.17/outbox.cif.g08.bks.cpg/sg44_6_cif.got.tgz:11484.got - 2010.06.03 19:37:08.
