data_PCOD9374335
_publ_section_title
;
Structure prediction by ZEFSAII (Michael W. Deem and Ramdas Pophale) SiO2 
 PCOD9374335
Probable space group: I M M 2
;
_chemical_formula_sum "Si O2"
_cell_formula_units_Z 58
_cell_length_a 7.431415
_cell_length_b 18.327020
_cell_length_c 17.738837
_cell_angle_alpha 90.000000
_cell_angle_beta 90.000000
_cell_angle_gamma 90.000000
_cell_volume 2415.953169
_symmetry_space_group_name_H-M "I M M 2"
_symmetry_group_IT_number 44
_symmetry_cell_setting 'orthorhombic'
loop_
_space_group_symop_operation_xyz
x,y,z
-x,-y,z
-x,y,z
x,-y,z
1/2+x,1/2+y,1/2+z
1/2-x,1/2-y,1/2+z
1/2-x,1/2+y,1/2+z
1/2+x,1/2-y,1/2+z
loop_
_atom_site_type_symbol
_atom_site_label
_atom_site_fract_x
_atom_site_fract_y
_atom_site_fract_z
Si Si1 0.710119 0.349469 0.203090
Si Si2 0.719953 0.419361 0.528102
Si Si3 0.792891 0.890491 0.542815
Si Si4 0.780216 0.136783 0.868271
Si Si5 0.500000 0.000000 0.489464
Si Si6 0.210450 0.815441 0.158392
Si Si7 0.282832 0.796473 0.419539
Si Si8 0.282303 0.083654 0.300448
O O1 0.500000 0.368337 0.203703
O O2 0.781296 0.386856 0.127534
O O3 0.784696 0.375952 0.283074
O O4 0.717722 0.261750 0.189850
O O5 0.500000 0.417051 0.529630
O O6 0.773830 0.500000 0.555509
O O7 0.774796 0.409546 0.440927
O O8 0.782190 0.353875 0.582342
O O9 0.657511 0.938116 0.494625
O O10 0.783852 0.811627 0.503623
O O11 0.000000 0.914648 0.542044
O O12 0.726206 0.219341 0.887268
O O13 0.000000 0.133227 0.865907
O O14 0.234964 0.877280 0.222273
O O15 0.000000 0.801241 0.146251
O O16 0.500000 0.795137 0.419779
O O17 0.217110 0.861129 0.364972
O O18 0.500000 0.080921 0.307026
O O19 0.219051 0.000000 0.306172
#
# Coordination Sequence:
#
# PCOD9374335 Si02
#       8
#     8   8   8   8   2   8   8   8
#     4  10  21  40  62  91 121 155 211 269 313 379
#     4   9  18  32  53  84 119 157 203 253 313 380
#     4  11  25  42  67  97 127 170 221 267 327 387
#     4   9  17  34  60  87 120 163 210 263 321 384
#     4  12  26  48  68  90 136 176 210 276 324 390
#     4  11  21  34  58  87 122 162 206 259 320 378
#     4  10  19  36  62  88 122 166 215 264 325 389
#     4  10  21  35  56  84 120 168 210 253 321 390
#
# _framework density 24.007088
#
# number of rings (size 3 to 8) (size 9 to 14) (size 15 to 20)
#    0.000    1.931    2.069    1.862    1.931    2.483 
#    1.241    0.000    0.000    0.828    0.000    0.000 
#    0.000    0.000    0.000    0.000    0.000    0.000 
#
# Total GULP energy -161808.850792 kJ/mol
# GULP energy per Si atom -5579.615545 kJ/mol
# Density = 2.395245 g / cm^3
# Si number density = 24.007088 Si / 1000 Ang^3
#
#
#
# Elastic Constant Matrix: (Units=GPa)
#
#
# Indices 1 2 3 4 5 6 
#
# 1 93.7541 -3.1170 -3.9171 0.0000 0.0000 0.0000
# 2 -3.1170 41.0161 -8.3900 0.0000 0.0000 0.0000
# 3 -3.9171 -8.3900 118.3251 0.0000 0.0000 0.0000
# 4 0.0000 0.0000 0.0000 2.1646 0.0000 0.0000
# 5 0.0000 0.0000 0.0000 0.0000 -12.0725 0.0000
# 6 0.0000 0.0000 0.0000 0.0000 0.0000 357.0628
#
#
#
# Elastic Compliance Matrix: (Units=1/GPa)
#
#
# Indices 1 2 3 4 5 6 
#
# 1 0.010714 0.000900 0.000418 0.000000 0.000000 0.000000
# 2 0.000900 0.024815 0.001789 0.000000 0.000000 0.000000
# 3 0.000418 0.001789 0.008592 0.000000 0.000000 0.000000
# 4 0.000000 0.000000 0.000000 0.461981 0.000000 0.000000
# 5 0.000000 0.000000 0.000000 0.000000 -0.082833 0.000000
# 6 0.000000 0.000000 0.000000 0.000000 0.000000 0.002801
#
#
# Mechanical properties :
#
#
# Convention : Reuss Voigt Hill
#
# Bulk Modulus (GPa) = 19.86657 24.69413 22.28035
# Shear Modulus (GPa) = 11.45128 87.33228 49.39178
#
# Velocity S-wave (km/s) = 2.18639 6.03794 4.54076
# Velocity P-wave (km/s) = 3.82975 7.67577 6.06566
#
# Compressibility (1/GPa) = 0.05033583
#
# Stress axis : x y z
#
# Youngs Moduli (GPa) = 93.33937 40.29809 116.38702
#
# Poissons Ratio (x) = -0.03626 -0.04870
# Poissons Ratio (y) = -0.08398 -0.20826
# Poissons Ratio (z) = -0.03906 -0.07211
#
# Static dielectric constant tensor:
#      x y z
#    x 1.922860 0.000000 0.000000 
#    y 0.000000 1.960690 0.000000 
#    z 0.000000 0.000000 1.955860 
# 
# From -- ./inp_files/20594.got.cif
#   From: 2010.05.17/outbox.cif.g08.bks.cpg/sg44_11_cif.got.tgz:20594.got - 2010.06.03 19:37:08.
