data_PCOD9374915
_publ_section_title
;
Structure prediction by ZEFSAII (Michael W. Deem and Ramdas Pophale) SiO2 
 PCOD9374915
Probable space group: I M M 2
;
_chemical_formula_sum "Si O2"
_cell_formula_units_Z 40
_cell_length_a 23.920473
_cell_length_b 7.587823
_cell_length_c 10.504884
_cell_angle_alpha 90.000000
_cell_angle_beta 90.000000
_cell_angle_gamma 90.000000
_cell_volume 1906.681777
_symmetry_space_group_name_H-M "I M M 2"
_symmetry_group_IT_number 44
_symmetry_cell_setting 'orthorhombic'
loop_
_space_group_symop_operation_xyz
x,y,z
-x,-y,z
-x,y,z
x,-y,z
1/2+x,1/2+y,1/2+z
1/2-x,1/2-y,1/2+z
1/2-x,1/2+y,1/2+z
1/2+x,1/2-y,1/2+z
loop_
_atom_site_type_symbol
_atom_site_label
_atom_site_fract_x
_atom_site_fract_y
_atom_site_fract_z
Si Si1 0.500000 0.713961 0.213620
Si Si2 0.500000 0.790814 0.513505
Si Si3 0.121033 0.287455 0.088165
Si Si4 0.193481 0.713398 0.846978
Si Si5 0.820894 0.789375 0.354915
Si Si6 0.617386 0.709056 0.104574
O O1 0.500000 0.500000 0.211117
O O2 0.500000 0.765889 0.361566
O O3 0.556725 0.778834 0.146496
O O4 0.557911 0.719547 0.569915
O O5 0.500000 0.000000 0.538714
O O6 0.119311 0.500000 0.078727
O O7 0.147691 0.242422 0.222977
O O8 0.159593 0.225075 0.971256
O O9 0.194246 0.500000 0.849174
O O10 0.257279 0.778110 0.848799
O O11 0.160382 0.766251 0.720482
O O12 0.855640 0.718321 0.475212
O O13 0.816333 0.000000 0.372826
O O14 0.609580 0.500000 0.085648
#
# Coordination Sequence:
#
# PCOD9374915 Si02
#       6
#     4   4   8   8   8   8
#     4  10  20  35  58  84 108 140 186 229 274 330
#     4  10  20  37  60  82 108 142 184 229 274 328
#     4  10  21  37  58  83 111 144 183 228 275 325
#     4  10  20  36  58  82 109 146 188 226 270 326
#     4  10  22  37  54  82 116 146 181 225 275 329
#     4  10  21  37  57  82 112 145 183 229 276 325
#
# _framework density 20.978854999999999
#
# number of rings (size 3 to 8) (size 9 to 14) (size 15 to 20)
#    0.000    2.000    2.000    1.200    0.000    5.600 
#    0.000    1.000    0.000    0.000    0.000    0.000 
#    0.000    0.000    0.000    0.000    0.000    0.000 
#
# Total GULP energy -111761.134657 kJ/mol
# GULP energy per Si atom -5588.056733 kJ/mol
# Density = 2.093111 g / cm^3
# Si number density = 20.978855 Si / 1000 Ang^3
#
#
#
# Elastic Constant Matrix: (Units=GPa)
#
#
# Indices 1 2 3 4 5 6 
#
# 1 226.3747 -5.9931 99.1635 0.0000 0.0000 0.0000
# 2 -5.9931 38.7959 -23.3557 0.0000 0.0000 0.0000
# 3 99.1635 -23.3557 159.9029 0.0000 0.0000 0.0000
# 4 0.0000 0.0000 0.0000 26.6415 0.0000 0.0000
# 5 0.0000 0.0000 0.0000 0.0000 -74.3081 0.0000
# 6 0.0000 0.0000 0.0000 0.0000 0.0000 8.0921
#
#
#
# Elastic Compliance Matrix: (Units=1/GPa)
#
#
# Indices 1 2 3 4 5 6 
#
# 1 0.006141 -0.001474 -0.004024 0.000000 0.000000 0.000000
# 2 -0.001474 0.028615 0.005093 0.000000 0.000000 0.000000
# 3 -0.004024 0.005093 0.009493 0.000000 0.000000 0.000000
# 4 0.000000 0.000000 0.000000 0.037535 0.000000 0.000000
# 5 0.000000 0.000000 0.000000 0.000000 -0.013457 0.000000
# 6 0.000000 0.000000 0.000000 0.000000 0.000000 0.123578
#
#
# Mechanical properties :
#
#
# Convention : Reuss Voigt Hill
#
# Bulk Modulus (GPa) = 23.01979 62.74476 42.88227
# Shear Modulus (GPa) = 24.13217 15.76901 19.95059
#
# Velocity S-wave (km/s) = 3.39530 2.74462 3.08715
# Velocity P-wave (km/s) = 5.13492 6.32593 5.76129
#
# Compressibility (1/GPa) = 0.04344089
#
# Stress axis : x y z
#
# Youngs Moduli (GPa) = 162.84113 34.94723 105.34157
#
# Poissons Ratio (x) = 0.05150 0.42385
# Poissons Ratio (y) = 0.23996 -0.53654
# Poissons Ratio (z) = 0.65520 -0.17800
#
# Static dielectric constant tensor:
#      x y z
#    x 1.756980 0.000000 0.000000 
#    y 0.000000 1.788150 0.000000 
#    z 0.000000 0.000000 1.689440 
# 
# From -- ./inp_files/4489.got.cif
#   From: 2010.05.17/outbox.cif.g08.bks.cpg/sg44_3_cif.got.tgz:4489.got - 2010.06.03 19:37:08.
