data_PCOD9374152
_publ_section_title
;
Structure prediction by ZEFSAII (Michael W. Deem and Ramdas Pophale) SiO2 
 PCOD9374152
Probable space group: I M M 2
;
_chemical_formula_sum "Si O2"
_cell_formula_units_Z 48
_cell_length_a 8.845334
_cell_length_b 16.825300
_cell_length_c 18.659597
_cell_angle_alpha 90.000000
_cell_angle_beta 90.000000
_cell_angle_gamma 90.000000
_cell_volume 2777.021953
_symmetry_space_group_name_H-M "I M M 2"
_symmetry_group_IT_number 44
_symmetry_cell_setting 'orthorhombic'
loop_
_space_group_symop_operation_xyz
x,y,z
-x,-y,z
-x,y,z
x,-y,z
1/2+x,1/2+y,1/2+z
1/2-x,1/2-y,1/2+z
1/2-x,1/2+y,1/2+z
1/2+x,1/2-y,1/2+z
loop_
_atom_site_type_symbol
_atom_site_label
_atom_site_fract_x
_atom_site_fract_y
_atom_site_fract_z
Si Si1 0.318534 0.590786 0.125000
Si Si2 0.319268 0.000000 0.987371
Si Si3 0.179565 0.165812 0.169784
Si Si4 0.680205 0.000000 0.158037
Si Si5 0.820044 0.156747 0.915220
Si Si6 0.680784 0.256909 0.035363
Si Si7 0.679026 0.822174 0.760051
O O1 0.500000 0.595374 0.136010
O O2 0.279026 0.500000 0.107882
O O3 0.281483 0.654603 0.063184
O O4 0.238273 0.619923 0.197442
O O5 0.249688 0.922117 0.951056
O O6 0.500000 0.000000 0.978034
O O7 0.287729 0.000000 0.072377
O O8 0.260856 0.198525 0.098255
O O9 0.204582 0.233008 0.229945
O O10 0.000000 0.160083 0.156491
O O11 0.247119 0.080336 0.188309
O O12 0.500000 0.000000 0.167683
O O13 0.764442 0.163403 0.833882
O O14 0.000000 0.153203 0.918714
O O15 0.758552 0.230110 0.962327
O O16 0.500000 0.249176 0.028929
O O17 0.500000 0.833408 0.770261
#
# Coordination Sequence:
#
# PCOD9374152 Si02
#       7
#     8   4   8   4   8   8   8
#     4   9  19  36  58  83 110 141 182 226 271 323
#     4  11  23  37  55  83 114 145 178 219 274 328
#     4  10  20  35  56  81 109 143 185 226 270 323
#     4  11  21  33  57  85 112 143 178 225 274 322
#     4  12  24  37  56  81 112 148 183 224 272 326
#     4  10  19  34  56  80 109 144 182 225 274 324
#     4  10  22  38  56  80 112 148 182 222 273 326
#
# _framework density 17.284704000000001
#
# number of rings (size 3 to 8) (size 9 to 14) (size 15 to 20)
#    0.000    1.667    1.667    3.500    1.167    3.667 
#    0.000    0.000    1.833    0.000    0.000    0.000 
#    0.000    0.000    0.000    0.000    0.000    0.000 
#
# Total GULP energy -134062.828935 kJ/mol
# GULP energy per Si atom -5585.951206 kJ/mol
# Density = 1.724536 g / cm^3
# Si number density = 17.284704 Si / 1000 Ang^3
#
#
#
# Elastic Constant Matrix: (Units=GPa)
#
#
# Indices 1 2 3 4 5 6 
#
# 1 77.5501 46.5861 41.3253 0.0000 0.0000 0.0000
# 2 46.5861 131.2971 29.9161 0.0000 0.0000 0.0000
# 3 41.3253 29.9161 68.9411 0.0000 0.0000 0.0000
# 4 0.0000 0.0000 0.0000 14.0338 0.0000 0.0000
# 5 0.0000 0.0000 0.0000 0.0000 29.4963 0.0000
# 6 0.0000 0.0000 0.0000 0.0000 0.0000 24.8645
#
#
#
# Elastic Compliance Matrix: (Units=1/GPa)
#
#
# Indices 1 2 3 4 5 6 
#
# 1 0.021815 -0.005283 -0.010784 0.000000 0.000000 0.000000
# 2 -0.005283 0.009731 -0.001056 0.000000 0.000000 0.000000
# 3 -0.010784 -0.001056 0.021428 0.000000 0.000000 0.000000
# 4 0.000000 0.000000 0.000000 0.071257 0.000000 0.000000
# 5 0.000000 0.000000 0.000000 0.000000 0.033903 0.000000
# 6 0.000000 0.000000 0.000000 0.000000 0.000000 0.040218
#
#
# Mechanical properties :
#
#
# Convention : Reuss Voigt Hill
#
# Bulk Modulus (GPa) = 53.39636 57.04927 55.22282
# Shear Modulus (GPa) = 20.93443 24.34297 22.63870
#
# Velocity S-wave (km/s) = 3.48394 3.75687 3.62298
# Velocity P-wave (km/s) = 6.86608 7.20389 7.03702
#
# Compressibility (1/GPa) = 0.01872787
#
# Stress axis : x y z
#
# Youngs Moduli (GPa) = 45.83920 102.75930 46.66859
#
# Poissons Ratio (x) = 0.54290 0.50328
# Poissons Ratio (y) = 0.24218 0.04928
# Poissons Ratio (z) = 0.49434 0.10851
#
# Static dielectric constant tensor:
#      x y z
#    x 1.575150 0.000000 0.000000 
#    y 0.000000 1.593610 0.000000 
#    z 0.000000 0.000000 1.553250 
# 
# From -- ./inp_files/16201.got.cif
#   From: 2010.05.17/outbox.cif.g08.bks.cpg/sg44_9_cif.got.tgz:16201.got - 2010.06.03 19:37:08.
