data_PCOD9374410
_publ_section_title
;
Structure prediction by ZEFSAII (Michael W. Deem and Ramdas Pophale) SiO2 
 PCOD9374410
Probable space group: I M M 2
;
_chemical_formula_sum "Si O2"
_cell_formula_units_Z 58
_cell_length_a 7.316466
_cell_length_b 20.584991
_cell_length_c 15.418362
_cell_angle_alpha 90.000000
_cell_angle_beta 90.000000
_cell_angle_gamma 90.000000
_cell_volume 2322.150046
_symmetry_space_group_name_H-M "I M M 2"
_symmetry_group_IT_number 44
_symmetry_cell_setting 'orthorhombic'
loop_
_space_group_symop_operation_xyz
x,y,z
-x,-y,z
-x,y,z
x,-y,z
1/2+x,1/2+y,1/2+z
1/2-x,1/2-y,1/2+z
1/2-x,1/2+y,1/2+z
1/2+x,1/2-y,1/2+z
loop_
_atom_site_type_symbol
_atom_site_label
_atom_site_fract_x
_atom_site_fract_y
_atom_site_fract_z
Si Si1 0.784170 0.603160 0.513170
Si Si2 0.283172 0.750737 0.074570
Si Si3 0.221501 0.882813 0.496731
Si Si4 0.220622 0.070735 0.683565
Si Si5 0.709299 0.713768 0.766535
Si Si6 0.710429 0.158279 0.842473
Si Si7 0.500000 0.500000 0.576797
Si Si8 0.722784 0.572328 0.805931
O O1 0.754520 0.678460 0.536159
O O2 0.720862 0.605685 0.412177
O O3 0.659347 0.556539 0.569161
O O4 0.000000 0.587090 0.521415
O O5 0.500000 0.740603 0.085523
O O6 0.219804 0.691531 0.014403
O O7 0.207342 0.755361 0.171318
O O8 0.278142 0.918865 0.584448
O O9 0.275620 0.915338 0.406588
O O10 0.000000 0.884006 0.493406
O O11 0.286133 0.124565 0.749441
O O12 0.000000 0.073953 0.683875
O O13 0.278509 0.000000 0.714001
O O14 0.500000 0.705239 0.796879
O O15 0.791513 0.769570 0.828787
O O16 0.784943 0.640268 0.762133
O O17 0.500000 0.168776 0.869610
O O18 0.500000 0.569629 0.797406
O O19 0.784561 0.500000 0.778023
#
# Coordination Sequence:
#
# PCOD9374410 Si02
#       8
#     8   8   8   8   8   8   2   8
#     4  10  24  43  63  91 126 166 215 260 318 382
#     4  10  20  38  61  86 117 157 201 255 307 363
#     4   9  16  31  56  83 115 152 192 243 306 370
#     4  10  20  31  51  84 118 149 193 249 299 366
#     4  10  20  35  58  87 120 157 205 253 303 371
#     4  10  21  37  56  81 119 163 201 252 308 370
#     4  12  26  44  68  94 120 172 206 276 320 374
#     4   9  17  31  54  85 116 148 189 244 307 363
#
# _framework density 24.976852999999998
#
# number of rings (size 3 to 8) (size 9 to 14) (size 15 to 20)
#    0.000    2.207    1.379    1.448    2.897    5.241 
#    1.241    0.000    0.000    0.828    0.000    0.000 
#    0.000    0.000    0.000    0.000    0.000    0.000 
#
# Total GULP energy -161757.037277 kJ/mol
# GULP energy per Si atom -5577.828872 kJ/mol
# Density = 2.492000 g / cm^3
# Si number density = 24.976853 Si / 1000 Ang^3
#
#
#
# Elastic Constant Matrix: (Units=GPa)
#
#
# Indices 1 2 3 4 5 6 
#
# 1 103.6770 18.7245 -14.9100 0.0000 0.0000 0.0000
# 2 18.7245 163.6973 -3.3115 0.0000 0.0000 0.0000
# 3 -14.9100 -3.3115 38.1759 0.0000 0.0000 0.0000
# 4 0.0000 0.0000 0.0000 23.3414 0.0000 0.0000
# 5 0.0000 0.0000 0.0000 0.0000 27.7333 0.0000
# 6 0.0000 0.0000 0.0000 0.0000 0.0000 -13.0918
#
#
#
# Elastic Compliance Matrix: (Units=1/GPa)
#
#
# Indices 1 2 3 4 5 6 
#
# 1 0.010417 -0.001111 0.003972 0.000000 0.000000 0.000000
# 2 -0.001111 0.006238 0.000107 0.000000 0.000000 0.000000
# 3 0.003972 0.000107 0.027755 0.000000 0.000000 0.000000
# 4 0.000000 0.000000 0.000000 0.042842 0.000000 0.000000
# 5 0.000000 0.000000 0.000000 0.000000 0.036058 0.000000
# 6 0.000000 0.000000 0.000000 0.000000 0.000000 -0.076384
#
#
# Mechanical properties :
#
#
# Convention : Reuss Voigt Hill
#
# Bulk Modulus (GPa) = 19.86225 34.06181 26.96203
# Shear Modulus (GPa) = 86.54550 27.93305 57.23928
#
# Velocity S-wave (km/s) = 5.89284 3.34781 4.79236
# Velocity P-wave (km/s) = 7.36683 5.34890 6.43743
#
# Compressibility (1/GPa) = 0.05034676
#
# Stress axis : x y z
#
# Youngs Moduli (GPa) = 95.99427 160.30496 36.02927
#
# Poissons Ratio (x) = 0.17814 -0.14312
# Poissons Ratio (y) = 0.10667 -0.00386
# Poissons Ratio (z) = -0.38131 -0.01717
#
# Static dielectric constant tensor:
#      x y z
#    x 1.965510 0.000000 0.000000 
#    y 0.000000 1.931030 0.000000 
#    z 0.000000 0.000000 2.031960 
# 
# From -- ./inp_files/20581.got.cif
#   From: 2010.05.17/outbox.cif.g08.bks.cpg/sg44_11_cif.got.tgz:20581.got - 2010.06.03 19:37:08.
