data_PCOD9374666
_publ_section_title
;
Structure prediction by ZEFSAII (Michael W. Deem and Ramdas Pophale) SiO2 
 PCOD9374666
Probable space group: I M M 2
;
_chemical_formula_sum "Si O2"
_cell_formula_units_Z 64
_cell_length_a 23.734418
_cell_length_b 8.830692
_cell_length_c 19.379801
_cell_angle_alpha 90.000000
_cell_angle_beta 90.000000
_cell_angle_gamma 90.000000
_cell_volume 4061.838367
_symmetry_space_group_name_H-M "I M M 2"
_symmetry_group_IT_number 44
_symmetry_cell_setting 'orthorhombic'
loop_
_space_group_symop_operation_xyz
x,y,z
-x,-y,z
-x,y,z
x,-y,z
1/2+x,1/2+y,1/2+z
1/2-x,1/2-y,1/2+z
1/2-x,1/2+y,1/2+z
1/2+x,1/2-y,1/2+z
loop_
_atom_site_type_symbol
_atom_site_label
_atom_site_fract_x
_atom_site_fract_y
_atom_site_fract_z
Si Si1 0.729462 0.679528 0.175410
Si Si2 0.840409 0.680708 0.083797
Si Si3 0.773905 0.819331 0.959802
Si Si4 0.565312 0.818479 0.960352
Si Si5 0.832862 0.819509 0.537350
Si Si6 0.622129 0.818693 0.812972
Si Si7 0.247394 0.820222 0.317866
Si Si8 0.933906 0.181003 0.176809
O O1 0.727565 0.500000 0.190891
O O2 0.789767 0.710096 0.138687
O O3 0.683399 0.713884 0.116606
O O4 0.725307 0.772499 0.245310
O O5 0.844769 0.500000 0.076209
O O6 0.896661 0.750649 0.115274
O O7 0.820216 0.754449 0.012458
O O8 0.778408 0.752658 0.883316
O O9 0.775049 0.000000 0.958632
O O10 0.713809 0.763272 0.990286
O O11 0.500000 0.775080 0.966212
O O12 0.606239 0.735343 0.013668
O O13 0.569696 0.000000 0.970218
O O14 0.588460 0.786119 0.883424
O O15 0.826344 0.000000 0.527559
O O16 0.683950 0.746283 0.816951
O O17 0.589266 0.753084 0.747494
O O18 0.627851 0.000000 0.805754
O O19 0.245175 0.000000 0.325172
O O20 0.000000 0.214161 0.169069
O O21 0.926280 0.000000 0.179420
#
# Coordination Sequence:
#
# PCOD9374666 Si02
#       8
#     8   8   8   8   8   8   8   8
#     4   9  19  34  51  73 101 132 167 209 260 310
#     4  10  20  35  54  75 101 133 173 217 259 305
#     4  11  21  34  53  74 103 136 168 209 261 312
#     4  10  21  35  51  72 101 139 179 214 253 302
#     4  10  20  34  52  74 100 132 172 215 256 303
#     4  11  21  34  50  71 102 142 181 215 254 299
#     4  12  22  32  51  78 105 135 173 211 256 310
#     4  11  23  36  51  74 104 140 181 219 256 303
#
# _framework density 15.756413
#
# number of rings (size 3 to 8) (size 9 to 14) (size 15 to 20)
#    0.000    1.500    2.500    4.875    0.000    4.750 
#    0.000    0.000    0.000    0.000    0.000    0.875 
#    0.000    3.000    0.000    0.000    0.000    0.000 
#
# Total GULP energy -178765.134384 kJ/mol
# GULP energy per Si atom -5586.410449 kJ/mol
# Density = 1.572055 g / cm^3
# Si number density = 15.756413 Si / 1000 Ang^3
#
#
#
# Elastic Constant Matrix: (Units=GPa)
#
#
# Indices 1 2 3 4 5 6 
#
# 1 86.6186 50.3659 64.4785 0.0000 0.0000 0.0000
# 2 50.3659 93.2103 75.9810 0.0000 0.0000 0.0000
# 3 64.4785 75.9810 129.5923 0.0000 0.0000 0.0000
# 4 0.0000 0.0000 0.0000 29.8405 0.0000 0.0000
# 5 0.0000 0.0000 0.0000 0.0000 19.6590 0.0000
# 6 0.0000 0.0000 0.0000 0.0000 0.0000 22.9957
#
#
#
# Elastic Compliance Matrix: (Units=1/GPa)
#
#
# Indices 1 2 3 4 5 6 
#
# 1 0.019495 -0.005033 -0.006749 0.000000 0.000000 0.000000
# 2 -0.005033 0.021849 -0.010306 0.000000 0.000000 0.000000
# 3 -0.006749 -0.010306 0.017117 0.000000 0.000000 0.000000
# 4 0.000000 0.000000 0.000000 0.033511 0.000000 0.000000
# 5 0.000000 0.000000 0.000000 0.000000 0.050867 0.000000
# 6 0.000000 0.000000 0.000000 0.000000 0.000000 0.043486
#
#
# Mechanical properties :
#
#
# Convention : Reuss Voigt Hill
#
# Bulk Modulus (GPa) = 70.00177 76.78578 73.39378
# Shear Modulus (GPa) = 21.25269 22.40544 21.82906
#
# Velocity S-wave (km/s) = 3.67662 3.77502 3.72615
# Velocity P-wave (km/s) = 7.90869 8.23649 8.07425
#
# Compressibility (1/GPa) = 0.01428535
#
# Stress axis : x y z
#
# Youngs Moduli (GPa) = 51.29475 45.76871 58.42064
#
# Poissons Ratio (x) = 0.23033 0.39429
# Poissons Ratio (y) = 0.25814 0.60210
# Poissons Ratio (z) = 0.34620 0.47171
#
# Static dielectric constant tensor:
#      x y z
#    x 1.502900 0.000000 0.000000 
#    y 0.000000 1.524050 0.000000 
#    z 0.000000 0.000000 1.522770 
# 
# From -- ./inp_files/20718.got.cif
#   From: 2010.05.17/outbox.cif.g08.bks.cpg/sg44_11_cif.got.tgz:20718.got - 2010.06.03 19:37:08.
