data_PCOD9374192
_publ_section_title
;
Structure prediction by ZEFSAII (Michael W. Deem and Ramdas Pophale) SiO2 
 PCOD9374192
Probable space group: I M M 2
;
_chemical_formula_sum "Si O2"
_cell_formula_units_Z 64
_cell_length_a 18.918342
_cell_length_b 20.684522
_cell_length_c 8.316679
_cell_angle_alpha 90.000000
_cell_angle_beta 90.000000
_cell_angle_gamma 90.000000
_cell_volume 3254.456723
_symmetry_space_group_name_H-M "I M M 2"
_symmetry_group_IT_number 44
_symmetry_cell_setting 'orthorhombic'
loop_
_space_group_symop_operation_xyz
x,y,z
-x,-y,z
-x,y,z
x,-y,z
1/2+x,1/2+y,1/2+z
1/2-x,1/2-y,1/2+z
1/2-x,1/2+y,1/2+z
1/2+x,1/2-y,1/2+z
loop_
_atom_site_type_symbol
_atom_site_label
_atom_site_fract_x
_atom_site_fract_y
_atom_site_fract_z
Si Si1 0.774779 0.867768 0.349640
Si Si2 0.782086 0.368226 0.528191
Si Si3 0.578238 0.326877 0.184461
Si Si4 0.296040 0.076293 0.669532
Si Si5 0.576570 0.796537 0.970531
Si Si6 0.081223 0.669638 0.104738
Si Si7 0.812718 0.757873 0.907963
Si Si8 0.580982 0.423318 0.920603
O O1 0.736438 0.901714 0.197111
O O2 0.751782 0.894259 0.525778
O O3 0.746767 0.793539 0.351278
O O4 0.857496 0.883643 0.331969
O O5 0.777889 0.402627 0.353599
O O6 0.860198 0.338416 0.540702
O O7 0.727789 0.308413 0.518626
O O8 0.500000 0.321586 0.264073
O O9 0.644938 0.303094 0.284365
O O10 0.578005 0.275232 0.039271
O O11 0.584202 0.396883 0.103974
O O12 0.374213 0.104292 0.631469
O O13 0.292917 0.000000 0.659801
O O14 0.500000 0.825095 0.013446
O O15 0.582478 0.796682 0.779169
O O16 0.000000 0.660607 0.055166
O O17 0.126629 0.714137 0.987059
O O18 0.500000 0.411137 0.865488
O O19 0.594310 0.500000 0.911367
#
# Coordination Sequence:
#
# PCOD9374192 Si02
#       8
#     8   8   8   8   8   8   8   8
#     4  11  23  38  63  89 123 162 198 255 315 363
#     4  11  23  37  60  91 122 160 202 254 304 363
#     4  10  19  34  58  86 119 159 197 249 309 363
#     4  10  23  41  61  90 123 162 209 248 295 366
#     4   9  18  34  56  84 119 156 196 243 306 367
#     4   9  20  37  58  87 121 159 196 247 307 361
#     4  11  22  34  56  91 124 153 196 253 314 374
#     4  10  22  39  60  87 119 163 213 250 294 363
#
# _framework density 19.665338999999999
#
# number of rings (size 3 to 8) (size 9 to 14) (size 15 to 20)
#    0.000    1.875    1.250    2.250    7.000    1.250 
#    0.000    0.625    0.000    0.750    0.000   10.500 
#    0.000    0.000    0.000    0.000    0.000    0.000 
#
# Total GULP energy -178373.481954 kJ/mol
# GULP energy per Si atom -5574.171311 kJ/mol
# Density = 1.962058 g / cm^3
# Si number density = 19.665339 Si / 1000 Ang^3
#
#
#
# Elastic Constant Matrix: (Units=GPa)
#
#
# Indices 1 2 3 4 5 6 
#
# 1 135.3576 26.0951 30.8725 0.0000 0.0000 0.0000
# 2 26.0951 27.8191 6.8181 0.0000 0.0000 0.0000
# 3 30.8725 6.8181 64.8947 0.0000 0.0000 0.0000
# 4 0.0000 0.0000 0.0000 11.6605 0.0000 0.0000
# 5 0.0000 0.0000 0.0000 0.0000 25.5285 0.0000
# 6 0.0000 0.0000 0.0000 0.0000 0.0000 18.9288
#
#
#
# Elastic Compliance Matrix: (Units=1/GPa)
#
#
# Indices 1 2 3 4 5 6 
#
# 1 0.009862 -0.008315 -0.003818 0.000000 0.000000 0.000000
# 2 -0.008315 0.043907 -0.000657 0.000000 0.000000 0.000000
# 3 -0.003818 -0.000657 0.017295 0.000000 0.000000 0.000000
# 4 0.000000 0.000000 0.000000 0.085759 0.000000 0.000000
# 5 0.000000 0.000000 0.000000 0.000000 0.039172 0.000000
# 6 0.000000 0.000000 0.000000 0.000000 0.000000 0.052830
#
#
# Mechanical properties :
#
#
# Convention : Reuss Voigt Hill
#
# Bulk Modulus (GPa) = 21.98602 39.51587 30.75094
# Shear Modulus (GPa) = 17.26722 22.17594 19.72158
#
# Velocity S-wave (km/s) = 2.96641 3.36172 3.17023
# Velocity P-wave (km/s) = 4.78928 5.93346 5.39181
#
# Compressibility (1/GPa) = 0.04548345
#
# Stress axis : x y z
#
# Youngs Moduli (GPa) = 101.40342 22.77533 57.82033
#
# Poissons Ratio (x) = 0.18937 0.22075
# Poissons Ratio (y) = 0.84314 0.03802
# Poissons Ratio (z) = 0.38715 0.01497
#
# Static dielectric constant tensor:
#      x y z
#    x 1.746770 0.000000 0.000000 
#    y 0.000000 1.675230 0.000000 
#    z 0.000000 0.000000 1.743490 
# 
# From -- ./inp_files/8466.got.cif
#   From: 2010.05.17/outbox.cif.g08.bks.cpg/sg44_5_cif.got.tgz:8466.got - 2010.06.03 19:37:08.
