data_PCOD9374010
_publ_section_title
;
Structure prediction by ZEFSAII (Michael W. Deem and Ramdas Pophale) SiO2 
 PCOD9374010
Probable space group: I M M 2
;
_chemical_formula_sum "Si O2"
_cell_formula_units_Z 64
_cell_length_a 17.300885
_cell_length_b 13.274608
_cell_length_c 14.058745
_cell_angle_alpha 90.000000
_cell_angle_beta 90.000000
_cell_angle_gamma 90.000000
_cell_volume 3228.766052
_symmetry_space_group_name_H-M "I M M 2"
_symmetry_group_IT_number 44
_symmetry_cell_setting 'orthorhombic'
loop_
_space_group_symop_operation_xyz
x,y,z
-x,-y,z
-x,y,z
x,-y,z
1/2+x,1/2+y,1/2+z
1/2-x,1/2-y,1/2+z
1/2-x,1/2+y,1/2+z
1/2+x,1/2-y,1/2+z
loop_
_atom_site_type_symbol
_atom_site_label
_atom_site_fract_x
_atom_site_fract_y
_atom_site_fract_z
Si Si1 0.408304 0.383771 0.253670
Si Si2 0.718197 0.116695 0.042479
Si Si3 0.090333 0.785598 0.551457
Si Si4 0.093389 0.389764 0.260329
Si Si5 0.874624 0.110049 0.147086
Si Si6 0.412933 0.817438 0.556017
Si Si7 0.692584 0.247251 0.391752
Si Si8 0.646466 0.316968 0.847698
O O1 0.500000 0.373539 0.274855
O O2 0.386069 0.500000 0.271961
O O3 0.397563 0.356226 0.142777
O O4 0.359750 0.305314 0.316002
O O5 0.645104 0.187843 0.061619
O O6 0.783013 0.120991 0.125377
O O7 0.698267 0.000000 0.026774
O O8 0.763684 0.167288 0.954317
O O9 0.113809 0.838012 0.452040
O O10 0.000000 0.757909 0.547193
O O11 0.117195 0.500000 0.294221
O O12 0.117003 0.374884 0.149920
O O13 0.125061 0.298786 0.321953
O O14 0.000000 0.383694 0.261277
O O15 0.914010 0.201297 0.091876
O O16 0.887243 0.121543 0.259466
O O17 0.898751 0.000000 0.112934
O O18 0.500000 0.851163 0.534962
O O19 0.358741 0.817451 0.464890
O O20 0.760878 0.179726 0.349232
#
# Coordination Sequence:
#
# PCOD9374010 Si02
#       8
#     8   8   8   8   8   8   8   8
#     4  10  21  36  53  73  99 135 177 215 249 289
#     4   9  18  33  53  76  99 124 159 205 255 304
#     4  10  21  35  50  71 101 135 171 209 247 290
#     4   9  18  34  56  80 104 130 163 206 255 305
#     4   9  18  33  52  73  98 128 162 202 248 297
#     4   9  18  33  53  78 105 129 158 202 255 306
#     4  10  19  33  52  75 102 132 163 205 252 300
#     4  10  20  33  50  74 102 133 168 204 246 297
#
# _framework density 19.821814
#
# number of rings (size 3 to 8) (size 9 to 14) (size 15 to 20)
#    0.000    2.500    0.000    1.875    0.000    5.500 
#    0.000    0.625    0.000    0.750    0.000    1.750 
#    0.000    0.000    0.000    0.000    0.000    0.000 
#
# Total GULP energy -178563.565366 kJ/mol
# GULP energy per Si atom -5580.111418 kJ/mol
# Density = 1.977670 g / cm^3
# Si number density = 19.821814 Si / 1000 Ang^3
#
#
#
# Elastic Constant Matrix: (Units=GPa)
#
#
# Indices 1 2 3 4 5 6 
#
# 1 62.6194 -3.6002 21.8075 0.0000 0.0000 0.0000
# 2 -3.6002 18.9472 -14.3002 0.0000 0.0000 0.0000
# 3 21.8075 -14.3002 72.8602 0.0000 0.0000 0.0000
# 4 0.0000 0.0000 0.0000 6.6867 0.0000 0.0000
# 5 0.0000 0.0000 0.0000 0.0000 16.1585 0.0000
# 6 0.0000 0.0000 0.0000 0.0000 0.0000 8.6715
#
#
#
# Elastic Compliance Matrix: (Units=1/GPa)
#
#
# Indices 1 2 3 4 5 6 
#
# 1 0.017837 -0.000751 -0.005486 0.000000 0.000000 0.000000
# 2 -0.000751 0.061988 0.012391 0.000000 0.000000 0.000000
# 3 -0.005486 0.012391 0.017799 0.000000 0.000000 0.000000
# 4 0.000000 0.000000 0.000000 0.149552 0.000000 0.000000
# 5 0.000000 0.000000 0.000000 0.000000 0.061887 0.000000
# 6 0.000000 0.000000 0.000000 0.000000 0.000000 0.115320
#
#
# Mechanical properties :
#
#
# Convention : Reuss Voigt Hill
#
# Bulk Modulus (GPa) = 9.09663 18.02677 13.56170
# Shear Modulus (GPa) = 11.14285 16.33798 13.74041
#
# Velocity S-wave (km/s) = 2.37354 2.87408 2.63572
# Velocity P-wave (km/s) = 3.48005 4.48641 4.01489
#
# Compressibility (1/GPa) = 0.10993077
#
# Stress axis : x y z
#
# Youngs Moduli (GPa) = 56.06359 16.13223 56.18298
#
# Poissons Ratio (x) = 0.01212 0.30823
# Poissons Ratio (y) = 0.04213 -0.69618
# Poissons Ratio (z) = 0.30758 -0.19990
#
# Static dielectric constant tensor:
#      x y z
#    x 1.703450 0.000000 0.000000 
#    y 0.000000 1.677810 0.000000 
#    z 0.000000 0.000000 1.709330 
# 
# From -- ./inp_files/14002.got.cif
#   From: 2010.05.17/outbox.cif.g08.bks.cpg/sg44_8_cif.got.tgz:14002.got - 2010.06.03 19:37:08.
