data_PCOD9374679
_publ_section_title
;
Structure prediction by ZEFSAII (Michael W. Deem and Ramdas Pophale) SiO2 
 PCOD9374679
Probable space group: I M M 2
;
_chemical_formula_sum "Si O2"
_cell_formula_units_Z 64
_cell_length_a 29.676060
_cell_length_b 8.657987
_cell_length_c 13.330140
_cell_angle_alpha 90.000000
_cell_angle_beta 90.000000
_cell_angle_gamma 90.000000
_cell_volume 3424.978744
_symmetry_space_group_name_H-M "I M M 2"
_symmetry_group_IT_number 44
_symmetry_cell_setting 'orthorhombic'
loop_
_space_group_symop_operation_xyz
x,y,z
-x,-y,z
-x,y,z
x,-y,z
1/2+x,1/2+y,1/2+z
1/2-x,1/2-y,1/2+z
1/2-x,1/2+y,1/2+z
1/2+x,1/2-y,1/2+z
loop_
_atom_site_type_symbol
_atom_site_label
_atom_site_fract_x
_atom_site_fract_y
_atom_site_fract_z
Si Si1 0.552572 0.687961 0.805900
Si Si2 0.716182 0.324724 0.714049
Si Si3 0.618730 0.313544 0.628955
Si Si4 0.800602 0.323899 0.575470
Si Si5 0.052397 0.187974 0.530386
Si Si6 0.143831 0.316342 0.918034
Si Si7 0.255693 0.318041 0.403251
Si Si8 0.120771 0.183774 0.702410
O O1 0.500000 0.730856 0.795695
O O2 0.554573 0.500000 0.806020
O O3 0.581764 0.739597 0.710484
O O4 0.568071 0.737538 0.918229
O O5 0.713006 0.500000 0.756153
O O6 0.667434 0.276238 0.676418
O O7 0.751062 0.332246 0.623328
O O8 0.739935 0.212554 0.791254
O O9 0.615966 0.500000 0.620101
O O10 0.618352 0.245381 0.517007
O O11 0.818562 0.500000 0.570216
O O12 0.787378 0.259568 0.467338
O O13 0.833403 0.225334 0.643672
O O14 0.081950 0.239373 0.625174
O O15 0.000000 0.231884 0.540804
O O16 0.054226 0.000000 0.530305
O O17 0.143522 0.500000 0.917977
O O18 0.196040 0.260115 0.921675
O O19 0.123062 0.257132 0.812846
O O20 0.260902 0.500000 0.422418
O O21 0.116822 0.000000 0.714691
#
# Coordination Sequence:
#
# PCOD9374679 Si02
#       8
#     8   8   8   8   8   8   8   8
#     4   8  15  31  58  89 116 140 171 222 282 328
#     4  10  20  34  52  77 111 146 181 223 273 322
#     4  10  20  36  58  82 112 146 186 229 271 327
#     4  10  21  36  51  74 111 148 180 224 273 318
#     4   8  16  33  57  87 117 140 172 224 278 326
#     4  12  24  38  55  75 110 151 188 231 277 324
#     4  11  22  37  54  74 106 147 189 230 270 320
#     4  11  22  35  58  85 109 144 189 228 272 331
#
# _framework density 18.686247999999999
#
# number of rings (size 3 to 8) (size 9 to 14) (size 15 to 20)
#    0.000    2.000    2.500    2.625    1.750    1.500 
#    0.000    0.625    0.000    5.625    0.000    3.500 
#    0.000    0.000    0.000    0.000    0.000    0.000 
#
# Total GULP energy -178370.320718 kJ/mol
# GULP energy per Si atom -5574.072522 kJ/mol
# Density = 1.864372 g / cm^3
# Si number density = 18.686248 Si / 1000 Ang^3
#
#
#
# Elastic Constant Matrix: (Units=GPa)
#
#
# Indices 1 2 3 4 5 6 
#
# 1 78.9872 18.3446 59.4946 0.0000 0.0000 0.0000
# 2 18.3446 37.3379 36.2756 0.0000 0.0000 0.0000
# 3 59.4946 36.2756 130.3202 0.0000 0.0000 0.0000
# 4 0.0000 0.0000 0.0000 19.3169 0.0000 0.0000
# 5 0.0000 0.0000 0.0000 0.0000 34.1555 0.0000
# 6 0.0000 0.0000 0.0000 0.0000 0.0000 12.5359
#
#
#
# Elastic Compliance Matrix: (Units=1/GPa)
#
#
# Indices 1 2 3 4 5 6 
#
# 1 0.019339 -0.001266 -0.008476 0.000000 0.000000 0.000000
# 2 -0.001266 0.036793 -0.009664 0.000000 0.000000 0.000000
# 3 -0.008476 -0.009664 0.014233 0.000000 0.000000 0.000000
# 4 0.000000 0.000000 0.000000 0.051768 0.000000 0.000000
# 5 0.000000 0.000000 0.000000 0.000000 0.029278 0.000000
# 6 0.000000 0.000000 0.000000 0.000000 0.000000 0.079771
#
#
# Mechanical properties :
#
#
# Convention : Reuss Voigt Hill
#
# Bulk Modulus (GPa) = 31.69293 52.76387 42.22840
# Shear Modulus (GPa) = 17.82457 22.03702 19.93080
#
# Velocity S-wave (km/s) = 3.09186 3.43785 3.26943
# Velocity P-wave (km/s) = 5.45376 6.63750 6.07453
#
# Compressibility (1/GPa) = 0.03155278
#
# Stress axis : x y z
#
# Youngs Moduli (GPa) = 51.70947 27.17890 70.25969
#
# Poissons Ratio (x) = 0.03442 0.59553
# Poissons Ratio (y) = 0.06549 0.67896
# Poissons Ratio (z) = 0.43830 0.26264
#
# Static dielectric constant tensor:
#      x y z
#    x 1.636810 0.000000 0.000000 
#    y 0.000000 1.663050 0.000000 
#    z 0.000000 0.000000 1.688610 
# 
# From -- ./inp_files/15060.got.cif
#   From: 2010.05.17/outbox.cif.g08.bks.cpg/sg44_8_cif.got.tgz:15060.got - 2010.06.03 19:37:08.
