data_PCOD9374990
_publ_section_title
;
Structure prediction by ZEFSAII (Michael W. Deem and Ramdas Pophale) SiO2 
 PCOD9374990
Probable space group: I M M 2
;
_chemical_formula_sum "Si O2"
_cell_formula_units_Z 56
_cell_length_a 32.536156
_cell_length_b 12.918043
_cell_length_c 6.969113
_cell_angle_alpha 90.000000
_cell_angle_beta 90.000000
_cell_angle_gamma 90.000000
_cell_volume 2929.142323
_symmetry_space_group_name_H-M "I M M 2"
_symmetry_group_IT_number 44
_symmetry_cell_setting 'orthorhombic'
loop_
_space_group_symop_operation_xyz
x,y,z
-x,-y,z
-x,y,z
x,-y,z
1/2+x,1/2+y,1/2+z
1/2-x,1/2-y,1/2+z
1/2-x,1/2+y,1/2+z
1/2+x,1/2-y,1/2+z
loop_
_atom_site_type_symbol
_atom_site_label
_atom_site_fract_x
_atom_site_fract_y
_atom_site_fract_z
Si Si1 0.239736 0.379140 0.299580
Si Si2 0.548838 0.117951 0.427926
Si Si3 0.451849 0.297335 0.721907
Si Si4 0.190633 0.266538 0.963455
Si Si5 0.665203 0.118072 0.092203
Si Si6 0.592333 0.740908 0.110077
Si Si7 0.618438 0.616822 0.469734
O O1 0.248651 0.500000 0.261207
O O2 0.216806 0.325001 0.122804
O O3 0.279998 0.314557 0.353448
O O4 0.207437 0.373892 0.475080
O O5 0.500000 0.116880 0.389526
O O6 0.554537 0.184915 0.621020
O O7 0.570719 0.177785 0.254581
O O8 0.563339 0.000000 0.446625
O O9 0.500000 0.323195 0.705277
O O10 0.422277 0.370724 0.598066
O O11 0.437379 0.294574 0.941140
O O12 0.173674 0.349236 0.810996
O O13 0.152381 0.199317 0.039492
O O14 0.631317 0.199360 0.020895
O O15 0.650527 0.000000 0.076951
O O16 0.607526 0.649942 0.251460
O O17 0.633916 0.500000 0.478822
#
# Coordination Sequence:
#
# PCOD9374990 Si02
#       7
#     8   8   8   8   8   8   8
#     4  11  22  37  60  88 118 156 198 244 298 353
#     4   9  18  32  52  82 117 152 190 232 286 349
#     4  10  21  38  59  85 119 156 198 248 297 352
#     4  11  21  40  61  85 122 155 198 248 294 353
#     4  10  21  36  56  85 118 154 196 241 296 354
#     4  10  20  36  58  82 115 151 195 245 296 353
#     4  10  23  41  60  84 115 155 199 247 304 358
#
# _framework density 19.118224999999999
#
# number of rings (size 3 to 8) (size 9 to 14) (size 15 to 20)
#    0.000    1.857    1.429    2.571    0.000    2.571 
#    0.000    5.000    0.000    0.000    0.000    0.000 
#    0.000    0.000    0.000    0.000    0.000    0.000 
#
# Total GULP energy -156336.452905 kJ/mol
# GULP energy per Si atom -5583.444747 kJ/mol
# Density = 1.907471 g / cm^3
# Si number density = 19.118225 Si / 1000 Ang^3
#
#
#
# Elastic Constant Matrix: (Units=GPa)
#
#
# Indices 1 2 3 4 5 6 
#
# 1 58.6964 -4.9831 11.1168 0.0000 0.0000 0.0000
# 2 -4.9831 56.9244 10.9588 0.0000 -0.0001 0.0000
# 3 11.1168 10.9588 48.5538 0.0003 0.0004 0.0001
# 4 0.0000 0.0000 0.0003 11.1569 0.0002 0.0000
# 5 0.0000 -0.0001 0.0004 0.0002 34.0692 0.0000
# 6 0.0000 0.0000 0.0001 0.0000 0.0000 19.9128
#
#
#
# Elastic Compliance Matrix: (Units=1/GPa)
#
#
# Indices 1 2 3 4 5 6 
#
# 1 0.018142 0.002496 -0.004717 0.000000 0.000000 0.000000
# 2 0.002496 0.018709 -0.004794 0.000000 0.000000 0.000000
# 3 -0.004717 -0.004794 0.022758 -0.000001 0.000000 0.000000
# 4 0.000000 0.000000 -0.000001 0.089631 0.000000 0.000000
# 5 0.000000 0.000000 0.000000 0.000000 0.029352 0.000000
# 6 0.000000 0.000000 0.000000 0.000000 0.000000 0.050219
#
#
# Mechanical properties :
#
#
# Convention : Reuss Voigt Hill
#
# Bulk Modulus (GPa) = 21.94022 22.03996 21.99009
# Shear Modulus (GPa) = 19.37734 22.83325 21.10530
#
# Velocity S-wave (km/s) = 3.18709 3.45964 3.32616
# Velocity P-wave (km/s) = 5.00443 5.24520 5.12623
#
# Compressibility (1/GPa) = 0.04557840
#
# Stress axis : x y z
#
# Youngs Moduli (GPa) = 55.12018 53.45129 43.94096
#
# Poissons Ratio (x) = -0.13343 0.20728
# Poissons Ratio (y) = -0.13760 0.21066
# Poissons Ratio (z) = 0.26001 0.25625
#
# Static dielectric constant tensor:
#      x y z
#    x 1.671700 0.000000 0.000000 
#    y 0.000000 1.644000 0.000000 
#    z 0.000000 0.000000 1.637430 
# 
# From -- ./inp_files/3313.got.cif
#   From: 2010.05.17/outbox.cif.g08.bks.cpg/sg44_2_cif.got.tgz:3313.got - 2010.06.03 19:37:08.
