data_PCOD9374078
_publ_section_title
;
Structure prediction by ZEFSAII (Michael W. Deem and Ramdas Pophale) SiO2 
 PCOD9374078
Probable space group: I M M 2
;
_chemical_formula_sum "Si O2"
_cell_formula_units_Z 64
_cell_length_a 7.864179
_cell_length_b 26.118436
_cell_length_c 15.414119
_cell_angle_alpha 90.000000
_cell_angle_beta 90.000000
_cell_angle_gamma 90.000000
_cell_volume 3166.060904
_symmetry_space_group_name_H-M "I M M 2"
_symmetry_group_IT_number 44
_symmetry_cell_setting 'orthorhombic'
loop_
_space_group_symop_operation_xyz
x,y,z
-x,-y,z
-x,y,z
x,-y,z
1/2+x,1/2+y,1/2+z
1/2-x,1/2-y,1/2+z
1/2-x,1/2+y,1/2+z
1/2+x,1/2-y,1/2+z
loop_
_atom_site_type_symbol
_atom_site_label
_atom_site_fract_x
_atom_site_fract_y
_atom_site_fract_z
Si Si1 0.703478 0.888701 0.597010
Si Si2 0.797245 0.168469 0.102922
Si Si3 0.195924 0.259709 0.336337
Si Si4 0.208119 0.558828 0.276738
Si Si5 0.295629 0.137941 0.921097
Si Si6 0.695545 0.278330 0.144902
Si Si7 0.708905 0.648617 0.798522
Si Si8 0.203356 0.942575 0.419482
O O1 0.762405 0.913768 0.687631
O O2 0.762773 0.829959 0.594155
O O3 0.764350 0.921231 0.515492
O O4 0.000000 0.779686 0.671658
O O5 0.727586 0.226209 0.092651
O O6 0.739788 0.149142 0.197589
O O7 0.000000 0.171887 0.105110
O O8 0.744420 0.133998 0.022183
O O9 0.274180 0.307258 0.387519
O O10 0.198925 0.274751 0.234241
O O11 0.269294 0.202473 0.340015
O O12 0.000000 0.255326 0.365085
O O13 0.263929 0.500000 0.280205
O O14 0.265281 0.592689 0.358528
O O15 0.000000 0.558537 0.276450
O O16 0.500000 0.139447 0.910868
O O17 0.000000 0.388971 0.097387
O O18 0.500000 0.649645 0.800257
O O19 0.768605 0.599523 0.851466
O O20 0.000000 0.945048 0.407220
O O21 0.272326 0.000000 0.409358
#
# Coordination Sequence:
#
# PCOD9374078 Si02
#       8
#     8   8   8   8   8   8   8   8
#     4  11  21  36  56  82 114 150 188 227 280 340
#     4  10  21  37  56  80 112 149 190 235 285 335
#     4   9  17  33  54  78 109 147 185 224 276 336
#     4   9  18  34  56  79 109 150 190 224 271 337
#     4  10  19  33  55  83 113 149 190 230 278 334
#     4  11  21  34  54  82 114 148 185 226 281 336
#     4   8  17  35  56  75 105 146 183 226 282 336
#     4  10  21  37  57  82 109 144 193 241 283 333
#
# _framework density 20.214392
#
# number of rings (size 3 to 8) (size 9 to 14) (size 15 to 20)
#    0.000    2.250    1.250    3.000    1.750    1.250 
#    0.000    3.750    0.000    2.625    0.000    0.000 
#    0.000    0.000    0.000    0.000    0.000    0.000 
#
# Total GULP energy -178663.776877 kJ/mol
# GULP energy per Si atom -5583.243027 kJ/mol
# Density = 2.016838 g / cm^3
# Si number density = 20.214392 Si / 1000 Ang^3
#
#
#
# Elastic Constant Matrix: (Units=GPa)
#
#
# Indices 1 2 3 4 5 6 
#
# 1 26.9313 14.3500 2.2398 0.0000 0.0000 0.0000
# 2 14.3500 158.0011 78.7703 0.0000 0.0000 0.0000
# 3 2.2398 78.7703 97.5150 0.0000 0.0000 0.0000
# 4 0.0000 0.0000 0.0000 16.8939 0.0000 0.0000
# 5 0.0000 0.0000 0.0000 0.0000 21.3252 0.0000
# 6 0.0000 0.0000 0.0000 0.0000 0.0000 7.0749
#
#
#
# Elastic Compliance Matrix: (Units=1/GPa)
#
#
# Indices 1 2 3 4 5 6 
#
# 1 0.039662 -0.005270 0.003346 0.000000 0.000000 0.000000
# 2 -0.005270 0.011297 -0.009004 0.000000 0.000000 0.000000
# 3 0.003346 -0.009004 0.017451 0.000000 0.000000 0.000000
# 4 0.000000 0.000000 0.000000 0.059193 0.000000 0.000000
# 5 0.000000 0.000000 0.000000 0.000000 0.046893 0.000000
# 6 0.000000 0.000000 0.000000 0.000000 0.000000 0.141345
#
#
# Mechanical properties :
#
#
# Convention : Reuss Voigt Hill
#
# Bulk Modulus (GPa) = 21.48084 52.57419 37.02751
# Shear Modulus (GPa) = 14.15568 21.53127 17.84347
#
# Velocity S-wave (km/s) = 2.64915 3.26720 2.97427
# Velocity P-wave (km/s) = 4.47290 6.34803 5.49110
#
# Compressibility (1/GPa) = 0.04655312
#
# Stress axis : x y z
#
# Youngs Moduli (GPa) = 25.21332 88.52136 57.30228
#
# Poissons Ratio (x) = 0.46655 -0.19176
# Poissons Ratio (y) = 0.13289 0.51596
# Poissons Ratio (z) = -0.08437 0.79706
#
# Static dielectric constant tensor:
#      x y z
#    x 1.734650 0.000000 0.000000 
#    y 0.000000 1.712780 0.000000 
#    z 0.000000 0.000000 1.710940 
# 
# From -- ./inp_files/16777.got.cif
#   From: 2010.05.17/outbox.cif.g08.bks.cpg/sg44_9_cif.got.tgz:16777.got - 2010.06.03 19:37:08.
