data_PCOD9374215
_publ_section_title
;
Structure prediction by ZEFSAII (Michael W. Deem and Ramdas Pophale) SiO2 
 PCOD9374215
Probable space group: I M M 2
;
_chemical_formula_sum "Si O2"
_cell_formula_units_Z 48
_cell_length_a 8.005138
_cell_length_b 10.680735
_cell_length_c 29.177315
_cell_angle_alpha 90.000000
_cell_angle_beta 90.000000
_cell_angle_gamma 90.000000
_cell_volume 2494.682538
_symmetry_space_group_name_H-M "I M M 2"
_symmetry_group_IT_number 44
_symmetry_cell_setting 'orthorhombic'
loop_
_space_group_symop_operation_xyz
x,y,z
-x,-y,z
-x,y,z
x,-y,z
1/2+x,1/2+y,1/2+z
1/2-x,1/2-y,1/2+z
1/2-x,1/2+y,1/2+z
1/2+x,1/2-y,1/2+z
loop_
_atom_site_type_symbol
_atom_site_label
_atom_site_fract_x
_atom_site_fract_y
_atom_site_fract_z
Si Si1 0.200867 0.247916 0.474870
Si Si2 0.698904 0.856404 0.671269
Si Si3 0.798507 0.855458 0.570058
Si Si4 0.200169 0.500000 0.919538
Si Si5 0.800090 0.245797 0.766405
Si Si6 0.297614 0.000000 0.925570
Si Si7 0.298245 0.500000 0.319422
Si Si8 0.205019 0.500000 0.813710
O O1 0.262287 0.224014 0.526711
O O2 0.240924 0.124596 0.445458
O O3 0.263598 0.374062 0.450767
O O4 0.000000 0.258136 0.477171
O O5 0.500000 0.861322 0.674299
O O6 0.746479 0.811916 0.620463
O O7 0.763476 0.773815 0.713003
O O8 0.764665 0.000000 0.676297
O O9 0.000000 0.857368 0.568688
O O10 0.740375 0.000000 0.564801
O O11 0.257325 0.500000 0.866747
O O12 0.000000 0.500000 0.919672
O O13 0.737144 0.374880 0.787943
O O14 0.000000 0.246631 0.772096
O O15 0.734873 0.124453 0.793839
O O16 0.246961 0.000000 0.872603
O O17 0.500000 0.000000 0.927246
O O18 0.500000 0.500000 0.315843
O O19 0.000000 0.500000 0.813323
#
# Coordination Sequence:
#
# PCOD9374215 Si02
#       8
#     8   8   8   4   8   4   4   4
#     4  10  20  37  56  81 112 145 183 223 266 320
#     4  10  20  33  52  80 110 134 168 221 270 315
#     4   9  17  32  55  77 102 139 180 220 261 312
#     4  11  21  35  58  83 108 143 185 229 272 315
#     4  10  19  35  56  77 103 140 180 218 260 313
#     4  10  22  36  55  80 113 149 181 221 271 320
#     4  10  20  34  55  78 105 142 185 224 261 312
#     4   9  20  35  52  77 108 138 177 222 262 309
#
# _framework density 19.240925000000001
#
# number of rings (size 3 to 8) (size 9 to 14) (size 15 to 20)
#    0.000    2.167    1.667    1.750    0.000    4.000 
#    0.000    2.917    0.000    3.000    0.000    0.000 
#    0.000    0.000    0.000    0.000    0.000    0.000 
#
# Total GULP energy -133984.656340 kJ/mol
# GULP energy per Si atom -5582.694014 kJ/mol
# Density = 1.919713 g / cm^3
# Si number density = 19.240925 Si / 1000 Ang^3
#
#
#
# Elastic Constant Matrix: (Units=GPa)
#
#
# Indices 1 2 3 4 5 6 
#
# 1 8.1402 7.6184 -2.4178 0.0000 0.0000 0.0000
# 2 7.6184 155.8558 105.1150 0.0000 0.0000 0.0000
# 3 -2.4178 105.1150 191.1001 0.0000 0.0000 0.0000
# 4 0.0000 0.0000 0.0000 -12.1304 0.0000 0.0000
# 5 0.0000 0.0000 0.0000 0.0000 27.7085 0.0000
# 6 0.0000 0.0000 0.0000 0.0000 0.0000 -1.1936
#
#
#
# Elastic Compliance Matrix: (Units=1/GPa)
#
#
# Indices 1 2 3 4 5 6 
#
# 1 0.137121 -0.012516 0.008619 0.000000 0.000000 0.000000
# 2 -0.012516 0.011343 -0.006397 0.000000 0.000000 0.000000
# 3 0.008619 -0.006397 0.008861 0.000000 0.000000 0.000000
# 4 0.000000 0.000000 0.000000 -0.082438 0.000000 0.000000
# 5 0.000000 0.000000 0.000000 0.000000 0.036090 0.000000
# 6 0.000000 0.000000 0.000000 0.000000 0.000000 -0.837777
#
#
# Mechanical properties :
#
#
# Convention : Reuss Voigt Hill
#
# Bulk Modulus (GPa) = 7.31331 63.96968 35.64149
# Shear Modulus (GPa) = -7.56850 19.19560 5.81355
#
# Velocity S-wave (km/s) = -1.98547 3.16198 1.74012
# Velocity P-wave (km/s) = 1.20289 6.83005 4.75409
#
# Compressibility (1/GPa) = 0.13673702
#
# Stress axis : x y z
#
# Youngs Moduli (GPa) = 7.29281 88.16339 112.85679
#
# Poissons Ratio (x) = 1.10343 -0.97273
# Poissons Ratio (y) = 0.09127 0.72199
# Poissons Ratio (z) = -0.06286 0.56401
#
# Static dielectric constant tensor:
#      x y z
#    x 1.686560 0.000000 0.000000 
#    y 0.000000 1.663450 0.000000 
#    z 0.000000 0.000000 1.653420 
# 
# From -- ./inp_files/27020.got.cif
#   From: 2010.05.17/outbox.cif.g08.bks.cpg/sg44_14_cif.got.tgz:27020.got - 2010.06.03 19:37:08.
