data_PCOD9374555
_publ_section_title
;
Structure prediction by ZEFSAII (Michael W. Deem and Ramdas Pophale) SiO2 
 PCOD9374555
Probable space group: I M M 2
;
_chemical_formula_sum "Si O2"
_cell_formula_units_Z 56
_cell_length_a 8.555991
_cell_length_b 20.886035
_cell_length_c 16.081152
_cell_angle_alpha 90.000000
_cell_angle_beta 90.000000
_cell_angle_gamma 90.000000
_cell_volume 2873.713561
_symmetry_space_group_name_H-M "I M M 2"
_symmetry_group_IT_number 44
_symmetry_cell_setting 'orthorhombic'
loop_
_space_group_symop_operation_xyz
x,y,z
-x,-y,z
-x,y,z
x,-y,z
1/2+x,1/2+y,1/2+z
1/2-x,1/2-y,1/2+z
1/2-x,1/2+y,1/2+z
1/2+x,1/2-y,1/2+z
loop_
_atom_site_type_symbol
_atom_site_label
_atom_site_fract_x
_atom_site_fract_y
_atom_site_fract_z
Si Si1 0.811703 0.249230 0.449170
Si Si2 0.811849 0.696577 0.278176
Si Si3 0.321371 0.878486 0.364013
Si Si4 0.186349 0.925808 0.191652
Si Si5 0.827384 0.926540 0.512251
Si Si6 0.812372 0.291612 0.633153
Si Si7 0.812882 0.574166 0.179917
O O1 0.763366 0.296256 0.374252
O O2 0.750641 0.183514 0.408954
O O3 0.757136 0.264352 0.543024
O O4 0.000000 0.248695 0.452978
O O5 0.746587 0.749497 0.212488
O O6 0.771776 0.625138 0.249759
O O7 0.000000 0.704384 0.274559
O O8 0.500000 0.867827 0.339284
O O9 0.227512 0.906341 0.286513
O O10 0.299522 0.925923 0.440420
O O11 0.259822 0.866011 0.141455
O O12 0.000000 0.924660 0.180576
O O13 0.239290 0.000000 0.176192
O O14 0.766175 0.896916 0.597033
O O15 0.000000 0.902456 0.486955
O O16 0.845897 0.000000 0.534761
O O17 0.000000 0.289194 0.634878
O O18 0.769937 0.500000 0.197243
O O19 0.000000 0.574735 0.167246
#
# Coordination Sequence:
#
# PCOD9374555 Si02
#       7
#     8   8   8   8   8   8   8
#     4  10  22  39  59  85 120 158 198 246 305 364
#     4  10  20  37  60  84 116 159 198 242 301 363
#     4  12  23  35  56  87 117 150 196 248 302 358
#     4  11  24  42  63  86 119 164 207 254 318 381
#     4  10  20  33  50  75 110 151 188 226 286 356
#     4  11  23  39  61  91 122 158 206 259 308 362
#     4   9  18  33  54  82 114 150 197 247 293 347
#
# _framework density 19.486981
#
# number of rings (size 3 to 8) (size 9 to 14) (size 15 to 20)
#    0.000    1.571    1.429    3.857    0.000    7.714 
#    0.000    0.714    0.000    2.571    0.000    2.000 
#    0.000    0.000    0.000    0.000    0.000    0.000 
#
# Total GULP energy -155989.345138 kJ/mol
# GULP energy per Si atom -5571.048041 kJ/mol
# Density = 1.944263 g / cm^3
# Si number density = 19.486981 Si / 1000 Ang^3
#
#
#
# Elastic Constant Matrix: (Units=GPa)
#
#
# Indices 1 2 3 4 5 6 
#
# 1 24.3776 10.4307 6.5163 0.0000 0.0000 0.0000
# 2 10.4307 100.0065 33.5877 0.0000 0.0000 0.0000
# 3 6.5163 33.5877 93.2438 0.0000 0.0000 0.0000
# 4 0.0000 0.0000 0.0000 29.5214 0.0000 0.0000
# 5 0.0000 0.0000 0.0000 0.0000 23.4041 0.0000
# 6 0.0000 0.0000 0.0000 0.0000 0.0000 -10.0541
#
#
#
# Elastic Compliance Matrix: (Units=1/GPa)
#
#
# Indices 1 2 3 4 5 6 
#
# 1 0.043143 -0.003967 -0.001586 0.000000 0.000000 0.000000
# 2 -0.003967 0.011740 -0.003952 0.000000 0.000000 0.000000
# 3 -0.001586 -0.003952 0.012259 0.000000 0.000000 0.000000
# 4 0.000000 0.000000 0.000000 0.033874 0.000000 0.000000
# 5 0.000000 0.000000 0.000000 0.000000 0.042728 0.000000
# 6 0.000000 0.000000 0.000000 0.000000 0.000000 -0.099462
#
#
# Mechanical properties :
#
#
# Convention : Reuss Voigt Hill
#
# Bulk Modulus (GPa) = 20.77615 35.41082 28.09349
# Shear Modulus (GPa) = 63.02338 19.71381 41.36859
#
# Velocity S-wave (km/s) = 5.69311 3.18408 4.61247
# Velocity P-wave (km/s) = 7.34166 5.63283 6.54327
#
# Compressibility (1/GPa) = 0.04813210
#
# Stress axis : x y z
#
# Youngs Moduli (GPa) = 23.17889 85.17628 81.57333
#
# Poissons Ratio (x) = 0.33790 0.12938
# Poissons Ratio (y) = 0.09195 0.32236
# Poissons Ratio (z) = 0.03676 0.33660
#
# Static dielectric constant tensor:
#      x y z
#    x 1.719290 0.000000 0.000000 
#    y 0.000000 1.674670 0.000000 
#    z 0.000000 0.000000 1.698960 
# 
# From -- ./inp_files/16466.got.cif
#   From: 2010.05.17/outbox.cif.g08.bks.cpg/sg44_9_cif.got.tgz:16466.got - 2010.06.03 19:37:08.
