data_PCOD9374042
_publ_section_title
;
Structure prediction by ZEFSAII (Michael W. Deem and Ramdas Pophale) SiO2 
 PCOD9374042
Probable space group: I M M 2
;
_chemical_formula_sum "Si O2"
_cell_formula_units_Z 48
_cell_length_a 8.131889
_cell_length_b 32.955411
_cell_length_c 9.276260
_cell_angle_alpha 90.000000
_cell_angle_beta 90.000000
_cell_angle_gamma 90.000000
_cell_volume 2485.942545
_symmetry_space_group_name_H-M "I M M 2"
_symmetry_group_IT_number 44
_symmetry_cell_setting 'orthorhombic'
loop_
_space_group_symop_operation_xyz
x,y,z
-x,-y,z
-x,y,z
x,-y,z
1/2+x,1/2+y,1/2+z
1/2-x,1/2-y,1/2+z
1/2-x,1/2+y,1/2+z
1/2+x,1/2-y,1/2+z
loop_
_atom_site_type_symbol
_atom_site_label
_atom_site_fract_x
_atom_site_fract_y
_atom_site_fract_z
Si Si1 0.695841 0.956087 0.031420
Si Si2 0.798342 0.868376 0.718266
Si Si3 0.803752 0.290618 0.721962
Si Si4 0.194533 0.043662 0.700964
Si Si5 0.697833 0.711596 0.051552
Si Si6 0.696243 0.370059 0.552734
O O1 0.500000 0.955049 0.007990
O O2 0.746485 0.914355 0.106411
O O3 0.736720 0.000000 0.099625
O O4 0.782103 0.955636 0.874587
O O5 0.741354 0.912019 0.655704
O O6 0.742230 0.829363 0.629698
O O7 0.000000 0.869038 0.717455
O O8 0.746835 0.865159 0.885994
O O9 0.739742 0.252144 0.630450
O O10 0.755603 0.332643 0.646946
O O11 0.000000 0.288112 0.724975
O O12 0.741227 0.288382 0.884471
O O13 0.000000 0.043040 0.669579
O O14 0.264985 0.000000 0.651142
O O15 0.500000 0.711435 0.064470
O O16 0.500000 0.369964 0.551278
#
# Coordination Sequence:
#
# PCOD9374042 Si02
#       6
#     8   8   8   8   8   8
#     4   9  16  26  43  71 106 138 169 210 256 299
#     4   8  15  29  50  75 101 131 169 211 254 302
#     4  11  23  37  54  77 103 131 170 216 260 310
#     4   8  13  23  42  69 100 134 172 212 252 296
#     4  10  21  37  55  74 100 134 169 209 259 312
#     4  10  19  33  54  77 104 138 175 214 257 306
#
# _framework density 19.30857
#
# number of rings (size 3 to 8) (size 9 to 14) (size 15 to 20)
#    0.000    2.667    0.000    3.500    0.000    3.667 
#    0.000    4.167    0.000    1.000    0.000    2.333 
#    0.000    0.000    0.000    0.000    0.000    0.000 
#
# Total GULP energy -133734.335940 kJ/mol
# GULP energy per Si atom -5572.263998 kJ/mol
# Density = 1.926462 g / cm^3
# Si number density = 19.308570 Si / 1000 Ang^3
#
#
#
# Elastic Constant Matrix: (Units=GPa)
#
#
# Indices 1 2 3 4 5 6 
#
# 1 16.9539 12.2751 3.3823 -0.0001 0.0000 0.0000
# 2 12.2751 239.2913 79.5259 -0.0002 0.0000 0.0000
# 3 3.3823 79.5259 75.7955 -0.0002 0.0001 -0.0001
# 4 -0.0001 -0.0002 -0.0002 23.8342 0.0000 0.0000
# 5 0.0000 0.0000 0.0001 0.0000 17.0165 0.0000
# 6 0.0000 0.0000 -0.0001 0.0000 0.0000 10.5817
#
#
#
# Elastic Compliance Matrix: (Units=1/GPa)
#
#
# Indices 1 2 3 4 5 6 
#
# 1 0.061296 -0.003432 0.000866 0.000000 0.000000 0.000000
# 2 -0.003432 0.006609 -0.006781 0.000000 0.000000 0.000000
# 3 0.000866 -0.006781 0.020269 0.000000 0.000000 0.000000
# 4 0.000000 0.000000 0.000000 0.041956 0.000000 0.000000
# 5 0.000000 0.000000 0.000000 0.000000 0.058767 0.000000
# 6 0.000000 0.000000 0.000000 0.000000 0.000000 0.094503
#
#
# Mechanical properties :
#
#
# Convention : Reuss Voigt Hill
#
# Bulk Modulus (GPa) = 14.39278 58.04525 36.21901
# Shear Modulus (GPa) = 15.37267 26.07698 20.72483
#
# Velocity S-wave (km/s) = 2.82469 3.67896 3.27975
# Velocity P-wave (km/s) = 4.25544 6.94071 5.75683
#
# Compressibility (1/GPa) = 0.06947930
#
# Stress axis : x y z
#
# Youngs Moduli (GPa) = 16.31441 151.31948 49.33610
#
# Poissons Ratio (x) = 0.51933 -0.04271
# Poissons Ratio (y) = 0.05599 0.33453
# Poissons Ratio (z) = -0.01412 1.02604
#
# Static dielectric constant tensor:
#      x y z
#    x 1.674510 0.000000 0.000000 
#    y 0.000000 1.741490 0.000000 
#    z 0.000000 0.000000 1.635130 
# 
# From -- ./inp_files/4935.got.cif
#   From: 2010.05.17/outbox.cif.g08.bks.cpg/sg44_3_cif.got.tgz:4935.got - 2010.06.03 19:37:08.
