data_PCOD9374123
_publ_section_title
;
Structure prediction by ZEFSAII (Michael W. Deem and Ramdas Pophale) SiO2 
 PCOD9374123
Probable space group: I M M 2
;
_chemical_formula_sum "Si O2"
_cell_formula_units_Z 48
_cell_length_a 10.625200
_cell_length_b 8.525068
_cell_length_c 29.068358
_cell_angle_alpha 90.000000
_cell_angle_beta 90.000000
_cell_angle_gamma 90.000000
_cell_volume 2633.027928
_symmetry_space_group_name_H-M "I M M 2"
_symmetry_group_IT_number 44
_symmetry_cell_setting 'orthorhombic'
loop_
_space_group_symop_operation_xyz
x,y,z
-x,-y,z
-x,y,z
x,-y,z
1/2+x,1/2+y,1/2+z
1/2-x,1/2-y,1/2+z
1/2-x,1/2+y,1/2+z
1/2+x,1/2-y,1/2+z
loop_
_atom_site_type_symbol
_atom_site_label
_atom_site_fract_x
_atom_site_fract_y
_atom_site_fract_z
Si Si1 0.749189 0.687507 0.506940
Si Si2 0.753473 0.189176 0.717021
Si Si3 0.500000 0.809932 0.665871
Si Si4 0.500000 0.689550 0.561962
Si Si5 0.500000 0.312144 0.054846
Si Si6 0.352985 0.810835 0.413952
Si Si7 0.000000 0.191415 0.660928
Si Si8 0.145920 0.689116 0.810060
O O1 0.753286 0.500000 0.509178
O O2 0.625693 0.742531 0.535271
O O3 0.729290 0.739567 0.454410
O O4 0.875101 0.754347 0.529310
O O5 0.625278 0.241853 0.692725
O O6 0.874935 0.243214 0.687782
O O7 0.770441 0.245424 0.769106
O O8 0.754172 0.000000 0.716820
O O9 0.500000 0.749267 0.613931
O O10 0.500000 0.000000 0.664528
O O11 0.500000 0.500000 0.561975
O O12 0.500000 0.500000 0.055237
O O13 0.500000 0.257102 0.107985
O O14 0.500000 0.766299 0.420934
O O15 0.317762 0.763027 0.361931
O O16 0.346667 0.000000 0.416247
O O17 0.000000 0.000000 0.661061
O O18 0.148061 0.500000 0.808691
O O19 0.000000 0.738467 0.802609
#
# Coordination Sequence:
#
# PCOD9374123 Si02
#       8
#     8   8   4   4   4   8   4   8
#     4  11  22  38  57  84 117 147 183 231 284 335
#     4  10  19  34  54  79 108 140 179 225 272 320
#     4  10  22  36  53  78 111 146 183 226 271 322
#     4  10  22  38  57  82 113 147 187 231 279 332
#     4  11  23  39  58  81 112 153 193 229 274 329
#     4   9  18  34  57  83 109 140 183 230 274 329
#     4   9  18  33  54  77 102 136 185 230 264 315
#     4   9  18  33  54  82 110 137 177 226 271 320
#
# _framework density 18.229962
#
# number of rings (size 3 to 8) (size 9 to 14) (size 15 to 20)
#    0.000    2.167    1.667    2.750    0.000    4.000 
#    0.000    4.167    0.000    4.000    0.000    0.000 
#    0.000    0.000    0.000    0.000    0.000    0.000 
#
# Total GULP energy -133982.510212 kJ/mol
# GULP energy per Si atom -5582.604592 kJ/mol
# Density = 1.818847 g / cm^3
# Si number density = 18.229962 Si / 1000 Ang^3
#
#
#
# Elastic Constant Matrix: (Units=GPa)
#
#
# Indices 1 2 3 4 5 6 
#
# 1 147.4818 25.8905 94.5254 0.0000 0.0000 0.0000
# 2 25.8905 14.8892 25.2058 0.0000 0.0000 0.0000
# 3 94.5254 25.2058 181.2074 0.0000 0.0000 0.0000
# 4 0.0000 0.0000 0.0000 31.2125 0.0000 0.0000
# 5 0.0000 0.0000 0.0000 0.0000 -4.5927 0.0000
# 6 0.0000 0.0000 0.0000 0.0000 0.0000 11.8914
#
#
#
# Elastic Compliance Matrix: (Units=1/GPa)
#
#
# Indices 1 2 3 4 5 6 
#
# 1 0.011918 -0.013340 -0.004361 0.000000 0.000000 0.000000
# 2 -0.013340 0.102783 -0.007338 0.000000 0.000000 0.000000
# 3 -0.004361 -0.007338 0.008814 0.000000 0.000000 0.000000
# 4 0.000000 0.000000 0.000000 0.032038 0.000000 0.000000
# 5 0.000000 0.000000 0.000000 0.000000 -0.217736 0.000000
# 6 0.000000 0.000000 0.000000 0.000000 0.000000 0.084094
#
#
# Mechanical properties :
#
#
# Convention : Reuss Voigt Hill
#
# Bulk Modulus (GPa) = 13.61740 70.53574 42.07657
# Shear Modulus (GPa) = 51.83049 20.89935 36.36492
#
# Velocity S-wave (km/s) = 5.33790 3.38957 4.47115
# Velocity P-wave (km/s) = 6.74366 7.35494 7.05592
#
# Compressibility (1/GPa) = 0.07343544
#
# Stress axis : x y z
#
# Youngs Moduli (GPa) = 83.90998 9.72926 113.45373
#
# Poissons Ratio (x) = 0.12979 0.49478
# Poissons Ratio (y) = 1.11939 0.83253
# Poissons Ratio (z) = 0.36594 0.07139
#
# Static dielectric constant tensor:
#      x y z
#    x 1.607420 0.000000 0.000000 
#    y 0.000000 1.621360 0.000000 
#    z 0.000000 0.000000 1.607570 
# 
# From -- ./inp_files/27018.got.cif
#   From: 2010.05.17/outbox.cif.g08.bks.cpg/sg44_14_cif.got.tgz:27018.got - 2010.06.03 19:37:08.
