data_PCOD9374523
_publ_section_title
;
Structure prediction by ZEFSAII (Michael W. Deem and Ramdas Pophale) SiO2 
 PCOD9374523
Probable space group: I M M 2
;
_chemical_formula_sum "Si O2"
_cell_formula_units_Z 64
_cell_length_a 25.119028
_cell_length_b 8.123031
_cell_length_c 13.200289
_cell_angle_alpha 90.000000
_cell_angle_beta 90.000000
_cell_angle_gamma 90.000000
_cell_volume 2693.421858
_symmetry_space_group_name_H-M "I M M 2"
_symmetry_group_IT_number 44
_symmetry_cell_setting 'orthorhombic'
loop_
_space_group_symop_operation_xyz
x,y,z
-x,-y,z
-x,y,z
x,-y,z
1/2+x,1/2+y,1/2+z
1/2-x,1/2-y,1/2+z
1/2-x,1/2+y,1/2+z
1/2+x,1/2-y,1/2+z
loop_
_atom_site_type_symbol
_atom_site_label
_atom_site_fract_x
_atom_site_fract_y
_atom_site_fract_z
Si Si1 0.329194 0.700035 0.407950
Si Si2 0.058596 0.808633 0.897114
Si Si3 0.326014 0.695113 0.055259
Si Si4 0.436438 0.184571 0.618790
Si Si5 0.287583 0.694980 0.622018
Si Si6 0.059648 0.690297 0.554145
Si Si7 0.436770 0.681839 0.832763
Si Si8 0.285254 0.697994 0.838440
O O1 0.331770 0.500000 0.408831
O O2 0.384882 0.762294 0.360979
O O3 0.317830 0.760877 0.523199
O O4 0.275922 0.751013 0.351759
O O5 0.000000 0.734232 0.874374
O O6 0.055954 0.000000 0.867450
O O7 0.067317 0.796463 0.018986
O O8 0.317157 0.500000 0.060840
O O9 0.385632 0.730657 0.093741
O O10 0.318176 0.749712 0.937384
O O11 0.275808 0.779320 0.108860
O O12 0.500000 0.169138 0.632710
O O13 0.416211 0.257546 0.724565
O O14 0.416167 0.000000 0.599467
O O15 0.298236 0.500000 0.622648
O O16 0.302912 0.766307 0.730428
O O17 0.059187 0.500000 0.583016
O O18 0.066364 0.706958 0.432219
O O19 0.000000 0.760203 0.578399
O O20 0.500000 0.663879 0.818613
O O21 0.414336 0.500000 0.857089
O O22 0.287066 0.500000 0.835507
#
# Coordination Sequence:
#
# PCOD9374523 Si02
#       8
#     8   8   8   8   8   8   8   8
#     4   9  18  32  52  77 103 133 172 216 261 313
#     4   9  17  29  45  67  97 133 169 205 251 308
#     4  10  20  34  54  82 110 136 175 223 268 316
#     4   9  16  25  37  56  85 122 164 206 246 294
#     4   9  18  35  56  76 102 136 172 215 269 321
#     4  10  20  33  49  71 102 140 177 212 256 312
#     4   9  16  26  40  58  84 122 166 208 248 292
#     4   9  19  35  55  78 105 137 173 218 269 318
#
# _framework density 23.761595
#
# number of rings (size 3 to 8) (size 9 to 14) (size 15 to 20)
#    0.000    2.750    0.000    1.500    0.000    6.250 
#    0.000    2.500    0.000    0.750    0.000    3.500 
#    0.000    0.000    0.000    0.000    0.000    0.000 
#
# Total GULP energy -178476.133079 kJ/mol
# GULP energy per Si atom -5577.379159 kJ/mol
# Density = 2.370751 g / cm^3
# Si number density = 23.761595 Si / 1000 Ang^3
#
#
#
# Elastic Constant Matrix: (Units=GPa)
#
#
# Indices 1 2 3 4 5 6 
#
# 1 207.9910 -2.5396 7.4773 0.0000 0.0000 0.0000
# 2 -2.5396 26.0860 -4.3861 0.0000 0.0000 0.0000
# 3 7.4773 -4.3861 43.3884 0.0000 0.0000 0.0000
# 4 0.0000 0.0000 0.0000 11.4634 0.0000 0.0000
# 5 0.0000 0.0000 0.0000 0.0000 -20.1070 0.0000
# 6 0.0000 0.0000 0.0000 0.0000 0.0000 18.0500
#
#
#
# Elastic Compliance Matrix: (Units=1/GPa)
#
#
# Indices 1 2 3 4 5 6 
#
# 1 0.004841 0.000337 -0.000800 0.000000 0.000000 0.000000
# 2 0.000337 0.039021 0.003887 0.000000 0.000000 0.000000
# 3 -0.000800 0.003887 0.023578 0.000000 0.000000 0.000000
# 4 0.000000 0.000000 0.000000 0.087234 0.000000 0.000000
# 5 0.000000 0.000000 0.000000 0.000000 -0.049734 0.000000
# 6 0.000000 0.000000 0.000000 0.000000 0.000000 0.055402
#
#
# Mechanical properties :
#
#
# Convention : Reuss Voigt Hill
#
# Bulk Modulus (GPa) = 13.46138 30.95206 22.20672
# Shear Modulus (GPa) = 28.04925 20.34220 24.19572
#
# Velocity S-wave (km/s) = 3.43949 2.92909 3.19450
# Velocity P-wave (km/s) = 4.63151 4.94912 4.79295
#
# Compressibility (1/GPa) = 0.07428659
#
# Stress axis : x y z
#
# Youngs Moduli (GPa) = 206.57828 25.62717 42.41166
#
# Poissons Ratio (x) = -0.00863 0.03394
# Poissons Ratio (y) = -0.06956 -0.16484
# Poissons Ratio (z) = 0.16530 -0.09960
#
# Static dielectric constant tensor:
#      x y z
#    x 1.969870 0.000000 0.000000 
#    y 0.000000 1.860510 0.000000 
#    z 0.000000 0.000000 1.937180 
# 
# From -- ./inp_files/19502.got.cif
#   From: 2010.05.17/outbox.cif.g08.bks.cpg/sg44_10_cif.got.tgz:19502.got - 2010.06.03 19:37:08.
