data_PCOD9374761
_publ_section_title
;
Structure prediction by ZEFSAII (Michael W. Deem and Ramdas Pophale) SiO2 
 PCOD9374761
Probable space group: I M M 2
;
_chemical_formula_sum "Si O2"
_cell_formula_units_Z 64
_cell_length_a 16.333036
_cell_length_b 20.722248
_cell_length_c 9.946330
_cell_angle_alpha 90.000000
_cell_angle_beta 90.000000
_cell_angle_gamma 90.000000
_cell_volume 3366.407227
_symmetry_space_group_name_H-M "I M M 2"
_symmetry_group_IT_number 44
_symmetry_cell_setting 'orthorhombic'
loop_
_space_group_symop_operation_xyz
x,y,z
-x,-y,z
-x,y,z
x,-y,z
1/2+x,1/2+y,1/2+z
1/2-x,1/2-y,1/2+z
1/2-x,1/2+y,1/2+z
1/2+x,1/2-y,1/2+z
loop_
_atom_site_type_symbol
_atom_site_label
_atom_site_fract_x
_atom_site_fract_y
_atom_site_fract_z
Si Si1 0.653710 0.828853 0.151000
Si Si2 0.400624 0.573347 0.983028
Si Si3 0.902175 0.339306 0.092124
Si Si4 0.676274 0.201559 0.866634
Si Si5 0.596107 0.928852 0.361275
Si Si6 0.907882 0.185221 0.680920
Si Si7 0.160946 0.158630 0.250972
Si Si8 0.634218 0.298125 0.466093
O O1 0.602916 0.877616 0.241316
O O2 0.640388 0.752362 0.171504
O O3 0.744952 0.843310 0.204262
O O4 0.635760 0.834958 0.992559
O O5 0.500000 0.574238 0.979278
O O6 0.374789 0.500000 0.010168
O O7 0.374504 0.625415 0.095934
O O8 0.366753 0.599758 0.841979
O O9 0.847707 0.331147 0.225697
O O10 0.891319 0.275185 0.000207
O O11 0.000000 0.344782 0.123851
O O12 0.870717 0.397190 0.998155
O O13 0.649610 0.275862 0.839348
O O14 0.770530 0.202558 0.917724
O O15 0.500000 0.935133 0.387314
O O16 0.630310 0.000000 0.331071
O O17 0.000000 0.198777 0.632276
O O18 0.909954 0.171203 0.839189
O O19 0.117635 0.166175 0.106798
#
# Coordination Sequence:
#
# PCOD9374761 Si02
#       8
#     8   8   8   8   8   8   8   8
#     4  11  20  34  57  87 115 146 192 242 295 349
#     4  10  23  41  59  84 119 158 201 245 296 360
#     4  10  20  34  55  83 114 147 194 240 284 348
#     4  10  20  34  55  83 115 148 181 246 298 343
#     4  10  21  37  55  78 114 155 190 232 290 353
#     4  11  20  33  58  85 115 151 193 245 299 351
#     4  10  20  35  58  83 114 151 186 238 294 349
#     4  10  20  34  55  85 116 144 187 240 298 350
#
# _framework density 19.011367
#
# number of rings (size 3 to 8) (size 9 to 14) (size 15 to 20)
#    0.000    1.750    3.750    0.750    0.000    5.000 
#    0.000    1.250    0.000    4.500    0.000    0.000 
#    0.000    0.000    0.000    0.000    0.000    0.000 
#
# Total GULP energy -178288.549843 kJ/mol
# GULP energy per Si atom -5571.517183 kJ/mol
# Density = 1.896810 g / cm^3
# Si number density = 19.011367 Si / 1000 Ang^3
#
#
#
# Elastic Constant Matrix: (Units=GPa)
#
#
# Indices 1 2 3 4 5 6 
#
# 1 22.7845 13.9271 11.1744 0.0000 0.0000 0.0000
# 2 13.9271 117.0629 69.3790 0.0000 0.0000 0.0000
# 3 11.1744 69.3790 138.4673 0.0000 0.0000 0.0000
# 4 0.0000 0.0000 0.0000 18.6070 0.0000 0.0000
# 5 0.0000 0.0000 0.0000 0.0000 7.0740 0.0000
# 6 0.0000 0.0000 0.0000 0.0000 0.0000 47.8542
#
#
#
# Elastic Compliance Matrix: (Units=1/GPa)
#
#
# Indices 1 2 3 4 5 6 
#
# 1 0.047529 -0.004810 -0.001426 0.000000 0.000000 0.000000
# 2 -0.004810 0.012637 -0.005944 0.000000 0.000000 0.000000
# 3 -0.001426 -0.005944 0.010315 0.000000 0.000000 0.000000
# 4 0.000000 0.000000 0.000000 0.053743 0.000000 0.000000
# 5 0.000000 0.000000 0.000000 0.000000 0.141363 0.000000
# 6 0.000000 0.000000 0.000000 0.000000 0.000000 0.020897
#
#
# Mechanical properties :
#
#
# Convention : Reuss Voigt Hill
#
# Bulk Modulus (GPa) = 21.68123 51.91953 36.80038
# Shear Modulus (GPa) = 15.32724 26.96264 21.14494
#
# Velocity S-wave (km/s) = 2.84247 3.77004 3.33862
# Velocity P-wave (km/s) = 4.71190 6.80587 5.85328
#
# Compressibility (1/GPa) = 0.04612284
#
# Stress axis : x y z
#
# Youngs Moduli (GPa) = 21.03996 79.13096 96.94512
#
# Poissons Ratio (x) = 0.38058 0.13822
# Poissons Ratio (y) = 0.10119 0.57622
# Poissons Ratio (z) = 0.03000 0.47034
#
# Static dielectric constant tensor:
#      x y z
#    x 1.925660 0.000000 0.000000 
#    y 0.000000 1.675040 0.000000 
#    z 0.000000 0.000000 1.704880 
# 
# From -- ./inp_files/8475.got.cif
#   From: 2010.05.17/outbox.cif.g08.bks.cpg/sg44_5_cif.got.tgz:8475.got - 2010.06.03 19:37:08.
