data_PCOD9374416
_publ_section_title
;
Structure prediction by ZEFSAII (Michael W. Deem and Ramdas Pophale) SiO2 
 PCOD9374416
Probable space group: I M M 2
;
_chemical_formula_sum "Si O2"
_cell_formula_units_Z 64
_cell_length_a 7.597099
_cell_length_b 15.195129
_cell_length_c 29.010139
_cell_angle_alpha 90.000000
_cell_angle_beta 90.000000
_cell_angle_gamma 90.000000
_cell_volume 3348.898516
_symmetry_space_group_name_H-M "I M M 2"
_symmetry_group_IT_number 44
_symmetry_cell_setting 'orthorhombic'
loop_
_space_group_symop_operation_xyz
x,y,z
-x,-y,z
-x,y,z
x,-y,z
1/2+x,1/2+y,1/2+z
1/2-x,1/2-y,1/2+z
1/2-x,1/2+y,1/2+z
1/2+x,1/2-y,1/2+z
loop_
_atom_site_type_symbol
_atom_site_label
_atom_site_fract_x
_atom_site_fract_y
_atom_site_fract_z
Si Si1 0.709920 0.899304 0.821040
Si Si2 0.211178 0.098885 0.714884
Si Si3 0.284291 0.099718 0.360972
Si Si4 0.785833 0.400089 0.755689
Si Si5 0.715828 0.224314 0.172818
Si Si6 0.202354 0.226478 0.904528
Si Si7 0.708742 0.902533 0.986405
Si Si8 0.285050 0.899093 0.090232
O O1 0.500000 0.899328 0.826805
O O2 0.751837 0.876279 0.768145
O O3 0.783901 0.832130 0.858286
O O4 0.773118 0.000000 0.828680
O O5 0.274629 0.175624 0.681110
O O6 0.000000 0.094915 0.710414
O O7 0.281166 0.000000 0.707390
O O8 0.500000 0.100609 0.361059
O O9 0.230390 0.118576 0.308071
O O10 0.217880 0.178102 0.393251
O O11 0.230903 0.000000 0.372726
O O12 0.733159 0.500000 0.744080
O O13 0.727525 0.331731 0.717410
O O14 0.000000 0.398499 0.755658
O O15 0.500000 0.224716 0.172357
O O16 0.774342 0.172502 0.127344
O O17 0.267163 0.169239 0.947167
O O18 0.000000 0.242824 0.914801
O O19 0.500000 0.910866 0.991782
O O20 0.776826 0.000000 0.972661
O O21 0.775291 0.881133 0.037830
O O22 0.500000 0.897476 0.091091
O O23 0.234944 0.000000 0.102070
#
# Coordination Sequence:
#
# PCOD9374416 Si02
#       8
#     8   8   8   8   8   8   8   8
#     4  10  20  32  45  63  91 126 157 183 218 268
#     4   9  17  28  42  63  91 119 148 184 221 256
#     4   8  15  27  41  61  90 118 142 173 215 260
#     4   8  12  18  31  54  83 108 129 160 204 249
#     4   9  14  21  38  63  87 110 139 177 216 250
#     4  11  20  29  47  71  90 113 149 191 231 268
#     4   9  18  32  47  64  90 121 149 181 226 278
#     4   8  14  25  42  64  88 114 145 180 219 266
#
# _framework density 19.110762000000001
#
# number of rings (size 3 to 8) (size 9 to 14) (size 15 to 20)
#    0.000    3.000    0.000    3.750    0.000    6.000 
#    0.000    0.000    0.000    3.000    0.000    1.750 
#    0.000    0.000    0.000    0.000    0.000    0.000 
#
# Total GULP energy -178443.748616 kJ/mol
# GULP energy per Si atom -5576.367144 kJ/mol
# Density = 1.906726 g / cm^3
# Si number density = 19.110762 Si / 1000 Ang^3
#
#
#
# Elastic Constant Matrix: (Units=GPa)
#
#
# Indices 1 2 3 4 5 6 
#
# 1 37.1126 1.8873 1.7812 0.0000 0.0000 0.0000
# 2 1.8873 151.4307 113.3206 0.0000 0.0000 0.0000
# 3 1.7812 113.3206 116.8996 0.0000 0.0000 0.0000
# 4 0.0000 0.0000 0.0000 31.0949 0.0000 0.0000
# 5 0.0000 0.0000 0.0000 0.0000 9.5971 0.0000
# 6 0.0000 0.0000 0.0000 0.0000 0.0000 0.8711
#
#
#
# Elastic Compliance Matrix: (Units=1/GPa)
#
#
# Indices 1 2 3 4 5 6 
#
# 1 0.026965 -0.000104 -0.000310 0.000000 0.000000 0.000000
# 2 -0.000104 0.024051 -0.023313 0.000000 0.000000 0.000000
# 3 -0.000310 -0.023313 0.031158 0.000000 0.000000 0.000000
# 4 0.000000 0.000000 0.000000 0.032160 0.000000 0.000000
# 5 0.000000 0.000000 0.000000 0.000000 0.104198 0.000000
# 6 0.000000 0.000000 0.000000 0.000000 0.000000 1.148034
#
#
# Mechanical properties :
#
#
# Convention : Reuss Voigt Hill
#
# Bulk Modulus (GPa) = 28.80158 59.93569 44.36863
# Shear Modulus (GPa) = 3.50731 20.87619 12.19175
#
# Velocity S-wave (km/s) = 1.35619 3.30870 2.52851
# Velocity P-wave (km/s) = 4.18998 6.78432 5.63839
#
# Compressibility (1/GPa) = 0.03472032
#
# Stress axis : x y z
#
# Youngs Moduli (GPa) = 37.08483 41.57885 32.09441
#
# Poissons Ratio (x) = 0.00433 0.00995
# Poissons Ratio (y) = 0.00386 0.74821
# Poissons Ratio (z) = 0.01149 0.96932
#
# Static dielectric constant tensor:
#      x y z
#    x 1.752070 0.000000 0.000000 
#    y 0.000000 1.701450 0.000000 
#    z 0.000000 0.000000 1.645970 
# 
# From -- ./inp_files/27341.got.cif
#   From: 2010.05.17/outbox.cif.g08.bks.cpg/sg44_14_cif.got.tgz:27341.got - 2010.06.03 19:37:08.
