data_PCOD9374727
_publ_section_title
;
Structure prediction by ZEFSAII (Michael W. Deem and Ramdas Pophale) SiO2 
 PCOD9374727
Probable space group: I M M 2
;
_chemical_formula_sum "Si O2"
_cell_formula_units_Z 48
_cell_length_a 7.759696
_cell_length_b 9.426756
_cell_length_c 31.776307
_cell_angle_alpha 90.000000
_cell_angle_beta 90.000000
_cell_angle_gamma 90.000000
_cell_volume 2324.397481
_symmetry_space_group_name_H-M "I M M 2"
_symmetry_group_IT_number 44
_symmetry_cell_setting 'orthorhombic'
loop_
_space_group_symop_operation_xyz
x,y,z
-x,-y,z
-x,y,z
x,-y,z
1/2+x,1/2+y,1/2+z
1/2-x,1/2-y,1/2+z
1/2-x,1/2+y,1/2+z
1/2+x,1/2-y,1/2+z
loop_
_atom_site_type_symbol
_atom_site_label
_atom_site_fract_x
_atom_site_fract_y
_atom_site_fract_z
Si Si1 0.705024 0.661571 0.886210
Si Si2 0.207657 0.338136 0.629636
Si Si3 0.788806 0.836932 0.711208
Si Si4 0.292529 0.161292 0.546484
Si Si5 0.707211 0.837920 0.291856
Si Si6 0.205207 0.840025 0.967246
O O1 0.500000 0.655067 0.889591
O O2 0.774054 0.500000 0.891229
O O3 0.749168 0.710080 0.839006
O O4 0.768696 0.763497 0.922804
O O5 0.272115 0.500000 0.627848
O O6 0.268215 0.254824 0.671111
O O7 0.252258 0.250794 0.588001
O O8 0.000000 0.344416 0.632299
O O9 0.731388 0.762757 0.754446
O O10 0.000000 0.836938 0.711152
O O11 0.733524 0.000000 0.708157
O O12 0.500000 0.153130 0.543054
O O13 0.225580 0.243271 0.505238
O O14 0.226631 0.000000 0.549155
O O15 0.500000 0.843052 0.288814
O O16 0.771817 0.000000 0.286907
O O17 0.000000 0.850341 0.973869
O O18 0.275941 0.000000 0.967775
#
# Coordination Sequence:
#
# PCOD9374727 Si02
#       6
#     8   8   8   8   8   8
#     4  10  21  36  54  78 108 140 174 214 262 314
#     4  10  20  34  54  80 109 141 177 216 259 308
#     4   9  17  30  50  76 104 135 175 221 263 305
#     4  10  21  37  57  80 106 137 174 216 262 312
#     4   9  17  31  52  75 100 134 176 219 262 310
#     4  10  21  37  57  79 103 135 176 218 260 310
#
# _framework density 20.650513
#
# number of rings (size 3 to 8) (size 9 to 14) (size 15 to 20)
#    0.000    2.333    0.000    2.500    0.000    7.333 
#    0.000    2.500    0.000    3.000    0.000    0.000 
#    0.000    0.000    0.000    0.000    0.000    0.000 
#
# Total GULP energy -134055.435156 kJ/mol
# GULP energy per Si atom -5585.643132 kJ/mol
# Density = 2.060351 g / cm^3
# Si number density = 20.650513 Si / 1000 Ang^3
#
#
#
# Elastic Constant Matrix: (Units=GPa)
#
#
# Indices 1 2 3 4 5 6 
#
# 1 28.1824 8.3267 -2.6678 0.0000 0.0000 0.0000
# 2 8.3267 206.1885 146.8423 0.0000 0.0000 0.0000
# 3 -2.6678 146.8423 204.6134 0.0000 0.0000 0.0000
# 4 0.0000 0.0000 0.0000 43.0939 0.0000 0.0000
# 5 0.0000 0.0000 0.0000 0.0000 23.0954 0.0000
# 6 0.0000 0.0000 0.0000 0.0000 0.0000 10.6971
#
#
#
# Elastic Compliance Matrix: (Units=1/GPa)
#
#
# Indices 1 2 3 4 5 6 
#
# 1 0.036891 -0.003748 0.003171 0.000000 0.000000 0.000000
# 2 -0.003748 0.010301 -0.007441 0.000000 0.000000 0.000000
# 3 0.003171 -0.007441 0.010269 0.000000 0.000000 0.000000
# 4 0.000000 0.000000 0.000000 0.023205 0.000000 0.000000
# 5 0.000000 0.000000 0.000000 0.000000 0.043299 0.000000
# 6 0.000000 0.000000 0.000000 0.000000 0.000000 0.093483
#
#
# Mechanical properties :
#
#
# Convention : Reuss Voigt Hill
#
# Bulk Modulus (GPa) = 24.14095 82.66517 53.40306
# Shear Modulus (GPa) = 20.21901 34.47615 27.34758
#
# Velocity S-wave (km/s) = 3.13246 4.09039 3.64305
# Velocity P-wave (km/s) = 4.97983 7.90100 6.60396
#
# Compressibility (1/GPa) = 0.04142338
#
# Stress axis : x y z
#
# Youngs Moduli (GPa) = 27.10713 97.07990 97.38132
#
# Poissons Ratio (x) = 0.36384 -0.30876
# Poissons Ratio (y) = 0.10159 0.72464
# Poissons Ratio (z) = -0.08595 0.72240
#
# Static dielectric constant tensor:
#      x y z
#    x 1.774270 0.000000 0.000000 
#    y 0.000000 1.711190 0.000000 
#    z 0.000000 0.000000 1.692100 
# 
# From -- ./inp_files/26322.got.cif
#   From: 2010.05.17/outbox.cif.g08.bks.cpg/sg44_14_cif.got.tgz:26322.got - 2010.06.03 19:37:08.
