data_PCOD9374708
_publ_section_title
;
Structure prediction by ZEFSAII (Michael W. Deem and Ramdas Pophale) SiO2 
 PCOD9374708
Probable space group: I M M 2
;
_chemical_formula_sum "Si O2"
_cell_formula_units_Z 64
_cell_length_a 28.884981
_cell_length_b 8.756200
_cell_length_c 12.949746
_cell_angle_alpha 90.000000
_cell_angle_beta 90.000000
_cell_angle_gamma 90.000000
_cell_volume 3275.284342
_symmetry_space_group_name_H-M "I M M 2"
_symmetry_group_IT_number 44
_symmetry_cell_setting 'orthorhombic'
loop_
_space_group_symop_operation_xyz
x,y,z
-x,-y,z
-x,y,z
x,-y,z
1/2+x,1/2+y,1/2+z
1/2-x,1/2-y,1/2+z
1/2-x,1/2+y,1/2+z
1/2+x,1/2-y,1/2+z
loop_
_atom_site_type_symbol
_atom_site_label
_atom_site_fract_x
_atom_site_fract_y
_atom_site_fract_z
Si Si1 0.790464 0.682875 0.851390
Si Si2 0.319506 0.674895 0.136936
Si Si3 0.553532 0.315482 0.642931
Si Si4 0.450889 0.817473 0.296514
Si Si5 0.619972 0.814950 0.466944
Si Si6 0.095879 0.815005 0.364378
Si Si7 0.695505 0.181711 0.920389
Si Si8 0.428488 0.673600 0.085080
O O1 0.785844 0.500000 0.854746
O O2 0.811144 0.733784 0.741568
O O3 0.826967 0.728741 0.941875
O O4 0.740766 0.760327 0.861739
O O5 0.302882 0.500000 0.146915
O O6 0.373868 0.669758 0.110638
O O7 0.298425 0.756340 0.037035
O O8 0.500000 0.265624 0.624343
O O9 0.554207 0.500000 0.635377
O O10 0.591507 0.249516 0.563662
O O11 0.569982 0.274403 0.758944
O O12 0.500000 0.764204 0.341522
O O13 0.408952 0.761279 0.366219
O O14 0.448857 0.769107 0.178142
O O15 0.449368 0.000000 0.300926
O O16 0.618801 0.000000 0.472789
O O17 0.147729 0.748629 0.373691
O O18 0.068290 0.767226 0.468126
O O19 0.099516 0.000000 0.369766
O O20 0.692468 0.000000 0.920334
O O21 0.445997 0.500000 0.089246
#
# Coordination Sequence:
#
# PCOD9374708 Si02
#       8
#     8   8   8   8   8   8   8   8
#     4  11  22  38  61  87 117 158 205 253 308 366
#     4  10  20  37  59  83 114 150 190 242 299 357
#     4  10  22  40  63  89 120 162 209 258 310 366
#     4  10  20  34  53  80 114 148 184 231 288 349
#     4  10  22  39  59  83 116 157 200 248 302 361
#     4   9  20  40  61  84 118 157 200 252 304 357
#     4  11  23  38  59  89 122 159 201 249 306 369
#     4   9  18  33  56  82 109 143 184 235 292 349
#
# _framework density 19.540288
#
# number of rings (size 3 to 8) (size 9 to 14) (size 15 to 20)
#    0.000    2.000    1.250    3.000    0.000    6.500 
#    0.000    3.750    0.000    0.000    0.000    0.000 
#    0.000    0.000    0.000    0.000    0.000    0.000 
#
# Total GULP energy -178532.790979 kJ/mol
# GULP energy per Si atom -5579.149718 kJ/mol
# Density = 1.949581 g / cm^3
# Si number density = 19.540288 Si / 1000 Ang^3
#
#
#
# Elastic Constant Matrix: (Units=GPa)
#
#
# Indices 1 2 3 4 5 6 
#
# 1 53.4465 5.2536 9.4144 0.0000 0.0000 0.0000
# 2 5.2536 17.5685 -6.0550 0.0000 0.0000 0.0000
# 3 9.4144 -6.0550 82.3709 0.0000 0.0000 0.0000
# 4 0.0000 0.0000 0.0000 -155.0468 0.0000 0.0000
# 5 0.0000 0.0000 0.0000 0.0000 15.5361 0.0000
# 6 0.0000 0.0000 0.0000 0.0000 0.0000 -2.5779
#
#
#
# Elastic Compliance Matrix: (Units=1/GPa)
#
#
# Indices 1 2 3 4 5 6 
#
# 1 0.019878 -0.006902 -0.002779 0.000000 0.000000 0.000000
# 2 -0.006902 0.060796 0.005258 0.000000 0.000000 0.000000
# 3 -0.002779 0.005258 0.012844 0.000000 0.000000 0.000000
# 4 0.000000 0.000000 0.000000 -0.006450 0.000000 0.000000
# 5 0.000000 0.000000 0.000000 0.000000 0.064366 0.000000
# 6 0.000000 0.000000 0.000000 0.000000 0.000000 -0.387911
#
#
# Mechanical properties :
#
#
# Convention : Reuss Voigt Hill
#
# Bulk Modulus (GPa) = 11.81035 18.95688 15.38362
# Shear Modulus (GPa) = -25.07463 -18.76620 -21.92042
#
# Velocity S-wave (km/s) = -3.58610 -3.10237 -3.35297
# Velocity P-wave (km/s) = 3.33011 1.76364 2.66459
#
# Compressibility (1/GPa) = 0.08467149
#
# Stress axis : x y z
#
# Youngs Moduli (GPa) = 50.30600 16.44845 77.85515
#
# Poissons Ratio (x) = 0.11353 0.21638
# Poissons Ratio (y) = 0.34722 -0.40935
# Poissons Ratio (z) = 0.13982 -0.08648
#
# Static dielectric constant tensor:
#      x y z
#    x 1.711040 0.000000 0.000000 
#    y 0.000000 1.770510 0.000000 
#    z 0.000000 0.000000 1.682980 
# 
# From -- ./inp_files/11442.got.cif
#   From: 2010.05.17/outbox.cif.g08.bks.cpg/sg44_6_cif.got.tgz:11442.got - 2010.06.03 19:37:08.
