data_PCOD9374604
_publ_section_title
;
Structure prediction by ZEFSAII (Michael W. Deem and Ramdas Pophale) SiO2 
 PCOD9374604
Probable space group: I M M 2
;
_chemical_formula_sum "Si O2"
_cell_formula_units_Z 64
_cell_length_a 19.933940
_cell_length_b 8.929799
_cell_length_c 21.018232
_cell_angle_alpha 90.000000
_cell_angle_beta 90.000000
_cell_angle_gamma 90.000000
_cell_volume 3741.373034
_symmetry_space_group_name_H-M "I M M 2"
_symmetry_group_IT_number 44
_symmetry_cell_setting 'orthorhombic'
loop_
_space_group_symop_operation_xyz
x,y,z
-x,-y,z
-x,y,z
x,-y,z
1/2+x,1/2+y,1/2+z
1/2-x,1/2-y,1/2+z
1/2-x,1/2+y,1/2+z
1/2+x,1/2-y,1/2+z
loop_
_atom_site_type_symbol
_atom_site_label
_atom_site_fract_x
_atom_site_fract_y
_atom_site_fract_z
Si Si1 0.576852 0.177964 0.373670
Si Si2 0.788974 0.821992 0.070321
Si Si3 0.789121 0.821633 0.213873
Si Si4 0.075130 0.176711 0.394959
Si Si5 0.715045 0.678256 0.951992
Si Si6 0.576225 0.178488 0.525920
Si Si7 0.789901 0.821799 0.830774
Si Si8 0.576299 0.178222 0.757121
O O1 0.500000 0.215129 0.356684
O O2 0.583935 0.202927 0.449808
O O3 0.633183 0.269582 0.337094
O O4 0.586761 0.000000 0.363288
O O5 0.766333 0.787952 0.142109
O O6 0.865114 0.765580 0.060829
O O7 0.786803 0.000000 0.060983
O O8 0.744638 0.742949 0.016727
O O9 0.745210 0.742072 0.267764
O O10 0.865371 0.764365 0.220921
O O11 0.787154 0.000000 0.224048
O O12 0.135985 0.208006 0.442313
O O13 0.082606 0.273219 0.331013
O O14 0.000000 0.201578 0.420532
O O15 0.080239 0.000000 0.377104
O O16 0.726547 0.500000 0.949822
O O17 0.752408 0.752007 0.891976
O O18 0.500000 0.221011 0.543547
O O19 0.583297 0.000000 0.536924
O O20 0.784338 0.000000 0.832380
O O21 0.500000 0.215351 0.737050
O O22 0.585424 0.000000 0.751029
#
# Coordination Sequence:
#
# PCOD9374604 Si02
#       8
#     8   8   8   8   8   8   8   8
#     4   9  18  34  57  84 113 146 182 221 272 332
#     4  11  24  38  54  79 110 146 190 234 274 323
#     4  11  24  40  55  75 109 152 192 230 278 331
#     4   9  18  33  55  82 110 142 179 220 269 328
#     4  11  21  35  58  83 111 146 182 224 277 334
#     4   9  18  33  54  79 109 147 185 220 268 331
#     4  12  23  35  57  86 113 142 184 235 279 323
#     4  10  20  33  52  80 111 144 183 227 274 326
#
# _framework density 17.106020000000001
#
# number of rings (size 3 to 8) (size 9 to 14) (size 15 to 20)
#    0.000    1.750    2.500    3.375    0.000    4.250 
#    0.000    3.750    0.000    0.750    0.000    3.500 
#    0.000    0.000    0.000    0.000    0.000    0.000 
#
# Total GULP energy -178701.198620 kJ/mol
# GULP energy per Si atom -5584.412457 kJ/mol
# Density = 1.706709 g / cm^3
# Si number density = 17.106020 Si / 1000 Ang^3
#
#
#
# Elastic Constant Matrix: (Units=GPa)
#
#
# Indices 1 2 3 4 5 6 
#
# 1 105.7096 57.7018 66.3237 0.0000 0.0000 0.0000
# 2 57.7018 77.4811 65.8949 0.0000 0.0000 0.0000
# 3 66.3237 65.8949 106.5300 0.0000 0.0000 0.0000
# 4 0.0000 0.0000 0.0000 24.5208 0.0000 0.0000
# 5 0.0000 0.0000 0.0000 0.0000 19.2133 0.0000
# 6 0.0000 0.0000 0.0000 0.0000 0.0000 15.2443
#
#
#
# Elastic Compliance Matrix: (Units=1/GPa)
#
#
# Indices 1 2 3 4 5 6 
#
# 1 0.017592 -0.007989 -0.006011 0.000000 0.000000 0.000000
# 2 -0.007989 0.030860 -0.014115 0.000000 0.000000 0.000000
# 3 -0.006011 -0.014115 0.021860 0.000000 0.000000 0.000000
# 4 0.000000 0.000000 0.000000 0.040782 0.000000 0.000000
# 5 0.000000 0.000000 0.000000 0.000000 0.052047 0.000000
# 6 0.000000 0.000000 0.000000 0.000000 0.000000 0.065598
#
#
# Mechanical properties :
#
#
# Convention : Reuss Voigt Hill
#
# Bulk Modulus (GPa) = 71.00901 74.39571 72.70236
# Shear Modulus (GPa) = 17.26139 18.44903 17.85521
#
# Velocity S-wave (km/s) = 3.18005 3.28763 3.23429
# Velocity P-wave (km/s) = 7.42192 7.61556 7.51936
#
# Compressibility (1/GPa) = 0.01408272
#
# Stress axis : x y z
#
# Youngs Moduli (GPa) = 56.84391 32.40392 45.74557
#
# Poissons Ratio (x) = 0.25889 0.27496
# Poissons Ratio (y) = 0.45415 0.64570
# Poissons Ratio (z) = 0.34167 0.45738
#
# Static dielectric constant tensor:
#      x y z
#    x 1.591930 0.000000 0.000000 
#    y 0.000000 1.569040 0.000000 
#    z 0.000000 0.000000 1.559950 
# 
# From -- ./inp_files/20799.got.cif
#   From: 2010.05.17/outbox.cif.g08.bks.cpg/sg44_11_cif.got.tgz:20799.got - 2010.06.03 19:37:08.
