data_PCOD9374218
_publ_section_title
;
Structure prediction by ZEFSAII (Michael W. Deem and Ramdas Pophale) SiO2 
 PCOD9374218
Probable space group: I M M 2
;
_chemical_formula_sum "Si O2"
_cell_formula_units_Z 48
_cell_length_a 15.120697
_cell_length_b 19.015039
_cell_length_c 9.003400
_cell_angle_alpha 90.000000
_cell_angle_beta 90.000000
_cell_angle_gamma 90.000000
_cell_volume 2588.663359
_symmetry_space_group_name_H-M "I M M 2"
_symmetry_group_IT_number 44
_symmetry_cell_setting 'orthorhombic'
loop_
_space_group_symop_operation_xyz
x,y,z
-x,-y,z
-x,y,z
x,-y,z
1/2+x,1/2+y,1/2+z
1/2-x,1/2-y,1/2+z
1/2-x,1/2+y,1/2+z
1/2+x,1/2-y,1/2+z
loop_
_atom_site_type_symbol
_atom_site_label
_atom_site_fract_x
_atom_site_fract_y
_atom_site_fract_z
Si Si1 0.219654 0.177505 0.862130
Si Si2 0.403320 0.765134 0.826094
Si Si3 0.264861 0.080778 0.579387
Si Si4 0.597050 0.420763 0.539054
Si Si5 0.404098 0.399038 0.886517
Si Si6 0.604363 0.199144 0.478892
O O1 0.320050 0.197575 0.898865
O O2 0.229700 0.131595 0.712070
O O3 0.174008 0.126893 0.979260
O O4 0.159827 0.248731 0.870093
O O5 0.500000 0.796251 0.859022
O O6 0.401980 0.685288 0.878774
O O7 0.392558 0.767774 0.646546
O O8 0.181241 0.075934 0.471388
O O9 0.344465 0.124726 0.500945
O O10 0.289238 0.000000 0.623343
O O11 0.500000 0.391861 0.494661
O O12 0.604338 0.500000 0.481005
O O13 0.598486 0.422749 0.716184
O O14 0.500000 0.419656 0.950700
O O15 0.500000 0.192903 0.439639
#
# Coordination Sequence:
#
# PCOD9374218 Si02
#       6
#     8   8   8   8   8   8
#     4  11  20  35  60  85 113 143 190 245 293 334
#     4   9  18  34  57  82 107 139 187 234 274 333
#     4  11  24  38  55  87 124 154 188 242 306 351
#     4  10  20  34  56  83 111 147 188 230 284 351
#     4  10  19  35  56  79 110 150 188 225 279 349
#     4  10  20  37  60  83 110 151 197 238 280 342
#
# _framework density 18.542387999999999
#
# number of rings (size 3 to 8) (size 9 to 14) (size 15 to 20)
#    0.000    1.833    3.333    1.500    0.000    2.667 
#    0.000    0.000    0.000    1.500    0.000    0.000 
#    0.000    0.000    0.000    0.000    0.000    0.000 
#
# Total GULP energy -133737.511838 kJ/mol
# GULP energy per Si atom -5572.396327 kJ/mol
# Density = 1.850018 g / cm^3
# Si number density = 18.542388 Si / 1000 Ang^3
#
#
#
# Elastic Constant Matrix: (Units=GPa)
#
#
# Indices 1 2 3 4 5 6 
#
# 1 175.1032 74.7215 38.2871 0.0000 0.0000 0.0000
# 2 74.7215 118.5411 30.7869 0.0000 0.0000 0.0000
# 3 38.2871 30.7869 21.0504 0.0000 0.0000 0.0000
# 4 0.0000 0.0000 0.0000 92.6464 0.0000 0.0000
# 5 0.0000 0.0000 0.0000 0.0000 27.5867 0.0000
# 6 0.0000 0.0000 0.0000 0.0000 0.0000 93.6336
#
#
#
# Elastic Compliance Matrix: (Units=1/GPa)
#
#
# Indices 1 2 3 4 5 6 
#
# 1 0.009931 -0.002530 -0.014363 0.000000 0.000000 0.000000
# 2 -0.002530 0.014247 -0.016236 0.000000 0.000000 0.000000
# 3 -0.014363 -0.016236 0.097374 0.000000 0.000000 0.000000
# 4 0.000000 0.000000 0.000000 0.010794 0.000000 0.000000
# 5 0.000000 0.000000 0.000000 0.000000 0.036249 0.000000
# 6 0.000000 0.000000 0.000000 0.000000 0.000000 0.010680
#
#
# Mechanical properties :
#
#
# Convention : Reuss Voigt Hill
#
# Bulk Modulus (GPa) = 18.08472 66.92064 42.50268
# Shear Modulus (GPa) = 18.94195 54.16663 36.55429
#
# Velocity S-wave (km/s) = 3.19963 5.41071 4.44485
# Velocity P-wave (km/s) = 4.83989 8.67198 7.02239
#
# Compressibility (1/GPa) = 0.05529531
#
# Stress axis : x y z
#
# Youngs Moduli (GPa) = 100.69585 70.18968 10.26964
#
# Poissons Ratio (x) = 0.17755 0.14750
# Poissons Ratio (y) = 0.25472 0.16674
# Poissons Ratio (z) = 1.44630 1.13960
#
# Static dielectric constant tensor:
#      x y z
#    x 1.653740 0.000000 0.000000 
#    y 0.000000 1.638440 0.000000 
#    z 0.000000 0.000000 1.642080 
# 
# From -- ./inp_files/7109.got.cif
#   From: 2010.05.17/outbox.cif.g08.bks.cpg/sg44_4_cif.got.tgz:7109.got - 2010.06.03 19:37:08.
