data_PCOD9374574
_publ_section_title
;
Structure prediction by ZEFSAII (Michael W. Deem and Ramdas Pophale) SiO2 
 PCOD9374574
Probable space group: I M M 2
;
_chemical_formula_sum "Si O2"
_cell_formula_units_Z 64
_cell_length_a 18.634003
_cell_length_b 9.268353
_cell_length_c 21.455908
_cell_angle_alpha 90.000000
_cell_angle_beta 90.000000
_cell_angle_gamma 90.000000
_cell_volume 3705.575153
_symmetry_space_group_name_H-M "I M M 2"
_symmetry_group_IT_number 44
_symmetry_cell_setting 'orthorhombic'
loop_
_space_group_symop_operation_xyz
x,y,z
-x,-y,z
-x,y,z
x,-y,z
1/2+x,1/2+y,1/2+z
1/2-x,1/2-y,1/2+z
1/2-x,1/2+y,1/2+z
1/2+x,1/2-y,1/2+z
loop_
_atom_site_type_symbol
_atom_site_label
_atom_site_fract_x
_atom_site_fract_y
_atom_site_fract_z
Si Si1 0.584407 0.674060 0.807500
Si Si2 0.165719 0.673070 0.195446
Si Si3 0.085684 0.328692 0.572154
Si Si4 0.912831 0.165952 0.447209
Si Si5 0.582768 0.675713 0.309493
Si Si6 0.415645 0.172524 0.570030
Si Si7 0.912530 0.166947 0.945955
Si Si8 0.834476 0.826764 0.685182
O O1 0.500000 0.712517 0.800186
O O2 0.589040 0.500000 0.803543
O O3 0.630501 0.748488 0.754181
O O4 0.608656 0.714533 0.877769
O O5 0.156145 0.500000 0.202363
O O6 0.126511 0.718444 0.131598
O O7 0.250011 0.702446 0.189086
O O8 0.096435 0.500000 0.573472
O O9 0.108637 0.263836 0.505290
O O10 0.128046 0.251831 0.627610
O O11 0.000000 0.300503 0.579351
O O12 0.000000 0.164682 0.445730
O O13 0.889669 0.000000 0.457028
O O14 0.500000 0.721409 0.301356
O O15 0.582625 0.500000 0.311920
O O16 0.610057 0.722917 0.377709
O O17 0.628840 0.719120 0.250166
O O18 0.500000 0.208001 0.577697
O O19 0.389325 0.244557 0.506171
O O20 0.409580 0.000000 0.564299
O O21 0.000000 0.170262 0.944202
O O22 0.891135 0.000000 0.952698
O O23 0.844488 0.000000 0.678413
#
# Coordination Sequence:
#
# PCOD9374574 Si02
#       8
#     8   8   8   8   8   8   8   8
#     4   9  18  33  54  78 100 126 165 209 251 299
#     4  10  21  34  48  70 101 135 168 203 244 291
#     4  10  20  33  51  77 104 128 161 208 257 300
#     4   8  15  30  52  76 100 127 162 203 247 299
#     4   8  14  27  49  73  92 114 151 197 239 280
#     4   9  17  30  47  67  93 124 156 191 235 285
#     4   8  14  26  46  71  93 113 147 196 240 278
#     4  10  20  34  51  70  97 135 172 201 237 294
#
# _framework density 17.271273999999998
#
# number of rings (size 3 to 8) (size 9 to 14) (size 15 to 20)
#    0.000    3.000    0.000    2.625    0.000    3.500 
#    0.000    4.375    0.000    5.250    0.000    0.000 
#    0.000    0.000    0.000    0.000    0.000    0.000 
#
# Total GULP energy -178313.991895 kJ/mol
# GULP energy per Si atom -5572.312247 kJ/mol
# Density = 1.723196 g / cm^3
# Si number density = 17.271274 Si / 1000 Ang^3
#
#
#
# Elastic Constant Matrix: (Units=GPa)
#
#
# Indices 1 2 3 4 5 6 
#
# 1 59.3497 41.2742 82.5334 0.0000 0.0000 0.0000
# 2 41.2742 37.4081 70.1850 0.0000 0.0000 0.0000
# 3 82.5334 70.1850 221.6756 0.0000 0.0000 0.0000
# 4 0.0000 0.0000 0.0000 18.3977 0.0000 0.0000
# 5 0.0000 0.0000 0.0000 0.0000 -5.6327 0.0000
# 6 0.0000 0.0000 0.0000 0.0000 0.0000 16.1301
#
#
#
# Elastic Compliance Matrix: (Units=1/GPa)
#
#
# Indices 1 2 3 4 5 6 
#
# 1 0.073957 -0.073745 -0.004187 0.000000 0.000000 0.000000
# 2 -0.073745 0.139380 -0.016673 0.000000 0.000000 0.000000
# 3 -0.004187 -0.016673 0.011349 0.000000 0.000000 0.000000
# 4 0.000000 0.000000 0.000000 0.054355 0.000000 0.000000
# 5 0.000000 0.000000 0.000000 0.000000 -0.177534 0.000000
# 6 0.000000 0.000000 0.000000 0.000000 0.000000 0.061996
#
#
# Mechanical properties :
#
#
# Convention : Reuss Voigt Hill
#
# Bulk Modulus (GPa) = 28.18761 78.49098 53.33930
# Shear Modulus (GPa) = 13.71604 14.07508 13.89556
#
# Velocity S-wave (km/s) = 2.82113 2.85782 2.83953
# Velocity P-wave (km/s) = 5.19304 7.51226 6.45762
#
# Compressibility (1/GPa) = 0.03547658
#
# Stress axis : x y z
#
# Youngs Moduli (GPa) = 13.52141 7.17461 88.11497
#
# Poissons Ratio (x) = 0.52909 0.36892
# Poissons Ratio (y) = 0.99713 1.46915
# Poissons Ratio (z) = 0.05661 0.11962
#
# Static dielectric constant tensor:
#      x y z
#    x 1.565260 0.000000 0.000000 
#    y 0.000000 1.576930 0.000000 
#    z 0.000000 0.000000 1.588710 
# 
# From -- ./inp_files/23307.got.cif
#   From: 2010.05.17/outbox.cif.g08.bks.cpg/sg44_12_cif.got.tgz:23307.got - 2010.06.03 19:37:08.
