data_PCOD9374324
_publ_section_title
;
Structure prediction by ZEFSAII (Michael W. Deem and Ramdas Pophale) SiO2 
 PCOD9374324
Probable space group: I M M 2
;
_chemical_formula_sum "Si O2"
_cell_formula_units_Z 56
_cell_length_a 14.424119
_cell_length_b 16.252412
_cell_length_c 11.759633
_cell_angle_alpha 90.000000
_cell_angle_beta 90.000000
_cell_angle_gamma 90.000000
_cell_volume 2756.772248
_symmetry_space_group_name_H-M "I M M 2"
_symmetry_group_IT_number 44
_symmetry_cell_setting 'orthorhombic'
loop_
_space_group_symop_operation_xyz
x,y,z
-x,-y,z
-x,y,z
x,-y,z
1/2+x,1/2+y,1/2+z
1/2-x,1/2-y,1/2+z
1/2-x,1/2+y,1/2+z
1/2+x,1/2-y,1/2+z
loop_
_atom_site_type_symbol
_atom_site_label
_atom_site_fract_x
_atom_site_fract_y
_atom_site_fract_z
Si Si1 0.598761 0.236240 0.870090
Si Si2 0.643968 0.412721 0.902995
Si Si3 0.203095 0.087890 0.141509
Si Si4 0.889756 0.764389 0.003084
Si Si5 0.892862 0.661985 0.611493
Si Si6 0.698121 0.906686 0.585933
Si Si7 0.207228 0.202171 0.759772
O O1 0.500000 0.221115 0.810261
O O2 0.595281 0.326819 0.924527
O O3 0.690002 0.232991 0.794770
O O4 0.608607 0.174224 0.975442
O O5 0.598399 0.500000 0.930929
O O6 0.665973 0.412918 0.769441
O O7 0.737216 0.410872 0.975325
O O8 0.314569 0.096258 0.143264
O O9 0.177726 0.000000 0.087300
O O10 0.158998 0.165226 0.078296
O O11 0.849361 0.784729 0.876977
O O12 0.000000 0.773248 0.002675
O O13 0.864519 0.673449 0.053635
O O14 0.850213 0.743417 0.670120
O O15 0.000000 0.647710 0.645678
O O16 0.764253 0.881600 0.693273
O O17 0.658676 0.000000 0.603140
#
# Coordination Sequence:
#
# PCOD9374324 Si02
#       7
#     8   8   8   8   8   8   8
#     4  11  21  36  61  89 122 167 213 261 324 394
#     4  10  19  36  60  88 123 163 212 269 326 387
#     4  11  22  40  66  94 130 172 222 278 334 404
#     4  12  25  43  69  99 137 182 226 284 356 416
#     4  11  21  38  64  91 122 165 215 266 328 398
#     4  11  23  41  69  99 134 179 228 284 344 409
#     4  12  20  42  65  98 130 174 217 278 343 408
#
# _framework density 20.313611000000002
#
# number of rings (size 3 to 8) (size 9 to 14) (size 15 to 20)
#    0.000    0.857    7.143    0.429    0.000    4.000 
#    0.000    1.429    0.000    5.571    0.000    0.000 
#    0.000    0.000    0.000    0.000    0.000    0.000 
#
# Total GULP energy -155935.942218 kJ/mol
# GULP energy per Si atom -5569.140794 kJ/mol
# Density = 2.026738 g / cm^3
# Si number density = 20.313611 Si / 1000 Ang^3
#
#
#
# Elastic Constant Matrix: (Units=GPa)
#
#
# Indices 1 2 3 4 5 6 
#
# 1 131.9633 12.9051 18.6238 0.0000 0.0000 0.0000
# 2 12.9051 97.5898 18.6665 0.0000 0.0000 0.0000
# 3 18.6238 18.6665 71.1406 0.0000 0.0000 0.0000
# 4 0.0000 0.0000 0.0000 26.7548 0.0000 0.0000
# 5 0.0000 0.0000 0.0000 0.0000 0.1912 0.0000
# 6 0.0000 0.0000 0.0000 0.0000 0.0000 5.1826
#
#
#
# Elastic Compliance Matrix: (Units=1/GPa)
#
#
# Indices 1 2 3 4 5 6 
#
# 1 0.007912 -0.000684 -0.001892 0.000000 0.000000 0.000000
# 2 -0.000684 0.010848 -0.002667 0.000000 0.000000 0.000000
# 3 -0.001892 -0.002667 0.015252 0.000000 0.000000 0.000000
# 4 0.000000 0.000000 0.000000 0.037376 0.000000 0.000000
# 5 0.000000 0.000000 0.000000 0.000000 5.230689 0.000000
# 6 0.000000 0.000000 0.000000 0.000000 0.000000 0.192952
#
#
# Mechanical properties :
#
#
# Convention : Reuss Voigt Hill
#
# Bulk Modulus (GPa) = 42.50839 44.56493 43.53666
# Shear Modulus (GPa) = 0.90689 23.12563 12.01626
#
# Velocity S-wave (km/s) = 0.66889 3.37772 2.43479
# Velocity P-wave (km/s) = 4.64414 6.09903 5.42062
#
# Compressibility (1/GPa) = 0.02352477
#
# Stress axis : x y z
#
# Youngs Moduli (GPa) = 126.39420 92.18601 65.56650
#
# Poissons Ratio (x) = 0.06309 0.12403
# Poissons Ratio (y) = 0.08651 0.17487
# Poissons Ratio (z) = 0.23909 0.24587
#
# Static dielectric constant tensor:
#      x y z
#    x 1.742200 0.000000 0.000000 
#    y 0.000000 1.686910 0.000000 
#    z 0.000000 0.000000 1.727680 
# 
# From -- ./inp_files/13238.got.cif
#   From: 2010.05.17/outbox.cif.g08.bks.cpg/sg44_7_cif.got.tgz:13238.got - 2010.06.03 19:37:08.
