data_PCOD9374422
_publ_section_title
;
Structure prediction by ZEFSAII (Michael W. Deem and Ramdas Pophale) SiO2 
 PCOD9374422
Probable space group: I M M 2
;
_chemical_formula_sum "Si O2"
_cell_formula_units_Z 64
_cell_length_a 7.577448
_cell_length_b 29.514675
_cell_length_c 14.584017
_cell_angle_alpha 90.000000
_cell_angle_beta 90.000000
_cell_angle_gamma 90.000000
_cell_volume 3261.655827
_symmetry_space_group_name_H-M "I M M 2"
_symmetry_group_IT_number 44
_symmetry_cell_setting 'orthorhombic'
loop_
_space_group_symop_operation_xyz
x,y,z
-x,-y,z
-x,y,z
x,-y,z
1/2+x,1/2+y,1/2+z
1/2-x,1/2-y,1/2+z
1/2-x,1/2+y,1/2+z
1/2+x,1/2-y,1/2+z
loop_
_atom_site_type_symbol
_atom_site_label
_atom_site_fract_x
_atom_site_fract_y
_atom_site_fract_z
Si Si1 0.715125 0.375629 0.463760
Si Si2 0.286459 0.372895 0.254922
Si Si3 0.284394 0.551697 0.611966
Si Si4 0.209766 0.699263 0.105674
Si Si5 0.712278 0.374405 0.757251
Si Si6 0.291947 0.877808 0.470815
Si Si7 0.284163 0.698288 0.611098
Si Si8 0.207891 0.050704 0.616041
O O1 0.500000 0.375775 0.462259
O O2 0.776452 0.374660 0.359303
O O3 0.768692 0.419825 0.521980
O O4 0.767824 0.331825 0.523261
O O5 0.500000 0.374867 0.256322
O O6 0.237843 0.327338 0.200646
O O7 0.219906 0.414964 0.193196
O O8 0.500000 0.550949 0.612463
O O9 0.223572 0.500000 0.613157
O O10 0.228084 0.581588 0.699567
O O11 0.280198 0.750265 0.107255
O O12 0.000000 0.703412 0.090456
O O13 0.281380 0.665687 0.026545
O O14 0.500000 0.374489 0.753010
O O15 0.761449 0.375132 0.863069
O O16 0.772449 0.330090 0.700791
O O17 0.500000 0.878360 0.487218
O O18 0.223405 0.923197 0.519544
O O19 0.500000 0.698951 0.612587
O O20 0.000000 0.046833 0.635335
O O21 0.282628 0.000000 0.615378
#
# Coordination Sequence:
#
# PCOD9374422 Si02
#       8
#     8   8   8   8   8   8   8   8
#     4   8  14  25  43  67  92 116 143 180 224 267
#     4   9  17  29  47  71  94 115 145 188 232 268
#     4   8  14  25  43  68  93 115 143 179 219 266
#     4   9  18  32  47  63  88 123 157 186 221 270
#     4   9  17  30  48  68  91 120 153 188 226 270
#     4  10  20  32  47  68  93 121 154 192 232 273
#     4   8  15  29  47  66  90 121 154 185 222 272
#     4   9  18  32  48  67  93 123 153 186 226 273
#
# _framework density 19.621936999999999
#
# number of rings (size 3 to 8) (size 9 to 14) (size 15 to 20)
#    0.000    3.250    0.000    1.875    0.000    2.750 
#    0.000    5.625    0.000    3.750    0.000    0.000 
#    0.000    0.000    0.000    0.000    0.000    0.000 
#
# Total GULP energy -178399.381599 kJ/mol
# GULP energy per Si atom -5574.980675 kJ/mol
# Density = 1.957728 g / cm^3
# Si number density = 19.621937 Si / 1000 Ang^3
#
#
#
# Elastic Constant Matrix: (Units=GPa)
#
#
# Indices 1 2 3 4 5 6 
#
# 1 40.1134 4.3590 -10.0723 0.0000 0.0000 0.0000
# 2 4.3590 204.9702 88.9321 -0.0001 0.0000 0.0000
# 3 -10.0723 88.9321 159.7209 -0.0003 0.0000 0.0001
# 4 0.0000 -0.0001 -0.0003 6.7124 0.0000 0.0000
# 5 0.0000 0.0000 0.0000 0.0000 -13.1600 0.0000
# 6 0.0000 0.0000 0.0001 0.0000 0.0000 7.1505
#
#
#
# Elastic Compliance Matrix: (Units=1/GPa)
#
#
# Indices 1 2 3 4 5 6 
#
# 1 0.025747 -0.001651 0.002543 0.000000 0.000000 0.000000
# 2 -0.001651 0.006539 -0.003745 0.000000 0.000000 0.000000
# 3 0.002543 -0.003745 0.008506 0.000000 0.000000 0.000000
# 4 0.000000 0.000000 0.000000 0.148978 0.000000 -0.000001
# 5 0.000000 0.000000 0.000000 0.000000 -0.075988 0.000000
# 6 0.000000 0.000000 0.000000 -0.000001 0.000000 0.139850
#
#
# Mechanical properties :
#
#
# Convention : Reuss Voigt Hill
#
# Bulk Modulus (GPa) = 28.50085 63.47133 45.98609
# Shear Modulus (GPa) = 18.44785 21.57963 20.01374
#
# Velocity S-wave (km/s) = 3.06954 3.31988 3.19716
# Velocity P-wave (km/s) = 5.20762 6.86388 6.09229
#
# Compressibility (1/GPa) = 0.03508667
#
# Stress axis : x y z
#
# Youngs Moduli (GPa) = 38.83915 152.93660 117.55889
#
# Poissons Ratio (x) = 0.25247 -0.29894
# Poissons Ratio (y) = 0.06412 0.44024
# Poissons Ratio (z) = -0.09876 0.57272
#
# Static dielectric constant tensor:
#      x y z
#    x 1.741060 0.000000 0.000000 
#    y 0.000000 1.684910 0.000000 
#    z 0.000000 0.000000 1.661210 
# 
# From -- ./inp_files/17076.got.cif
#   From: 2010.05.17/outbox.cif.g08.bks.cpg/sg44_9_cif.got.tgz:17076.got - 2010.06.03 19:37:08.
