data_PCOD9374961
_publ_section_title
;
Structure prediction by ZEFSAII (Michael W. Deem and Ramdas Pophale) SiO2 
 PCOD9374961
Probable space group: I M M 2
;
_chemical_formula_sum "Si O2"
_cell_formula_units_Z 64
_cell_length_a 33.272793
_cell_length_b 8.557903
_cell_length_c 12.095384
_cell_angle_alpha 90.000000
_cell_angle_beta 90.000000
_cell_angle_gamma 90.000000
_cell_volume 3444.104169
_symmetry_space_group_name_H-M "I M M 2"
_symmetry_group_IT_number 44
_symmetry_cell_setting 'orthorhombic'
loop_
_space_group_symop_operation_xyz
x,y,z
-x,-y,z
-x,y,z
x,-y,z
1/2+x,1/2+y,1/2+z
1/2-x,1/2-y,1/2+z
1/2-x,1/2+y,1/2+z
1/2+x,1/2-y,1/2+z
loop_
_atom_site_type_symbol
_atom_site_label
_atom_site_fract_x
_atom_site_fract_y
_atom_site_fract_z
Si Si1 0.047770 0.684918 0.960960
Si Si2 0.148929 0.688519 0.564314
Si Si3 0.687120 0.685143 0.633466
Si Si4 0.814852 0.676306 0.892547
Si Si5 0.273342 0.317004 0.190403
Si Si6 0.124843 0.189396 0.325281
Si Si7 0.399707 0.821249 0.266092
Si Si8 0.545972 0.687971 0.701055
O O1 0.057951 0.500000 0.968477
O O2 0.069001 0.752299 0.851673
O O3 0.000000 0.699409 0.949504
O O4 0.058911 0.762461 0.077392
O O5 0.150965 0.500000 0.573124
O O6 0.190868 0.755880 0.610968
O O7 0.139031 0.739532 0.440784
O O8 0.113625 0.746086 0.648102
O O9 0.682649 0.500000 0.618512
O O10 0.680104 0.767743 0.516765
O O11 0.732308 0.726029 0.668994
O O12 0.655732 0.734745 0.727879
O O13 0.798335 0.500000 0.889688
O O14 0.787402 0.785039 0.816047
O O15 0.858114 0.673799 0.833984
O O16 0.267189 0.500000 0.171496
O O17 0.080033 0.239104 0.287478
O O18 0.125464 0.000000 0.334177
O O19 0.413522 0.000000 0.245319
O O20 0.500000 0.745221 0.719871
O O21 0.544857 0.500000 0.704182
#
# Coordination Sequence:
#
# PCOD9374961 Si02
#       8
#     8   8   8   8   8   8   8   8
#     4   9  16  28  51  81 110 139 175 222 275 332
#     4  10  21  38  58  78 107 146 189 234 282 336
#     4  11  23  37  55  80 110 141 181 230 279 334
#     4  10  20  36  56  78 105 138 179 223 271 324
#     4  11  23  39  58  79 107 143 182 226 281 336
#     4  10  22  38  56  81 112 149 192 235 281 337
#     4   8  16  32  52  75 104 138 173 216 269 324
#     4   9  18  34  55  80 113 149 184 228 282 334
#
# _framework density 18.582481999999999
#
# number of rings (size 3 to 8) (size 9 to 14) (size 15 to 20)
#    0.000    2.250    0.000    3.750    1.750    1.500 
#    0.000    3.750    0.000    0.750    0.000    0.000 
#    0.000    0.000    0.000    0.000    0.000    0.000 
#
# Total GULP energy -178504.652863 kJ/mol
# GULP energy per Si atom -5578.270402 kJ/mol
# Density = 1.854019 g / cm^3
# Si number density = 18.582482 Si / 1000 Ang^3
#
#
#
# Elastic Constant Matrix: (Units=GPa)
#
#
# Indices 1 2 3 4 5 6 
#
# 1 58.6671 2.7266 40.9710 0.0000 0.0000 0.0000
# 2 2.7266 13.8486 4.7199 0.0000 0.0000 0.0000
# 3 40.9710 4.7199 127.4937 0.0000 0.0000 0.0000
# 4 0.0000 0.0000 0.0000 28.8824 0.0000 0.0000
# 5 0.0000 0.0000 0.0000 0.0000 18.5783 0.0000
# 6 0.0000 0.0000 0.0000 0.0000 0.0000 15.4710
#
#
#
# Elastic Compliance Matrix: (Units=1/GPa)
#
#
# Indices 1 2 3 4 5 6 
#
# 1 0.022029 -0.001949 -0.007007 0.000000 0.000000 0.000000
# 2 -0.001949 0.073305 -0.002087 0.000000 0.000000 0.000000
# 3 -0.007007 -0.002087 0.010173 0.000000 0.000000 0.000000
# 4 0.000000 0.000000 0.000000 0.034623 0.000000 0.000000
# 5 0.000000 0.000000 0.000000 0.000000 0.053826 0.000000
# 6 0.000000 0.000000 0.000000 0.000000 0.000000 0.064637
#
#
# Mechanical properties :
#
#
# Convention : Reuss Voigt Hill
#
# Bulk Modulus (GPa) = 11.98764 32.98269 22.48517
# Shear Modulus (GPa) = 16.20815 22.69247 19.45031
#
# Velocity S-wave (km/s) = 2.95655 3.49832 3.23879
# Velocity P-wave (km/s) = 4.25676 5.84000 5.11007
#
# Compressibility (1/GPa) = 0.08341926
#
# Stress axis : x y z
#
# Youngs Moduli (GPa) = 45.39372 13.64171 98.30329
#
# Poissons Ratio (x) = 0.02659 0.68883
# Poissons Ratio (y) = 0.08848 0.20520
# Poissons Ratio (z) = 0.31808 0.02848
#
# Static dielectric constant tensor:
#      x y z
#    x 1.645740 0.000000 0.000000 
#    y 0.000000 1.642750 0.000000 
#    z 0.000000 0.000000 1.635160 
# 
# From -- ./inp_files/15110.got.cif
#   From: 2010.05.17/outbox.cif.g08.bks.cpg/sg44_8_cif.got.tgz:15110.got - 2010.06.03 19:37:08.
