data_PCOD9374570
_publ_section_title
;
Structure prediction by ZEFSAII (Michael W. Deem and Ramdas Pophale) SiO2 
 PCOD9374570
Probable space group: I M M 2
;
_chemical_formula_sum "Si O2"
_cell_formula_units_Z 64
_cell_length_a 28.060165
_cell_length_b 22.154925
_cell_length_c 4.944682
_cell_angle_alpha 90.000000
_cell_angle_beta 90.000000
_cell_angle_gamma 90.000000
_cell_volume 3073.964667
_symmetry_space_group_name_H-M "I M M 2"
_symmetry_group_IT_number 44
_symmetry_cell_setting 'orthorhombic'
loop_
_space_group_symop_operation_xyz
x,y,z
-x,-y,z
-x,y,z
x,-y,z
1/2+x,1/2+y,1/2+z
1/2-x,1/2-y,1/2+z
1/2-x,1/2+y,1/2+z
1/2+x,1/2-y,1/2+z
loop_
_atom_site_type_symbol
_atom_site_label
_atom_site_fract_x
_atom_site_fract_y
_atom_site_fract_z
Si Si1 0.670484 0.568991 0.457660
Si Si2 0.781786 0.757487 0.813075
Si Si3 0.592171 0.240450 0.914577
Si Si4 0.553984 0.827401 0.447191
Si Si5 0.277384 0.934126 0.795494
Si Si6 0.871264 0.430531 0.923017
Si Si7 0.652393 0.645137 0.000272
Si Si8 0.832249 0.341608 0.552525
O O1 0.659739 0.500000 0.538117
O O2 0.720301 0.564908 0.283545
O O3 0.670800 0.611033 0.728061
O O4 0.636547 0.597822 0.230930
O O5 0.738313 0.739402 0.613506
O O6 0.809100 0.812655 0.664607
O O7 0.818375 0.701511 0.797281
O O8 0.574657 0.209381 0.191522
O O9 0.640155 0.201955 0.854248
O O10 0.555796 0.221085 0.686994
O O11 0.609643 0.308742 0.928540
O O12 0.500000 0.847339 0.393954
O O13 0.587430 0.884988 0.522987
O O14 0.318130 0.929002 0.562031
O O15 0.288307 0.000000 0.927010
O O16 0.284946 0.871765 0.947087
O O17 0.886070 0.500000 0.922599
O O18 0.862040 0.400993 0.629535
#
# Coordination Sequence:
#
# PCOD9374570 Si02
#       8
#     8   8   8   8   8   8   8   8
#     4  11  24  38  57  85 122 164 207 246 286 339
#     4  11  23  33  51  79 107 148 198 255 305 338
#     4  10  22  39  63  88 117 152 193 247 306 370
#     4  11  22  41  65  91 121 150 192 253 313 371
#     4  10  20  33  51  75 111 161 209 252 284 330
#     4  10  22  37  56  80 113 162 211 253 304 355
#     4  11  22  40  58  83 120 157 198 251 290 360
#     4  10  20  33  54  72 111 147 204 244 303 339
#
# _framework density 20.820018999999998
#
# number of rings (size 3 to 8) (size 9 to 14) (size 15 to 20)
#    0.000    1.500    1.250    4.125    5.250    2.250 
#    0.000    0.000    0.000    1.500    0.000    0.000 
#    0.000   35.000    0.000    0.000    0.000    0.000 
#
# Total GULP energy -178148.423515 kJ/mol
# GULP energy per Si atom -5567.138235 kJ/mol
# Density = 2.077263 g / cm^3
# Si number density = 20.820019 Si / 1000 Ang^3
#
#
#
# Elastic Constant Matrix: (Units=GPa)
#
#
# Indices 1 2 3 4 5 6 
#
# 1 49.8185 28.2647 18.7065 0.0000 0.0000 0.0000
# 2 28.2647 138.0097 31.3696 0.0000 0.0000 0.0000
# 3 18.7065 31.3696 93.6491 0.0000 0.0000 0.0000
# 4 0.0000 0.0000 0.0000 27.2907 0.0000 0.0000
# 5 0.0000 0.0000 0.0000 0.0000 -7.1142 0.0000
# 6 0.0000 0.0000 0.0000 0.0000 0.0000 16.7589
#
#
#
# Elastic Compliance Matrix: (Units=1/GPa)
#
#
# Indices 1 2 3 4 5 6 
#
# 1 0.023648 -0.004080 -0.003357 0.000000 0.000000 0.000000
# 2 -0.004080 0.008547 -0.002048 0.000000 0.000000 0.000000
# 3 -0.003357 -0.002048 0.012035 0.000000 0.000000 0.000000
# 4 0.000000 0.000000 0.000000 0.036643 0.000000 0.000000
# 5 0.000000 0.000000 0.000000 0.000000 -0.140564 0.000000
# 6 0.000000 0.000000 0.000000 0.000000 0.000000 0.059670
#
#
# Mechanical properties :
#
#
# Convention : Reuss Voigt Hill
#
# Bulk Modulus (GPa) = 39.58878 48.68432 44.13655
# Shear Modulus (GPa) = 182.69170 20.92951 101.81060
#
# Velocity S-wave (km/s) = 9.37756 3.17402 7.00046
# Velocity P-wave (km/s) = 11.67508 6.07180 9.30522
#
# Compressibility (1/GPa) = 0.02525968
#
# Stress axis : x y z
#
# Youngs Moduli (GPa) = 42.28637 117.00013 83.09284
#
# Poissons Ratio (x) = 0.47738 0.27895
# Poissons Ratio (y) = 0.17254 0.17017
# Poissons Ratio (z) = 0.14196 0.23961
#
# Static dielectric constant tensor:
#      x y z
#    x 1.854870 0.000000 0.000000 
#    y 0.000000 1.791070 0.000000 
#    z 0.000000 0.000000 1.837500 
# 
# From -- ./inp_files/3104.got.cif
#   From: 2010.05.17/outbox.cif.g08.bks.cpg/sg44_2_cif.got.tgz:3104.got - 2010.06.03 19:37:08.
