data_PCOD9374213
_publ_section_title
;
Structure prediction by ZEFSAII (Michael W. Deem and Ramdas Pophale) SiO2 
 PCOD9374213
Probable space group: I M M 2
;
_chemical_formula_sum "Si O2"
_cell_formula_units_Z 56
_cell_length_a 8.047569
_cell_length_b 25.542069
_cell_length_c 14.687895
_cell_angle_alpha 90.000000
_cell_angle_beta 90.000000
_cell_angle_gamma 90.000000
_cell_volume 3019.119770
_symmetry_space_group_name_H-M "I M M 2"
_symmetry_group_IT_number 44
_symmetry_cell_setting 'orthorhombic'
loop_
_space_group_symop_operation_xyz
x,y,z
-x,-y,z
-x,y,z
x,-y,z
1/2+x,1/2+y,1/2+z
1/2-x,1/2-y,1/2+z
1/2-x,1/2+y,1/2+z
1/2+x,1/2-y,1/2+z
loop_
_atom_site_type_symbol
_atom_site_label
_atom_site_fract_x
_atom_site_fract_y
_atom_site_fract_z
Si Si1 0.697612 0.225005 0.428900
Si Si2 0.310184 0.161007 0.912146
Si Si3 0.189341 0.888394 0.738013
Si Si4 0.797089 0.000000 0.003032
Si Si5 0.295422 0.500000 0.289972
Si Si6 0.701448 0.317358 0.747715
Si Si7 0.697335 0.785213 0.636099
Si Si8 0.700448 0.608664 0.591518
O O1 0.500000 0.234854 0.431736
O O2 0.786573 0.277811 0.395735
O O3 0.734255 0.183163 0.350619
O O4 0.757212 0.213427 0.531456
O O5 0.500000 0.145762 0.895281
O O6 0.196305 0.128620 0.843808
O O7 0.259049 0.149121 0.014716
O O8 0.272075 0.840677 0.684505
O O9 0.000000 0.890957 0.706319
O O10 0.260359 0.947046 0.739627
O O11 0.741855 0.948043 0.056791
O O12 0.744322 0.000000 0.896828
O O13 0.000000 0.000000 0.001919
O O14 0.500000 0.500000 0.290634
O O15 0.500000 0.315925 0.750241
O O16 0.761726 0.264580 0.694292
O O17 0.753285 0.367564 0.688016
O O18 0.500000 0.777315 0.631706
O O19 0.500000 0.607761 0.591260
#
# Coordination Sequence:
#
# PCOD9374213 Si02
#       8
#     8   8   8   4   4   8   8   8
#     4  11  22  37  55  75 106 145 181 213 260 316
#     4  12  22  31  49  79 113 142 175 216 258 313
#     4  11  21  35  55  78 107 143 178 214 262 314
#     4   9  16  30  56  81 104 139 181 214 254 312
#     4   9  18  32  54  81 106 135 177 218 254 312
#     4  10  20  34  53  79 111 138 173 221 266 309
#     4  10  21  36  53  78 108 139 175 219 263 314
#     4  10  19  35  55  77 108 145 179 215 259 311
#
# _framework density 18.548452999999999
#
# number of rings (size 3 to 8) (size 9 to 14) (size 15 to 20)
#    0.000    1.571    4.286    2.143    0.000    1.714 
#    0.000    2.500    0.000    0.857    0.000    4.000 
#    0.000    0.000    0.000    0.000    0.000    0.000 
#
# Total GULP energy -156234.302161 kJ/mol
# GULP energy per Si atom -5579.796506 kJ/mol
# Density = 1.850624 g / cm^3
# Si number density = 18.548453 Si / 1000 Ang^3
#
#
#
# Elastic Constant Matrix: (Units=GPa)
#
#
# Indices 1 2 3 4 5 6 
#
# 1 12.8924 0.3986 4.3859 0.0000 0.0000 0.0000
# 2 0.3986 70.4891 13.3901 0.0002 0.0000 0.0001
# 3 4.3859 13.3901 76.9914 0.0003 0.0000 0.0001
# 4 0.0000 0.0002 0.0003 21.5233 0.0000 0.0000
# 5 0.0000 0.0000 0.0000 0.0000 21.2361 0.0000
# 6 0.0000 0.0001 0.0001 0.0000 0.0000 12.4589
#
#
#
# Elastic Compliance Matrix: (Units=1/GPa)
#
#
# Indices 1 2 3 4 5 6 
#
# 1 0.079110 0.000423 -0.004580 0.000000 0.000000 0.000000
# 2 0.000423 0.014674 -0.002576 0.000000 0.000000 0.000000
# 3 -0.004580 -0.002576 0.013697 0.000000 0.000000 0.000000
# 4 0.000000 0.000000 0.000000 0.046461 0.000000 0.000000
# 5 0.000000 0.000000 0.000000 0.000000 0.047090 0.000000
# 6 0.000000 0.000000 0.000000 0.000000 0.000000 0.080264
#
#
# Mechanical properties :
#
#
# Convention : Reuss Voigt Hill
#
# Bulk Modulus (GPa) = 10.63672 21.85799 16.24735
# Shear Modulus (GPa) = 15.33270 20.52355 17.92813
#
# Velocity S-wave (km/s) = 2.87824 3.32999 3.11232
# Velocity P-wave (km/s) = 4.09789 5.15703 4.65766
#
# Compressibility (1/GPa) = 0.09401398
#
# Stress axis : x y z
#
# Youngs Moduli (GPa) = 12.64066 68.14985 73.00662
#
# Poissons Ratio (x) = -0.02881 0.33437
# Poissons Ratio (y) = -0.00534 0.18807
# Poissons Ratio (z) = 0.05789 0.17556
#
# Static dielectric constant tensor:
#      x y z
#    x 1.656530 0.000000 0.000000 
#    y 0.000000 1.656660 0.000000 
#    z 0.000000 0.000000 1.637600 
# 
# From -- ./inp_files/16547.got.cif
#   From: 2010.05.17/outbox.cif.g08.bks.cpg/sg44_9_cif.got.tgz:16547.got - 2010.06.03 19:37:08.
