data_PCOD9374617
_publ_section_title
;
Structure prediction by ZEFSAII (Michael W. Deem and Ramdas Pophale) SiO2 
 PCOD9374617
Probable space group: I M M 2
;
_chemical_formula_sum "Si O2"
_cell_formula_units_Z 64
_cell_length_a 7.625791
_cell_length_b 14.490480
_cell_length_c 25.141955
_cell_angle_alpha 90.000000
_cell_angle_beta 90.000000
_cell_angle_gamma 90.000000
_cell_volume 2778.220521
_symmetry_space_group_name_H-M "I M M 2"
_symmetry_group_IT_number 44
_symmetry_cell_setting 'orthorhombic'
loop_
_space_group_symop_operation_xyz
x,y,z
-x,-y,z
-x,y,z
x,-y,z
1/2+x,1/2+y,1/2+z
1/2-x,1/2-y,1/2+z
1/2-x,1/2+y,1/2+z
1/2+x,1/2-y,1/2+z
loop_
_atom_site_type_symbol
_atom_site_label
_atom_site_fract_x
_atom_site_fract_y
_atom_site_fract_z
Si Si1 0.715350 0.300323 0.442750
Si Si2 0.214253 0.105751 0.712515
Si Si3 0.790431 0.899626 0.044940
Si Si4 0.210087 0.603984 0.729376
Si Si5 0.694303 0.609816 0.843066
Si Si6 0.713309 0.391584 0.332967
Si Si7 0.710748 0.764400 0.137526
Si Si8 0.196152 0.396475 0.958000
O O1 0.500000 0.294991 0.442120
O O2 0.766866 0.378669 0.484744
O O3 0.770725 0.327940 0.382763
O O4 0.779946 0.203068 0.468783
O O5 0.270277 0.133905 0.772682
O O6 0.272691 0.167673 0.662576
O O7 0.000000 0.108952 0.713690
O O8 0.266498 0.000000 0.705296
O O9 0.752321 0.811479 0.081747
O O10 0.000000 0.905874 0.044023
O O11 0.721834 0.000000 0.064030
O O12 0.278238 0.500000 0.725415
O O13 0.248522 0.648028 0.786716
O O14 0.277967 0.663375 0.681328
O O15 0.000000 0.599888 0.725631
O O16 0.500000 0.640727 0.857744
O O17 0.688019 0.500000 0.833682
O O18 0.814796 0.616682 0.894008
O O19 0.500000 0.387785 0.333119
O O20 0.760036 0.500000 0.341666
O O21 0.500000 0.760579 0.139491
O O22 0.274422 0.500000 0.966943
O O23 0.000000 0.398925 0.980865
#
# Coordination Sequence:
#
# PCOD9374617 Si02
#       8
#     8   8   8   8   8   8   8   8
#     4   9  17  29  49  73  99 133 171 208 252 306
#     4   8  15  28  47  75 108 134 163 212 265 308
#     4  10  21  37  55  77 106 136 171 219 267 313
#     4   9  17  28  43  66  95 126 164 207 248 296
#     4   9  17  28  42  63  95 132 164 196 241 298
#     4   8  13  23  43  72 101 126 157 203 255 299
#     4  10  20  33  53  77 102 135 175 215 260 312
#     4   9  17  29  46  69  98 130 164 206 251 296
#
# _framework density 23.036328999999999
#
# number of rings (size 3 to 8) (size 9 to 14) (size 15 to 20)
#    0.000    3.000    0.000    1.875    1.750    4.250 
#    0.000    2.500    0.000    1.125    0.000    0.000 
#    0.000    0.000    0.000    0.000    0.000    0.000 
#
# Total GULP energy -178217.380294 kJ/mol
# GULP energy per Si atom -5569.293134 kJ/mol
# Density = 2.298390 g / cm^3
# Si number density = 23.036329 Si / 1000 Ang^3
#
#
#
# Elastic Constant Matrix: (Units=GPa)
#
#
# Indices 1 2 3 4 5 6 
#
# 1 44.6191 7.4767 1.8604 0.0000 0.0000 0.0000
# 2 7.4767 152.6685 48.6584 0.0000 0.0000 0.0000
# 3 1.8604 48.6584 94.5000 0.0000 0.0000 0.0000
# 4 0.0000 0.0000 0.0000 29.1416 0.0000 0.0000
# 5 0.0000 0.0000 0.0000 0.0000 1.5567 0.0000
# 6 0.0000 0.0000 0.0000 0.0000 0.0000 4.5312
#
#
#
# Elastic Compliance Matrix: (Units=1/GPa)
#
#
# Indices 1 2 3 4 5 6 
#
# 1 0.022599 -0.001154 0.000150 0.000000 0.000000 0.000000
# 2 -0.001154 0.007895 -0.004042 0.000000 0.000000 0.000000
# 3 0.000150 -0.004042 0.012661 0.000000 0.000000 0.000000
# 4 0.000000 0.000000 0.000000 0.034315 0.000000 0.000000
# 5 0.000000 0.000000 0.000000 0.000000 0.642395 0.000000
# 6 0.000000 0.000000 0.000000 0.000000 0.000000 0.220692
#
#
# Mechanical properties :
#
#
# Convention : Reuss Voigt Hill
#
# Bulk Modulus (GPa) = 30.24801 45.30874 37.77838
# Shear Modulus (GPa) = 5.19928 22.63203 13.91565
#
# Velocity S-wave (km/s) = 1.50396 3.13781 2.46046
# Velocity P-wave (km/s) = 4.02181 5.73052 4.95044
#
# Compressibility (1/GPa) = 0.03306002
#
# Stress axis : x y z
#
# Youngs Moduli (GPa) = 44.24946 126.66093 78.98546
#
# Poissons Ratio (x) = 0.14622 -0.01181
# Poissons Ratio (y) = 0.05108 0.31930
# Poissons Ratio (z) = -0.00662 0.51203
#
# Static dielectric constant tensor:
#      x y z
#    x 1.902360 0.000000 0.000000 
#    y 0.000000 1.994910 0.000000 
#    z 0.000000 0.000000 1.854730 
# 
# From -- ./inp_files/25169.got.cif
#   From: 2010.05.17/outbox.cif.g08.bks.cpg/sg44_13_cif.got.tgz:25169.got - 2010.06.03 19:37:08.
