data_PCOD9374337
_publ_section_title
;
Structure prediction by ZEFSAII (Michael W. Deem and Ramdas Pophale) SiO2 
 PCOD9374337
Probable space group: I M M 2
;
_chemical_formula_sum "Si O2"
_cell_formula_units_Z 64
_cell_length_a 9.034694
_cell_length_b 24.091644
_cell_length_c 15.707078
_cell_angle_alpha 90.000000
_cell_angle_beta 90.000000
_cell_angle_gamma 90.000000
_cell_volume 3418.812516
_symmetry_space_group_name_H-M "I M M 2"
_symmetry_group_IT_number 44
_symmetry_cell_setting 'orthorhombic'
loop_
_space_group_symop_operation_xyz
x,y,z
-x,-y,z
-x,y,z
x,-y,z
1/2+x,1/2+y,1/2+z
1/2-x,1/2-y,1/2+z
1/2-x,1/2+y,1/2+z
1/2+x,1/2-y,1/2+z
loop_
_atom_site_type_symbol
_atom_site_label
_atom_site_fract_x
_atom_site_fract_y
_atom_site_fract_z
Si Si1 0.822806 0.627907 0.997170
Si Si2 0.675181 0.251978 0.435499
Si Si3 0.176716 0.128133 0.674742
Si Si4 0.823844 0.434185 0.823707
Si Si5 0.677711 0.064746 0.831553
Si Si6 0.824539 0.252469 0.731918
Si Si7 0.675964 0.364895 0.673625
Si Si8 0.176704 0.363371 0.497229
O O1 0.788634 0.691921 0.974029
O O2 0.782304 0.590871 0.915568
O O3 0.000000 0.623518 0.009126
O O4 0.741658 0.611757 0.083531
O O5 0.500000 0.262759 0.449665
O O6 0.698860 0.249862 0.333736
O O7 0.769025 0.301267 0.475876
O O8 0.244673 0.092067 0.750539
O O9 0.214426 0.192788 0.692951
O O10 0.000000 0.123405 0.675551
O O11 0.800464 0.500000 0.821395
O O12 0.736859 0.403063 0.749532
O O13 0.000000 0.423089 0.812356
O O14 0.500000 0.069398 0.821210
O O15 0.717848 0.098311 0.916853
O O16 0.715297 0.000000 0.839373
O O17 0.731994 0.302472 0.692752
O O18 0.000000 0.262868 0.717673
O O19 0.500000 0.366491 0.669946
O O20 0.745997 0.382402 0.583797
O O21 0.000000 0.364498 0.507575
#
# Coordination Sequence:
#
# PCOD9374337 Si02
#       8
#     8   8   8   8   8   8   8   8
#     4  10  21  38  61  89 121 158 201 243 292 358
#     4  10  19  36  62  90 123 157 194 245 302 358
#     4  11  23  38  61  92 125 158 194 244 303 356
#     4  10  22  43  67  87 114 159 209 253 302 357
#     4  10  23  43  64  86 115 156 206 252 293 350
#     4  10  20  38  62  89 124 161 198 241 299 365
#     4  12  25  39  61  92 126 160 200 247 302 359
#     4  11  23  39  62  90 121 157 203 249 300 361
#
# _framework density 18.719950000000001
#
# number of rings (size 3 to 8) (size 9 to 14) (size 15 to 20)
#    0.000    1.500    2.500    2.625    0.000    6.500 
#    0.000    2.500    0.000    0.000    0.000    0.000 
#    0.000    0.000    0.000    0.000    0.000    0.000 
#
# Total GULP energy -178927.734455 kJ/mol
# GULP energy per Si atom -5591.491702 kJ/mol
# Density = 1.867734 g / cm^3
# Si number density = 18.719950 Si / 1000 Ang^3
#
#
#
# Elastic Constant Matrix: (Units=GPa)
#
#
# Indices 1 2 3 4 5 6 
#
# 1 61.9600 55.5445 72.1490 0.0000 0.0000 0.0000
# 2 55.5445 94.9101 62.3593 0.0000 0.0000 0.0000
# 3 72.1490 62.3593 162.2432 0.0001 0.0000 0.0000
# 4 0.0000 0.0000 0.0001 -4.5351 0.0000 0.0000
# 5 0.0000 0.0000 0.0000 0.0000 29.0753 0.0000
# 6 0.0000 0.0000 0.0000 0.0000 0.0000 25.8547
#
#
#
# Elastic Compliance Matrix: (Units=1/GPa)
#
#
# Indices 1 2 3 4 5 6 
#
# 1 0.052712 -0.020666 -0.015498 0.000000 0.000000 0.000000
# 2 -0.020666 0.022198 0.000658 0.000000 0.000000 0.000000
# 3 -0.015498 0.000658 0.012802 0.000000 0.000000 0.000000
# 4 0.000000 0.000000 0.000000 -0.220505 0.000000 0.000000
# 5 0.000000 0.000000 0.000000 0.000000 0.034393 0.000000
# 6 0.000000 0.000000 0.000000 0.000000 0.000000 0.038678
#
#
# Mechanical properties :
#
#
# Convention : Reuss Voigt Hill
#
# Bulk Modulus (GPa) = 59.87583 77.69101 68.78342
# Shear Modulus (GPa) = 296.59224 18.68302 157.63763
#
# Velocity S-wave (km/s) = 12.60081 3.16258 9.18647
# Velocity P-wave (km/s) = 15.61287 7.41132 12.22067
#
# Compressibility (1/GPa) = 0.01670123
#
# Stress axis : x y z
#
# Youngs Moduli (GPa) = 18.97100 45.04814 78.11037
#
# Poissons Ratio (x) = 0.93098 1.21053
# Poissons Ratio (y) = 0.39206 -0.05140
# Poissons Ratio (z) = 0.29401 -0.02965
#
# Static dielectric constant tensor:
#      x y z
#    x 1.621260 0.000000 0.000000 
#    y 0.000000 1.624710 0.000000 
#    z 0.000000 0.000000 1.630790 
# 
# From -- ./inp_files/16792.got.cif
#   From: 2010.05.17/outbox.cif.g08.bks.cpg/sg44_9_cif.got.tgz:16792.got - 2010.06.03 19:37:08.
