data_PCOD9374273
_publ_section_title
;
Structure prediction by ZEFSAII (Michael W. Deem and Ramdas Pophale) SiO2 
 PCOD9374273
Probable space group: I M M 2
;
_chemical_formula_sum "Si O2"
_cell_formula_units_Z 48
_cell_length_a 14.218110
_cell_length_b 8.257206
_cell_length_c 19.271211
_cell_angle_alpha 90.000000
_cell_angle_beta 90.000000
_cell_angle_gamma 90.000000
_cell_volume 2262.476078
_symmetry_space_group_name_H-M "I M M 2"
_symmetry_group_IT_number 44
_symmetry_cell_setting 'orthorhombic'
loop_
_space_group_symop_operation_xyz
x,y,z
-x,-y,z
-x,y,z
x,-y,z
1/2+x,1/2+y,1/2+z
1/2-x,1/2-y,1/2+z
1/2-x,1/2+y,1/2+z
1/2+x,1/2-y,1/2+z
loop_
_atom_site_type_symbol
_atom_site_label
_atom_site_fract_x
_atom_site_fract_y
_atom_site_fract_z
Si Si1 0.598987 0.196038 0.322340
Si Si2 0.603662 0.309019 0.535781
Si Si3 0.246342 0.195037 0.427107
Si Si4 0.107379 0.196209 0.315445
Si Si5 0.396575 0.804900 0.159711
Si Si6 0.308878 0.191146 0.670469
O O1 0.500000 0.254464 0.351387
O O2 0.683614 0.256427 0.366962
O O3 0.601123 0.234040 0.241701
O O4 0.601353 0.000000 0.326322
O O5 0.500000 0.240231 0.515612
O O6 0.601154 0.500000 0.524314
O O7 0.696060 0.246124 0.495146
O O8 0.619955 0.273525 0.616835
O O9 0.147711 0.246420 0.391672
O O10 0.242968 0.000000 0.430438
O O11 0.169829 0.249269 0.248925
O O12 0.000000 0.251543 0.306144
O O13 0.109139 0.000000 0.314372
O O14 0.500000 0.753256 0.131104
O O15 0.295930 0.731703 0.141165
O O16 0.391605 0.000000 0.151524
O O17 0.321489 0.000000 0.669090
#
# Coordination Sequence:
#
# PCOD9374273 Si02
#       6
#     8   8   8   8   8   8
#     4   8  13  24  48  80 110 142 181 225 277 341
#     4  11  25  43  62  86 119 160 205 254 309 368
#     4  10  19  35  60  88 118 152 193 243 302 365
#     4  10  21  39  64  91 120 159 205 251 303 365
#     4   9  17  33  58  86 117 155 197 239 291 353
#     4  12  24  38  60  90 125 163 205 254 305 359
#
# _framework density 21.215693999999999
#
# number of rings (size 3 to 8) (size 9 to 14) (size 15 to 20)
#    0.000    2.000    1.667    4.000    0.000    5.333 
#    0.000    0.833    0.000    3.000    0.000    0.000 
#    0.000    0.000    0.000    0.000    0.000    0.000 
#
# Total GULP energy -133618.264242 kJ/mol
# GULP energy per Si atom -5567.427677 kJ/mol
# Density = 2.116741 g / cm^3
# Si number density = 21.215694 Si / 1000 Ang^3
#
#
#
# Elastic Constant Matrix: (Units=GPa)
#
#
# Indices 1 2 3 4 5 6 
#
# 1 119.7057 15.5840 28.8558 0.0000 0.0000 0.0000
# 2 15.5840 21.5417 5.0901 0.0000 0.0000 0.0000
# 3 28.8558 5.0901 79.6655 0.0000 0.0000 0.0000
# 4 0.0000 0.0000 0.0000 20.9895 0.0000 0.0000
# 5 0.0000 0.0000 0.0000 0.0000 60.4260 0.0000
# 6 0.0000 0.0000 0.0000 0.0000 0.0000 12.7362
#
#
#
# Elastic Compliance Matrix: (Units=1/GPa)
#
#
# Indices 1 2 3 4 5 6 
#
# 1 0.009965 -0.006453 -0.003197 0.000000 0.000000 0.000000
# 2 -0.006453 0.051312 -0.000941 0.000000 0.000000 0.000000
# 3 -0.003197 -0.000941 0.013771 0.000000 0.000000 0.000000
# 4 0.000000 0.000000 0.000000 0.047643 0.000000 0.000000
# 5 0.000000 0.000000 0.000000 0.000000 0.016549 0.000000
# 6 0.000000 0.000000 0.000000 0.000000 0.000000 0.078516
#
#
# Mechanical properties :
#
#
# Convention : Reuss Voigt Hill
#
# Bulk Modulus (GPa) = 18.56497 35.55252 27.05874
# Shear Modulus (GPa) = 19.46333 30.25588 24.85961
#
# Velocity S-wave (km/s) = 3.03215 3.78048 3.42681
# Velocity P-wave (km/s) = 4.58565 5.98749 5.33283
#
# Compressibility (1/GPa) = 0.05386490
#
# Stress axis : x y z
#
# Youngs Moduli (GPa) = 100.35536 19.48847 72.61846
#
# Poissons Ratio (x) = 0.12576 0.23216
# Poissons Ratio (y) = 0.64762 0.06834
# Poissons Ratio (z) = 0.32083 0.01834
#
# Static dielectric constant tensor:
#      x y z
#    x 1.842210 0.000000 0.000000 
#    y 0.000000 1.739780 0.000000 
#    z 0.000000 0.000000 1.770250 
# 
# From -- ./inp_files/21723.got.cif
#   From: 2010.05.17/outbox.cif.g08.bks.cpg/sg44_11_cif.got.tgz:21723.got - 2010.06.03 19:37:08.
