data_PCOD9374730
_publ_section_title
;
Structure prediction by ZEFSAII (Michael W. Deem and Ramdas Pophale) SiO2 
 PCOD9374730
Probable space group: I M M 2
;
_chemical_formula_sum "Si O2"
_cell_formula_units_Z 48
_cell_length_a 8.282957
_cell_length_b 7.535889
_cell_length_c 34.440098
_cell_angle_alpha 90.000000
_cell_angle_beta 90.000000
_cell_angle_gamma 90.000000
_cell_volume 2149.731787
_symmetry_space_group_name_H-M "I M M 2"
_symmetry_group_IT_number 44
_symmetry_cell_setting 'orthorhombic'
loop_
_space_group_symop_operation_xyz
x,y,z
-x,-y,z
-x,y,z
x,-y,z
1/2+x,1/2+y,1/2+z
1/2-x,1/2-y,1/2+z
1/2-x,1/2+y,1/2+z
1/2+x,1/2-y,1/2+z
loop_
_atom_site_type_symbol
_atom_site_label
_atom_site_fract_x
_atom_site_fract_y
_atom_site_fract_z
Si Si1 0.189102 0.716048 0.233260
Si Si2 0.187335 0.713954 0.147921
Si Si3 0.000000 0.285434 0.360988
Si Si4 0.821333 0.707804 0.564673
Si Si5 0.826726 0.705362 0.988047
Si Si6 0.500000 0.290147 0.951658
Si Si7 0.179334 0.783126 0.815265
O O1 0.192163 0.500000 0.233177
O O2 0.245936 0.773949 0.190483
O O3 0.288607 0.772726 0.270707
O O4 0.000000 0.765764 0.237732
O O5 0.191228 0.500000 0.148053
O O6 0.279781 0.772489 0.109759
O O7 0.000000 0.768716 0.144467
O O8 0.165305 0.224698 0.340090
O O9 0.000000 0.500000 0.358521
O O10 0.000000 0.232106 0.405673
O O11 0.821589 0.500000 0.555838
O O12 0.697824 0.791545 0.534491
O O13 0.000000 0.781901 0.557343
O O14 0.831958 0.500000 0.975513
O O15 0.665315 0.785679 0.969500
O O16 0.000000 0.786662 0.978017
O O17 0.500000 0.500000 0.961403
O O18 0.000000 0.726738 0.828150
O O19 0.180291 0.000000 0.815974
#
# Coordination Sequence:
#
# PCOD9374730 Si02
#       7
#     8   8   4   8   8   4   8
#     4   8  13  25  45  70 103 138 174 222 272 312
#     4   9  18  31  50  77 106 139 182 230 275 320
#     4  10  20  34  54  80 112 142 174 224 270 318
#     4  11  23  36  51  75 110 148 183 221 271 327
#     4  10  21  39  63  85 105 137 181 225 271 324
#     4  10  22  40  60  84 112 140 174 222 274 328
#     4   9  16  27  47  76 108 142 178 218 269 318
#
# _framework density 22.328367
#
# number of rings (size 3 to 8) (size 9 to 14) (size 15 to 20)
#    0.000    2.500    1.667    2.000    0.000    5.667 
#    0.000    1.667    0.000    1.000    0.000    0.000 
#    0.000    0.000    0.000    0.000    0.000    0.000 
#
# Total GULP energy -133986.118257 kJ/mol
# GULP energy per Si atom -5582.754927 kJ/mol
# Density = 2.227755 g / cm^3
# Si number density = 22.328367 Si / 1000 Ang^3
#
#
#
# Elastic Constant Matrix: (Units=GPa)
#
#
# Indices 1 2 3 4 5 6 
#
# 1 184.5009 10.6558 77.4347 0.0000 0.0000 0.0000
# 2 10.6558 56.0587 -4.5920 0.0000 0.0000 0.0000
# 3 77.4347 -4.5920 122.3402 0.0000 0.0000 0.0000
# 4 0.0000 0.0000 0.0000 7.5646 0.0000 0.0000
# 5 0.0000 0.0000 0.0000 0.0000 23.8666 0.0000
# 6 0.0000 0.0000 0.0000 0.0000 0.0000 -14.3310
#
#
#
# Elastic Compliance Matrix: (Units=1/GPa)
#
#
# Indices 1 2 3 4 5 6 
#
# 1 0.007564 -0.001836 -0.004857 0.000000 0.000000 0.000000
# 2 -0.001836 0.018339 0.001850 0.000000 0.000000 0.000000
# 3 -0.004857 0.001850 0.011317 0.000000 0.000000 0.000000
# 4 0.000000 0.000000 0.000000 0.132194 0.000000 0.000000
# 5 0.000000 0.000000 0.000000 0.000000 0.041900 0.000000
# 6 0.000000 0.000000 0.000000 0.000000 0.000000 -0.069779
#
#
# Mechanical properties :
#
#
# Convention : Reuss Voigt Hill
#
# Bulk Modulus (GPa) = 36.31563 58.87742 47.59652
# Shear Modulus (GPa) = 31.17226 22.04680 26.60953
#
# Velocity S-wave (km/s) = 3.74047 3.14568 3.45590
# Velocity P-wave (km/s) = 5.91223 6.29443 6.10633
#
# Compressibility (1/GPa) = 0.02753635
#
# Stress axis : x y z
#
# Youngs Moduli (GPa) = 132.19766 54.52881 88.35909
#
# Poissons Ratio (x) = 0.10010 0.42914
# Poissons Ratio (y) = 0.24268 -0.16349
# Poissons Ratio (z) = 0.64205 -0.10089
#
# Static dielectric constant tensor:
#      x y z
#    x 1.838670 0.000000 0.000000 
#    y 0.000000 1.851440 0.000000 
#    z 0.000000 0.000000 1.786540 
# 
# From -- ./inp_files/26948.got.cif
#   From: 2010.05.17/outbox.cif.g08.bks.cpg/sg44_14_cif.got.tgz:26948.got - 2010.06.03 19:37:08.
