data_PCOD9374835
_publ_section_title
;
Structure prediction by ZEFSAII (Michael W. Deem and Ramdas Pophale) SiO2 
 PCOD9374835
Probable space group: I M M 2
;
_chemical_formula_sum "Si O2"
_cell_formula_units_Z 58
_cell_length_a 12.760154
_cell_length_b 27.079430
_cell_length_c 9.773092
_cell_angle_alpha 90.000000
_cell_angle_beta 90.000000
_cell_angle_gamma 90.000000
_cell_volume 3376.971703
_symmetry_space_group_name_H-M "I M M 2"
_symmetry_group_IT_number 44
_symmetry_cell_setting 'orthorhombic'
loop_
_space_group_symop_operation_xyz
x,y,z
-x,-y,z
-x,y,z
x,-y,z
1/2+x,1/2+y,1/2+z
1/2-x,1/2-y,1/2+z
1/2-x,1/2+y,1/2+z
1/2+x,1/2-y,1/2+z
loop_
_atom_site_type_symbol
_atom_site_label
_atom_site_fract_x
_atom_site_fract_y
_atom_site_fract_z
Si Si1 0.382346 0.058779 0.931360
Si Si2 0.121539 0.826605 0.789148
Si Si3 0.377448 0.671152 0.750948
Si Si4 0.625041 0.746675 0.521511
Si Si5 0.840573 0.092471 0.017617
Si Si6 0.876506 0.557053 0.102969
Si Si7 0.500000 0.500000 0.514961
Si Si8 0.242389 0.346597 0.020743
O O1 0.500000 0.076962 0.966669
O O2 0.368066 0.064914 0.767309
O O3 0.380471 0.000000 0.956901
O O4 0.283974 0.082772 0.006533
O O5 0.187133 0.836955 0.654345
O O6 0.000000 0.817219 0.754076
O O7 0.162843 0.781949 0.885206
O O8 0.128146 0.874053 0.887826
O O9 0.500000 0.678932 0.784970
O O10 0.338844 0.716951 0.656722
O O11 0.367776 0.624051 0.651396
O O12 0.311093 0.661595 0.885781
O O13 0.500000 0.741032 0.520487
O O14 0.656373 0.803319 0.522441
O O15 0.908163 0.043119 0.014679
O O16 0.844914 0.500000 0.074598
O O17 0.808952 0.599211 0.030433
O O18 0.000000 0.561672 0.068793
#
# Coordination Sequence:
#
# PCOD9374835 Si02
#       8
#     8   8   8   8   8   8   2   8
#     4   9  17  31  54  81 109 142 185 238 284 319
#     4  10  20  35  54  81 111 140 182 237 286 320
#     4  10  22  39  54  80 119 149 177 230 297 339
#     4   9  20  38  59  79 106 143 190 230 280 346
#     4  11  19  36  56  81 110 152 194 238 270 338
#     4   9  19  35  53  79 115 148 182 227 283 335
#     4  12  20  32  66  82 108 156 228 216 274 344
#     4  12  20  34  59  84 107 147 186 227 280 342
#
# _framework density 17.175151
#
# number of rings (size 3 to 8) (size 9 to 14) (size 15 to 20)
#    0.000    1.931    3.448    3.310    0.000    0.000 
#    1.241    1.379    0.000    6.621    0.000    0.000 
#    0.000    0.000    0.000    0.000    0.000    0.000 
#
# Total GULP energy -161443.990595 kJ/mol
# GULP energy per Si atom -5567.034158 kJ/mol
# Density = 1.713606 g / cm^3
# Si number density = 17.175151 Si / 1000 Ang^3
#
#
#
# Elastic Constant Matrix: (Units=GPa)
#
#
# Indices 1 2 3 4 5 6 
#
# 1 73.8100 26.1030 24.3741 -0.0002 0.0000 0.0000
# 2 26.1030 102.3835 34.2901 -0.0008 0.0000 0.0001
# 3 24.3741 34.2901 90.0071 -0.0012 -0.0010 0.0002
# 4 -0.0002 -0.0008 -0.0012 7.8331 -0.0004 0.0000
# 5 0.0000 0.0000 -0.0010 -0.0004 15.1762 0.0001
# 6 0.0000 0.0001 0.0002 0.0000 0.0001 31.8663
#
#
#
# Elastic Compliance Matrix: (Units=1/GPa)
#
#
# Indices 1 2 3 4 5 6 
#
# 1 0.015614 -0.002940 -0.003108 0.000000 0.000000 0.000000
# 2 -0.002940 0.011749 -0.003680 0.000001 0.000000 0.000000
# 3 -0.003108 -0.003680 0.013354 0.000002 0.000001 0.000000
# 4 0.000000 0.000001 0.000002 0.127663 0.000003 0.000000
# 5 0.000000 0.000000 0.000001 0.000003 0.065893 0.000000
# 6 0.000000 0.000000 0.000000 0.000000 0.000000 0.031381
#
#
# Mechanical properties :
#
#
# Convention : Reuss Voigt Hill
#
# Bulk Modulus (GPa) = 47.03431 48.41501 47.72466
# Shear Modulus (GPa) = 17.11168 23.07070 20.09119
#
# Velocity S-wave (km/s) = 3.15985 3.66903 3.42392
# Velocity P-wave (km/s) = 6.38416 6.79700 6.59381
#
# Compressibility (1/GPa) = 0.02126107
#
# Stress axis : x y z
#
# Youngs Moduli (GPa) = 64.04311 85.11201 74.88413
#
# Poissons Ratio (x) = 0.25022 0.23277
# Poissons Ratio (y) = 0.18828 0.27557
# Poissons Ratio (z) = 0.19907 0.31321
#
# Static dielectric constant tensor:
#      x y z
#    x 1.599460 0.000000 0.000000 
#    y 0.000000 1.569450 0.000000 
#    z 0.000000 0.000000 1.565710 
# 
# From -- ./inp_files/6226.got.cif
#   From: 2010.05.17/outbox.cif.g08.bks.cpg/sg44_4_cif.got.tgz:6226.got - 2010.06.03 19:37:08.
