data_PCOD9374356
_publ_section_title
;
Structure prediction by ZEFSAII (Michael W. Deem and Ramdas Pophale) SiO2 
 PCOD9374356
Probable space group: I M M 2
;
_chemical_formula_sum "Si O2"
_cell_formula_units_Z 32
_cell_length_a 17.249871
_cell_length_b 10.854257
_cell_length_c 8.321826
_cell_angle_alpha 90.000000
_cell_angle_beta 90.000000
_cell_angle_gamma 90.000000
_cell_volume 1558.133205
_symmetry_space_group_name_H-M "I M M 2"
_symmetry_group_IT_number 44
_symmetry_cell_setting 'orthorhombic'
loop_
_space_group_symop_operation_xyz
x,y,z
-x,-y,z
-x,y,z
x,-y,z
1/2+x,1/2+y,1/2+z
1/2-x,1/2-y,1/2+z
1/2-x,1/2+y,1/2+z
1/2+x,1/2-y,1/2+z
loop_
_atom_site_type_symbol
_atom_site_label
_atom_site_fract_x
_atom_site_fract_y
_atom_site_fract_z
Si Si1 0.125867 0.500000 0.196030
Si Si2 0.853949 0.239490 0.231779
Si Si3 0.911283 0.500000 0.823118
Si Si4 0.180329 0.257017 0.852129
Si Si5 0.685955 0.500000 0.185572
Si Si6 0.084425 0.000000 0.375868
O O1 0.108237 0.629578 0.279539
O O2 0.220211 0.500000 0.178749
O O3 0.089680 0.500000 0.018792
O O4 0.771657 0.224740 0.320985
O O5 0.904746 0.121844 0.270674
O O6 0.836577 0.248952 0.041717
O O7 0.865557 0.625603 0.780407
O O8 0.000000 0.500000 0.767278
O O9 0.160575 0.125534 0.773363
O O10 0.650081 0.500000 0.010317
O O11 0.000000 0.000000 0.453677
#
# Coordination Sequence:
#
# PCOD9374356 Si02
#       6
#     4   8   4   8   4   4
#     4   8  18  35  60  83 104 139 187 242 288 336
#     4  10  19  37  61  88 114 145 192 242 297 348
#     4  10  20  33  52  82 116 146 177 222 284 350
#     4  10  20  37  64  88 111 145 191 246 296 350
#     4  10  21  40  60  83 110 149 201 246 290 333
#     4  12  25  38  54  82 124 164 197 238 288 347
#
# _framework density 20.537396999999999
#
# number of rings (size 3 to 8) (size 9 to 14) (size 15 to 20)
#    0.000    2.000    0.000    6.000    0.000    5.000 
#    0.000    5.000    0.000    0.000    0.000    1.750 
#    0.000    0.000    0.000    0.000    0.000    0.000 
#
# Total GULP energy -89341.480834 kJ/mol
# GULP energy per Si atom -5583.842552 kJ/mol
# Density = 2.049065 g / cm^3
# Si number density = 20.537397 Si / 1000 Ang^3
#
#
#
# Elastic Constant Matrix: (Units=GPa)
#
#
# Indices 1 2 3 4 5 6 
#
# 1 34.1308 46.0549 -4.3416 0.0000 0.0000 0.0000
# 2 46.0549 215.7249 22.7616 0.0000 0.0000 0.0000
# 3 -4.3416 22.7616 43.5016 0.0000 0.0000 0.0000
# 4 0.0000 0.0000 0.0000 29.3409 0.0000 0.0000
# 5 0.0000 0.0000 0.0000 0.0000 5.9394 0.0000
# 6 0.0000 0.0000 0.0000 0.0000 0.0000 -15.3202
#
#
#
# Elastic Compliance Matrix: (Units=1/GPa)
#
#
# Indices 1 2 3 4 5 6 
#
# 1 0.044966 -0.010662 0.010067 0.000000 0.000000 0.000000
# 2 -0.010662 0.007434 -0.004954 0.000000 0.000000 0.000000
# 3 0.010067 -0.004954 0.026585 0.000000 0.000000 0.000000
# 4 0.000000 0.000000 0.000000 0.034082 0.000000 0.000000
# 5 0.000000 0.000000 0.000000 0.000000 0.168368 0.000000
# 6 0.000000 0.000000 0.000000 0.000000 0.000000 -0.065273
#
#
# Mechanical properties :
#
#
# Convention : Reuss Voigt Hill
#
# Bulk Modulus (GPa) = 14.73049 46.92302 30.82676
# Shear Modulus (GPa) = 20.00876 19.25082 19.62979
#
# Velocity S-wave (km/s) = 3.12470 3.06495 3.09497
# Velocity P-wave (km/s) = 4.49516 5.95167 5.27394
#
# Compressibility (1/GPa) = 0.06788640
#
# Stress axis : x y z
#
# Youngs Moduli (GPa) = 22.23878 134.50848 37.61587
#
# Poissons Ratio (x) = 1.43413 -0.37866
# Poissons Ratio (y) = 0.23711 0.18635
# Poissons Ratio (z) = -0.22387 0.66637
#
# Static dielectric constant tensor:
#      x y z
#    x 1.710460 0.000000 0.000000 
#    y 0.000000 1.796220 0.000000 
#    z 0.000000 0.000000 1.713240 
# 
# From -- ./inp_files/6597.got.cif
#   From: 2010.05.17/outbox.cif.g08.bks.cpg/sg44_4_cif.got.tgz:6597.got - 2010.06.03 19:37:08.
