data_PCOD9374298
_publ_section_title
;
Structure prediction by ZEFSAII (Michael W. Deem and Ramdas Pophale) SiO2 
 PCOD9374298
Probable space group: I M M 2
;
_chemical_formula_sum "Si O2"
_cell_formula_units_Z 64
_cell_length_a 14.273866
_cell_length_b 19.735855
_cell_length_c 12.115776
_cell_angle_alpha 90.000000
_cell_angle_beta 90.000000
_cell_angle_gamma 90.000000
_cell_volume 3413.098300
_symmetry_space_group_name_H-M "I M M 2"
_symmetry_group_IT_number 44
_symmetry_cell_setting 'orthorhombic'
loop_
_space_group_symop_operation_xyz
x,y,z
-x,-y,z
-x,y,z
x,-y,z
1/2+x,1/2+y,1/2+z
1/2-x,1/2-y,1/2+z
1/2-x,1/2+y,1/2+z
1/2+x,1/2-y,1/2+z
loop_
_atom_site_type_symbol
_atom_site_label
_atom_site_fract_x
_atom_site_fract_y
_atom_site_fract_z
Si Si1 0.386270 0.421380 0.054920
Si Si2 0.232252 0.828511 0.146016
Si Si3 0.730275 0.922757 0.941387
Si Si4 0.111955 0.081087 0.309961
Si Si5 0.607687 0.215160 0.314404
Si Si6 0.387832 0.923286 0.727199
Si Si7 0.387746 0.199549 0.566459
Si Si8 0.391858 0.624614 0.292913
O O1 0.500000 0.419032 0.051204
O O2 0.359556 0.500000 0.066408
O O3 0.358222 0.383769 0.166455
O O4 0.356259 0.397061 0.933720
O O5 0.165312 0.877450 0.217282
O O6 0.318712 0.808190 0.223757
O O7 0.173296 0.762892 0.107949
O O8 0.268273 0.869910 0.040295
O O9 0.655296 0.906127 0.846113
O O10 0.828594 0.916839 0.876643
O O11 0.715410 0.000000 0.979348
O O12 0.000000 0.091798 0.300988
O O13 0.127782 0.000000 0.301081
O O14 0.500000 0.198035 0.284633
O O15 0.628107 0.187484 0.436596
O O16 0.613147 0.296627 0.323560
O O17 0.500000 0.924249 0.735293
O O18 0.363834 0.866848 0.637337
O O19 0.356168 0.000000 0.698869
O O20 0.500000 0.213757 0.579514
O O21 0.500000 0.602494 0.297947
#
# Coordination Sequence:
#
# PCOD9374298 Si02
#       8
#     8   8   8   8   8   8   8   8
#     4   8  15  30  53  80 111 146 187 235 284 339
#     4  12  23  36  59  85 121 162 200 237 291 366
#     4  11  23  37  56  88 122 154 194 237 289 358
#     4   9  19  36  56  83 120 157 196 246 299 357
#     4  10  23  41  58  81 118 158 199 250 300 350
#     4   9  20  41  66  87 110 145 196 256 303 340
#     4  10  21  40  64  89 118 151 196 252 305 353
#     4  10  19  36  57  82 116 153 191 238 296 354
#
# _framework density 18.751290999999998
#
# number of rings (size 3 to 8) (size 9 to 14) (size 15 to 20)
#    0.000    2.125    1.250    2.625    0.000    3.750 
#    0.000    2.500    0.000    2.625    0.000    0.000 
#    0.000    0.000    0.000    0.000    0.000    0.000 
#
# Total GULP energy -178661.259768 kJ/mol
# GULP energy per Si atom -5583.164368 kJ/mol
# Density = 1.870861 g / cm^3
# Si number density = 18.751291 Si / 1000 Ang^3
#
#
#
# Elastic Constant Matrix: (Units=GPa)
#
#
# Indices 1 2 3 4 5 6 
#
# 1 77.8508 31.1211 45.4996 0.0000 0.0000 0.0000
# 2 31.1211 77.7373 67.1296 0.0000 0.0000 0.0000
# 3 45.4996 67.1296 124.0941 0.0000 0.0000 0.0000
# 4 0.0000 0.0000 0.0000 37.7899 0.0000 0.0000
# 5 0.0000 0.0000 0.0000 0.0000 33.5620 0.0000
# 6 0.0000 0.0000 0.0000 0.0000 0.0000 9.3384
#
#
#
# Elastic Compliance Matrix: (Units=1/GPa)
#
#
# Indices 1 2 3 4 5 6 
#
# 1 0.016626 -0.002612 -0.004683 0.000000 0.000000 0.000000
# 2 -0.002612 0.024552 -0.012324 0.000000 0.000000 0.000000
# 3 -0.004683 -0.012324 0.016442 0.000000 0.000000 0.000000
# 4 0.000000 0.000000 0.000000 0.026462 0.000000 0.000000
# 5 0.000000 0.000000 0.000000 0.000000 0.029796 0.000000
# 6 0.000000 0.000000 0.000000 0.000000 0.000000 0.107085
#
#
# Mechanical properties :
#
#
# Convention : Reuss Voigt Hill
#
# Bulk Modulus (GPa) = 54.40012 63.02031 58.71022
# Shear Modulus (GPa) = 18.77389 25.20019 21.98704
#
# Velocity S-wave (km/s) = 3.16762 3.66993 3.42798
# Velocity P-wave (km/s) = 6.51558 7.18605 6.85901
#
# Compressibility (1/GPa) = 0.01838231
#
# Stress axis : x y z
#
# Youngs Moduli (GPa) = 60.14585 40.73066 60.81983
#
# Poissons Ratio (x) = 0.10639 0.28482
# Poissons Ratio (y) = 0.15711 0.74952
# Poissons Ratio (z) = 0.28167 0.50195
#
# Static dielectric constant tensor:
#      x y z
#    x 1.665530 0.000000 0.000000 
#    y 0.000000 1.629890 0.000000 
#    z 0.000000 0.000000 1.637740 
# 
# From -- ./inp_files/13416.got.cif
#   From: 2010.05.17/outbox.cif.g08.bks.cpg/sg44_7_cif.got.tgz:13416.got - 2010.06.03 19:37:08.
