data_PCOD9374720
_publ_section_title
;
Structure prediction by ZEFSAII (Michael W. Deem and Ramdas Pophale) SiO2 
 PCOD9374720
Probable space group: I M M 2
;
_chemical_formula_sum "Si O2"
_cell_formula_units_Z 32
_cell_length_a 13.166608
_cell_length_b 8.014633
_cell_length_c 12.930470
_cell_angle_alpha 90.000000
_cell_angle_beta 90.000000
_cell_angle_gamma 90.000000
_cell_volume 1364.494713
_symmetry_space_group_name_H-M "I M M 2"
_symmetry_group_IT_number 44
_symmetry_cell_setting 'orthorhombic'
loop_
_space_group_symop_operation_xyz
x,y,z
-x,-y,z
-x,y,z
x,-y,z
1/2+x,1/2+y,1/2+z
1/2-x,1/2-y,1/2+z
1/2-x,1/2+y,1/2+z
1/2+x,1/2-y,1/2+z
loop_
_atom_site_type_symbol
_atom_site_label
_atom_site_fract_x
_atom_site_fract_y
_atom_site_fract_z
Si Si1 0.666872 0.305394 0.880850
Si Si2 0.608374 0.703389 0.653663
Si Si3 0.830817 0.695898 0.601410
Si Si4 0.111225 0.194591 0.821518
O O1 0.643811 0.500000 0.889819
O O2 0.618849 0.243998 0.773525
O O3 0.788172 0.281743 0.864459
O O4 0.630517 0.221080 0.985936
O O5 0.500000 0.760171 0.611359
O O6 0.608339 0.500000 0.651477
O O7 0.712783 0.753952 0.600178
O O8 0.834545 0.500000 0.627935
O O9 0.882150 0.789411 0.696745
O O10 0.000000 0.258175 0.853577
O O11 0.118011 0.000000 0.851467
#
# Coordination Sequence:
#
# PCOD9374720 Si02
#       4
#     8   8   8   8
#     4  10  20  34  54  79 107 139 174 217 267 318
#     4   8  16  32  52  73  98 131 171 210 250 302
#     4  10  20  34  54  79 107 139 174 217 267 318
#     4  10  21  37  56  77 104 141 183 226 272 319
#
# _framework density 23.451905
#
# number of rings (size 3 to 8) (size 9 to 14) (size 15 to 20)
#    0.000    2.500    0.000    3.750    0.000    4.000 
#    0.000    5.000    0.000   25.500    0.000    0.000 
#    0.000    0.000    0.000    0.000    0.000    0.000 
#
# Total GULP energy -89382.458028 kJ/mol
# GULP energy per Si atom -5586.403627 kJ/mol
# Density = 2.339853 g / cm^3
# Si number density = 23.451905 Si / 1000 Ang^3
#
#
#
# Elastic Constant Matrix: (Units=GPa)
#
#
# Indices 1 2 3 4 5 6 
#
# 1 106.0246 -3.7388 -4.6982 0.0000 0.0000 0.0000
# 2 -3.7388 27.5741 -6.7709 0.0000 0.0000 0.0000
# 3 -4.6982 -6.7709 100.9781 0.0000 0.0000 0.0000
# 4 0.0000 0.0000 0.0000 24.5787 0.0000 0.0000
# 5 0.0000 0.0000 0.0000 0.0000 -15.1760 0.0000
# 6 0.0000 0.0000 0.0000 0.0000 0.0000 13.3736
#
#
#
# Elastic Compliance Matrix: (Units=1/GPa)
#
#
# Indices 1 2 3 4 5 6 
#
# 1 0.009506 0.001421 0.000538 0.000000 0.000000 0.000000
# 2 0.001421 0.037085 0.002553 0.000000 0.000000 0.000000
# 3 0.000538 0.002553 0.010099 0.000000 0.000000 0.000000
# 4 0.000000 0.000000 0.000000 0.040686 0.000000 0.000000
# 5 0.000000 0.000000 0.000000 0.000000 -0.065894 0.000000
# 6 0.000000 0.000000 0.000000 0.000000 0.000000 0.074774
#
#
# Mechanical properties :
#
#
# Convention : Reuss Voigt Hill
#
# Bulk Modulus (GPa) = 15.21773 22.68456 18.95114
# Shear Modulus (GPa) = 41.96798 21.20758 31.58778
#
# Velocity S-wave (km/s) = 4.23488 3.01042 3.67402
# Velocity P-wave (km/s) = 5.51500 4.66662 5.10845
#
# Compressibility (1/GPa) = 0.06571283
#
# Stress axis : x y z
#
# Youngs Moduli (GPa) = 105.20006 26.96480 99.01656
#
# Poissons Ratio (x) = -0.03831 -0.05323
# Poissons Ratio (y) = -0.14948 -0.25277
# Poissons Ratio (z) = -0.05655 -0.06884
#
# Static dielectric constant tensor:
#      x y z
#    x 1.908740 0.000000 0.000000 
#    y 0.000000 1.812500 0.000000 
#    z 0.000000 0.000000 1.876810 
# 
# From -- ./inp_files/10597.got.cif
#   From: 2010.05.17/outbox.cif.g08.bks.cpg/sg44_6_cif.got.tgz:10597.got - 2010.06.03 19:37:08.
