data_PCOD9374248
_publ_section_title
;
Structure prediction by ZEFSAII (Michael W. Deem and Ramdas Pophale) SiO2 
 PCOD9374248
Probable space group: I M M 2
;
_chemical_formula_sum "Si O2"
_cell_formula_units_Z 52
_cell_length_a 18.123308
_cell_length_b 18.160233
_cell_length_c 8.854067
_cell_angle_alpha 90.000000
_cell_angle_beta 90.000000
_cell_angle_gamma 90.000000
_cell_volume 2914.081485
_symmetry_space_group_name_H-M "I M M 2"
_symmetry_group_IT_number 44
_symmetry_cell_setting 'orthorhombic'
loop_
_space_group_symop_operation_xyz
x,y,z
-x,-y,z
-x,y,z
x,-y,z
1/2+x,1/2+y,1/2+z
1/2-x,1/2-y,1/2+z
1/2-x,1/2+y,1/2+z
1/2+x,1/2-y,1/2+z
loop_
_atom_site_type_symbol
_atom_site_label
_atom_site_fract_x
_atom_site_fract_y
_atom_site_fract_z
Si Si1 0.000000 0.742793 0.090780
Si Si2 0.210201 0.085111 0.050383
Si Si3 0.000000 0.828931 0.791880
Si Si4 0.156669 0.774735 0.209168
Si Si5 0.150402 0.912873 0.720427
Si Si6 0.154784 0.413275 0.753978
Si Si7 0.255793 0.677605 0.985926
Si Si8 0.500000 0.837737 0.286618
O O1 0.074009 0.745819 0.188261
O O2 0.000000 0.811883 0.972330
O O3 0.000000 0.675561 0.969602
O O4 0.161918 0.141382 0.148269
O O5 0.294349 0.094930 0.105222
O O6 0.190105 0.000000 0.080997
O O7 0.196678 0.099217 0.874527
O O8 0.072688 0.872427 0.744900
O O9 0.000000 0.746055 0.725258
O O10 0.191735 0.775608 0.374894
O O11 0.209581 0.728914 0.097832
O O12 0.194201 0.877339 0.582648
O O13 0.140037 0.000000 0.700116
O O14 0.151212 0.500000 0.790765
O O15 0.198882 0.367970 0.881896
O O16 0.073766 0.379685 0.740226
#
# Coordination Sequence:
#
# PCOD9374248 Si02
#       8
#     4   8   4   8   8   8   8   4
#     4  10  20  37  56  89 115 156 194 239 294 350
#     4   9  19  34  57  86 115 150 192 238 289 351
#     4  10  21  36  58  87 120 155 205 232 293 353
#     4  11  21  38  60  84 122 149 201 243 300 349
#     4  11  22  39  60  87 121 158 198 245 299 351
#     4  10  20  36  59  89 120 155 197 246 297 352
#     4  11  23  36  62  86 116 155 198 253 297 354
#     4  10  19  35  58  88 121 159 199 235 293 353
#
# _framework density 17.844387000000001
#
# number of rings (size 3 to 8) (size 9 to 14) (size 15 to 20)
#    0.462    1.231    3.077    1.846    4.308    1.231 
#    0.000    0.385    0.000    0.923    0.000    3.231 
#    0.000    0.000    0.000    0.000    0.000    0.000 
#
# Total GULP energy -145071.231736 kJ/mol
# GULP energy per Si atom -5579.662759 kJ/mol
# Density = 1.780377 g / cm^3
# Si number density = 17.844387 Si / 1000 Ang^3
#
#
#
# Elastic Constant Matrix: (Units=GPa)
#
#
# Indices 1 2 3 4 5 6 
#
# 1 100.9960 22.8865 24.2266 0.0000 0.0000 0.0000
# 2 22.8865 58.5050 16.0642 0.0000 0.0000 0.0000
# 3 24.2266 16.0642 44.3112 0.0000 0.0000 0.0000
# 4 0.0000 0.0000 0.0000 30.2287 0.0000 0.0000
# 5 0.0000 0.0000 0.0000 0.0000 23.0333 0.0000
# 6 0.0000 0.0000 0.0000 0.0000 0.0000 -15.1964
#
#
#
# Elastic Compliance Matrix: (Units=1/GPa)
#
#
# Indices 1 2 3 4 5 6 
#
# 1 0.011908 -0.003188 -0.005355 0.000000 0.000000 0.000000
# 2 -0.003188 0.019836 -0.005448 0.000000 0.000000 0.000000
# 3 -0.005355 -0.005448 0.027471 0.000000 0.000000 0.000000
# 4 0.000000 0.000000 0.000000 0.033081 0.000000 0.000000
# 5 0.000000 0.000000 0.000000 0.000000 0.043415 0.000000
# 6 0.000000 0.000000 0.000000 0.000000 0.000000 -0.065805
#
#
# Mechanical properties :
#
#
# Convention : Reuss Voigt Hill
#
# Bulk Modulus (GPa) = 32.01805 36.68520 34.35163
# Shear Modulus (GPa) = 46.16858 16.98878 31.57868
#
# Velocity S-wave (km/s) = 5.09206 3.08888 4.21131
# Velocity P-wave (km/s) = 7.24941 5.77275 6.55281
#
# Compressibility (1/GPa) = 0.03123238
#
# Stress axis : x y z
#
# Youngs Moduli (GPa) = 83.97463 50.41445 36.40266
#
# Poissons Ratio (x) = 0.16072 0.19494
# Poissons Ratio (y) = 0.26771 0.19832
# Poissons Ratio (z) = 0.44968 0.27466
#
# Static dielectric constant tensor:
#      x y z
#    x 1.580830 0.000000 0.000000 
#    y 0.000000 1.615770 0.000000 
#    z 0.000000 0.000000 1.603240 
# 
# From -- ./inp_files/7363.got.cif
#   From: 2010.05.17/outbox.cif.g08.bks.cpg/sg44_4_cif.got.tgz:7363.got - 2010.06.03 19:37:08.
