data_PCOD9374409
_publ_section_title
;
Structure prediction by ZEFSAII (Michael W. Deem and Ramdas Pophale) SiO2 
 PCOD9374409
Probable space group: I M M 2
;
_chemical_formula_sum "Si O2"
_cell_formula_units_Z 58
_cell_length_a 16.056067
_cell_length_b 7.287337
_cell_length_c 19.571654
_cell_angle_alpha 90.000000
_cell_angle_beta 90.000000
_cell_angle_gamma 90.000000
_cell_volume 2290.000383
_symmetry_space_group_name_H-M "I M M 2"
_symmetry_group_IT_number 44
_symmetry_cell_setting 'orthorhombic'
loop_
_space_group_symop_operation_xyz
x,y,z
-x,-y,z
-x,y,z
x,-y,z
1/2+x,1/2+y,1/2+z
1/2-x,1/2-y,1/2+z
1/2-x,1/2+y,1/2+z
1/2+x,1/2-y,1/2+z
loop_
_atom_site_type_symbol
_atom_site_label
_atom_site_fract_x
_atom_site_fract_y
_atom_site_fract_z
Si Si1 0.590880 0.218431 0.643530
Si Si2 0.187030 0.722096 0.018675
Si Si3 0.408676 0.707082 0.799604
Si Si4 0.774796 0.718028 0.779342
Si Si5 0.876511 0.220734 0.503387
Si Si6 0.000000 0.500000 0.437362
Si Si7 0.592696 0.719249 0.161910
Si Si8 0.408093 0.224024 0.388101
O O1 0.500000 0.242683 0.610282
O O2 0.661796 0.286872 0.593523
O O3 0.588665 0.306410 0.717095
O O4 0.601574 0.000000 0.655584
O O5 0.182688 0.500000 0.022563
O O6 0.279456 0.764120 0.995984
O O7 0.120869 0.781316 0.962811
O O8 0.500000 0.796400 0.817489
O O9 0.409006 0.500000 0.828663
O O10 0.316083 0.792453 0.802792
O O11 0.763463 0.500000 0.786269
O O12 0.824711 0.738640 0.707066
O O13 0.841830 0.786272 0.833253
O O14 0.899360 0.273230 0.582018
O O15 0.928113 0.338773 0.450280
O O16 0.889184 0.000000 0.496834
O O17 0.500000 0.784522 0.186918
O O18 0.589682 0.500000 0.161919
O O19 0.500000 0.285250 0.371146
O O20 0.407383 0.000000 0.387004
#
# Coordination Sequence:
#
# PCOD9374409 Si02
#       8
#     8   8   8   8   8   2   8   8
#     4   9  16  28  49  77 101 131 172 214 265 334
#     4   9  17  31  52  76 109 141 176 223 277 331
#     4   9  18  32  47  68 104 139 167 214 273 324
#     4  10  20  31  51  79 105 138 188 232 272 333
#     4  10  21  36  55  84 116 151 190 234 283 349
#     4  12  22  36  60  82 114 156 186 232 300 336
#     4  10  20  34  51  75 112 146 175 221 279 338
#     4   9  17  31  52  81 110 140 179 231 281 332
#
# _framework density 25.327506
#
# number of rings (size 3 to 8) (size 9 to 14) (size 15 to 20)
#    0.000    2.483    0.690    1.862    0.966    4.138 
#    1.241    0.000    3.034    0.000    0.000    0.000 
#    0.000    0.000    0.000    0.000    0.000    0.414 
#
# Total GULP energy -161724.559677 kJ/mol
# GULP energy per Si atom -5576.708954 kJ/mol
# Density = 2.526986 g / cm^3
# Si number density = 25.327506 Si / 1000 Ang^3
#
#
#
# Elastic Constant Matrix: (Units=GPa)
#
#
# Indices 1 2 3 4 5 6 
#
# 1 211.4521 14.7138 38.9617 0.0000 0.0000 0.0000
# 2 14.7138 114.8141 -20.9548 0.0000 0.0000 0.0000
# 3 38.9617 -20.9548 71.0995 0.0000 0.0000 0.0000
# 4 0.0000 0.0000 0.0000 54.6751 0.0000 0.0000
# 5 0.0000 0.0000 0.0000 0.0000 31.4179 0.0000
# 6 0.0000 0.0000 0.0000 0.0000 0.0000 4.4443
#
#
#
# Elastic Compliance Matrix: (Units=1/GPa)
#
#
# Indices 1 2 3 4 5 6 
#
# 1 0.005441 -0.001312 -0.003368 0.000000 0.000000 0.000000
# 2 -0.001312 0.009521 0.003525 0.000000 0.000000 0.000000
# 3 -0.003368 0.003525 0.016950 0.000000 0.000000 0.000000
# 4 0.000000 0.000000 0.000000 0.018290 0.000000 0.000000
# 5 0.000000 0.000000 0.000000 0.000000 0.031829 0.000000
# 6 0.000000 0.000000 0.000000 0.000000 0.000000 0.225007
#
#
# Mechanical properties :
#
#
# Convention : Reuss Voigt Hill
#
# Bulk Modulus (GPa) = 33.78225 51.42304 42.60264
# Shear Modulus (GPa) = 15.66340 42.41713 29.04027
#
# Velocity S-wave (km/s) = 2.48953 4.09681 3.38981
# Velocity P-wave (km/s) = 4.65089 6.53649 5.67259
#
# Compressibility (1/GPa) = 0.02960134
#
# Stress axis : x y z
#
# Youngs Moduli (GPa) = 183.78450 105.02824 58.99855
#
# Poissons Ratio (x) = 0.13780 0.19873
# Poissons Ratio (y) = 0.24114 -0.20798
# Poissons Ratio (z) = 0.61906 -0.37024
#
# Static dielectric constant tensor:
#      x y z
#    x 2.033360 0.000000 0.000000 
#    y 0.000000 1.700140 0.000000 
#    z 0.000000 0.000000 2.001760 
# 
# From -- ./inp_files/25022.got.cif
#   From: 2010.05.17/outbox.cif.g08.bks.cpg/sg44_13_cif.got.tgz:25022.got - 2010.06.03 19:37:08.
