data_PCOD9374489
_publ_section_title
;
Structure prediction by ZEFSAII (Michael W. Deem and Ramdas Pophale) SiO2 
 PCOD9374489
Probable space group: I M M 2
;
_chemical_formula_sum "Si O2"
_cell_formula_units_Z 48
_cell_length_a 7.914787
_cell_length_b 8.787932
_cell_length_c 35.261117
_cell_angle_alpha 90.000000
_cell_angle_beta 90.000000
_cell_angle_gamma 90.000000
_cell_volume 2452.573239
_symmetry_space_group_name_H-M "I M M 2"
_symmetry_group_IT_number 44
_symmetry_cell_setting 'orthorhombic'
loop_
_space_group_symop_operation_xyz
x,y,z
-x,-y,z
-x,y,z
x,-y,z
1/2+x,1/2+y,1/2+z
1/2-x,1/2-y,1/2+z
1/2-x,1/2+y,1/2+z
1/2+x,1/2-y,1/2+z
loop_
_atom_site_type_symbol
_atom_site_label
_atom_site_fract_x
_atom_site_fract_y
_atom_site_fract_z
Si Si1 0.198520 0.678039 0.228970
Si Si2 0.299858 0.673202 0.148191
Si Si3 0.000000 0.181742 0.357117
Si Si4 0.703065 0.672071 0.569989
Si Si5 0.801500 0.681331 0.990543
Si Si6 0.500000 0.181704 0.941227
Si Si7 0.189967 0.815963 0.809972
O O1 0.250195 0.500000 0.225270
O O2 0.229716 0.743985 0.187225
O O3 0.291600 0.737450 0.266181
O O4 0.000000 0.683627 0.237372
O O5 0.500000 0.664819 0.153096
O O6 0.231657 0.500000 0.143826
O O7 0.262657 0.762772 0.109948
O O8 0.834834 0.240829 0.334890
O O9 0.000000 0.250026 0.399155
O O10 0.000000 0.000000 0.358499
O O11 0.500000 0.669083 0.571469
O O12 0.765241 0.500000 0.564237
O O13 0.747344 0.773210 0.533579
O O14 0.790721 0.500000 0.985961
O O15 0.667948 0.760887 0.962984
O O16 0.000000 0.725905 0.984623
O O17 0.500000 0.000000 0.939880
O O18 0.000000 0.784446 0.823491
O O19 0.214702 0.000000 0.810047
#
# Coordination Sequence:
#
# PCOD9374489 Si02
#       7
#     8   8   4   8   8   4   8
#     4   9  16  30  56  86 117 153 201 258 313 368
#     4  10  20  32  50  81 117 155 202 256 309 364
#     4  12  26  44  64  92 130 168 208 256 310 378
#     4  10  21  37  56  80 114 158 206 254 307 365
#     4  10  22  42  68  96 127 164 207 256 311 374
#     4  12  26  44  70  98 128 164 206 258 314 378
#     4  10  20  38  66  95 124 161 208 261 316 375
#
# _framework density 19.571280999999999
#
# number of rings (size 3 to 8) (size 9 to 14) (size 15 to 20)
#    0.000    1.833    0.833    3.500    1.167    6.000 
#    0.000    0.833    0.000    2.000    0.000    0.000 
#    0.000    0.000    0.000    0.000    0.000    0.000 
#
# Total GULP energy -134010.430984 kJ/mol
# GULP energy per Si atom -5583.767958 kJ/mol
# Density = 1.952674 g / cm^3
# Si number density = 19.571281 Si / 1000 Ang^3
#
#
#
# Elastic Constant Matrix: (Units=GPa)
#
#
# Indices 1 2 3 4 5 6 
#
# 1 106.4882 53.2016 78.9538 0.0000 0.0000 0.0000
# 2 53.2016 78.0892 45.9856 0.0000 0.0000 0.0000
# 3 78.9538 45.9856 148.9945 0.0000 0.0000 0.0000
# 4 0.0000 0.0000 0.0000 25.1531 0.0000 0.0000
# 5 0.0000 0.0000 0.0000 0.0000 -17.9452 0.0000
# 6 0.0000 0.0000 0.0000 0.0000 0.0000 21.7102
#
#
#
# Elastic Compliance Matrix: (Units=1/GPa)
#
#
# Indices 1 2 3 4 5 6 
#
# 1 0.019365 -0.008739 -0.007565 0.000000 0.000000 0.000000
# 2 -0.008739 0.019594 -0.001417 0.000000 0.000000 0.000000
# 3 -0.007565 -0.001417 0.011158 0.000000 0.000000 0.000000
# 4 0.000000 0.000000 0.000000 0.039756 0.000000 0.000000
# 5 0.000000 0.000000 0.000000 0.000000 -0.055725 0.000000
# 6 0.000000 0.000000 0.000000 0.000000 0.000000 0.046061
#
#
# Mechanical properties :
#
#
# Convention : Reuss Voigt Hill
#
# Bulk Modulus (GPa) = 68.13694 76.65044 72.39369
# Shear Modulus (GPa) = 41.47943 16.14568 28.81256
#
# Velocity S-wave (km/s) = 4.60869 2.87534 3.84107
# Velocity P-wave (km/s) = 7.95050 7.09036 7.53272
#
# Compressibility (1/GPa) = 0.01467633
#
# Stress axis : x y z
#
# Youngs Moduli (GPa) = 51.63853 51.03671 89.62513
#
# Poissons Ratio (x) = 0.44599 0.67800
# Poissons Ratio (y) = 0.45125 0.12697
# Poissons Ratio (z) = 0.39064 0.07230
#
# Static dielectric constant tensor:
#      x y z
#    x 1.708550 0.000000 0.000000 
#    y 0.000000 1.684120 0.000000 
#    z 0.000000 0.000000 1.681620 
# 
# From -- ./inp_files/26884.got.cif
#   From: 2010.05.17/outbox.cif.g08.bks.cpg/sg44_14_cif.got.tgz:26884.got - 2010.06.03 19:37:08.
