data_PCOD9374047
_publ_section_title
;
Structure prediction by ZEFSAII (Michael W. Deem and Ramdas Pophale) SiO2 
 PCOD9374047
Probable space group: I M M 2
;
_chemical_formula_sum "Si O2"
_cell_formula_units_Z 64
_cell_length_a 33.082433
_cell_length_b 8.833250
_cell_length_c 12.086854
_cell_angle_alpha 90.000000
_cell_angle_beta 90.000000
_cell_angle_gamma 90.000000
_cell_volume 3532.085761
_symmetry_space_group_name_H-M "I M M 2"
_symmetry_group_IT_number 44
_symmetry_cell_setting 'orthorhombic'
loop_
_space_group_symop_operation_xyz
x,y,z
-x,-y,z
-x,y,z
x,-y,z
1/2+x,1/2+y,1/2+z
1/2-x,1/2-y,1/2+z
1/2-x,1/2+y,1/2+z
1/2+x,1/2-y,1/2+z
loop_
_atom_site_type_symbol
_atom_site_label
_atom_site_fract_x
_atom_site_fract_y
_atom_site_fract_z
Si Si1 0.547326 0.316482 0.392060
Si Si2 0.312387 0.184505 0.346597
Si Si3 0.857826 0.181069 0.261948
Si Si4 0.402459 0.173095 0.959819
Si Si5 0.379469 0.182287 0.524785
Si Si6 0.451581 0.672461 0.144661
Si Si7 0.778415 0.181540 0.396259
Si Si8 0.819854 0.325017 0.597943
O O1 0.500000 0.275422 0.409273
O O2 0.549376 0.500000 0.394602
O O3 0.578054 0.246460 0.479724
O O4 0.560140 0.268419 0.266955
O O5 0.344615 0.233049 0.438251
O O6 0.266500 0.235616 0.368274
O O7 0.323661 0.232041 0.222574
O O8 0.312695 0.000000 0.349288
O O9 0.891161 0.228312 0.353178
O O10 0.868003 0.256946 0.145591
O O11 0.814296 0.232515 0.312950
O O12 0.856945 0.000000 0.250188
O O13 0.409590 0.000000 0.926005
O O14 0.437127 0.234070 0.039701
O O15 0.362913 0.178214 0.037953
O O16 0.380969 0.000000 0.526215
O O17 0.500000 0.666933 0.147179
O O18 0.436122 0.500000 0.133504
O O19 0.790220 0.232838 0.519122
O O20 0.778408 0.000000 0.391309
O O21 0.805970 0.500000 0.601864
#
# Coordination Sequence:
#
# PCOD9374047 Si02
#       8
#     8   8   8   8   8   8   8   8
#     4   9  19  37  59  83 114 149 184 225 274 329
#     4   9  19  34  52  76 108 141 172 218 274 323
#     4  10  21  37  56  76 105 146 189 229 272 326
#     4  10  19  33  54  79 106 139 178 219 269 323
#     4  11  22  36  56  82 112 145 184 232 282 334
#     4   9  18  33  55  83 113 143 175 218 271 324
#     4   9  19  35  53  74 102 139 180 222 267 317
#     4   9  18  33  52  73 100 134 171 213 263 314
#
# _framework density 18.119603999999999
#
# number of rings (size 3 to 8) (size 9 to 14) (size 15 to 20)
#    0.000    2.500    0.000    2.625    1.750    3.000 
#    0.000    4.375    0.000    3.750    0.000    0.000 
#    0.000    0.000    0.000    0.000    0.000    0.000 
#
# Total GULP energy -178443.585012 kJ/mol
# GULP energy per Si atom -5576.362032 kJ/mol
# Density = 1.807836 g / cm^3
# Si number density = 18.119604 Si / 1000 Ang^3
#
#
#
# Elastic Constant Matrix: (Units=GPa)
#
#
# Indices 1 2 3 4 5 6 
#
# 1 71.3390 22.6293 59.7017 0.0000 0.0000 0.0000
# 2 22.6293 29.7551 30.4908 0.0000 0.0000 0.0000
# 3 59.7017 30.4908 153.9195 0.0000 0.0000 0.0000
# 4 0.0000 0.0000 0.0000 29.6633 0.0000 0.0000
# 5 0.0000 0.0000 0.0000 0.0000 19.5196 0.0000
# 6 0.0000 0.0000 0.0000 0.0000 0.0000 19.2203
#
#
#
# Elastic Compliance Matrix: (Units=1/GPa)
#
#
# Indices 1 2 3 4 5 6 
#
# 1 0.023115 -0.010529 -0.006880 0.000000 0.000000 0.000000
# 2 -0.010529 0.046964 -0.005219 0.000000 0.000000 0.000000
# 3 -0.006880 -0.005219 0.010199 0.000000 0.000000 0.000000
# 4 0.000000 0.000000 0.000000 0.033712 0.000000 0.000000
# 5 0.000000 0.000000 0.000000 0.000000 0.051230 0.000000
# 6 0.000000 0.000000 0.000000 0.000000 0.000000 0.052028
#
#
# Mechanical properties :
#
#
# Convention : Reuss Voigt Hill
#
# Bulk Modulus (GPa) = 28.55424 53.40634 40.98029
# Shear Modulus (GPa) = 18.23620 23.16010 20.69815
#
# Velocity S-wave (km/s) = 3.17588 3.57904 3.38347
# Velocity P-wave (km/s) = 5.40752 6.82772 6.15869
#
# Compressibility (1/GPa) = 0.03502107
#
# Stress axis : x y z
#
# Youngs Moduli (GPa) = 43.26140 21.29305 98.04496
#
# Poissons Ratio (x) = 0.22420 0.67455
# Poissons Ratio (y) = 0.45552 0.51172
# Poissons Ratio (z) = 0.29764 0.11113
#
# Static dielectric constant tensor:
#      x y z
#    x 1.626960 0.000000 0.000000 
#    y 0.000000 1.628610 0.000000 
#    z 0.000000 0.000000 1.606330 
# 
# From -- ./inp_files/11537.got.cif
#   From: 2010.05.17/outbox.cif.g08.bks.cpg/sg44_6_cif.got.tgz:11537.got - 2010.06.03 19:37:08.
