data_PCOD9374834
_publ_section_title
;
Structure prediction by ZEFSAII (Michael W. Deem and Ramdas Pophale) SiO2 
 PCOD9374834
Probable space group: I M M 2
;
_chemical_formula_sum "Si O2"
_cell_formula_units_Z 64
_cell_length_a 19.032137
_cell_length_b 7.355823
_cell_length_c 20.199621
_cell_angle_alpha 90.000000
_cell_angle_beta 90.000000
_cell_angle_gamma 90.000000
_cell_volume 2827.886969
_symmetry_space_group_name_H-M "I M M 2"
_symmetry_group_IT_number 44
_symmetry_cell_setting 'orthorhombic'
loop_
_space_group_symop_operation_xyz
x,y,z
-x,-y,z
-x,y,z
x,-y,z
1/2+x,1/2+y,1/2+z
1/2-x,1/2-y,1/2+z
1/2-x,1/2+y,1/2+z
1/2+x,1/2-y,1/2+z
loop_
_atom_site_type_symbol
_atom_site_label
_atom_site_fract_x
_atom_site_fract_y
_atom_site_fract_z
Si Si1 0.339026 0.717380 0.583480
Si Si2 0.325682 0.779923 0.324816
Si Si3 0.081289 0.779998 0.594014
Si Si4 0.921274 0.779048 0.209376
Si Si5 0.580681 0.784013 0.446382
Si Si6 0.711598 0.205281 0.177755
Si Si7 0.171465 0.779697 0.330326
Si Si8 0.920020 0.221163 0.449046
O O1 0.332663 0.500000 0.582438
O O2 0.400085 0.772619 0.635171
O O3 0.366330 0.761755 0.509379
O O4 0.267518 0.781221 0.622969
O O5 0.384530 0.715441 0.376986
O O6 0.309523 0.713119 0.249529
O O7 0.249350 0.736793 0.354000
O O8 0.335133 0.000000 0.319383
O O9 0.136268 0.700237 0.643752
O O10 0.106357 0.725961 0.520871
O O11 0.000000 0.726925 0.603123
O O12 0.083306 0.000000 0.598618
O O13 0.859964 0.719179 0.259850
O O14 0.000000 0.719071 0.227653
O O15 0.922309 0.000000 0.211533
O O16 0.500000 0.716013 0.457708
O O17 0.575020 0.000000 0.438275
O O18 0.738097 0.000000 0.192675
O O19 0.120587 0.711312 0.386584
O O20 0.168649 0.000000 0.328156
O O21 0.000000 0.277180 0.445077
O O22 0.918727 0.000000 0.447533
#
# Coordination Sequence:
#
# PCOD9374834 Si02
#       8
#     8   8   8   8   8   8   8   8
#     4  10  20  35  54  80 112 142 176 221 275 333
#     4   9  18  33  51  73 103 136 174 224 271 312
#     4   9  19  34  51  76 108 138 173 218 267 320
#     4   9  15  24  43  71 102 134 166 207 262 319
#     4  10  22  38  56  80 108 143 189 233 275 326
#     4  10  20  35  55  80 109 140 178 224 273 327
#     4   9  14  23  41  68  99 131 165 204 256 313
#     4   8  14  24  40  67 101 129 156 197 247 303
#
# _framework density 22.631740000000001
#
# number of rings (size 3 to 8) (size 9 to 14) (size 15 to 20)
#    0.000    2.750    1.250    1.500    1.750    3.500 
#    0.000    1.875    0.000    0.000    0.000    0.875 
#    0.000    2.000    0.000    0.000    0.000    0.000 
#
# Total GULP energy -178214.467099 kJ/mol
# GULP energy per Si atom -5569.202097 kJ/mol
# Density = 2.258023 g / cm^3
# Si number density = 22.631740 Si / 1000 Ang^3
#
#
#
# Elastic Constant Matrix: (Units=GPa)
#
#
# Indices 1 2 3 4 5 6 
#
# 1 70.3535 3.3540 73.5382 0.0000 0.0000 0.0000
# 2 3.3540 80.1872 5.4642 0.0000 0.0000 0.0000
# 3 73.5382 5.4642 141.6829 0.0000 0.0000 0.0000
# 4 0.0000 0.0000 0.0000 7.4944 0.0000 0.0000
# 5 0.0000 0.0000 0.0000 0.0000 40.1447 0.0000
# 6 0.0000 0.0000 0.0000 0.0000 0.0000 3.0863
#
#
#
# Elastic Compliance Matrix: (Units=1/GPa)
#
#
# Indices 1 2 3 4 5 6 
#
# 1 0.031074 -0.000201 -0.016121 0.000000 0.000000 0.000000
# 2 -0.000201 0.012505 -0.000378 0.000000 0.000000 0.000000
# 3 -0.016121 -0.000378 0.015440 0.000000 0.000000 0.000000
# 4 0.000000 0.000000 0.000000 0.133434 0.000000 0.000000
# 5 0.000000 0.000000 0.000000 0.000000 0.024910 0.000000
# 6 0.000000 0.000000 0.000000 0.000000 0.000000 0.324008
#
#
# Mechanical properties :
#
#
# Convention : Reuss Voigt Hill
#
# Bulk Modulus (GPa) = 39.03313 50.77069 44.90191
# Shear Modulus (GPa) = 8.57179 24.13623 16.35401
#
# Velocity S-wave (km/s) = 1.94826 3.26924 2.69106
# Velocity P-wave (km/s) = 4.72710 6.06075 5.43499
#
# Compressibility (1/GPa) = 0.02561926
#
# Stress axis : x y z
#
# Youngs Moduli (GPa) = 32.18135 79.96809 64.76800
#
# Poissons Ratio (x) = 0.01609 1.04410
# Poissons Ratio (y) = 0.00648 0.02447
# Poissons Ratio (z) = 0.51878 0.03021
#
# Static dielectric constant tensor:
#      x y z
#    x 1.831420 0.000000 0.000000 
#    y 0.000000 1.926790 0.000000 
#    z 0.000000 0.000000 1.852380 
# 
# From -- ./inp_files/22183.got.cif
#   From: 2010.05.17/outbox.cif.g08.bks.cpg/sg44_12_cif.got.tgz:22183.got - 2010.06.03 19:37:08.
