data_PCOD9374592
_publ_section_title
;
Structure prediction by ZEFSAII (Michael W. Deem and Ramdas Pophale) SiO2 
 PCOD9374592
Probable space group: I M M 2
;
_chemical_formula_sum "Si O2"
_cell_formula_units_Z 40
_cell_length_a 11.336118
_cell_length_b 21.274483
_cell_length_c 7.798387
_cell_angle_alpha 90.000000
_cell_angle_beta 90.000000
_cell_angle_gamma 90.000000
_cell_volume 1880.737380
_symmetry_space_group_name_H-M "I M M 2"
_symmetry_group_IT_number 44
_symmetry_cell_setting 'orthorhombic'
loop_
_space_group_symop_operation_xyz
x,y,z
-x,-y,z
-x,y,z
x,-y,z
1/2+x,1/2+y,1/2+z
1/2-x,1/2-y,1/2+z
1/2-x,1/2+y,1/2+z
1/2+x,1/2-y,1/2+z
loop_
_atom_site_type_symbol
_atom_site_label
_atom_site_fract_x
_atom_site_fract_y
_atom_site_fract_z
Si Si1 0.372577 0.797479 0.430450
Si Si2 0.864971 0.074211 0.170163
Si Si3 0.365266 0.611057 0.301436
Si Si4 0.870530 0.240893 0.589845
Si Si5 0.295336 0.069422 0.505880
O O1 0.500000 0.767569 0.478997
O O2 0.250409 0.764532 0.485979
O O3 0.369147 0.797881 0.223990
O O4 0.371667 0.867645 0.505685
O O5 0.789717 0.080639 0.341815
O O6 0.000000 0.092599 0.209044
O O7 0.863108 0.000000 0.125778
O O8 0.825635 0.110168 0.998833
O O9 0.500000 0.586867 0.301211
O O10 0.368232 0.679519 0.213760
O O11 0.282226 0.571273 0.177938
O O12 0.000000 0.240545 0.500042
O O13 0.349619 0.000000 0.487793
#
# Coordination Sequence:
#
# PCOD9374592 Si02
#       5
#     8   8   8   8   8
#     4  10  22  39  59  85 116 151 191 235 287 343
#     4   9  17  28  47  78 111 146 188 233 284 336
#     4   9  17  31  51  77 111 146 186 240 289 334
#     4   9  20  37  57  84 113 146 191 238 289 341
#     4  10  20  33  52  78 112 152 191 229 279 340
#
# _framework density 21.268256000000001
#
# number of rings (size 3 to 8) (size 9 to 14) (size 15 to 20)
#    0.000    2.600    0.000    1.200    2.800    4.000 
#    0.000    0.000    0.000    0.000    0.000    2.800 
#    0.000    0.000    0.000    0.000    0.000    0.000 
#
# Total GULP energy -111462.553655 kJ/mol
# GULP energy per Si atom -5573.127683 kJ/mol
# Density = 2.121985 g / cm^3
# Si number density = 21.268256 Si / 1000 Ang^3
#
#
#
# Elastic Constant Matrix: (Units=GPa)
#
#
# Indices 1 2 3 4 5 6 
#
# 1 156.8829 15.4492 49.9772 0.0005 -0.0005 -0.0023
# 2 15.4492 46.3232 -10.6865 -0.0002 -0.0001 0.0040
# 3 49.9772 -10.6865 61.7028 0.0025 -0.0016 0.0018
# 4 0.0005 -0.0002 0.0025 29.9429 -0.0009 -0.0032
# 5 -0.0005 -0.0001 -0.0016 -0.0009 18.0149 0.0042
# 6 -0.0023 0.0040 0.0018 -0.0032 0.0042 -118.2764
#
#
#
# Elastic Compliance Matrix: (Units=1/GPa)
#
#
# Indices 1 2 3 4 5 6 
#
# 1 0.009677 -0.005245 -0.008746 0.000001 -0.000001 0.000000
# 2 -0.005245 0.025329 0.008635 0.000000 0.000001 0.000001
# 3 -0.008746 0.008635 0.024787 -0.000002 0.000002 0.000001
# 4 0.000001 0.000000 -0.000002 0.033397 0.000002 -0.000001
# 5 -0.000001 0.000001 0.000002 0.000002 0.055510 0.000002
# 6 0.000000 0.000001 0.000001 -0.000001 0.000002 -0.008455
#
#
# Mechanical properties :
#
#
# Convention : Reuss Voigt Hill
#
# Bulk Modulus (GPa) = 20.37506 41.59875 30.98691
# Shear Modulus (GPa) = 29.88336 -0.05248 14.91544
#
# Velocity S-wave (km/s) = 3.75249 -0.15726 2.65108
# Velocity P-wave (km/s) = 5.32689 4.42364 4.89614
#
# Compressibility (1/GPa) = 0.04907960
#
# Stress axis : x y z
#
# Youngs Moduli (GPa) = 103.33755 39.48069 40.34429
#
# Poissons Ratio (x) = 0.20708 0.35287
# Poissons Ratio (y) = 0.54202 -0.34838
# Poissons Ratio (z) = 0.90384 -0.34092
#
# Static dielectric constant tensor:
#      x y z
#    x 1.786360 0.000000 0.000000 
#    y 0.000000 1.845220 0.000000 
#    z 0.000000 0.000000 1.757040 
# 
# From -- ./inp_files/4450.got.cif
#   From: 2010.05.17/outbox.cif.g08.bks.cpg/sg44_3_cif.got.tgz:4450.got - 2010.06.03 19:37:08.
