data_PCOD9374821
_publ_section_title
;
Structure prediction by ZEFSAII (Michael W. Deem and Ramdas Pophale) SiO2 
 PCOD9374821
Probable space group: I M M 2
;
_chemical_formula_sum "Si O2"
_cell_formula_units_Z 64
_cell_length_a 7.764711
_cell_length_b 31.356515
_cell_length_c 15.024690
_cell_angle_alpha 90.000000
_cell_angle_beta 90.000000
_cell_angle_gamma 90.000000
_cell_volume 3658.125534
_symmetry_space_group_name_H-M "I M M 2"
_symmetry_group_IT_number 44
_symmetry_cell_setting 'orthorhombic'
loop_
_space_group_symop_operation_xyz
x,y,z
-x,-y,z
-x,y,z
x,-y,z
1/2+x,1/2+y,1/2+z
1/2-x,1/2-y,1/2+z
1/2-x,1/2+y,1/2+z
1/2+x,1/2-y,1/2+z
loop_
_atom_site_type_symbol
_atom_site_label
_atom_site_fract_x
_atom_site_fract_y
_atom_site_fract_z
Si Si1 0.712094 0.199618 0.429770
Si Si2 0.292607 0.047759 0.992322
Si Si3 0.305299 0.778494 0.619883
Si Si4 0.699200 0.185398 0.116003
Si Si5 0.204679 0.862113 0.942098
Si Si6 0.289942 0.132683 0.288076
Si Si7 0.203842 0.215707 0.824014
Si Si8 0.210363 0.547846 0.697925
O O1 0.500000 0.200808 0.431210
O O2 0.774053 0.200563 0.531615
O O3 0.764699 0.157347 0.376390
O O4 0.770615 0.241929 0.375089
O O5 0.500000 0.047053 0.993820
O O6 0.239691 0.087714 0.932334
O O7 0.233929 0.000000 0.966518
O O8 0.235577 0.055348 0.095142
O O9 0.500000 0.794092 0.627037
O O10 0.301765 0.728208 0.597284
O O11 0.229932 0.782922 0.718274
O O12 0.500000 0.197991 0.129451
O O13 0.760417 0.162412 0.205000
O O14 0.711631 0.153272 0.034228
O O15 0.267663 0.828475 0.867825
O O16 0.000000 0.857152 0.951173
O O17 0.500000 0.131681 0.288787
O O18 0.230806 0.085235 0.263418
O O19 0.000000 0.216753 0.838842
O O20 0.263330 0.500000 0.722980
O O21 0.000000 0.548653 0.697101
#
# Coordination Sequence:
#
# PCOD9374821 Si02
#       8
#     8   8   8   8   8   8   8   8
#     4   9  17  30  45  63  91 122 156 195 239 280
#     4   9  17  30  48  71  98 125 158 198 238 289
#     4  11  21  33  47  68  95 123 160 207 243 277
#     4  11  19  29  48  69  93 129 165 193 234 291
#     4  11  21  32  47  69  99 130 163 203 241 283
#     4   9  15  25  44  65  86 123 158 181 224 283
#     4  10  20  35  49  65  93 129 162 198 240 283
#     4   8  13  22  39  66  94 116 148 191 225 268
#
# _framework density 17.4953
#
# number of rings (size 3 to 8) (size 9 to 14) (size 15 to 20)
#    0.000    2.250    3.750    1.875    0.000    1.250 
#    0.000    0.000    0.000    0.000    0.000    0.875 
#    0.000    3.000    0.000    0.000    0.000    0.000 
#
# Total GULP energy -178383.799244 kJ/mol
# GULP energy per Si atom -5574.493726 kJ/mol
# Density = 1.745548 g / cm^3
# Si number density = 17.495300 Si / 1000 Ang^3
#
#
#
# Elastic Constant Matrix: (Units=GPa)
#
#
# Indices 1 2 3 4 5 6 
#
# 1 25.3935 2.2267 0.8158 0.0000 0.0000 0.0000
# 2 2.2267 99.2703 24.6494 0.0000 0.0000 0.0000
# 3 0.8158 24.6494 61.1925 0.0000 0.0000 0.0000
# 4 0.0000 0.0000 0.0000 25.3967 0.0000 0.0000
# 5 0.0000 0.0000 0.0000 0.0000 12.5580 0.0000
# 6 0.0000 0.0000 0.0000 0.0000 0.0000 16.1173
#
#
#
# Elastic Compliance Matrix: (Units=1/GPa)
#
#
# Indices 1 2 3 4 5 6 
#
# 1 0.039460 -0.000838 -0.000188 0.000000 0.000000 0.000000
# 2 -0.000838 0.011211 -0.004505 0.000000 0.000000 0.000000
# 3 -0.000188 -0.004505 0.018159 0.000000 0.000000 0.000000
# 4 0.000000 0.000000 0.000000 0.039375 0.000000 0.000000
# 5 0.000000 0.000000 0.000000 0.000000 0.079630 0.000000
# 6 0.000000 0.000000 0.000000 0.000000 0.000000 0.062045
#
#
# Mechanical properties :
#
#
# Convention : Reuss Voigt Hill
#
# Bulk Modulus (GPa) = 17.31103 26.80445 22.05774
# Shear Modulus (GPa) = 17.84448 21.35869 19.60159
#
# Velocity S-wave (km/s) = 3.19714 3.49782 3.35086
# Velocity P-wave (km/s) = 4.85233 5.62736 5.25416
#
# Compressibility (1/GPa) = 0.05776664
#
# Stress axis : x y z
#
# Youngs Moduli (GPa) = 25.34229 89.19917 55.06914
#
# Poissons Ratio (x) = 0.07478 0.01038
# Poissons Ratio (y) = 0.02124 0.24807
# Poissons Ratio (z) = 0.00477 0.40182
#
# Static dielectric constant tensor:
#      x y z
#    x 1.665330 0.000000 0.000000 
#    y 0.000000 1.615320 0.000000 
#    z 0.000000 0.000000 1.586600 
# 
# From -- ./inp_files/17118.got.cif
#   From: 2010.05.17/outbox.cif.g08.bks.cpg/sg44_9_cif.got.tgz:17118.got - 2010.06.03 19:37:08.
