data_PCOD9374333
_publ_section_title
;
Structure prediction by ZEFSAII (Michael W. Deem and Ramdas Pophale) SiO2 
 PCOD9374333
Probable space group: I M M 2
;
_chemical_formula_sum "Si O2"
_cell_formula_units_Z 40
_cell_length_a 8.495586
_cell_length_b 26.507463
_cell_length_c 9.177405
_cell_angle_alpha 90.000000
_cell_angle_beta 90.000000
_cell_angle_gamma 90.000000
_cell_volume 2066.718857
_symmetry_space_group_name_H-M "I M M 2"
_symmetry_group_IT_number 44
_symmetry_cell_setting 'orthorhombic'
loop_
_space_group_symop_operation_xyz
x,y,z
-x,-y,z
-x,y,z
x,-y,z
1/2+x,1/2+y,1/2+z
1/2-x,1/2-y,1/2+z
1/2-x,1/2+y,1/2+z
1/2+x,1/2-y,1/2+z
loop_
_atom_site_type_symbol
_atom_site_label
_atom_site_fract_x
_atom_site_fract_y
_atom_site_fract_z
Si Si1 0.811199 0.301803 0.063170
Si Si2 0.809287 0.000000 0.232516
Si Si3 0.687275 0.000000 0.562145
Si Si4 0.691896 0.600555 0.561922
Si Si5 0.809462 0.799196 0.233721
Si Si6 0.189062 0.099009 0.725524
O O1 0.760369 0.251310 0.148693
O O2 0.744614 0.351034 0.142625
O O3 0.000000 0.303849 0.065621
O O4 0.754316 0.299757 0.897073
O O5 0.757899 0.949749 0.146902
O O6 0.749190 0.000000 0.396944
O O7 0.000000 0.000000 0.235836
O O8 0.748070 0.049581 0.644832
O O9 0.500000 0.000000 0.560990
O O10 0.500000 0.600590 0.561344
O O11 0.742466 0.650971 0.645999
O O12 0.742687 0.600172 0.393900
O O13 0.000000 0.799864 0.239335
O O14 0.000000 0.097309 0.723978
#
# Coordination Sequence:
#
# PCOD9374333 Si02
#       6
#     8   4   4   8   8   8
#     4  11  23  38  58  88 121 154 198 248 294 346
#     4  10  19  36  62  88 114 152 201 244 288 346
#     4  12  25  40  58  88 124 154 193 242 290 346
#     4   9  19  36  60  87 113 149 200 245 282 343
#     4  10  21  38  59  84 118 159 199 241 293 351
#     4  11  22  40  64  87 115 155 197 239 295 354
#
# _framework density 19.354351000000001
#
# number of rings (size 3 to 8) (size 9 to 14) (size 15 to 20)
#    0.000    1.600    0.000    5.100    0.000    6.400 
#    0.000    5.000    0.000    0.000    0.000    0.000 
#    0.000    0.000    0.000    0.000    0.000    0.000 
#
# Total GULP energy -111840.447748 kJ/mol
# GULP energy per Si atom -5592.022387 kJ/mol
# Density = 1.931030 g / cm^3
# Si number density = 19.354351 Si / 1000 Ang^3
#
#
#
# Elastic Constant Matrix: (Units=GPa)
#
#
# Indices 1 2 3 4 5 6 
#
# 1 38.1406 46.8301 42.7766 -0.0008 -0.0001 0.0001
# 2 46.8301 241.5381 147.2206 -0.0004 -0.0001 0.0000
# 3 42.7766 147.2206 241.2222 -0.0073 -0.0003 0.0008
# 4 -0.0008 -0.0004 -0.0073 46.6429 -0.0001 0.0000
# 5 -0.0001 -0.0001 -0.0003 -0.0001 21.5755 0.0000
# 6 0.0001 0.0000 0.0008 0.0000 0.0000 7.2151
#
#
#
# Elastic Compliance Matrix: (Units=1/GPa)
#
#
# Indices 1 2 3 4 5 6 
#
# 1 0.036070 -0.004928 -0.003389 0.000000 0.000000 0.000000
# 2 -0.004928 0.007266 -0.003560 -0.000001 0.000000 0.000000
# 3 -0.003389 -0.003560 0.006920 0.000001 0.000000 -0.000001
# 4 0.000000 -0.000001 0.000001 0.021440 0.000000 0.000000
# 5 0.000000 0.000000 0.000000 0.000000 0.046349 0.000000
# 6 0.000000 0.000000 -0.000001 0.000000 0.000000 0.138598
#
#
# Mechanical properties :
#
#
# Convention : Reuss Voigt Hill
#
# Bulk Modulus (GPa) = 37.73449 110.50617 74.12033
# Shear Modulus (GPa) = 17.28731 34.02494 25.65612
#
# Velocity S-wave (km/s) = 2.99189 4.19740 3.64483
# Velocity P-wave (km/s) = 5.61018 8.98394 7.48950
#
# Compressibility (1/GPa) = 0.02650095
#
# Stress axis : x y z
#
# Youngs Moduli (GPa) = 27.72379 137.63278 144.51856
#
# Poissons Ratio (x) = 0.67822 0.48976
# Poissons Ratio (y) = 0.13662 0.51456
# Poissons Ratio (z) = 0.09395 0.49004
#
# Static dielectric constant tensor:
#      x y z
#    x 1.660810 0.000000 0.000000 
#    y 0.000000 1.647710 0.000000 
#    z 0.000000 0.000000 1.633450 
# 
# From -- ./inp_files/4671.got.cif
#   From: 2010.05.17/outbox.cif.g08.bks.cpg/sg44_3_cif.got.tgz:4671.got - 2010.06.03 19:37:08.
