data_PCOD9374208
_publ_section_title
;
Structure prediction by ZEFSAII (Michael W. Deem and Ramdas Pophale) SiO2 
 PCOD9374208
Probable space group: I M M 2
;
_chemical_formula_sum "Si O2"
_cell_formula_units_Z 40
_cell_length_a 18.674036
_cell_length_b 23.917724
_cell_length_c 5.102907
_cell_angle_alpha 90.000000
_cell_angle_beta 90.000000
_cell_angle_gamma 90.000000
_cell_volume 2279.164623
_symmetry_space_group_name_H-M "I M M 2"
_symmetry_group_IT_number 44
_symmetry_cell_setting 'orthorhombic'
loop_
_space_group_symop_operation_xyz
x,y,z
-x,-y,z
-x,y,z
x,-y,z
1/2+x,1/2+y,1/2+z
1/2-x,1/2-y,1/2+z
1/2-x,1/2+y,1/2+z
1/2+x,1/2-y,1/2+z
loop_
_atom_site_type_symbol
_atom_site_label
_atom_site_fract_x
_atom_site_fract_y
_atom_site_fract_z
Si Si1 0.000000 0.854926 0.433341
Si Si2 0.131920 0.063449 0.440033
Si Si3 0.844820 0.737650 0.060064
Si Si4 0.229455 0.936478 0.936595
Si Si5 0.283671 0.179883 0.060772
Si Si6 0.000000 0.218321 0.933744
O O1 0.070018 0.892071 0.478830
O O2 0.000000 0.803901 0.637209
O O3 0.000000 0.833456 0.136112
O O4 0.194480 0.072080 0.652239
O O5 0.104603 0.000000 0.477458
O O6 0.166432 0.067203 0.152809
O O7 0.796701 0.794107 0.036400
O O8 0.811643 0.695289 0.847603
O O9 0.927005 0.749017 0.995831
O O10 0.830881 0.712919 0.347468
O O11 0.281777 0.885608 0.001085
O O12 0.258527 0.000000 0.951279
#
# Coordination Sequence:
#
# PCOD9374208 Si02
#       6
#     4   8   8   8   8   4
#     4  12  21  32  50  68 104 144 175 206 242 302
#     4  10  20  32  47  72 104 139 174 208 245 291
#     4  10  21  34  53  75 103 134 171 213 257 309
#     4  10  20  34  53  76 102 131 172 219 258 302
#     4  10  19  35  54  76 101 134 170 211 261 308
#     4  12  24  36  51  78 103 136 178 216 260 304
#
# _framework density 17.55029
#
# number of rings (size 3 to 8) (size 9 to 14) (size 15 to 20)
#    0.000    1.600    0.000    6.300    0.000    3.200 
#    0.000    4.000    0.000    0.000    0.000    4.200 
#    0.000    0.000    0.000    0.000    0.000    0.000 
#
# Total GULP energy -111722.754226 kJ/mol
# GULP energy per Si atom -5586.137711 kJ/mol
# Density = 1.751034 g / cm^3
# Si number density = 17.550290 Si / 1000 Ang^3
#
#
#
# Elastic Constant Matrix: (Units=GPa)
#
#
# Indices 1 2 3 4 5 6 
#
# 1 63.3266 9.6110 -17.0953 0.0000 0.0000 0.0000
# 2 9.6110 71.8587 -19.2359 0.0000 0.0000 0.0000
# 3 -17.0953 -19.2359 38.6745 0.0000 0.0000 0.0000
# 4 0.0000 0.0000 0.0000 22.5655 0.0000 0.0000
# 5 0.0000 0.0000 0.0000 0.0000 12.1289 0.0000
# 6 0.0000 0.0000 0.0000 0.0000 0.0000 18.6683
#
#
#
# Elastic Compliance Matrix: (Units=1/GPa)
#
#
# Indices 1 2 3 4 5 6 
#
# 1 0.017937 -0.000319 0.007770 0.000000 0.000000 0.000000
# 2 -0.000319 0.016059 0.007847 0.000000 0.000000 0.000000
# 3 0.007770 0.007847 0.033194 0.000000 0.000000 0.000000
# 4 0.000000 0.000000 0.000000 0.044315 0.000000 0.000000
# 5 0.000000 0.000000 0.000000 0.000000 0.082448 0.000000
# 6 0.000000 0.000000 0.000000 0.000000 0.000000 0.053567
#
#
# Mechanical properties :
#
#
# Convention : Reuss Voigt Hill
#
# Bulk Modulus (GPa) = 10.22645 13.37992 11.80319
# Shear Modulus (GPa) = 20.03843 24.04455 22.04149
#
# Velocity S-wave (km/s) = 3.38268 3.70542 3.54772
# Velocity P-wave (km/s) = 4.59307 5.09383 4.84992
#
# Compressibility (1/GPa) = 0.09778560
#
# Stress axis : x y z
#
# Youngs Moduli (GPa) = 55.75021 62.26912 30.12580
#
# Poissons Ratio (x) = 0.01987 -0.23408
# Poissons Ratio (y) = 0.01779 -0.23638
# Poissons Ratio (z) = -0.43318 -0.48860
#
# Static dielectric constant tensor:
#      x y z
#    x 1.568100 0.000000 0.000000 
#    y 0.000000 1.611440 0.000000 
#    z 0.000000 0.000000 1.590870 
# 
# From -- ./inp_files/1978.got.cif
#   From: 2010.05.17/outbox.cif.g08.bks.cpg/sg44_1_cif.got.tgz:1978.got - 2010.06.03 19:37:08.
