data_PCOD9374650
_publ_section_title
;
Structure prediction by ZEFSAII (Michael W. Deem and Ramdas Pophale) SiO2 
 PCOD9374650
Probable space group: I M M 2
;
_chemical_formula_sum "Si O2"
_cell_formula_units_Z 56
_cell_length_a 9.129366
_cell_length_b 22.397042
_cell_length_c 18.289023
_cell_angle_alpha 90.000000
_cell_angle_beta 90.000000
_cell_angle_gamma 90.000000
_cell_volume 3739.571049
_symmetry_space_group_name_H-M "I M M 2"
_symmetry_group_IT_number 44
_symmetry_cell_setting 'orthorhombic'
loop_
_space_group_symop_operation_xyz
x,y,z
-x,-y,z
-x,y,z
x,-y,z
1/2+x,1/2+y,1/2+z
1/2-x,1/2-y,1/2+z
1/2-x,1/2+y,1/2+z
1/2+x,1/2-y,1/2+z
loop_
_atom_site_type_symbol
_atom_site_label
_atom_site_fract_x
_atom_site_fract_y
_atom_site_fract_z
Si Si1 0.825513 0.713152 0.729210
Si Si2 0.324736 0.154694 0.940784
Si Si3 0.830715 0.181705 0.086608
Si Si4 0.674904 0.429255 0.325585
Si Si5 0.822764 0.720924 0.894510
Si Si6 0.825631 0.850547 0.688557
Si Si7 0.668200 0.176889 0.545589
O O1 0.738389 0.677845 0.667044
O O2 0.791153 0.698096 0.813163
O O3 0.791961 0.783833 0.718396
O O4 0.000000 0.706084 0.717471
O O5 0.500000 0.157056 0.940516
O O6 0.262774 0.101874 0.890713
O O7 0.257701 0.216228 0.907980
O O8 0.262841 0.150514 0.023263
O O9 0.826546 0.252535 0.066531
O O10 0.000000 0.162971 0.084599
O O11 0.500000 0.417241 0.335126
O O12 0.696156 0.500000 0.323369
O O13 0.720982 0.398098 0.249425
O O14 0.000000 0.731105 0.899479
O O15 0.781263 0.677178 0.961309
O O16 0.756670 0.856345 0.608464
O O17 0.000000 0.854389 0.681305
O O18 0.500000 0.157485 0.548391
#
# Coordination Sequence:
#
# PCOD9374650 Si02
#       7
#     8   8   8   8   8   8   8
#     4   9  15  25  42  62  86 111 141 176 211 252
#     4  11  20  29  43  61  84 112 146 183 221 256
#     4   9  17  28  41  58  83 112 144 173 209 260
#     4  10  20  34  49  62  80 113 153 187 225 266
#     4   9  16  28  43  61  87 117 146 174 210 259
#     4   9  16  27  42  58  79 108 141 178 215 252
#     4   8  15  25  39  58  81 111 141 170 206 252
#
# _framework density 14.974978999999999
#
# number of rings (size 3 to 8) (size 9 to 14) (size 15 to 20)
#    0.000    2.714    1.429    2.571    0.000    4.857 
#    0.000    0.000    0.000    0.000    0.000    0.000 
#    0.000    1.143    0.000    9.143    0.000    3.000 
#
# Total GULP energy -155924.501632 kJ/mol
# GULP energy per Si atom -5568.732201 kJ/mol
# Density = 1.494090 g / cm^3
# Si number density = 14.974979 Si / 1000 Ang^3
#
#
#
# Elastic Constant Matrix: (Units=GPa)
#
#
# Indices 1 2 3 4 5 6 
#
# 1 57.8580 30.2755 63.7226 0.0000 0.0000 0.0000
# 2 30.2755 35.1934 37.4763 0.0000 0.0000 0.0000
# 3 63.7226 37.4763 167.4487 0.0000 0.0000 0.0000
# 4 0.0000 0.0000 0.0000 12.8370 0.0000 0.0000
# 5 0.0000 0.0000 0.0000 0.0000 28.9269 0.0000
# 6 0.0000 0.0000 0.0000 0.0000 0.0000 9.9503
#
#
#
# Elastic Compliance Matrix: (Units=1/GPa)
#
#
# Indices 1 2 3 4 5 6 
#
# 1 0.041595 -0.024849 -0.010268 0.000000 0.000000 0.000000
# 2 -0.024849 0.052150 -0.002215 0.000000 0.000000 0.000000
# 3 -0.010268 -0.002215 0.010375 0.000000 0.000000 0.000000
# 4 0.000000 0.000000 0.000000 0.077900 0.000000 0.000000
# 5 0.000000 0.000000 0.000000 0.000000 0.034570 0.000000
# 6 0.000000 0.000000 0.000000 0.000000 0.000000 0.100499
#
#
# Mechanical properties :
#
#
# Convention : Reuss Voigt Hill
#
# Bulk Modulus (GPa) = 33.94844 58.16099 46.05471
# Shear Modulus (GPa) = 12.45110 18.94454 15.69782
#
# Velocity S-wave (km/s) = 2.88663 3.56065 3.24121
# Velocity P-wave (km/s) = 5.81632 7.47178 6.69541
#
# Compressibility (1/GPa) = 0.02945644
#
# Stress axis : x y z
#
# Youngs Moduli (GPa) = 24.04153 19.17546 96.38465
#
# Poissons Ratio (x) = 0.47649 0.98963
# Poissons Ratio (y) = 0.59740 0.21353
# Poissons Ratio (z) = 0.24685 0.04248
#
# Static dielectric constant tensor:
#      x y z
#    x 1.504020 0.000000 0.000000 
#    y 0.000000 1.460940 0.000000 
#    z 0.000000 0.000000 1.527470 
# 
# From -- ./inp_files/20638.got.cif
#   From: 2010.05.17/outbox.cif.g08.bks.cpg/sg44_11_cif.got.tgz:20638.got - 2010.06.03 19:37:08.
