data_PCOD9374603
_publ_section_title
;
Structure prediction by ZEFSAII (Michael W. Deem and Ramdas Pophale) SiO2 
 PCOD9374603
Probable space group: I M M 2
;
_chemical_formula_sum "Si O2"
_cell_formula_units_Z 48
_cell_length_a 7.602734
_cell_length_b 31.291946
_cell_length_c 9.430423
_cell_angle_alpha 90.000000
_cell_angle_beta 90.000000
_cell_angle_gamma 90.000000
_cell_volume 2243.538577
_symmetry_space_group_name_H-M "I M M 2"
_symmetry_group_IT_number 44
_symmetry_cell_setting 'orthorhombic'
loop_
_space_group_symop_operation_xyz
x,y,z
-x,-y,z
-x,y,z
x,-y,z
1/2+x,1/2+y,1/2+z
1/2-x,1/2-y,1/2+z
1/2-x,1/2+y,1/2+z
1/2+x,1/2-y,1/2+z
loop_
_atom_site_type_symbol
_atom_site_label
_atom_site_fract_x
_atom_site_fract_y
_atom_site_fract_z
Si Si1 0.795209 0.216001 0.337470
Si Si2 0.702178 0.703832 0.153453
Si Si3 0.714214 0.951929 0.329729
Si Si4 0.715028 0.048276 0.655863
Si Si5 0.704313 0.125192 0.844713
Si Si6 0.785883 0.631967 0.662818
O O1 0.708995 0.252843 0.243649
O O2 0.721788 0.211555 0.496701
O O3 0.779764 0.171148 0.257096
O O4 0.000000 0.228474 0.350268
O O5 0.500000 0.690625 0.133166
O O6 0.787738 0.666061 0.243135
O O7 0.500000 0.952253 0.328106
O O8 0.768202 0.943775 0.492754
O O9 0.769488 0.913347 0.229379
O O10 0.771090 0.000000 0.289724
O O11 0.500000 0.049458 0.655447
O O12 0.780749 0.084546 0.761848
O O13 0.766530 0.000000 0.694787
O O14 0.500000 0.114543 0.870022
O O15 0.776792 0.135154 0.000393
O O16 0.000000 0.634337 0.667138
#
# Coordination Sequence:
#
# PCOD9374603 Si02
#       6
#     8   8   8   8   8   8
#     4  11  24  40  58  80 105 135 173 215 261 314
#     4  11  24  40  58  80 105 135 173 215 261 314
#     4   8  14  26  46  73 105 141 179 217 258 304
#     4   8  14  26  46  73 105 141 179 217 258 304
#     4  10  20  33  52  80 111 142 177 216 260 310
#     4  10  20  33  52  80 111 142 177 216 260 310
#
# _framework density 21.394774000000002
#
# number of rings (size 3 to 8) (size 9 to 14) (size 15 to 20)
#    0.000    2.333    0.000    4.000    0.000    9.333 
#    0.000    3.333    0.000    1.000    0.000    7.000 
#    0.000    0.000    0.000    0.000    0.000    0.000 
#
# Total GULP energy -134056.737592 kJ/mol
# GULP energy per Si atom -5585.697400 kJ/mol
# Density = 2.134608 g / cm^3
# Si number density = 21.394774 Si / 1000 Ang^3
#
#
#
# Elastic Constant Matrix: (Units=GPa)
#
#
# Indices 1 2 3 4 5 6 
#
# 1 44.3780 -15.5550 -5.9032 -0.0001 0.0000 -0.0002
# 2 -15.5550 127.7998 90.6223 -0.0008 -0.0001 -0.0004
# 3 -5.9032 90.6223 177.5285 -0.0015 -0.0002 -0.0017
# 4 -0.0001 -0.0008 -0.0015 40.5736 -0.0001 -0.0013
# 5 0.0000 -0.0001 -0.0002 -0.0001 8.1049 0.0001
# 6 -0.0002 -0.0004 -0.0017 -0.0013 0.0001 53.1533
#
#
#
# Elastic Compliance Matrix: (Units=1/GPa)
#
#
# Indices 1 2 3 4 5 6 
#
# 1 0.023667 0.003640 -0.001071 0.000000 0.000000 0.000000
# 2 0.003640 0.012824 -0.006425 0.000000 0.000000 0.000000
# 3 -0.001071 -0.006425 0.008877 0.000000 0.000000 0.000000
# 4 0.000000 0.000000 0.000000 0.024647 0.000000 0.000001
# 5 0.000000 0.000000 0.000000 0.000000 0.123382 0.000000
# 6 0.000000 0.000000 0.000000 0.000001 0.000000 0.018814
#
#
# Mechanical properties :
#
#
# Convention : Reuss Voigt Hill
#
# Bulk Modulus (GPa) = 26.55632 54.22606 40.39119
# Shear Modulus (GPa) = 21.50776 39.06917 30.28846
#
# Velocity S-wave (km/s) = 3.17406 4.27793 3.76665
# Velocity P-wave (km/s) = 5.08648 7.05701 6.15117
#
# Compressibility (1/GPa) = 0.03765582
#
# Stress axis : x y z
#
# Youngs Moduli (GPa) = 42.25270 77.98011 112.64999
#
# Poissons Ratio (x) = -0.28386 0.12067
# Poissons Ratio (y) = -0.15381 0.72378
# Poissons Ratio (z) = 0.04526 0.50103
#
# Static dielectric constant tensor:
#      x y z
#    x 1.827050 0.000000 0.000000 
#    y 0.000000 1.721820 0.000000 
#    z 0.000000 0.000000 1.761630 
# 
# From -- ./inp_files/4910.got.cif
#   From: 2010.05.17/outbox.cif.g08.bks.cpg/sg44_3_cif.got.tgz:4910.got - 2010.06.03 19:37:08.
