data_PCOD9374826
_publ_section_title
;
Structure prediction by ZEFSAII (Michael W. Deem and Ramdas Pophale) SiO2 
 PCOD9374826
Probable space group: I M M 2
;
_chemical_formula_sum "Si O2"
_cell_formula_units_Z 64
_cell_length_a 21.211845
_cell_length_b 8.672101
_cell_length_c 20.036174
_cell_angle_alpha 90.000000
_cell_angle_beta 90.000000
_cell_angle_gamma 90.000000
_cell_volume 3685.679498
_symmetry_space_group_name_H-M "I M M 2"
_symmetry_group_IT_number 44
_symmetry_cell_setting 'orthorhombic'
loop_
_space_group_symop_operation_xyz
x,y,z
-x,-y,z
-x,y,z
x,-y,z
1/2+x,1/2+y,1/2+z
1/2-x,1/2-y,1/2+z
1/2-x,1/2+y,1/2+z
1/2+x,1/2-y,1/2+z
loop_
_atom_site_type_symbol
_atom_site_label
_atom_site_fract_x
_atom_site_fract_y
_atom_site_fract_z
Si Si1 0.617848 0.315005 0.031740
Si Si2 0.430711 0.814468 0.317945
Si Si3 0.690184 0.813433 0.402274
Si Si4 0.883440 0.184682 0.681449
Si Si5 0.570977 0.184151 0.895010
Si Si6 0.234564 0.316038 0.176596
Si Si7 0.759019 0.183063 0.035365
Si Si8 0.812328 0.815605 0.313087
O O1 0.613844 0.500000 0.025990
O O2 0.596367 0.270246 0.106473
O O3 0.691106 0.265713 0.026524
O O4 0.581394 0.237581 0.971199
O O5 0.500000 0.761608 0.340214
O O6 0.372566 0.761443 0.363568
O O7 0.419103 0.762498 0.242134
O O8 0.429585 0.000000 0.319630
O O9 0.698000 0.738715 0.474517
O O10 0.751672 0.771990 0.358299
O O11 0.689381 0.000000 0.408627
O O12 0.808838 0.221780 0.687594
O O13 0.890099 0.000000 0.686628
O O14 0.500000 0.226045 0.873998
O O15 0.624854 0.261109 0.850301
O O16 0.577872 0.000000 0.891473
O O17 0.229912 0.500000 0.168962
O O18 0.215828 0.235190 0.107523
O O19 0.196666 0.259362 0.240715
O O20 0.750007 0.000000 0.033481
O O21 0.812202 0.000000 0.306720
#
# Coordination Sequence:
#
# PCOD9374826 Si02
#       8
#     8   8   8   8   8   8   8   8
#     4  10  20  35  53  77 109 148 188 226 274 326
#     4  10  21  36  54  77 108 146 184 222 267 321
#     4  10  20  35  55  81 111 143 182 227 277 327
#     4   9  19  33  51  76 108 145 182 220 265 319
#     4  11  24  39  55  79 111 148 188 230 277 331
#     4  10  20  35  56  82 114 145 180 227 278 328
#     4  11  21  33  55  84 112 142 182 229 280 330
#     4  11  21  35  59  85 110 144 184 230 281 328
#
# _framework density 17.364505000000001
#
# number of rings (size 3 to 8) (size 9 to 14) (size 15 to 20)
#    0.000    1.750    2.500    3.375    0.000    5.250 
#    0.000    2.500    0.000    0.750    0.000    1.750 
#    0.000    0.000    0.000    0.000    0.000    0.000 
#
# Total GULP energy -178708.898896 kJ/mol
# GULP energy per Si atom -5584.653090 kJ/mol
# Density = 1.732498 g / cm^3
# Si number density = 17.364505 Si / 1000 Ang^3
#
#
#
# Elastic Constant Matrix: (Units=GPa)
#
#
# Indices 1 2 3 4 5 6 
#
# 1 94.6549 17.7953 46.7337 0.0000 0.0000 0.0000
# 2 17.7953 18.8106 15.5863 0.0000 0.0000 0.0000
# 3 46.7337 15.5863 101.4194 0.0000 0.0000 0.0000
# 4 0.0000 0.0000 0.0000 33.4982 0.0000 0.0000
# 5 0.0000 0.0000 0.0000 0.0000 19.6690 0.0000
# 6 0.0000 0.0000 0.0000 0.0000 0.0000 20.1639
#
#
#
# Elastic Compliance Matrix: (Units=1/GPa)
#
#
# Indices 1 2 3 4 5 6 
#
# 1 0.015092 -0.009758 -0.005455 0.000000 0.000000 0.000000
# 2 -0.009758 0.067228 -0.005835 0.000000 0.000000 0.000000
# 3 -0.005455 -0.005835 0.013270 0.000000 0.000000 0.000000
# 4 0.000000 0.000000 0.000000 0.029852 0.000000 0.000000
# 5 0.000000 0.000000 0.000000 0.000000 0.050841 0.000000
# 6 0.000000 0.000000 0.000000 0.000000 0.000000 0.049594
#
#
# Mechanical properties :
#
#
# Convention : Reuss Voigt Hill
#
# Bulk Modulus (GPa) = 18.69349 41.67950 30.18650
# Shear Modulus (GPa) = 17.49438 23.65086 20.57262
#
# Velocity S-wave (km/s) = 3.17753 3.69456 3.44576
# Velocity P-wave (km/s) = 4.92452 6.50035 5.76652
#
# Compressibility (1/GPa) = 0.05349455
#
# Stress axis : x y z
#
# Youngs Moduli (GPa) = 66.25834 14.87476 75.35552
#
# Poissons Ratio (x) = 0.14515 0.41106
# Poissons Ratio (y) = 0.64654 0.43972
# Poissons Ratio (z) = 0.36143 0.08680
#
# Static dielectric constant tensor:
#      x y z
#    x 1.590380 0.000000 0.000000 
#    y 0.000000 1.581180 0.000000 
#    z 0.000000 0.000000 1.580100 
# 
# From -- ./inp_files/20759.got.cif
#   From: 2010.05.17/outbox.cif.g08.bks.cpg/sg44_11_cif.got.tgz:20759.got - 2010.06.03 19:37:08.
