data_PCOD9374966
_publ_section_title
;
Structure prediction by ZEFSAII (Michael W. Deem and Ramdas Pophale) SiO2 
 PCOD9374966
Probable space group: I M M 2
;
_chemical_formula_sum "Si O2"
_cell_formula_units_Z 64
_cell_length_a 25.826316
_cell_length_b 8.309027
_cell_length_c 15.461982
_cell_angle_alpha 90.000000
_cell_angle_beta 90.000000
_cell_angle_gamma 90.000000
_cell_volume 3318.010791
_symmetry_space_group_name_H-M "I M M 2"
_symmetry_group_IT_number 44
_symmetry_cell_setting 'orthorhombic'
loop_
_space_group_symop_operation_xyz
x,y,z
-x,-y,z
-x,y,z
x,-y,z
1/2+x,1/2+y,1/2+z
1/2-x,1/2-y,1/2+z
1/2-x,1/2+y,1/2+z
1/2+x,1/2-y,1/2+z
loop_
_atom_site_type_symbol
_atom_site_label
_atom_site_fract_x
_atom_site_fract_y
_atom_site_fract_z
Si Si1 0.279962 0.310469 0.347280
Si Si2 0.330795 0.304829 0.810501
Si Si3 0.389236 0.194976 0.303743
Si Si4 0.941929 0.694088 0.626273
Si Si5 0.265397 0.189916 0.539595
Si Si6 0.133794 0.189192 0.130705
Si Si7 0.941250 0.692895 0.982589
Si Si8 0.349226 0.306044 0.006581
O O1 0.280067 0.500000 0.365513
O O2 0.227112 0.262701 0.299913
O O3 0.331448 0.262689 0.296572
O O4 0.279493 0.215935 0.438527
O O5 0.327866 0.500000 0.809530
O O6 0.365830 0.252830 0.729931
O O7 0.349488 0.254475 0.905917
O O8 0.423878 0.243939 0.222271
O O9 0.413711 0.251414 0.394610
O O10 0.386540 0.000000 0.305131
O O11 0.942996 0.500000 0.625776
O O12 0.898600 0.748708 0.558961
O O13 0.000000 0.752660 0.607272
O O14 0.308409 0.280029 0.594751
O O15 0.205919 0.247257 0.547331
O O16 0.268086 0.000000 0.559477
O O17 0.123219 0.000000 0.130048
O O18 0.093544 0.268505 0.065377
O O19 0.943829 0.500000 0.974755
O O20 0.000000 0.754559 0.989848
O O21 0.347961 0.500000 0.007108
#
# Coordination Sequence:
#
# PCOD9374966 Si02
#       8
#     8   8   8   8   8   8   8   8
#     4  11  21  33  54  86 118 149 191 234 281 336
#     4   9  21  40  58  80 116 156 192 234 291 350
#     4  10  20  36  57  81 115 156 190 229 286 347
#     4  10  22  39  59  84 113 148 194 242 287 339
#     4  10  20  36  56  81 117 155 187 227 285 348
#     4  11  22  36  58  87 116 150 195 243 289 339
#     4  10  21  38  60  83 113 157 199 233 282 349
#     4   9  20  39  60  81 110 149 191 237 289 342
#
# _framework density 19.288665999999999
#
# number of rings (size 3 to 8) (size 9 to 14) (size 15 to 20)
#    0.000    2.000    1.250    3.000    1.750    6.000 
#    0.000    0.625    0.000    6.000    0.000    0.000 
#    0.000    0.000    0.000    0.000    0.000    0.000 
#
# Total GULP energy -178697.113852 kJ/mol
# GULP energy per Si atom -5584.284808 kJ/mol
# Density = 1.924476 g / cm^3
# Si number density = 19.288666 Si / 1000 Ang^3
#
#
#
# Elastic Constant Matrix: (Units=GPa)
#
#
# Indices 1 2 3 4 5 6 
#
# 1 134.8557 11.4988 63.2585 0.0000 0.0000 0.0000
# 2 11.4988 9.0746 7.7368 0.0000 0.0000 0.0000
# 3 63.2585 7.7368 87.6151 0.0000 0.0000 0.0000
# 4 0.0000 0.0000 0.0000 23.5803 0.0000 0.0000
# 5 0.0000 0.0000 0.0000 0.0000 24.8928 0.0000
# 6 0.0000 0.0000 0.0000 0.0000 0.0000 21.4323
#
#
#
# Elastic Compliance Matrix: (Units=1/GPa)
#
#
# Indices 1 2 3 4 5 6 
#
# 1 0.011762 -0.008288 -0.007761 0.000000 0.000000 0.000000
# 2 -0.008288 0.125010 -0.005055 0.000000 0.000000 0.000000
# 3 -0.007761 -0.005055 0.017463 0.000000 0.000000 0.000000
# 4 0.000000 0.000000 0.000000 0.042408 0.000000 0.000000
# 5 0.000000 0.000000 0.000000 0.000000 0.040172 0.000000
# 6 0.000000 0.000000 0.000000 0.000000 0.000000 0.046659
#
#
# Mechanical properties :
#
#
# Convention : Reuss Voigt Hill
#
# Bulk Modulus (GPa) = 8.92630 44.05928 26.49279
# Shear Modulus (GPa) = 13.77315 23.91783 18.84549
#
# Velocity S-wave (km/s) = 2.67508 3.52518 3.12913
# Velocity P-wave (km/s) = 3.76553 6.28178 5.17880
#
# Compressibility (1/GPa) = 0.11202844
#
# Stress axis : x y z
#
# Youngs Moduli (GPa) = 85.01650 7.99934 57.26344
#
# Poissons Ratio (x) = 0.06630 0.44440
# Poissons Ratio (y) = 0.70463 0.28947
# Poissons Ratio (z) = 0.65978 0.04044
#
# Static dielectric constant tensor:
#      x y z
#    x 1.657780 0.000000 0.000000 
#    y 0.000000 1.665970 0.000000 
#    z 0.000000 0.000000 1.684610 
# 
# From -- ./inp_files/16814.got.cif
#   From: 2010.05.17/outbox.cif.g08.bks.cpg/sg44_9_cif.got.tgz:16814.got - 2010.06.03 19:37:08.
