data_PCOD9374122
_publ_section_title
;
Structure prediction by ZEFSAII (Michael W. Deem and Ramdas Pophale) SiO2 
 PCOD9374122
Probable space group: I M M 2
;
_chemical_formula_sum "Si O2"
_cell_formula_units_Z 48
_cell_length_a 10.625970
_cell_length_b 8.562277
_cell_length_c 29.080400
_cell_angle_alpha 90.000000
_cell_angle_beta 90.000000
_cell_angle_gamma 90.000000
_cell_volume 2645.807450
_symmetry_space_group_name_H-M "I M M 2"
_symmetry_group_IT_number 44
_symmetry_cell_setting 'orthorhombic'
loop_
_space_group_symop_operation_xyz
x,y,z
-x,-y,z
-x,y,z
x,-y,z
1/2+x,1/2+y,1/2+z
1/2-x,1/2-y,1/2+z
1/2-x,1/2+y,1/2+z
1/2+x,1/2-y,1/2+z
loop_
_atom_site_type_symbol
_atom_site_label
_atom_site_fract_x
_atom_site_fract_y
_atom_site_fract_z
Si Si1 0.246113 0.311575 0.373090
Si Si2 0.500000 0.312540 0.529889
Si Si3 0.352475 0.688250 0.676314
Si Si4 0.000000 0.809325 0.923545
Si Si5 0.743586 0.813224 0.583147
Si Si6 0.500000 0.188971 0.929918
Si Si7 0.646046 0.311703 0.780181
Si Si8 0.500000 0.311116 0.033588
O O1 0.246055 0.500000 0.373070
O O2 0.374221 0.257904 0.397306
O O3 0.124636 0.259512 0.402506
O O4 0.229058 0.254566 0.321128
O O5 0.500000 0.500000 0.531226
O O6 0.500000 0.260458 0.476733
O O7 0.375548 0.253519 0.555506
O O8 0.500000 0.730402 0.669286
O O9 0.345518 0.500000 0.673698
O O10 0.271134 0.760379 0.635805
O O11 0.317606 0.735743 0.728312
O O12 0.000000 0.000000 0.923590
O O13 0.873769 0.759654 0.559990
O O14 0.738888 0.000000 0.581014
O O15 0.500000 0.000000 0.931061
O O16 0.500000 0.250252 0.981646
O O17 0.500000 0.263147 0.787467
O O18 0.648715 0.500000 0.781649
O O19 0.500000 0.500000 0.032656
#
# Coordination Sequence:
#
# PCOD9374122 Si02
#       8
#     8   4   8   4   8   4   8   4
#     4  10  19  34  54  79 107 137 177 222 262 311
#     4  11  21  37  60  81 106 145 187 227 270 317
#     4   9  18  34  56  81 107 137 176 221 269 322
#     4   9  20  35  52  75 108 144 175 214 268 317
#     4  11  22  37  56  82 112 143 181 225 271 322
#     4  10  20  34  55  80 103 136 187 230 259 308
#     4   9  18  33  54  80 108 137 172 218 268 317
#     4  10  24  40  53  76 115 151 179 219 273 326
#
# _framework density 18.141908999999998
#
# number of rings (size 3 to 8) (size 9 to 14) (size 15 to 20)
#    0.000    2.167    1.667    2.750    0.000    4.000 
#    0.000    4.583    0.000    5.000    0.000    0.000 
#    0.000    0.000    0.000    0.000    0.000    0.000 
#
# Total GULP energy -133976.118098 kJ/mol
# GULP energy per Si atom -5582.338254 kJ/mol
# Density = 1.810062 g / cm^3
# Si number density = 18.141909 Si / 1000 Ang^3
#
#
#
# Elastic Constant Matrix: (Units=GPa)
#
#
# Indices 1 2 3 4 5 6 
#
# 1 145.2329 24.6603 94.2509 0.0000 0.0000 0.0000
# 2 24.6603 14.1070 25.9833 0.0000 0.0000 0.0000
# 3 94.2509 25.9833 183.0530 0.0000 0.0000 0.0000
# 4 0.0000 0.0000 0.0000 34.9554 0.0000 0.0000
# 5 0.0000 0.0000 0.0000 0.0000 -0.2879 0.0000
# 6 0.0000 0.0000 0.0000 0.0000 0.0000 5.0344
#
#
#
# Elastic Compliance Matrix: (Units=1/GPa)
#
#
# Indices 1 2 3 4 5 6 
#
# 1 0.011836 -0.012816 -0.004275 0.000000 0.000000 0.000000
# 2 -0.012816 0.109858 -0.008995 0.000000 -0.000001 0.000000
# 3 -0.004275 -0.008995 0.008941 0.000000 0.000000 0.000000
# 4 0.000000 0.000000 0.000000 0.028608 0.000000 0.000000
# 5 0.000000 -0.000001 0.000000 0.000000 -3.473496 -0.000001
# 6 0.000000 0.000000 0.000000 0.000000 -0.000001 0.198634
#
#
# Mechanical properties :
#
#
# Convention : Reuss Voigt Hill
#
# Bulk Modulus (GPa) = 12.74495 70.24246 41.49370
# Shear Modulus (GPa) = -1.64620 21.10695 9.73038
#
# Velocity S-wave (km/s) = -0.95361 3.41462 2.31843
# Velocity P-wave (km/s) = 2.41410 7.37215 5.48527
#
# Compressibility (1/GPa) = 0.07846246
#
# Stress axis : x y z
#
# Youngs Moduli (GPa) = 84.48823 9.10266 111.84770
#
# Poissons Ratio (x) = 0.11666 0.47814
# Poissons Ratio (y) = 1.08284 1.00604
# Poissons Ratio (z) = 0.36118 0.08188
#
# Static dielectric constant tensor:
#      x y z
#    x 1.605980 0.000000 0.000000 
#    y 0.000000 1.619160 0.000000 
#    z 0.000000 0.000000 1.606880 
# 
# From -- ./inp_files/27077.got.cif
#   From: 2010.05.17/outbox.cif.g08.bks.cpg/sg44_14_cif.got.tgz:27077.got - 2010.06.03 19:37:08.
