data_PCOD9374906
_publ_section_title
;
Structure prediction by ZEFSAII (Michael W. Deem and Ramdas Pophale) SiO2 
 PCOD9374906
Probable space group: I M M 2
;
_chemical_formula_sum "Si O2"
_cell_formula_units_Z 48
_cell_length_a 15.085894
_cell_length_b 26.549332
_cell_length_c 5.198659
_cell_angle_alpha 90.000000
_cell_angle_beta 90.000000
_cell_angle_gamma 90.000000
_cell_volume 2082.169025
_symmetry_space_group_name_H-M "I M M 2"
_symmetry_group_IT_number 44
_symmetry_cell_setting 'orthorhombic'
loop_
_space_group_symop_operation_xyz
x,y,z
-x,-y,z
-x,y,z
x,-y,z
1/2+x,1/2+y,1/2+z
1/2-x,1/2-y,1/2+z
1/2-x,1/2+y,1/2+z
1/2+x,1/2-y,1/2+z
loop_
_atom_site_type_symbol
_atom_site_label
_atom_site_fract_x
_atom_site_fract_y
_atom_site_fract_z
Si Si1 0.800311 0.901142 0.477720
Si Si2 0.285243 0.805296 0.708361
Si Si3 0.397889 0.269446 0.406267
Si Si4 0.096487 0.624596 0.520826
Si Si5 0.625561 0.943130 0.526570
Si Si6 0.097922 0.113393 0.986123
O O1 0.745807 0.849047 0.514200
O O2 0.731597 0.943679 0.550512
O O3 0.875958 0.896920 0.692667
O O4 0.834935 0.908127 0.192538
O O5 0.367514 0.772821 0.606853
O O6 0.193946 0.773382 0.739173
O O7 0.324745 0.836096 0.953429
O O8 0.500000 0.261182 0.309374
O O9 0.400499 0.325944 0.521522
O O10 0.094667 0.586860 0.277524
O O11 0.000000 0.650297 0.538179
O O12 0.106618 0.590217 0.773268
O O13 0.593415 0.000000 0.506614
O O14 0.000000 0.094761 0.040599
#
# Coordination Sequence:
#
# PCOD9374906 Si02
#       6
#     8   8   8   8   8   8
#     4  10  20  37  58  82 116 156 198 248 311 370
#     4  10  21  38  58  87 127 166 210 264 311 371
#     4  10  20  35  57  85 118 161 209 253 302 362
#     4  11  24  41  63  92 127 167 207 257 323 378
#     4  11  23  40  64  91 121 161 208 256 310 381
#     4  10  20  35  58  86 116 155 202 252 305 363
#
# _framework density 23.052885
#
# number of rings (size 3 to 8) (size 9 to 14) (size 15 to 20)
#    0.000    1.667    0.000    6.000    0.000    4.000 
#    0.000    5.000    0.000    3.000    0.000    0.000 
#    0.000    0.000    0.000    0.000    0.000    0.000 
#
# Total GULP energy -133944.500667 kJ/mol
# GULP energy per Si atom -5581.020861 kJ/mol
# Density = 2.300042 g / cm^3
# Si number density = 23.052885 Si / 1000 Ang^3
#
#
#
# Elastic Constant Matrix: (Units=GPa)
#
#
# Indices 1 2 3 4 5 6 
#
# 1 139.9456 32.6310 3.8898 0.0021 -0.0455 0.0072
# 2 32.6310 76.7284 25.5570 -0.0023 0.0340 0.0010
# 3 3.8898 25.5570 97.5611 -0.0417 -0.1920 0.0444
# 4 0.0021 -0.0023 -0.0417 16.1991 -0.0088 -0.0115
# 5 -0.0455 0.0340 -0.1920 -0.0088 -8.6794 0.0626
# 6 0.0072 0.0010 0.0444 -0.0115 0.0626 -7.6198
#
#
#
# Elastic Compliance Matrix: (Units=1/GPa)
#
#
# Indices 1 2 3 4 5 6 
#
# 1 0.007967 -0.003596 0.000624 0.000000 -0.000070 0.000010
# 2 -0.003596 0.015902 -0.004022 -0.000008 0.000170 -0.000023
# 3 0.000624 -0.004022 0.011278 0.000028 -0.000268 0.000064
# 4 0.000000 -0.000008 0.000028 0.061732 -0.000064 -0.000094
# 5 -0.000070 0.000170 -0.000268 -0.000064 -0.115216 -0.000947
# 6 0.000010 -0.000023 0.000064 -0.000094 -0.000947 -0.131244
#
#
# Mechanical properties :
#
#
# Convention : Reuss Voigt Hill
#
# Bulk Modulus (GPa) = 47.26038 48.71006 47.98522
# Shear Modulus (GPa) = -38.89828 16.79048 -11.05390
#
# Velocity S-wave (km/s) = -4.11219 2.70172 -2.19213
# Velocity P-wave (km/s) = 1.41474 5.55949 3.80174
#
# Compressibility (1/GPa) = 0.02115937
#
# Stress axis : x y z
#
# Youngs Moduli (GPa) = 125.52199 62.88580 88.66720
#
# Poissons Ratio (x) = 0.22614 -0.05535
# Poissons Ratio (y) = 0.45137 0.35661
# Poissons Ratio (z) = -0.07835 0.25292
#
# Static dielectric constant tensor:
#      x y z
#    x 1.996470 0.000040 -0.000100 
#    y 0.000040 1.855030 -0.000030 
#    z -0.000100 -0.000030 1.864280 
# 
# From -- ./inp_files/1568.got.cif
#   From: 2010.05.17/outbox.cif.g08.bks.cpg/sg44_1_cif.got.tgz:1568.got - 2010.06.03 19:37:08.
