data_PCOD9374678
_publ_section_title
;
Structure prediction by ZEFSAII (Michael W. Deem and Ramdas Pophale) SiO2 
 PCOD9374678
Probable space group: I M M 2
;
_chemical_formula_sum "Si O2"
_cell_formula_units_Z 48
_cell_length_a 7.463612
_cell_length_b 12.930701
_cell_length_c 22.568683
_cell_angle_alpha 90.000000
_cell_angle_beta 90.000000
_cell_angle_gamma 90.000000
_cell_volume 2178.097619
_symmetry_space_group_name_H-M "I M M 2"
_symmetry_group_IT_number 44
_symmetry_cell_setting 'orthorhombic'
loop_
_space_group_symop_operation_xyz
x,y,z
-x,-y,z
-x,y,z
x,-y,z
1/2+x,1/2+y,1/2+z
1/2-x,1/2-y,1/2+z
1/2-x,1/2+y,1/2+z
1/2+x,1/2-y,1/2+z
loop_
_atom_site_type_symbol
_atom_site_label
_atom_site_fract_x
_atom_site_fract_y
_atom_site_fract_z
Si Si1 0.789202 0.500000 0.137010
Si Si2 0.281437 0.886680 0.999324
Si Si3 0.290973 0.612360 0.834234
Si Si4 0.286017 0.271811 0.096916
Si Si5 0.718874 0.000000 0.772058
Si Si6 0.283288 0.884304 0.196236
Si Si7 0.719365 0.167282 0.867549
O O1 0.746089 0.606500 0.103402
O O2 0.714161 0.500000 0.204493
O O3 0.000000 0.500000 0.144454
O O4 0.500000 0.884910 0.999597
O O5 0.226627 0.877244 0.930957
O O6 0.228177 0.000000 0.022655
O O7 0.219921 0.790830 0.039405
O O8 0.500000 0.608669 0.851163
O O9 0.211335 0.500000 0.848386
O O10 0.281550 0.626115 0.763363
O O11 0.215002 0.715512 0.862411
O O12 0.500000 0.259942 0.096674
O O13 0.219125 0.207460 0.154025
O O14 0.774745 0.098866 0.811264
O O15 0.500000 0.000000 0.770854
O O16 0.500000 0.881349 0.197921
O O17 0.232771 0.000000 0.175123
O O18 0.500000 0.167090 0.866425
#
# Coordination Sequence:
#
# PCOD9374678 Si02
#       7
#     4   8   8   8   4   8   8
#     4  11  23  37  53  75 107 147 178 205 254 316
#     4   9  16  29  51  77 103 130 165 214 269 312
#     4   9  17  28  43  68 101 132 166 208 252 302
#     4  10  20  34  52  77 105 133 171 216 256 303
#     4   9  16  27  47  73 101 129 164 209 256 306
#     4   9  17  30  49  73 102 135 169 207 254 304
#     4   9  15  26  45  72 101 126 159 210 264 306
#
# _framework density 22.037579999999998
#
# number of rings (size 3 to 8) (size 9 to 14) (size 15 to 20)
#    0.000    2.667    0.833    1.750    0.000    4.000 
#    1.500    0.000    0.000    2.500    0.000    0.000 
#    0.000    0.000    0.000    0.000    0.000    0.000 
#
# Total GULP energy -133957.587338 kJ/mol
# GULP energy per Si atom -5581.566139 kJ/mol
# Density = 2.198742 g / cm^3
# Si number density = 22.037580 Si / 1000 Ang^3
#
#
#
# Elastic Constant Matrix: (Units=GPa)
#
#
# Indices 1 2 3 4 5 6 
#
# 1 64.4681 1.3787 -1.4466 0.0000 0.0000 0.0000
# 2 1.3787 203.3534 71.7814 0.0000 0.0000 0.0000
# 3 -1.4466 71.7814 86.4990 0.0000 0.0000 0.0000
# 4 0.0000 0.0000 0.0000 26.9839 0.0000 0.0000
# 5 0.0000 0.0000 0.0000 0.0000 13.7180 0.0000
# 6 0.0000 0.0000 0.0000 0.0000 0.0000 -5.9956
#
#
#
# Elastic Compliance Matrix: (Units=1/GPa)
#
#
# Indices 1 2 3 4 5 6 
#
# 1 0.015529 -0.000279 0.000491 0.000000 0.000000 0.000000
# 2 -0.000279 0.006960 -0.005780 0.000000 0.000000 0.000000
# 3 0.000491 -0.005780 0.016366 0.000000 0.000000 0.000000
# 4 0.000000 0.000000 0.000000 0.037059 0.000000 0.000000
# 5 0.000000 0.000000 0.000000 0.000000 0.072897 0.000000
# 6 0.000000 0.000000 0.000000 0.000000 0.000000 -0.166789
#
#
# Mechanical properties :
#
#
# Convention : Reuss Voigt Hill
#
# Bulk Modulus (GPa) = 36.07737 55.30528 45.69133
# Shear Modulus (GPa) = 2086.77750 25.78174 1056.27962
#
# Velocity S-wave (km/s) = 30.80541 3.42409 21.91686
# Velocity P-wave (km/s) = 35.80090 6.38615 25.71466
#
# Compressibility (1/GPa) = 0.02771820
#
# Stress axis : x y z
#
# Youngs Moduli (GPa) = 64.39768 143.68226 61.10301
#
# Poissons Ratio (x) = 0.04002 -0.02999
# Poissons Ratio (y) = 0.01794 0.35319
# Poissons Ratio (z) = -0.03161 0.83052
#
# Static dielectric constant tensor:
#      x y z
#    x 1.814540 0.000000 0.000000 
#    y 0.000000 1.885640 0.000000 
#    z 0.000000 0.000000 1.768320 
# 
# From -- ./inp_files/23731.got.cif
#   From: 2010.05.17/outbox.cif.g08.bks.cpg/sg44_12_cif.got.tgz:23731.got - 2010.06.03 19:37:08.
