data_PCOD9374135
_publ_section_title
;
Structure prediction by ZEFSAII (Michael W. Deem and Ramdas Pophale) SiO2 
 PCOD9374135
Probable space group: I M M 2
;
_chemical_formula_sum "Si O2"
_cell_formula_units_Z 64
_cell_length_a 12.716670
_cell_length_b 30.617334
_cell_length_c 7.758849
_cell_angle_alpha 90.000000
_cell_angle_beta 90.000000
_cell_angle_gamma 90.000000
_cell_volume 3020.911992
_symmetry_space_group_name_H-M "I M M 2"
_symmetry_group_IT_number 44
_symmetry_cell_setting 'orthorhombic'
loop_
_space_group_symop_operation_xyz
x,y,z
-x,-y,z
-x,y,z
x,-y,z
1/2+x,1/2+y,1/2+z
1/2-x,1/2-y,1/2+z
1/2-x,1/2+y,1/2+z
1/2+x,1/2-y,1/2+z
loop_
_atom_site_type_symbol
_atom_site_label
_atom_site_fract_x
_atom_site_fract_y
_atom_site_fract_z
Si Si1 0.158733 0.546981 0.076660
Si Si2 0.709082 0.292282 0.521561
Si Si3 0.618059 0.642256 0.248161
Si Si4 0.839405 0.357332 0.096635
Si Si5 0.122306 0.546897 0.667731
Si Si6 0.613899 0.768528 0.792122
Si Si7 0.883328 0.046826 0.721477
Si Si8 0.622887 0.143624 0.190449
O O1 0.123644 0.500000 0.152226
O O2 0.126705 0.593651 0.155680
O O3 0.285599 0.547084 0.091638
O O4 0.126883 0.546877 0.877007
O O5 0.644927 0.322992 0.393242
O O6 0.631167 0.264693 0.636878
O O7 0.786255 0.260977 0.413388
O O8 0.794417 0.321658 0.621333
O O9 0.500000 0.648841 0.180772
O O10 0.712370 0.645241 0.110818
O O11 0.624310 0.592494 0.320801
O O12 0.879205 0.317849 0.215209
O O13 0.873628 0.354039 0.898678
O O14 0.169575 0.500000 0.610226
O O15 0.160078 0.595556 0.624047
O O16 0.000000 0.546295 0.617498
O O17 0.500000 0.762361 0.874611
O O18 0.000000 0.047810 0.639768
O O19 0.876431 0.000000 0.815947
O O20 0.500000 0.150137 0.139696
#
# Coordination Sequence:
#
# PCOD9374135 Si02
#       8
#     8   8   8   8   8   8   8   8
#     4   8  13  23  42  71 104 133 166 208 247 291
#     4  11  23  39  57  80 101 133 177 216 263 322
#     4   9  18  34  53  76 108 140 173 216 258 300
#     4   9  18  32  54  81 106 137 175 211 258 314
#     4   8  14  25  44  71 102 137 172 204 245 298
#     4  11  23  40  59  79 106 136 171 218 265 312
#     4   8  13  23  43  70  99 134 172 207 248 296
#     4  10  19  34  55  79 109 140 173 216 260 305
#
# _framework density 21.185655000000001
#
# number of rings (size 3 to 8) (size 9 to 14) (size 15 to 20)
#    0.000    2.750    0.000    1.875    0.000    0.500 
#    0.000   10.000    0.000    2.250    0.000    0.000 
#    0.000    4.000    0.000    0.000    0.000    0.000 
#
# Total GULP energy -178174.778265 kJ/mol
# GULP energy per Si atom -5567.961821 kJ/mol
# Density = 2.113744 g / cm^3
# Si number density = 21.185655 Si / 1000 Ang^3
#
#
#
# Elastic Constant Matrix: (Units=GPa)
#
#
# Indices 1 2 3 4 5 6 
#
# 1 111.5685 17.5880 3.4062 -0.0006 0.0121 -0.0025
# 2 17.5880 84.2914 1.9548 0.0002 0.0044 0.0005
# 3 3.4062 1.9548 16.1697 -0.0088 0.0318 -0.0118
# 4 -0.0006 0.0002 -0.0088 6.4909 0.0029 -0.0059
# 5 0.0121 0.0044 0.0318 0.0029 -46.6943 -0.0049
# 6 -0.0025 0.0005 -0.0118 -0.0059 -0.0049 54.5772
#
#
#
# Elastic Compliance Matrix: (Units=1/GPa)
#
#
# Indices 1 2 3 4 5 6 
#
# 1 0.009316 -0.001904 -0.001732 -0.000001 0.000001 0.000000
# 2 -0.001904 0.012286 -0.001084 -0.000002 0.000000 0.000000
# 3 -0.001732 -0.001084 0.062340 0.000084 0.000042 0.000013
# 4 -0.000001 -0.000002 0.000084 0.154061 0.000010 0.000017
# 5 0.000001 0.000000 0.000042 0.000010 -0.021416 -0.000002
# 6 0.000000 0.000000 0.000013 0.000017 -0.000002 0.018323
#
#
# Mechanical properties :
#
#
# Convention : Reuss Voigt Hill
#
# Bulk Modulus (GPa) = 13.42256 28.65863 21.04059
# Shear Modulus (GPa) = 18.57463 15.48014 17.02739
#
# Velocity S-wave (km/s) = 2.96422 2.70606 2.83808
# Velocity P-wave (km/s) = 4.25028 4.82912 4.54892
#
# Compressibility (1/GPa) = 0.07450145
#
# Stress axis : x y z
#
# Youngs Moduli (GPa) = 107.34115 81.39360 16.04107
#
# Poissons Ratio (x) = 0.15495 0.02779
# Poissons Ratio (y) = 0.20434 0.01739
# Poissons Ratio (z) = 0.18595 0.08825
#
# Static dielectric constant tensor:
#      x y z
#    x 1.787660 0.000000 0.000000 
#    y 0.000000 1.847790 0.000000 
#    z 0.000000 0.000000 1.752760 
# 
# From -- ./inp_files/6365.got.cif
#   From: 2010.05.17/outbox.cif.g08.bks.cpg/sg44_4_cif.got.tgz:6365.got - 2010.06.03 19:37:08.
