data_PCOD9374026
_publ_section_title
;
Structure prediction by ZEFSAII (Michael W. Deem and Ramdas Pophale) SiO2 
 PCOD9374026
Probable space group: I M M 2
;
_chemical_formula_sum "Si O2"
_cell_formula_units_Z 64
_cell_length_a 9.263398
_cell_length_b 28.915204
_cell_length_c 12.994783
_cell_angle_alpha 90.000000
_cell_angle_beta 90.000000
_cell_angle_gamma 90.000000
_cell_volume 3480.692168
_symmetry_space_group_name_H-M "I M M 2"
_symmetry_group_IT_number 44
_symmetry_cell_setting 'orthorhombic'
loop_
_space_group_symop_operation_xyz
x,y,z
-x,-y,z
-x,y,z
x,-y,z
1/2+x,1/2+y,1/2+z
1/2-x,1/2-y,1/2+z
1/2-x,1/2+y,1/2+z
1/2+x,1/2-y,1/2+z
loop_
_atom_site_type_symbol
_atom_site_label
_atom_site_fract_x
_atom_site_fract_y
_atom_site_fract_z
Si Si1 0.825464 0.119379 0.779220
Si Si2 0.835925 0.428310 0.891966
Si Si3 0.175575 0.053143 0.967143
Si Si4 0.663826 0.180060 0.448168
Si Si5 0.174081 0.298092 0.179300
Si Si6 0.832118 0.948956 0.595560
Si Si7 0.674299 0.593434 0.689741
Si Si8 0.327510 0.697476 0.747700
O O1 0.751065 0.168769 0.761747
O O2 0.786494 0.088677 0.678967
O O3 0.000000 0.124317 0.781908
O O4 0.780194 0.089601 0.878985
O O5 0.840021 0.373837 0.919385
O O6 0.747663 0.432242 0.786178
O O7 0.000000 0.444575 0.880516
O O8 0.757649 0.448892 0.991118
O O9 0.216203 0.071585 0.080406
O O10 0.000000 0.052273 0.963988
O O11 0.224102 0.000000 0.950531
O O12 0.500000 0.198513 0.441878
O O13 0.715143 0.186008 0.564453
O O14 0.763429 0.201923 0.361686
O O15 0.213616 0.244215 0.189255
O O16 0.000000 0.302696 0.189634
O O17 0.000000 0.940161 0.569417
O O18 0.823546 0.000000 0.644056
O O19 0.500000 0.590535 0.699341
O O20 0.716289 0.648011 0.698602
O O21 0.500000 0.696045 0.753398
#
# Coordination Sequence:
#
# PCOD9374026 Si02
#       8
#     8   8   8   8   8   8   8   8
#     4  10  20  34  55  81 107 139 182 228 269 325
#     4  10  19  33  53  77 104 138 175 217 270 325
#     4   9  18  34  57  83 110 142 182 230 281 329
#     4   9  18  33  52  72 102 139 172 214 267 322
#     4  10  20  35  53  76 108 145 181 224 277 329
#     4  10  20  33  51  77 107 137 172 219 271 321
#     4   9  18  34  55  78 107 144 183 224 271 325
#     4   9  19  33  51  76 105 140 182 225 269 319
#
# _framework density 18.387146999999999
#
# number of rings (size 3 to 8) (size 9 to 14) (size 15 to 20)
#    0.000    2.500    1.250    0.750    0.000    4.750 
#    0.000    4.375    0.000    4.875    0.000    0.000 
#    0.000    0.000    0.000    0.000    0.000    0.000 
#
# Total GULP energy -178364.028953 kJ/mol
# GULP energy per Si atom -5573.875905 kJ/mol
# Density = 1.834530 g / cm^3
# Si number density = 18.387147 Si / 1000 Ang^3
#
#
#
# Elastic Constant Matrix: (Units=GPa)
#
#
# Indices 1 2 3 4 5 6 
#
# 1 14.4361 16.6005 18.3722 0.0001 -0.0001 -0.0001
# 2 16.6005 53.6413 21.7600 0.0000 0.0000 0.0001
# 3 18.3722 21.7600 91.9672 0.0006 0.0000 -0.0005
# 4 0.0001 0.0000 0.0006 23.9992 0.0000 -0.0001
# 5 -0.0001 0.0000 0.0000 0.0000 16.3781 0.0001
# 6 -0.0001 0.0001 -0.0005 -0.0001 0.0001 14.8721
#
#
#
# Elastic Compliance Matrix: (Units=1/GPa)
#
#
# Indices 1 2 3 4 5 6 
#
# 1 0.130385 -0.032947 -0.018252 0.000000 0.000001 0.000001
# 2 -0.032947 0.028947 -0.000267 0.000000 0.000000 0.000000
# 3 -0.018252 -0.000267 0.014583 0.000000 0.000000 0.000000
# 4 0.000000 0.000000 0.000000 0.041668 0.000000 0.000000
# 5 0.000001 0.000000 0.000000 0.000000 0.061057 0.000000
# 6 0.000001 0.000000 0.000000 0.000000 0.000000 0.067240
#
#
# Mechanical properties :
#
#
# Convention : Reuss Voigt Hill
#
# Bulk Modulus (GPa) = 14.08772 30.38999 22.23885
# Shear Modulus (GPa) = 10.62761 17.93733 14.28247
#
# Velocity S-wave (km/s) = 2.40675 3.12675 2.79007
# Velocity P-wave (km/s) = 3.92449 5.44051 4.74346
#
# Compressibility (1/GPa) = 0.07098381
#
# Stress axis : x y z
#
# Youngs Moduli (GPa) = 7.66958 34.54609 68.57390
#
# Poissons Ratio (x) = 1.13818 1.25159
# Poissons Ratio (y) = 0.25269 0.01833
# Poissons Ratio (z) = 0.13998 0.00923
#
# Static dielectric constant tensor:
#      x y z
#    x 1.627600 0.000000 0.000000 
#    y 0.000000 1.658540 0.000000 
#    z 0.000000 0.000000 1.610550 
# 
# From -- ./inp_files/11455.got.cif
#   From: 2010.05.17/outbox.cif.g08.bks.cpg/sg44_6_cif.got.tgz:11455.got - 2010.06.03 19:37:08.
