data_PCOD9374020
_publ_section_title
;
Structure prediction by ZEFSAII (Michael W. Deem and Ramdas Pophale) SiO2 
 PCOD9374020
Probable space group: I M M 2
;
_chemical_formula_sum "Si O2"
_cell_formula_units_Z 48
_cell_length_a 9.143319
_cell_length_b 8.029585
_cell_length_c 35.241661
_cell_angle_alpha 90.000000
_cell_angle_beta 90.000000
_cell_angle_gamma 90.000000
_cell_volume 2587.339038
_symmetry_space_group_name_H-M "I M M 2"
_symmetry_group_IT_number 44
_symmetry_cell_setting 'orthorhombic'
loop_
_space_group_symop_operation_xyz
x,y,z
-x,-y,z
-x,y,z
x,-y,z
1/2+x,1/2+y,1/2+z
1/2-x,1/2-y,1/2+z
1/2-x,1/2+y,1/2+z
1/2+x,1/2-y,1/2+z
loop_
_atom_site_type_symbol
_atom_site_label
_atom_site_fract_x
_atom_site_fract_y
_atom_site_fract_z
Si Si1 0.332704 0.200659 0.042440
Si Si2 0.676409 0.306129 0.463653
Si Si3 0.321087 0.000000 0.323258
Si Si4 0.177957 0.500000 0.910483
Si Si5 0.833719 0.302231 0.118239
Si Si6 0.821700 0.183854 0.774074
Si Si7 0.331686 0.804379 0.192966
O O1 0.500000 0.259491 0.040408
O O2 0.254746 0.265275 0.080062
O O3 0.333963 0.000000 0.044935
O O4 0.246090 0.241917 0.004046
O O5 0.500000 0.301201 0.466782
O O6 0.716440 0.500000 0.454985
O O7 0.721726 0.168222 0.432762
O O8 0.273417 0.165143 0.300729
O O9 0.500000 0.000000 0.323107
O O10 0.273197 0.000000 0.366895
O O11 0.000000 0.500000 0.910134
O O12 0.835451 0.500000 0.124091
O O13 0.759194 0.224066 0.155126
O O14 0.000000 0.241802 0.113916
O O15 0.775443 0.211930 0.730479
O O16 0.000000 0.189942 0.773374
O O17 0.778246 0.000000 0.787301
O O18 0.500000 0.751724 0.185832
O O19 0.333443 0.000000 0.202436
#
# Coordination Sequence:
#
# PCOD9374020 Si02
#       7
#     8   8   4   4   8   8   8
#     4  10  21  37  56  78 103 134 176 224 272 321
#     4   9  18  33  52  75 106 143 178 218 271 324
#     4   9  16  28  44  73 109 139 177 223 269 323
#     4   9  18  30  49  75 107 143 181 223 267 323
#     4  11  24  37  50  74 107 141 178 221 267 320
#     4   9  16  27  46  72 105 143 177 217 269 317
#     4  10  19  33  53  76 104 138 180 227 271 318
#
# _framework density 18.551877999999999
#
# number of rings (size 3 to 8) (size 9 to 14) (size 15 to 20)
#    0.000    2.333    0.833    2.000    1.167    6.000 
#    0.000    3.333    0.000    0.000    0.000    2.333 
#    0.000    2.667    0.000    0.000    0.000    0.000 
#
# Total GULP energy -133901.704761 kJ/mol
# GULP energy per Si atom -5579.237698 kJ/mol
# Density = 1.850965 g / cm^3
# Si number density = 18.551878 Si / 1000 Ang^3
#
#
#
# Elastic Constant Matrix: (Units=GPa)
#
#
# Indices 1 2 3 4 5 6 
#
# 1 37.3817 21.3878 30.4926 0.0000 0.0000 0.0000
# 2 21.3878 105.1704 74.4921 0.0000 0.0000 0.0000
# 3 30.4926 74.4921 143.3735 0.0000 0.0000 0.0000
# 4 0.0000 0.0000 0.0000 17.8318 0.0000 0.0000
# 5 0.0000 0.0000 0.0000 0.0000 14.9168 0.0000
# 6 0.0000 0.0000 0.0000 0.0000 0.0000 13.8020
#
#
#
# Elastic Compliance Matrix: (Units=1/GPa)
#
#
# Indices 1 2 3 4 5 6 
#
# 1 0.032858 -0.002741 -0.005564 0.000000 0.000000 0.000000
# 2 -0.002741 0.015274 -0.007353 0.000000 0.000000 0.000000
# 3 -0.005564 -0.007353 0.011978 0.000000 0.000000 0.000000
# 4 0.000000 0.000000 0.000000 0.056080 0.000000 0.000000
# 5 0.000000 0.000000 0.000000 0.000000 0.067038 0.000000
# 6 0.000000 0.000000 0.000000 0.000000 0.000000 0.072453
#
#
# Mechanical properties :
#
#
# Convention : Reuss Voigt Hill
#
# Bulk Modulus (GPa) = 34.72903 59.85230 47.29066
# Shear Modulus (GPa) = 16.85797 19.94698 18.40248
#
# Velocity S-wave (km/s) = 3.01772 3.28258 3.15294
# Velocity P-wave (km/s) = 5.55903 6.83369 6.22905
#
# Compressibility (1/GPa) = 0.02879435
#
# Stress axis : x y z
#
# Youngs Moduli (GPa) = 30.43396 65.47168 83.48356
#
# Poissons Ratio (x) = 0.17947 0.46451
# Poissons Ratio (y) = 0.08342 0.61384
# Poissons Ratio (z) = 0.16934 0.48140
#
# Static dielectric constant tensor:
#      x y z
#    x 1.635890 0.000000 0.000000 
#    y 0.000000 1.665820 0.000000 
#    z 0.000000 0.000000 1.605350 
# 
# From -- ./inp_files/26890.got.cif
#   From: 2010.05.17/outbox.cif.g08.bks.cpg/sg44_14_cif.got.tgz:26890.got - 2010.06.03 19:37:08.
