data_PCOD9374046
_publ_section_title
;
Structure prediction by ZEFSAII (Michael W. Deem and Ramdas Pophale) SiO2 
 PCOD9374046
Probable space group: I M M 2
;
_chemical_formula_sum "Si O2"
_cell_formula_units_Z 40
_cell_length_a 26.765694
_cell_length_b 7.756899
_cell_length_c 9.365677
_cell_angle_alpha 90.000000
_cell_angle_beta 90.000000
_cell_angle_gamma 90.000000
_cell_volume 1944.490480
_symmetry_space_group_name_H-M "I M M 2"
_symmetry_group_IT_number 44
_symmetry_cell_setting 'orthorhombic'
loop_
_space_group_symop_operation_xyz
x,y,z
-x,-y,z
-x,y,z
x,-y,z
1/2+x,1/2+y,1/2+z
1/2-x,1/2-y,1/2+z
1/2-x,1/2+y,1/2+z
1/2+x,1/2-y,1/2+z
loop_
_atom_site_type_symbol
_atom_site_label
_atom_site_fract_x
_atom_site_fract_y
_atom_site_fract_z
Si Si1 0.390559 0.796923 0.735590
Si Si2 0.801063 0.200963 0.763766
Si Si3 0.108278 0.210586 0.570250
Si Si4 0.500000 0.209822 0.762053
Si Si5 0.291743 0.300912 0.580274
Si Si6 0.000000 0.198654 0.592837
O O1 0.446976 0.741369 0.693786
O O2 0.345796 0.707180 0.653305
O O3 0.386077 0.000000 0.707446
O O4 0.385866 0.768152 0.906136
O O5 0.845929 0.271893 0.667028
O O6 0.749492 0.212124 0.678359
O O7 0.813906 0.000000 0.786246
O O8 0.794780 0.276623 0.921563
O O9 0.054394 0.272375 0.629959
O O10 0.107461 0.000000 0.566963
O O11 0.500000 0.000000 0.778551
O O12 0.500000 0.290787 0.919971
O O13 0.275448 0.500000 0.569559
O O14 0.000000 0.000000 0.639900
#
# Coordination Sequence:
#
# PCOD9374046 Si02
#       6
#     8   8   8   4   8   4
#     4  10  19  33  54  79 106 136 171 209 251 299
#     4  10  22  38  54  75 103 135 171 211 256 306
#     4   9  17  32  54  79 107 137 171 210 251 296
#     4   8  16  30  49  74 104 136 168 204 245 294
#     4  11  23  37  53  75 102 133 171 213 258 306
#     4   8  14  26  49  78 104 134 170 206 245 292
#
# _framework density 20.570941000000001
#
# number of rings (size 3 to 8) (size 9 to 14) (size 15 to 20)
#    0.000    2.400    0.000    2.400    0.000    6.400 
#    0.000    1.000    0.000    2.400    0.000    4.200 
#    0.000    0.000    0.000    0.000    0.000    0.000 
#
# Total GULP energy -111551.477392 kJ/mol
# GULP energy per Si atom -5577.573870 kJ/mol
# Density = 2.052412 g / cm^3
# Si number density = 20.570941 Si / 1000 Ang^3
#
#
#
# Elastic Constant Matrix: (Units=GPa)
#
#
# Indices 1 2 3 4 5 6 
#
# 1 160.7310 -10.5739 65.6467 0.0000 0.0000 0.0000
# 2 -10.5739 32.4973 -7.5869 0.0000 0.0000 0.0000
# 3 65.6467 -7.5869 95.9360 0.0000 0.0000 0.0000
# 4 0.0000 0.0000 0.0000 13.3316 0.0000 0.0000
# 5 0.0000 0.0000 0.0000 0.0000 32.1255 0.0000
# 6 0.0000 0.0000 0.0000 0.0000 0.0000 60.4606
#
#
#
# Elastic Compliance Matrix: (Units=1/GPa)
#
#
# Indices 1 2 3 4 5 6 
#
# 1 0.008703 0.001469 -0.005839 0.000000 0.000000 0.000000
# 2 0.001469 0.031598 0.001494 0.000000 0.000000 0.000000
# 3 -0.005839 0.001494 0.014537 0.000000 0.000000 0.000000
# 4 0.000000 0.000000 0.000000 0.075010 0.000000 0.000000
# 5 0.000000 0.000000 0.000000 0.000000 0.031128 0.000000
# 6 0.000000 0.000000 0.000000 0.000000 0.000000 0.016540
#
#
# Mechanical properties :
#
#
# Convention : Reuss Voigt Hill
#
# Bulk Modulus (GPa) = 20.37255 42.68179 31.52717
# Shear Modulus (GPa) = 25.04617 37.29542 31.17079
#
# Velocity S-wave (km/s) = 3.49313 4.26257 3.89689
# Velocity P-wave (km/s) = 5.11804 6.70967 5.96716
#
# Compressibility (1/GPa) = 0.04908567
#
# Stress axis : x y z
#
# Youngs Moduli (GPa) = 114.90226 31.64712 68.78828
#
# Poissons Ratio (x) = -0.04648 0.40167
# Poissons Ratio (y) = -0.16874 -0.10277
# Poissons Ratio (z) = 0.67093 -0.04728
#
# Static dielectric constant tensor:
#      x y z
#    x 1.758660 0.000000 0.000000 
#    y 0.000000 1.756750 0.000000 
#    z 0.000000 0.000000 1.705920 
# 
# From -- ./inp_files/4634.got.cif
#   From: 2010.05.17/outbox.cif.g08.bks.cpg/sg44_3_cif.got.tgz:4634.got - 2010.06.03 19:37:08.
