data_PCOD9374081
_publ_section_title
;
Structure prediction by ZEFSAII (Michael W. Deem and Ramdas Pophale) SiO2 
 PCOD9374081
Probable space group: I M M 2
;
_chemical_formula_sum "Si O2"
_cell_formula_units_Z 32
_cell_length_a 9.274991
_cell_length_b 8.034083
_cell_length_c 23.910307
_cell_angle_alpha 90.000000
_cell_angle_beta 90.000000
_cell_angle_gamma 90.000000
_cell_volume 1781.701573
_symmetry_space_group_name_H-M "I M M 2"
_symmetry_group_IT_number 44
_symmetry_cell_setting 'orthorhombic'
loop_
_space_group_symop_operation_xyz
x,y,z
-x,-y,z
-x,y,z
x,-y,z
1/2+x,1/2+y,1/2+z
1/2-x,1/2-y,1/2+z
1/2-x,1/2+y,1/2+z
1/2+x,1/2-y,1/2+z
loop_
_atom_site_type_symbol
_atom_site_label
_atom_site_fract_x
_atom_site_fract_y
_atom_site_fract_z
Si Si1 0.669549 0.500000 0.986550
Si Si2 0.164187 0.307602 0.675784
Si Si3 0.671367 0.500000 0.853518
Si Si4 0.162355 0.690233 0.072610
Si Si5 0.326123 0.311780 0.295793
O O1 0.500000 0.500000 0.999394
O O2 0.690542 0.500000 0.920507
O O3 0.745307 0.340970 0.016427
O O4 0.162904 0.500000 0.693813
O O5 0.259769 0.290767 0.620827
O O6 0.211732 0.205177 0.729953
O O7 0.000000 0.257319 0.661578
O O8 0.500000 0.500000 0.841343
O O9 0.745169 0.665209 0.828260
O O10 0.154877 0.500000 0.095179
O O11 0.000000 0.747468 0.060928
O O12 0.500000 0.287080 0.299602
O O13 0.293145 0.500000 0.314953
#
# Coordination Sequence:
#
# PCOD9374081 Si02
#       5
#     4   8   4   8   8
#     4   9  19  37  59  79 107 155 202 239 288 351
#     4  10  19  33  55  83 116 155 195 236 285 350
#     4  11  23  39  61  89 121 157 200 251 300 349
#     4   9  19  33  52  81 108 141 185 234 292 339
#     4  10  21  38  61  88 118 158 202 243 293 356
#
# _framework density 17.960360999999999
#
# number of rings (size 3 to 8) (size 9 to 14) (size 15 to 20)
#    0.750    1.500    1.250    1.875    0.000    5.000 
#    0.000    1.250    0.000    1.500    0.000    0.000 
#    0.000    0.000    0.000    0.000    0.000    0.000 
#
# Total GULP energy -89096.293871 kJ/mol
# GULP energy per Si atom -5568.518367 kJ/mol
# Density = 1.791948 g / cm^3
# Si number density = 17.960361 Si / 1000 Ang^3
#
#
#
# Elastic Constant Matrix: (Units=GPa)
#
#
# Indices 1 2 3 4 5 6 
#
# 1 107.8396 43.1081 73.8508 0.0000 0.0000 0.0000
# 2 43.1081 95.7529 43.4546 0.0000 0.0000 0.0000
# 3 73.8508 43.4546 99.1655 0.0000 0.0000 0.0000
# 4 0.0000 0.0000 0.0000 26.5758 0.0000 0.0000
# 5 0.0000 0.0000 0.0000 0.0000 30.4071 0.0000
# 6 0.0000 0.0000 0.0000 0.0000 0.0000 23.7019
#
#
#
# Elastic Compliance Matrix: (Units=1/GPa)
#
#
# Indices 1 2 3 4 5 6 
#
# 1 0.019480 -0.002729 -0.013311 0.000000 0.000000 0.000000
# 2 -0.002729 0.013418 -0.003848 0.000000 0.000000 0.000000
# 3 -0.013311 -0.003848 0.021683 0.000000 0.000000 0.000000
# 4 0.000000 0.000000 0.000000 0.037628 0.000000 0.000000
# 5 0.000000 0.000000 0.000000 0.000000 0.032887 0.000000
# 6 0.000000 0.000000 0.000000 0.000000 0.000000 0.042191
#
#
# Mechanical properties :
#
#
# Convention : Reuss Voigt Hill
#
# Bulk Modulus (GPa) = 67.54082 69.28721 68.41401
# Shear Modulus (GPa) = 23.58516 25.62660 24.60588
#
# Velocity S-wave (km/s) = 3.62771 3.78145 3.70538
# Velocity P-wave (km/s) = 7.43197 7.59786 7.51537
#
# Compressibility (1/GPa) = 0.01480586
#
# Stress axis : x y z
#
# Youngs Moduli (GPa) = 51.33570 74.52543 46.11844
#
# Poissons Ratio (x) = 0.20337 0.61389
# Poissons Ratio (y) = 0.14009 0.17745
# Poissons Ratio (z) = 0.68334 0.28675
#
# Static dielectric constant tensor:
#      x y z
#    x 1.630970 0.000000 0.000000 
#    y 0.000000 1.627460 0.000000 
#    z 0.000000 0.000000 1.586250 
# 
# From -- ./inp_files/24562.got.cif
#   From: 2010.05.17/outbox.cif.g08.bks.cpg/sg44_13_cif.got.tgz:24562.got - 2010.06.03 19:37:08.
