data_PCOD9374312
_publ_section_title
;
Structure prediction by ZEFSAII (Michael W. Deem and Ramdas Pophale) SiO2 
 PCOD9374312
Probable space group: I M M 2
;
_chemical_formula_sum "Si O2"
_cell_formula_units_Z 48
_cell_length_a 10.285346
_cell_length_b 8.106033
_cell_length_c 28.875698
_cell_angle_alpha 90.000000
_cell_angle_beta 90.000000
_cell_angle_gamma 90.000000
_cell_volume 2407.463794
_symmetry_space_group_name_H-M "I M M 2"
_symmetry_group_IT_number 44
_symmetry_cell_setting 'orthorhombic'
loop_
_space_group_symop_operation_xyz
x,y,z
-x,-y,z
-x,y,z
x,-y,z
1/2+x,1/2+y,1/2+z
1/2-x,1/2-y,1/2+z
1/2-x,1/2+y,1/2+z
1/2+x,1/2-y,1/2+z
loop_
_atom_site_type_symbol
_atom_site_label
_atom_site_fract_x
_atom_site_fract_y
_atom_site_fract_z
Si Si1 0.754226 0.699933 0.506940
Si Si2 0.751011 0.193398 0.728799
Si Si3 0.500000 0.696746 0.671012
Si Si4 0.500000 0.701892 0.563515
Si Si5 0.500000 0.200917 0.066062
Si Si6 0.151027 0.801721 0.406321
Si Si7 0.000000 0.300626 0.671737
Si Si8 0.150472 0.696598 0.827769
O O1 0.752431 0.500000 0.504990
O O2 0.624729 0.753460 0.533600
O O3 0.783239 0.761945 0.455525
O O4 0.873764 0.754881 0.538648
O O5 0.625160 0.251424 0.700632
O O6 0.873794 0.234171 0.697011
O O7 0.782764 0.275294 0.778094
O O8 0.739700 0.000000 0.737118
O O9 0.500000 0.500000 0.667723
O O10 0.500000 0.758550 0.617352
O O11 0.500000 0.500000 0.565164
O O12 0.500000 0.253667 0.118759
O O13 0.500000 0.000000 0.066306
O O14 0.249601 0.737784 0.366674
O O15 0.000000 0.740492 0.404306
O O16 0.143582 0.000000 0.401478
O O17 0.000000 0.500000 0.674025
O O18 0.140283 0.500000 0.834945
O O19 0.000000 0.760918 0.828726
#
# Coordination Sequence:
#
# PCOD9374312 Si02
#       8
#     8   8   4   4   4   8   4   8
#     4  10  19  36  59  86 118 153 196 249 301 351
#     4  12  25  41  61  94 132 158 197 264 323 365
#     4  11  23  43  68  89 120 171 220 253 298 373
#     4   9  20  37  60  89 118 155 208 255 288 347
#     4   9  18  33  58  85 112 151 204 249 284 351
#     4  10  22  39  59  88 121 154 198 250 302 362
#     4  11  21  39  66  91 118 167 216 247 296 373
#     4  10  22  41  64  87 115 160 211 249 297 375
#
# _framework density 19.937992999999999
#
# number of rings (size 3 to 8) (size 9 to 14) (size 15 to 20)
#    0.000    1.667    1.667    3.000    2.333    3.333 
#    0.000    5.000    0.000    0.000    0.000    0.000 
#    0.000    0.000    0.000    0.000    0.000    0.000 
#
# Total GULP energy -134008.723396 kJ/mol
# GULP energy per Si atom -5583.696808 kJ/mol
# Density = 1.989261 g / cm^3
# Si number density = 19.937993 Si / 1000 Ang^3
#
#
#
# Elastic Constant Matrix: (Units=GPa)
#
#
# Indices 1 2 3 4 5 6 
#
# 1 220.8082 5.6014 116.1313 0.0000 0.0000 0.0000
# 2 5.6014 14.7813 -10.9012 0.0000 0.0000 0.0000
# 3 116.1313 -10.9012 200.5349 0.0000 0.0000 0.0000
# 4 0.0000 0.0000 0.0000 27.9693 0.0000 0.0000
# 5 0.0000 0.0000 0.0000 0.0000 41.5230 0.0000
# 6 0.0000 0.0000 0.0000 0.0000 0.0000 11.8088
#
#
#
# Elastic Compliance Matrix: (Units=1/GPa)
#
#
# Indices 1 2 3 4 5 6 
#
# 1 0.006966 -0.005850 -0.004352 0.000000 0.000000 0.000000
# 2 -0.005850 0.075391 0.007486 0.000000 0.000000 0.000000
# 3 -0.004352 0.007486 0.007914 0.000000 0.000000 0.000000
# 4 0.000000 0.000000 0.000000 0.035753 0.000000 0.000000
# 5 0.000000 0.000000 0.000000 0.000000 0.024083 0.000000
# 6 0.000000 0.000000 0.000000 0.000000 0.000000 0.084683
#
#
# Mechanical properties :
#
#
# Convention : Reuss Voigt Hill
#
# Bulk Modulus (GPa) = 11.78703 73.08747 42.43725
# Shear Modulus (GPa) = 18.62189 37.94643 28.28416
#
# Velocity S-wave (km/s) = 3.05944 4.36733 3.77052
# Velocity P-wave (km/s) = 4.29009 7.88469 6.34717
#
# Compressibility (1/GPa) = 0.08483904
#
# Stress axis : x y z
#
# Youngs Moduli (GPa) = 143.55111 13.26424 126.35905
#
# Poissons Ratio (x) = 0.07759 0.54993
# Poissons Ratio (y) = 0.83971 -0.94590
# Poissons Ratio (z) = 0.62475 -0.09929
#
# Static dielectric constant tensor:
#      x y z
#    x 1.711860 0.000000 0.000000 
#    y 0.000000 1.720520 0.000000 
#    z 0.000000 0.000000 1.684090 
# 
# From -- ./inp_files/27068.got.cif
#   From: 2010.05.17/outbox.cif.g08.bks.cpg/sg44_14_cif.got.tgz:27068.got - 2010.06.03 19:37:08.
