data_PCOD9374053
_publ_section_title
;
Structure prediction by ZEFSAII (Michael W. Deem and Ramdas Pophale) SiO2 
 PCOD9374053
Probable space group: I M M 2
;
_chemical_formula_sum "Si O2"
_cell_formula_units_Z 56
_cell_length_a 7.727497
_cell_length_b 20.898596
_cell_length_c 16.014613
_cell_angle_alpha 90.000000
_cell_angle_beta 90.000000
_cell_angle_gamma 90.000000
_cell_volume 2586.261316
_symmetry_space_group_name_H-M "I M M 2"
_symmetry_group_IT_number 44
_symmetry_cell_setting 'orthorhombic'
loop_
_space_group_symop_operation_xyz
x,y,z
-x,-y,z
-x,y,z
x,-y,z
1/2+x,1/2+y,1/2+z
1/2-x,1/2-y,1/2+z
1/2-x,1/2+y,1/2+z
1/2+x,1/2-y,1/2+z
loop_
_atom_site_type_symbol
_atom_site_label
_atom_site_fract_x
_atom_site_fract_y
_atom_site_fract_z
Si Si1 0.796843 0.197870 0.625000
Si Si2 0.298373 0.742267 0.463413
Si Si3 0.694955 0.073842 0.894875
Si Si4 0.709127 0.428172 0.733810
Si Si5 0.789755 0.426667 0.219363
Si Si6 0.303820 0.378421 0.559013
Si Si7 0.792101 0.285233 0.782502
O O1 0.712175 0.203697 0.533720
O O2 0.770347 0.125618 0.654672
O O3 0.729815 0.246782 0.698884
O O4 0.000000 0.210850 0.615978
O O5 0.500000 0.725307 0.449228
O O6 0.219164 0.684117 0.517819
O O7 0.226207 0.757681 0.371758
O O8 0.500000 0.098022 0.909607
O O9 0.771773 0.101018 0.809758
O O10 0.802445 0.077364 0.978281
O O11 0.678362 0.000000 0.872224
O O12 0.500000 0.432013 0.734166
O O13 0.770238 0.500000 0.759336
O O14 0.772854 0.412981 0.639107
O O15 0.754786 0.361579 0.779667
O O16 0.732782 0.500000 0.203557
O O17 0.000000 0.426687 0.222584
O O18 0.500000 0.361336 0.583481
O O19 0.000000 0.278494 0.781871
#
# Coordination Sequence:
#
# PCOD9374053 Si02
#       7
#     8   8   8   8   8   8   8
#     4  11  22  37  59  88 117 145 187 243 293 342
#     4  10  21  38  59  82 111 151 194 235 287 353
#     4   9  18  31  48  75 110 145 181 221 270 333
#     4  10  21  37  58  84 115 155 201 245 295 355
#     4   9  19  36  56  79 111 152 192 229 279 345
#     4  10  19  33  54  80 111 145 185 237 293 346
#     4  10  22  39  59  86 119 154 196 242 292 351
#
# _framework density 21.65288
#
# number of rings (size 3 to 8) (size 9 to 14) (size 15 to 20)
#    0.000    2.143    1.429    2.571    0.000    5.429 
#    0.000    2.143    0.000    0.857    0.000    0.000 
#    0.000    0.000    0.000    0.000    0.000    0.000 
#
# Total GULP energy -155923.319257 kJ/mol
# GULP energy per Si atom -5568.689973 kJ/mol
# Density = 2.160360 g / cm^3
# Si number density = 21.652880 Si / 1000 Ang^3
#
#
#
# Elastic Constant Matrix: (Units=GPa)
#
#
# Indices 1 2 3 4 5 6 
#
# 1 43.0765 5.5479 4.6509 0.0000 0.0000 0.0000
# 2 5.5479 104.9814 28.5115 0.0000 0.0000 0.0000
# 3 4.6509 28.5115 88.7031 0.0001 0.0000 0.0000
# 4 0.0000 0.0000 0.0001 -8.2726 0.0000 0.0000
# 5 0.0000 0.0000 0.0000 0.0000 -21.1919 0.0000
# 6 0.0000 0.0000 0.0000 0.0000 0.0000 18.1080
#
#
#
# Elastic Compliance Matrix: (Units=1/GPa)
#
#
# Indices 1 2 3 4 5 6 
#
# 1 0.023441 -0.000992 -0.000910 0.000000 0.000000 0.000000
# 2 -0.000992 0.010478 -0.003316 0.000000 0.000000 0.000000
# 3 -0.000910 -0.003316 0.012387 0.000000 0.000000 0.000000
# 4 0.000000 0.000000 0.000000 -0.120881 0.000000 0.000000
# 5 0.000000 0.000000 0.000000 0.000000 -0.047188 0.000000
# 6 0.000000 0.000000 0.000000 0.000000 0.000000 0.055224
#
#
# Mechanical properties :
#
#
# Convention : Reuss Voigt Hill
#
# Bulk Modulus (GPa) = 27.87820 34.90907 31.39363
# Shear Modulus (GPa) = -113.26075 10.93207 -51.16434
#
# Velocity S-wave (km/s) = -7.24024 2.24939 -4.86628
# Velocity P-wave (km/s) = 7.54928 4.78576 4.12845
#
# Compressibility (1/GPa) = 0.03587032
#
# Stress axis : x y z
#
# Youngs Moduli (GPa) = 42.66117 95.43351 80.72868
#
# Poissons Ratio (x) = 0.09462 0.07349
# Poissons Ratio (y) = 0.04230 0.26770
# Poissons Ratio (z) = 0.03884 0.31647
#
# Static dielectric constant tensor:
#      x y z
#    x 1.827280 0.000000 0.000000 
#    y 0.000000 2.846840 0.000000 
#    z 0.000000 0.000000 1.856560 
# 
# From -- ./inp_files/16446.got.cif
#   From: 2010.05.17/outbox.cif.g08.bks.cpg/sg44_9_cif.got.tgz:16446.got - 2010.06.03 19:37:08.
