data_PCOD9374429
_publ_section_title
;
Structure prediction by ZEFSAII (Michael W. Deem and Ramdas Pophale) SiO2 
 PCOD9374429
Probable space group: I M M 2
;
_chemical_formula_sum "Si O2"
_cell_formula_units_Z 64
_cell_length_a 19.485595
_cell_length_b 14.193273
_cell_length_c 12.993414
_cell_angle_alpha 90.000000
_cell_angle_beta 90.000000
_cell_angle_gamma 90.000000
_cell_volume 3593.515349
_symmetry_space_group_name_H-M "I M M 2"
_symmetry_group_IT_number 44
_symmetry_cell_setting 'orthorhombic'
loop_
_space_group_symop_operation_xyz
x,y,z
-x,-y,z
-x,y,z
x,-y,z
1/2+x,1/2+y,1/2+z
1/2-x,1/2-y,1/2+z
1/2-x,1/2+y,1/2+z
1/2+x,1/2-y,1/2+z
loop_
_atom_site_type_symbol
_atom_site_label
_atom_site_fract_x
_atom_site_fract_y
_atom_site_fract_z
Si Si1 0.422738 0.792169 0.912290
Si Si2 0.577957 0.886390 0.137727
Si Si3 0.722160 0.787440 0.843281
Si Si4 0.788646 0.889255 0.034406
Si Si5 0.783980 0.389721 0.752817
Si Si6 0.921826 0.108078 0.531167
Si Si7 0.162065 0.886811 0.729666
Si Si8 0.923637 0.886020 0.930825
O O1 0.500000 0.816001 0.876999
O O2 0.358602 0.807886 0.838297
O O3 0.412569 0.843297 0.023426
O O4 0.419385 0.681227 0.939151
O O5 0.500000 0.861146 0.170590
O O6 0.638863 0.860472 0.216729
O O7 0.581889 0.000000 0.127667
O O8 0.746241 0.829026 0.952655
O O9 0.747982 0.679903 0.833132
O O10 0.765600 0.840788 0.755858
O O11 0.868131 0.862379 0.018191
O O12 0.781575 0.000000 0.004898
O O13 0.760536 0.880452 0.148480
O O14 0.785024 0.500000 0.783283
O O15 0.870195 0.138362 0.620540
O O16 0.000000 0.111760 0.573593
O O17 0.908344 0.000000 0.501858
O O18 0.110456 0.858785 0.821999
O O19 0.167666 0.000000 0.732780
O O20 0.000000 0.848079 0.944257
O O21 0.928231 0.000000 0.929197
#
# Coordination Sequence:
#
# PCOD9374429 Si02
#       8
#     8   8   8   8   8   8   8   8
#     4  10  20  32  47  70  98 131 168 205 246 297
#     4   9  17  31  53  77 100 128 164 210 261 305
#     4  11  20  31  51  70  98 133 166 204 252 292
#     4   9  18  33  51  70  97 130 165 207 251 298
#     4  10  20  34  51  73 101 134 169 206 251 304
#     4   9  17  30  48  70  99 129 155 193 249 306
#     4   9  17  27  45  73  99 123 154 196 249 303
#     4   8  13  23  41  66  94 122 154 192 234 284
#
# _framework density 17.809858999999999
#
# number of rings (size 3 to 8) (size 9 to 14) (size 15 to 20)
#    0.000    2.625    1.250    2.250    0.000    2.500 
#    0.000    3.125    0.000    0.750    0.000    0.000 
#    0.000    0.000    0.000    0.000    0.000    0.000 
#
# Total GULP energy -178316.444547 kJ/mol
# GULP energy per Si atom -5572.388892 kJ/mol
# Density = 1.776932 g / cm^3
# Si number density = 17.809859 Si / 1000 Ang^3
#
#
#
# Elastic Constant Matrix: (Units=GPa)
#
#
# Indices 1 2 3 4 5 6 
#
# 1 148.4375 17.8166 22.7069 0.0000 0.0000 0.0000
# 2 17.8166 48.2853 14.9107 0.0000 0.0000 0.0000
# 3 22.7069 14.9107 18.1764 0.0000 0.0000 0.0000
# 4 0.0000 0.0000 0.0000 16.2033 0.0000 0.0000
# 5 0.0000 0.0000 0.0000 0.0000 16.1603 0.0000
# 6 0.0000 0.0000 0.0000 0.0000 0.0000 20.4198
#
#
#
# Elastic Compliance Matrix: (Units=1/GPa)
#
#
# Indices 1 2 3 4 5 6 
#
# 1 0.008330 0.000187 -0.010559 0.000000 0.000000 0.000000
# 2 0.000187 0.027741 -0.022990 0.000000 0.000000 0.000000
# 3 -0.010559 -0.022990 0.087067 0.000000 0.000000 0.000000
# 4 0.000000 0.000000 0.000000 0.061716 0.000000 0.000000
# 5 0.000000 0.000000 0.000000 0.000000 0.061880 0.000000
# 6 0.000000 0.000000 0.000000 0.000000 0.000000 0.048972
#
#
# Mechanical properties :
#
#
# Convention : Reuss Voigt Hill
#
# Bulk Modulus (GPa) = 17.72658 36.19639 26.96148
# Shear Modulus (GPa) = 13.11528 21.18769 17.15148
#
# Velocity S-wave (km/s) = 2.71662 3.45289 3.10664
# Velocity P-wave (km/s) = 4.45139 6.02200 5.29525
#
# Compressibility (1/GPa) = 0.05641247
#
# Stress axis : x y z
#
# Youngs Moduli (GPa) = 120.05277 36.04816 11.48537
#
# Poissons Ratio (x) = -0.00675 0.12128
# Poissons Ratio (y) = -0.02248 0.26405
# Poissons Ratio (z) = 1.26769 0.82876
#
# Static dielectric constant tensor:
#      x y z
#    x 1.661900 0.000000 0.000000 
#    y 0.000000 1.648740 0.000000 
#    z 0.000000 0.000000 1.576200 
# 
# From -- ./inp_files/18614.got.cif
#   From: 2010.05.17/outbox.cif.g08.bks.cpg/sg44_10_cif.got.tgz:18614.got - 2010.06.03 19:37:08.
