data_PCOD9374185
_publ_section_title
;
Structure prediction by ZEFSAII (Michael W. Deem and Ramdas Pophale) SiO2 
 PCOD9374185
Probable space group: I M M 2
;
_chemical_formula_sum "Si O2"
_cell_formula_units_Z 48
_cell_length_a 15.737385
_cell_length_b 14.588995
_cell_length_c 10.299643
_cell_angle_alpha 90.000000
_cell_angle_beta 90.000000
_cell_angle_gamma 90.000000
_cell_volume 2364.722136
_symmetry_space_group_name_H-M "I M M 2"
_symmetry_group_IT_number 44
_symmetry_cell_setting 'orthorhombic'
loop_
_space_group_symop_operation_xyz
x,y,z
-x,-y,z
-x,y,z
x,-y,z
1/2+x,1/2+y,1/2+z
1/2-x,1/2-y,1/2+z
1/2-x,1/2+y,1/2+z
1/2+x,1/2-y,1/2+z
loop_
_atom_site_type_symbol
_atom_site_label
_atom_site_fract_x
_atom_site_fract_y
_atom_site_fract_z
Si Si1 0.838102 0.106691 0.485700
Si Si2 0.102036 0.781748 0.240129
Si Si3 0.597748 0.898929 0.299222
Si Si4 0.899859 0.208461 0.731877
Si Si5 0.896531 0.895942 0.984028
Si Si6 0.645669 0.895577 0.589445
O O1 0.852356 0.171337 0.361939
O O2 0.891342 0.149365 0.603386
O O3 0.742713 0.109425 0.541275
O O4 0.859823 0.000000 0.457704
O O5 0.125862 0.678247 0.199646
O O6 0.000000 0.786818 0.260983
O O7 0.124697 0.840537 0.112635
O O8 0.500000 0.907263 0.256031
O O9 0.637517 0.811390 0.227670
O O10 0.596816 0.877177 0.453591
O O11 0.638508 0.000000 0.284153
O O12 0.863805 0.154249 0.855215
O O13 0.000000 0.220798 0.757728
O O14 0.000000 0.898462 0.977301
O O15 0.866189 0.000000 0.989255
O O16 0.626593 0.000000 0.629857
#
# Coordination Sequence:
#
# PCOD9374185 Si02
#       6
#     8   8   8   8   8   8
#     4  11  25  40  58  87 128 168 198 245 316 379
#     4  11  22  38  62  91 121 161 209 261 314 365
#     4   9  17  33  59  86 110 143 196 253 295 345
#     4  10  19  34  57  85 115 156 201 245 302 363
#     4   9  17  30  52  81 111 146 197 250 291 346
#     4  10  22  39  60  86 118 160 205 248 304 366
#
# _framework density 20.298366000000001
#
# number of rings (size 3 to 8) (size 9 to 14) (size 15 to 20)
#    0.000    2.000    1.667    2.000    2.333    3.667 
#    0.000    0.833    0.000    3.000    0.000    0.000 
#    0.000    0.000    0.000    0.000    0.000    0.000 
#
# Total GULP energy -133919.018508 kJ/mol
# GULP energy per Si atom -5579.959104 kJ/mol
# Density = 2.025217 g / cm^3
# Si number density = 20.298366 Si / 1000 Ang^3
#
#
#
# Elastic Constant Matrix: (Units=GPa)
#
#
# Indices 1 2 3 4 5 6 
#
# 1 22.0500 21.0842 1.5307 0.0000 0.0000 0.0000
# 2 21.0842 150.8826 47.3026 0.0000 0.0000 0.0000
# 3 1.5307 47.3026 85.9886 0.0000 0.0000 0.0000
# 4 0.0000 0.0000 0.0000 35.2024 0.0000 0.0000
# 5 0.0000 0.0000 0.0000 0.0000 -47.6996 0.0000
# 6 0.0000 0.0000 0.0000 0.0000 0.0000 10.9728
#
#
#
# Elastic Compliance Matrix: (Units=1/GPa)
#
#
# Indices 1 2 3 4 5 6 
#
# 1 0.053359 -0.008650 0.003809 0.000000 0.000000 0.000000
# 2 -0.008650 0.009411 -0.005023 0.000000 0.000000 0.000000
# 3 0.003809 -0.005023 0.014325 0.000000 0.000000 0.000000
# 4 0.000000 0.000000 0.000000 0.028407 0.000000 0.000000
# 5 0.000000 0.000000 0.000000 0.000000 -0.020965 0.000000
# 6 0.000000 0.000000 0.000000 0.000000 0.000000 0.091134
#
#
# Mechanical properties :
#
#
# Convention : Reuss Voigt Hill
#
# Bulk Modulus (GPa) = 17.43216 44.30624 30.86920
# Shear Modulus (GPa) = 23.30753 12.29536 17.80144
#
# Velocity S-wave (km/s) = 3.39225 2.46383 2.96461
# Velocity P-wave (km/s) = 4.89385 5.47438 5.19224
#
# Compressibility (1/GPa) = 0.05736523
#
# Stress axis : x y z
#
# Youngs Moduli (GPa) = 18.74113 106.25575 69.80840
#
# Poissons Ratio (x) = 0.91915 -0.26588
# Poissons Ratio (y) = 0.16212 0.35066
# Poissons Ratio (z) = -0.07138 0.53374
#
# Static dielectric constant tensor:
#      x y z
#    x 2.164580 0.000000 0.000000 
#    y 0.000000 1.780910 0.000000 
#    z 0.000000 0.000000 1.676330 
# 
# From -- ./inp_files/7110.got.cif
#   From: 2010.05.17/outbox.cif.g08.bks.cpg/sg44_4_cif.got.tgz:7110.got - 2010.06.03 19:37:08.
