data_PCOD9374406
_publ_section_title
;
Structure prediction by ZEFSAII (Michael W. Deem and Ramdas Pophale) SiO2 
 PCOD9374406
Probable space group: I M M 2
;
_chemical_formula_sum "Si O2"
_cell_formula_units_Z 58
_cell_length_a 14.760555
_cell_length_b 7.879742
_cell_length_c 25.481537
_cell_angle_alpha 90.000000
_cell_angle_beta 90.000000
_cell_angle_gamma 90.000000
_cell_volume 2963.741392
_symmetry_space_group_name_H-M "I M M 2"
_symmetry_group_IT_number 44
_symmetry_cell_setting 'orthorhombic'
loop_
_space_group_symop_operation_xyz
x,y,z
-x,-y,z
-x,y,z
x,-y,z
1/2+x,1/2+y,1/2+z
1/2-x,1/2-y,1/2+z
1/2-x,1/2+y,1/2+z
1/2+x,1/2-y,1/2+z
loop_
_atom_site_type_symbol
_atom_site_label
_atom_site_fract_x
_atom_site_fract_y
_atom_site_fract_z
Si Si1 0.602733 0.703307 0.848210
Si Si2 0.271637 0.305388 0.756692
Si Si3 0.598096 0.801753 0.435211
Si Si4 0.000000 0.500000 0.693585
Si Si5 0.709989 0.195321 0.952603
Si Si6 0.146477 0.197969 0.670426
Si Si7 0.900036 0.803385 0.817432
Si Si8 0.896336 0.202240 0.554182
O O1 0.500000 0.767535 0.855074
O O2 0.598802 0.500000 0.842312
O O3 0.651332 0.768750 0.795219
O O4 0.662539 0.733865 0.900172
O O5 0.293993 0.500000 0.743920
O O6 0.238211 0.212740 0.704288
O O7 0.181816 0.298561 0.793147
O O8 0.500000 0.757699 0.459733
O O9 0.691573 0.772779 0.464861
O O10 0.605173 0.704444 0.380145
O O11 0.595314 0.000000 0.421519
O O12 0.921011 0.653549 0.690235
O O13 0.725479 0.000000 0.941759
O O14 0.646175 0.217850 0.002681
O O15 0.156223 0.232628 0.608329
O O16 0.113245 0.000000 0.674760
O O17 0.000000 0.736960 0.802754
O O18 0.893147 0.000000 0.800791
O O19 0.000000 0.260520 0.562550
O O20 0.897967 0.000000 0.545223
#
# Coordination Sequence:
#
# PCOD9374406 Si02
#       8
#     8   8   8   2   8   8   8   8
#     4  10  22  41  61  83 117 159 202 250 304 362
#     4  11  22  36  57  84 116 157 202 246 298 363
#     4  10  20  36  55  77 109 152 194 238 293 355
#     4  12  22  40  64  90 130 164 206 252 300 372
#     4  12  24  35  58  90 120 156 201 248 301 362
#     4  11  24  40  61  90 125 167 203 251 311 365
#     4  10  20  31  48  76 112 148 183 230 286 348
#     4  10  22  40  61  86 121 161 201 246 299 358
#
# _framework density 19.569859000000001
#
# number of rings (size 3 to 8) (size 9 to 14) (size 15 to 20)
#    0.000    1.379    2.759    3.103    1.931    4.414 
#    0.000    0.000    0.000    0.828    0.000    3.862 
#    0.000    0.000    0.000    0.000    0.000    0.000 
#
# Total GULP energy -161571.833563 kJ/mol
# GULP energy per Si atom -5571.442537 kJ/mol
# Density = 1.952532 g / cm^3
# Si number density = 19.569859 Si / 1000 Ang^3
#
#
#
# Elastic Constant Matrix: (Units=GPa)
#
#
# Indices 1 2 3 4 5 6 
#
# 1 102.0364 17.3034 40.9412 0.0000 0.0000 0.0000
# 2 17.3034 69.6688 12.1899 0.0000 0.0000 0.0000
# 3 40.9412 12.1899 86.9817 0.0000 0.0000 0.0000
# 4 0.0000 0.0000 0.0000 21.1870 0.0000 0.0000
# 5 0.0000 0.0000 0.0000 0.0000 17.0491 0.0000
# 6 0.0000 0.0000 0.0000 0.0000 0.0000 -165.3377
#
#
#
# Elastic Compliance Matrix: (Units=1/GPa)
#
#
# Indices 1 2 3 4 5 6 
#
# 1 0.012377 -0.002106 -0.005530 0.000000 0.000000 0.000000
# 2 -0.002106 0.015073 -0.001121 0.000000 0.000000 0.000000
# 3 -0.005530 -0.001121 0.014257 0.000000 0.000000 0.000000
# 4 0.000000 0.000000 0.000000 0.047199 0.000000 0.000000
# 5 0.000000 0.000000 0.000000 0.000000 0.058654 0.000000
# 6 0.000000 0.000000 0.000000 0.000000 0.000000 -0.006048
#
#
# Mechanical properties :
#
#
# Convention : Reuss Voigt Hill
#
# Bulk Modulus (GPa) = 41.33743 44.39510 42.86627
# Shear Modulus (GPa) = 29.92401 -12.87017 8.52692
#
# Velocity S-wave (km/s) = 3.91460 -2.56726 2.08965
# Velocity P-wave (km/s) = 6.44988 3.73456 5.27010
#
# Compressibility (1/GPa) = 0.02419115
#
# Stress axis : x y z
#
# Youngs Moduli (GPa) = 80.79756 66.34427 70.14184
#
# Poissons Ratio (x) = 0.13974 0.38791
# Poissons Ratio (y) = 0.17018 0.07863
# Poissons Ratio (z) = 0.44684 0.07437
#
# Static dielectric constant tensor:
#      x y z
#    x 1.791690 0.000000 0.000000 
#    y 0.000000 1.702840 0.000000 
#    z 0.000000 0.000000 1.688050 
# 
# From -- ./inp_files/26598.got.cif
#   From: 2010.05.17/outbox.cif.g08.bks.cpg/sg44_14_cif.got.tgz:26598.got - 2010.06.03 19:37:08.
