data_PCOD9374106
_publ_section_title
;
Structure prediction by ZEFSAII (Michael W. Deem and Ramdas Pophale) SiO2 
 PCOD9374106
Probable space group: I M M 2
;
_chemical_formula_sum "Si O2"
_cell_formula_units_Z 64
_cell_length_a 30.183396
_cell_length_b 8.005766
_cell_length_c 12.601776
_cell_angle_alpha 90.000000
_cell_angle_beta 90.000000
_cell_angle_gamma 90.000000
_cell_volume 3045.108344
_symmetry_space_group_name_H-M "I M M 2"
_symmetry_group_IT_number 44
_symmetry_cell_setting 'orthorhombic'
loop_
_space_group_symop_operation_xyz
x,y,z
-x,-y,z
-x,y,z
x,-y,z
1/2+x,1/2+y,1/2+z
1/2-x,1/2-y,1/2+z
1/2-x,1/2+y,1/2+z
1/2+x,1/2-y,1/2+z
loop_
_atom_site_type_symbol
_atom_site_label
_atom_site_fract_x
_atom_site_fract_y
_atom_site_fract_z
Si Si1 0.050275 0.798872 0.692690
Si Si2 0.360591 0.798249 0.729322
Si Si3 0.932914 0.805718 0.932712
Si Si4 0.780194 0.689255 0.817406
Si Si5 0.807613 0.195351 0.421178
Si Si6 0.454517 0.195065 0.657913
Si Si7 0.668740 0.308815 0.505729
Si Si8 0.650632 0.803421 0.142149
O O1 0.055531 0.743463 0.815818
O O2 0.098896 0.756458 0.641722
O O3 0.000000 0.743189 0.655835
O O4 0.048870 0.000000 0.691504
O O5 0.347049 0.717633 0.838726
O O6 0.409427 0.732846 0.700859
O O7 0.331630 0.744253 0.627960
O O8 0.359879 0.000000 0.736295
O O9 0.880594 0.800969 0.956878
O O10 0.946708 0.000000 0.939310
O O11 0.953072 0.708473 0.031002
O O12 0.770774 0.500000 0.779052
O O13 0.733340 0.769725 0.851425
O O14 0.803485 0.689313 0.931564
O O15 0.816094 0.765770 0.734922
O O16 0.823313 0.273105 0.531982
O O17 0.797905 0.000000 0.440958
O O18 0.500000 0.273325 0.697132
O O19 0.454264 0.000000 0.686325
O O20 0.684470 0.500000 0.496636
O O21 0.647022 0.000000 0.162931
#
# Coordination Sequence:
#
# PCOD9374106 Si02
#       8
#     8   8   8   8   8   8   8   8
#     4  10  20  36  59  88 124 166 210 256 310 371
#     4  10  21  38  59  85 120 157 199 246 298 356
#     4   9  17  30  50  81 119 156 192 236 290 350
#     4  10  23  41  62  90 121 155 196 248 306 367
#     4  11  25  44  64  88 119 159 208 256 310 370
#     4   9  18  32  52  80 115 155 197 243 295 349
#     4  10  19  33  58  88 120 156 195 238 292 355
#     4  11  24  43  65  91 126 163 208 262 316 375
#
# _framework density 21.017315
#
# number of rings (size 3 to 8) (size 9 to 14) (size 15 to 20)
#    0.000    2.000    1.250    1.875    1.750    4.000 
#    0.000    0.625    0.000    2.250    0.000    0.000 
#    0.000    0.000    0.000    0.000    0.000    0.000 
#
# Total GULP energy -178224.741805 kJ/mol
# GULP energy per Si atom -5569.523181 kJ/mol
# Density = 2.096948 g / cm^3
# Si number density = 21.017315 Si / 1000 Ang^3
#
#
#
# Elastic Constant Matrix: (Units=GPa)
#
#
# Indices 1 2 3 4 5 6 
#
# 1 110.3475 13.9119 42.1476 0.0000 0.0000 0.0000
# 2 13.9119 32.5915 -5.2210 0.0000 0.0000 0.0000
# 3 42.1476 -5.2210 88.4893 0.0000 0.0000 0.0000
# 4 0.0000 0.0000 0.0000 23.2054 0.0000 0.0000
# 5 0.0000 0.0000 0.0000 0.0000 -7.9811 0.0000
# 6 0.0000 0.0000 0.0000 0.0000 0.0000 0.3961
#
#
#
# Elastic Compliance Matrix: (Units=1/GPa)
#
#
# Indices 1 2 3 4 5 6 
#
# 1 0.012204 -0.006199 -0.006178 0.000000 0.000000 0.000000
# 2 -0.006199 0.034124 0.004966 0.000000 0.000000 0.000000
# 3 -0.006178 0.004966 0.014537 0.000000 0.000000 0.000000
# 4 0.000000 0.000000 0.000000 0.043093 0.000000 0.000000
# 5 0.000000 0.000000 0.000000 0.000000 -0.125295 0.000000
# 6 0.000000 0.000000 0.000000 0.000000 0.000000 2.524756
#
#
# Mechanical properties :
#
#
# Convention : Reuss Voigt Hill
#
# Bulk Modulus (GPa) = 21.71932 37.01167 29.36550
# Shear Modulus (GPa) = 1.97348 15.16339 8.56844
#
# Velocity S-wave (km/s) = 0.97006 2.68894 2.02131
# Velocity P-wave (km/s) = 3.40751 5.22387 4.41021
#
# Compressibility (1/GPa) = 0.04604196
#
# Stress axis : x y z
#
# Youngs Moduli (GPa) = 81.94273 29.30455 68.79199
#
# Poissons Ratio (x) = 0.18166 0.42502
# Poissons Ratio (y) = 0.50796 -0.34162
# Poissons Ratio (z) = 0.50627 -0.14553
#
# Static dielectric constant tensor:
#      x y z
#    x 1.876900 0.000000 0.000000 
#    y 0.000000 1.777920 0.000000 
#    z 0.000000 0.000000 1.711350 
# 
# From -- ./inp_files/15049.got.cif
#   From: 2010.05.17/outbox.cif.g08.bks.cpg/sg44_8_cif.got.tgz:15049.got - 2010.06.03 19:37:08.
