data_PCOD9374097
_publ_section_title
;
Structure prediction by ZEFSAII (Michael W. Deem and Ramdas Pophale) SiO2 
 PCOD9374097
Probable space group: I M M 2
;
_chemical_formula_sum "Si O2"
_cell_formula_units_Z 64
_cell_length_a 9.203631
_cell_length_b 25.366360
_cell_length_c 15.060909
_cell_angle_alpha 90.000000
_cell_angle_beta 90.000000
_cell_angle_gamma 90.000000
_cell_volume 3516.159233
_symmetry_space_group_name_H-M "I M M 2"
_symmetry_group_IT_number 44
_symmetry_cell_setting 'orthorhombic'
loop_
_space_group_symop_operation_xyz
x,y,z
-x,-y,z
-x,y,z
x,-y,z
1/2+x,1/2+y,1/2+z
1/2-x,1/2-y,1/2+z
1/2-x,1/2+y,1/2+z
1/2+x,1/2-y,1/2+z
loop_
_atom_site_type_symbol
_atom_site_label
_atom_site_fract_x
_atom_site_fract_y
_atom_site_fract_z
Si Si1 0.828109 0.329881 0.796310
Si Si2 0.172871 0.722264 0.328047
Si Si3 0.171110 0.233019 0.013341
Si Si4 0.171709 0.562812 0.484632
Si Si5 0.326645 0.440014 0.117172
Si Si6 0.170694 0.868785 0.132014
Si Si7 0.671025 0.148137 0.504161
Si Si8 0.826534 0.603576 0.288451
O O1 0.755560 0.272248 0.788116
O O2 0.754124 0.367810 0.724978
O O3 0.000000 0.326402 0.781103
O O4 0.805103 0.347931 0.898133
O O5 0.230252 0.718401 0.429239
O O6 0.201780 0.666205 0.282288
O O7 0.000000 0.731467 0.326574
O O8 0.188268 0.189315 0.088309
O O9 0.204941 0.293063 0.040544
O O10 0.000000 0.233210 0.985436
O O11 0.190389 0.500000 0.486315
O O12 0.261904 0.590876 0.561559
O O13 0.213331 0.584486 0.387373
O O14 0.000000 0.574684 0.496762
O O15 0.500000 0.435651 0.121353
O O16 0.288729 0.500000 0.091533
O O17 0.262797 0.397146 0.049776
O O18 0.258594 0.427195 0.213026
O O19 0.000000 0.878378 0.144333
O O20 0.500000 0.138316 0.520335
O O21 0.000000 0.595225 0.277996
#
# Coordination Sequence:
#
# PCOD9374097 Si02
#       8
#     8   8   8   8   8   8   8   8
#     4  10  22  39  59  85 120 156 193 240 295 352
#     4  10  19  33  56  86 118 152 192 234 282 340
#     4   9  19  35  55  83 118 152 186 231 286 346
#     4  10  21  39  61  85 117 158 203 246 289 345
#     4  11  25  41  58  85 117 149 193 246 296 346
#     4  11  22  36  58  88 122 157 196 243 294 347
#     4   9  20  40  62  83 111 150 195 240 289 347
#     4  10  21  37  59  86 117 156 197 235 282 346
#
# _framework density 18.201678000000001
#
# number of rings (size 3 to 8) (size 9 to 14) (size 15 to 20)
#    0.000    2.000    1.250    2.625    1.750    6.250 
#    0.000    0.625    0.000    0.750    0.000    0.000 
#    0.000    0.000    0.000    0.000    0.000    0.000 
#
# Total GULP energy -178731.595808 kJ/mol
# GULP energy per Si atom -5585.362369 kJ/mol
# Density = 1.816025 g / cm^3
# Si number density = 18.201678 Si / 1000 Ang^3
#
#
#
# Elastic Constant Matrix: (Units=GPa)
#
#
# Indices 1 2 3 4 5 6 
#
# 1 65.2262 50.8951 39.9988 0.0000 0.0000 0.0000
# 2 50.8951 91.1894 33.4543 0.0000 0.0000 0.0000
# 3 39.9988 33.4543 51.8858 -0.0001 0.0000 0.0000
# 4 0.0000 0.0000 -0.0001 25.1090 0.0000 0.0000
# 5 0.0000 0.0000 0.0000 0.0000 30.5976 0.0000
# 6 0.0000 0.0000 0.0000 0.0000 0.0000 28.7814
#
#
#
# Elastic Compliance Matrix: (Units=1/GPa)
#
#
# Indices 1 2 3 4 5 6 
#
# 1 0.039466 -0.014232 -0.021248 0.000000 0.000000 0.000000
# 2 -0.014232 0.019496 -0.001599 0.000000 0.000000 0.000000
# 3 -0.021248 -0.001599 0.036685 0.000000 0.000000 0.000000
# 4 0.000000 0.000000 0.000000 0.039826 0.000000 0.000000
# 5 0.000000 0.000000 0.000000 0.000000 0.032682 0.000000
# 6 0.000000 0.000000 0.000000 0.000000 0.000000 0.034745
#
#
# Mechanical properties :
#
#
# Convention : Reuss Voigt Hill
#
# Bulk Modulus (GPa) = 46.53704 50.77755 48.65730
# Shear Modulus (GPa) = 17.59189 22.49448 20.04318
#
# Velocity S-wave (km/s) = 3.11223 3.51927 3.32199
# Velocity P-wave (km/s) = 6.20786 6.66869 6.44240
#
# Compressibility (1/GPa) = 0.02148826
#
# Stress axis : x y z
#
# Youngs Moduli (GPa) = 25.33795 51.29256 27.25941
#
# Poissons Ratio (x) = 0.72999 0.57922
# Poissons Ratio (y) = 0.36061 0.04359
# Poissons Ratio (z) = 0.53839 0.08202
#
# Static dielectric constant tensor:
#      x y z
#    x 1.603070 0.000000 0.000000 
#    y 0.000000 1.614040 0.000000 
#    z 0.000000 0.000000 1.620200 
# 
# From -- ./inp_files/16830.got.cif
#   From: 2010.05.17/outbox.cif.g08.bks.cpg/sg44_9_cif.got.tgz:16830.got - 2010.06.03 19:37:08.
