data_PCOD9374930
_publ_section_title
;
Structure prediction by ZEFSAII (Michael W. Deem and Ramdas Pophale) SiO2 
 PCOD9374930
Probable space group: I M M 2
;
_chemical_formula_sum "Si O2"
_cell_formula_units_Z 64
_cell_length_a 15.657491
_cell_length_b 24.889038
_cell_length_c 8.571092
_cell_angle_alpha 90.000000
_cell_angle_beta 90.000000
_cell_angle_gamma 90.000000
_cell_volume 3340.153597
_symmetry_space_group_name_H-M "I M M 2"
_symmetry_group_IT_number 44
_symmetry_cell_setting 'orthorhombic'
loop_
_space_group_symop_operation_xyz
x,y,z
-x,-y,z
-x,y,z
x,-y,z
1/2+x,1/2+y,1/2+z
1/2-x,1/2-y,1/2+z
1/2-x,1/2+y,1/2+z
1/2+x,1/2-y,1/2+z
loop_
_atom_site_type_symbol
_atom_site_label
_atom_site_fract_x
_atom_site_fract_y
_atom_site_fract_z
Si Si1 0.363403 0.175042 0.415050
Si Si2 0.687447 0.673300 0.045230
Si Si3 0.096421 0.124597 0.291710
Si Si4 0.246086 0.655922 0.380266
Si Si5 0.902032 0.560650 0.843817
Si Si6 0.405240 0.285686 0.544900
Si Si7 0.243234 0.061993 0.108947
Si Si8 0.598396 0.213084 0.066330
O O1 0.261134 0.181065 0.415860
O O2 0.388157 0.113441 0.450148
O O3 0.396549 0.221471 0.531123
O O4 0.395276 0.187644 0.239859
O O5 0.739388 0.655879 0.196955
O O6 0.636771 0.727372 0.080117
O O7 0.622426 0.631154 0.971131
O O8 0.099628 0.184323 0.211607
O O9 0.165670 0.087873 0.206649
O O10 0.000000 0.105043 0.271445
O O11 0.326730 0.689401 0.449285
O O12 0.249050 0.597153 0.454467
O O13 0.160072 0.682838 0.445336
O O14 0.891016 0.500000 0.911367
O O15 0.830344 0.566235 0.709948
O O16 0.000000 0.563338 0.785677
O O17 0.500000 0.299373 0.480931
O O18 0.226976 0.000000 0.077885
O O19 0.500000 0.213692 0.017365
#
# Coordination Sequence:
#
# PCOD9374930 Si02
#       8
#     8   8   8   8   8   8   8   8
#     4  12  21  36  60  89 125 161 204 253 303 362
#     4  12  23  38  57  89 128 166 199 252 311 369
#     4  10  22  40  62  89 124 163 206 252 308 375
#     4  11  23  38  60  89 128 161 206 253 305 370
#     4  10  20  36  62  90 117 156 207 254 296 352
#     4  10  20  35  58  88 121 160 201 247 303 359
#     4  10  21  41  65  90 118 158 210 262 311 363
#     4  12  23  38  60  87 127 171 207 248 305 373
#
# _framework density 19.160796999999999
#
# number of rings (size 3 to 8) (size 9 to 14) (size 15 to 20)
#    0.000    1.125    5.000    2.250    1.750    0.750 
#    0.000    2.500    0.000    0.000    0.000    1.750 
#    0.000    0.000    0.000    0.000    0.000    0.000 
#
# Total GULP energy -178583.273722 kJ/mol
# GULP energy per Si atom -5580.727304 kJ/mol
# Density = 1.911719 g / cm^3
# Si number density = 19.160797 Si / 1000 Ang^3
#
#
#
# Elastic Constant Matrix: (Units=GPa)
#
#
# Indices 1 2 3 4 5 6 
#
# 1 156.7826 52.8639 35.6948 0.0000 0.0000 0.0000
# 2 52.8639 150.0190 35.3726 0.0000 0.0000 0.0000
# 3 35.6948 35.3726 61.5603 0.0002 -0.0003 0.0000
# 4 0.0000 0.0000 0.0002 13.6696 -0.0001 0.0000
# 5 0.0000 0.0000 -0.0003 -0.0001 7.2518 0.0000
# 6 0.0000 0.0000 0.0000 0.0000 0.0000 21.3976
#
#
#
# Elastic Compliance Matrix: (Units=1/GPa)
#
#
# Indices 1 2 3 4 5 6 
#
# 1 0.007812 -0.001949 -0.003410 0.000000 0.000000 0.000000
# 2 -0.001949 0.008197 -0.003580 0.000000 0.000000 0.000000
# 3 -0.003410 -0.003580 0.020278 0.000000 0.000001 0.000000
# 4 0.000000 0.000000 0.000000 0.073155 0.000001 0.000000
# 5 0.000000 0.000000 0.000001 0.000001 0.137897 0.000000
# 6 0.000000 0.000000 0.000000 0.000000 0.000000 0.046734
#
#
# Mechanical properties :
#
#
# Convention : Reuss Voigt Hill
#
# Bulk Modulus (GPa) = 54.31839 68.46938 61.39389
# Shear Modulus (GPa) = 15.71900 24.75916 20.23908
#
# Velocity S-wave (km/s) = 2.86732 3.59859 3.25357
# Velocity P-wave (km/s) = 6.27474 7.28547 6.79891
#
# Compressibility (1/GPa) = 0.01840997
#
# Stress axis : x y z
#
# Youngs Moduli (GPa) = 128.01453 122.00193 49.31379
#
# Poissons Ratio (x) = 0.23774 0.16815
# Poissons Ratio (y) = 0.24946 0.17654
# Poissons Ratio (z) = 0.43649 0.43675
#
# Static dielectric constant tensor:
#      x y z
#    x 1.687570 0.000000 0.000000 
#    y 0.000000 1.680980 0.000000 
#    z 0.000000 0.000000 1.683360 
# 
# From -- ./inp_files/7540.got.cif
#   From: 2010.05.17/outbox.cif.g08.bks.cpg/sg44_4_cif.got.tgz:7540.got - 2010.06.03 19:37:08.
