data_PCOD9374076
_publ_section_title
;
Structure prediction by ZEFSAII (Michael W. Deem and Ramdas Pophale) SiO2 
 PCOD9374076
Probable space group: I M M 2
;
_chemical_formula_sum "Si O2"
_cell_formula_units_Z 64
_cell_length_a 15.803216
_cell_length_b 8.732733
_cell_length_c 23.460897
_cell_angle_alpha 90.000000
_cell_angle_beta 90.000000
_cell_angle_gamma 90.000000
_cell_volume 3237.727328
_symmetry_space_group_name_H-M "I M M 2"
_symmetry_group_IT_number 44
_symmetry_cell_setting 'orthorhombic'
loop_
_space_group_symop_operation_xyz
x,y,z
-x,-y,z
-x,y,z
x,-y,z
1/2+x,1/2+y,1/2+z
1/2-x,1/2-y,1/2+z
1/2-x,1/2+y,1/2+z
1/2+x,1/2-y,1/2+z
loop_
_atom_site_type_symbol
_atom_site_label
_atom_site_fract_x
_atom_site_fract_y
_atom_site_fract_z
Si Si1 0.403506 0.817006 0.808540
Si Si2 0.773381 0.816942 0.216586
Si Si3 0.268708 0.315941 0.591393
Si Si4 0.649229 0.318515 0.928843
Si Si5 0.099046 0.332339 0.866267
Si Si6 0.091315 0.818206 0.555453
Si Si7 0.676140 0.318653 0.469706
Si Si8 0.900608 0.179808 0.751059
O O1 0.500000 0.783161 0.788917
O O2 0.332061 0.757858 0.764888
O O3 0.390862 0.739483 0.870374
O O4 0.395279 0.000000 0.814706
O O5 0.802070 0.768111 0.153031
O O6 0.674297 0.769878 0.219905
O O7 0.779455 0.000000 0.222126
O O8 0.268236 0.500000 0.590144
O O9 0.172734 0.260567 0.582064
O O10 0.319598 0.265102 0.535198
O O11 0.668224 0.500000 0.924406
O O12 0.733528 0.221891 0.941505
O O13 0.595811 0.298476 0.986850
O O14 0.139902 0.500000 0.857216
O O15 0.113510 0.271593 0.929213
O O16 0.123064 0.212444 0.817394
O O17 0.000000 0.349356 0.858191
O O18 0.000000 0.762593 0.576532
O O19 0.097037 0.000000 0.566589
O O20 0.660668 0.500000 0.467821
O O21 0.000000 0.224397 0.741068
O O22 0.894549 0.000000 0.738502
#
# Coordination Sequence:
#
# PCOD9374076 Si02
#       8
#     8   8   8   8   8   8   8   8
#     4  11  24  40  58  82 111 144 185 232 281 332
#     4  11  23  40  60  80 108 147 190 234 277 324
#     4   9  21  38  54  75 102 138 182 222 263 315
#     4  10  19  33  55  82 112 143 175 214 264 323
#     4  10  20  34  53  79 109 138 172 216 267 324
#     4   9  18  32  52  80 111 141 173 211 258 314
#     4  10  19  34  55  78 107 140 176 218 266 321
#     4  10  21  37  58  85 116 149 184 223 272 330
#
# _framework density 19.766950999999999
#
# number of rings (size 3 to 8) (size 9 to 14) (size 15 to 20)
#    0.000    2.000    0.000    3.375    0.000    5.750 
#    0.000    3.125    0.000    3.750    0.000    0.000 
#    0.000    0.000    0.000    0.000    0.000    0.000 
#
# Total GULP energy -178494.413412 kJ/mol
# GULP energy per Si atom -5577.950419 kJ/mol
# Density = 1.972196 g / cm^3
# Si number density = 19.766951 Si / 1000 Ang^3
#
#
#
# Elastic Constant Matrix: (Units=GPa)
#
#
# Indices 1 2 3 4 5 6 
#
# 1 30.1993 4.7454 11.0945 0.0000 0.0000 0.0000
# 2 4.7454 31.1807 7.2933 0.0000 0.0000 0.0000
# 3 11.0945 7.2933 85.1903 0.0000 0.0000 0.0000
# 4 0.0000 0.0000 0.0000 21.4021 0.0000 0.0000
# 5 0.0000 0.0000 0.0000 0.0000 9.4044 0.0000
# 6 0.0000 0.0000 0.0000 0.0000 0.0000 22.7282
#
#
#
# Elastic Compliance Matrix: (Units=1/GPa)
#
#
# Indices 1 2 3 4 5 6 
#
# 1 0.035357 -0.004392 -0.004229 0.000000 0.000000 0.000000
# 2 -0.004392 0.033272 -0.002277 0.000000 0.000000 0.000000
# 3 -0.004229 -0.002277 0.012484 0.000000 0.000000 0.000000
# 4 0.000000 0.000000 0.000000 0.046724 0.000000 0.000000
# 5 0.000000 0.000000 0.000000 0.000000 0.106334 0.000000
# 6 0.000000 0.000000 0.000000 0.000000 0.000000 0.043998
#
#
# Mechanical properties :
#
#
# Convention : Reuss Voigt Hill
#
# Bulk Modulus (GPa) = 16.85803 21.42630 19.14216
# Shear Modulus (GPa) = 15.63789 18.93607 17.28698
#
# Velocity S-wave (km/s) = 2.81572 3.09846 2.96047
# Velocity P-wave (km/s) = 4.37241 4.86452 4.62502
#
# Compressibility (1/GPa) = 0.05931892
#
# Stress axis : x y z
#
# Youngs Moduli (GPa) = 28.28295 30.05528 80.10242
#
# Poissons Ratio (x) = 0.13200 0.33872
# Poissons Ratio (y) = 0.12422 0.18235
# Poissons Ratio (z) = 0.11960 0.06842
#
# Static dielectric constant tensor:
#      x y z
#    x 1.741810 0.000000 0.000000 
#    y 0.000000 1.680740 0.000000 
#    z 0.000000 0.000000 1.718650 
# 
# From -- ./inp_files/25790.got.cif
#   From: 2010.05.17/outbox.cif.g08.bks.cpg/sg44_13_cif.got.tgz:25790.got - 2010.06.03 19:37:08.
