data_PCOD9374445
_publ_section_title
;
Structure prediction by ZEFSAII (Michael W. Deem and Ramdas Pophale) SiO2 
 PCOD9374445
Probable space group: I M M 2
;
_chemical_formula_sum "Si O2"
_cell_formula_units_Z 48
_cell_length_a 9.334730
_cell_length_b 7.612799
_cell_length_c 36.098778
_cell_angle_alpha 90.000000
_cell_angle_beta 90.000000
_cell_angle_gamma 90.000000
_cell_volume 2565.302738
_symmetry_space_group_name_H-M "I M M 2"
_symmetry_group_IT_number 44
_symmetry_cell_setting 'orthorhombic'
loop_
_space_group_symop_operation_xyz
x,y,z
-x,-y,z
-x,y,z
x,-y,z
1/2+x,1/2+y,1/2+z
1/2-x,1/2-y,1/2+z
1/2-x,1/2+y,1/2+z
1/2+x,1/2-y,1/2+z
loop_
_atom_site_type_symbol
_atom_site_label
_atom_site_fract_x
_atom_site_fract_y
_atom_site_fract_z
Si Si1 0.671448 0.293506 0.635490
Si Si2 0.161575 0.789805 0.281549
Si Si3 0.824899 0.500000 0.992887
Si Si4 0.335788 0.785509 0.210185
Si Si5 0.826078 0.500000 0.077440
Si Si6 0.162898 0.788705 0.854861
Si Si7 0.825362 0.201457 0.936551
O O1 0.500000 0.275064 0.641095
O O2 0.700346 0.500000 0.628663
O O3 0.752022 0.237458 0.672863
O O4 0.714798 0.171151 0.601221
O O5 0.254574 0.722999 0.246990
O O6 0.238510 0.757138 0.320468
O O7 0.000000 0.719924 0.281137
O O8 0.153359 0.000000 0.276959
O O9 0.774521 0.500000 0.035213
O O10 0.000000 0.500000 0.993488
O O11 0.780288 0.329728 0.969327
O O12 0.500000 0.726913 0.209642
O O13 0.336575 0.000000 0.211080
O O14 0.000000 0.500000 0.075808
O O15 0.215952 0.731489 0.895514
O O16 0.000000 0.723602 0.848782
O O17 0.155786 0.000000 0.857274
O O18 0.000000 0.199728 0.935827
O O19 0.778234 0.000000 0.941740
#
# Coordination Sequence:
#
# PCOD9374445 Si02
#       7
#     8   8   4   8   4   8   8
#     4   9  17  31  50  70  98 135 167 204 255 304
#     4  10  20  32  48  73 102 132 168 209 253 306
#     4   9  16  26  44  71 101 133 165 203 255 307
#     4   9  17  31  51  73  96 127 169 210 249 298
#     4   9  18  30  45  73 105 131 169 209 249 311
#     4   9  18  32  48  69  98 131 171 214 254 300
#     4   8  15  27  43  67  99 132 166 206 251 300
#
# _framework density 18.711241999999999
#
# number of rings (size 3 to 8) (size 9 to 14) (size 15 to 20)
#    0.000    3.000    0.000    2.000    1.167    4.000 
#    1.500    3.750    0.000    0.000    0.000    2.333 
#    0.000    2.667    0.000    0.000    0.000    0.000 
#
# Total GULP energy -133826.446483 kJ/mol
# GULP energy per Si atom -5576.101937 kJ/mol
# Density = 1.866865 g / cm^3
# Si number density = 18.711242 Si / 1000 Ang^3
#
#
#
# Elastic Constant Matrix: (Units=GPa)
#
#
# Indices 1 2 3 4 5 6 
#
# 1 63.3120 28.1642 70.3391 0.0000 0.0000 0.0000
# 2 28.1642 71.3998 66.5554 0.0000 0.0000 0.0000
# 3 70.3391 66.5554 217.6580 0.0000 0.0000 0.0000
# 4 0.0000 0.0000 0.0000 46.7275 0.0000 0.0000
# 5 0.0000 0.0000 0.0000 0.0000 18.9893 0.0000
# 6 0.0000 0.0000 0.0000 0.0000 0.0000 7.7016
#
#
#
# Elastic Compliance Matrix: (Units=1/GPa)
#
#
# Indices 1 2 3 4 5 6 
#
# 1 0.025181 -0.003283 -0.007134 0.000000 0.000000 0.000000
# 2 -0.003283 0.020017 -0.005060 0.000000 0.000000 0.000000
# 3 -0.007134 -0.005060 0.008447 0.000000 0.000000 0.000000
# 4 0.000000 0.000000 0.000000 0.021401 0.000000 0.000000
# 5 0.000000 0.000000 0.000000 0.000000 0.052661 0.000000
# 6 0.000000 0.000000 0.000000 0.000000 0.000000 0.129842
#
#
# Mechanical properties :
#
#
# Convention : Reuss Voigt Hill
#
# Bulk Modulus (GPa) = 44.06915 75.83191 59.95053
# Shear Modulus (GPa) = 16.88814 27.17111 22.02962
#
# Velocity S-wave (km/s) = 3.00753 3.81481 3.43497
# Velocity P-wave (km/s) = 5.97191 7.74720 6.91675
#
# Compressibility (1/GPa) = 0.02269161
#
# Stress axis : x y z
#
# Youngs Moduli (GPa) = 39.71321 49.95687 118.38714
#
# Poissons Ratio (x) = 0.16401 0.84452
# Poissons Ratio (y) = 0.13038 0.59903
# Poissons Ratio (z) = 0.28329 0.25278
#
# Static dielectric constant tensor:
#      x y z
#    x 1.634040 0.000000 0.000000 
#    y 0.000000 1.678130 0.000000 
#    z 0.000000 0.000000 1.630740 
# 
# From -- ./inp_files/26907.got.cif
#   From: 2010.05.17/outbox.cif.g08.bks.cpg/sg44_14_cif.got.tgz:26907.got - 2010.06.03 19:37:08.
