data_PCOD9374996
_publ_section_title
;
Structure prediction by ZEFSAII (Michael W. Deem and Ramdas Pophale) SiO2 
 PCOD9374996
Probable space group: I M M 2
;
_chemical_formula_sum "Si O2"
_cell_formula_units_Z 58
_cell_length_a 17.243383
_cell_length_b 17.518450
_cell_length_c 8.387790
_cell_angle_alpha 90.000000
_cell_angle_beta 90.000000
_cell_angle_gamma 90.000000
_cell_volume 2533.761316
_symmetry_space_group_name_H-M "I M M 2"
_symmetry_group_IT_number 44
_symmetry_cell_setting 'orthorhombic'
loop_
_space_group_symop_operation_xyz
x,y,z
-x,-y,z
-x,y,z
x,-y,z
1/2+x,1/2+y,1/2+z
1/2-x,1/2-y,1/2+z
1/2-x,1/2+y,1/2+z
1/2+x,1/2-y,1/2+z
loop_
_atom_site_type_symbol
_atom_site_label
_atom_site_fract_x
_atom_site_fract_y
_atom_site_fract_z
Si Si1 0.414720 0.592762 0.412190
Si Si2 0.701491 0.840114 0.124738
Si Si3 0.586143 0.138024 0.386524
Si Si4 0.411464 0.723758 0.963398
Si Si5 0.500000 0.000000 0.522597
Si Si6 0.657776 0.775108 0.649710
Si Si7 0.251618 0.589774 0.294859
Si Si8 0.592979 0.415983 0.783603
O O1 0.500000 0.620744 0.364833
O O2 0.416786 0.500000 0.407309
O O3 0.341699 0.615041 0.307036
O O4 0.400810 0.610142 0.599468
O O5 0.655464 0.881633 0.265743
O O6 0.778408 0.791766 0.164155
O O7 0.641210 0.774713 0.072851
O O8 0.719492 0.894206 0.974702
O O9 0.500000 0.149979 0.309072
O O10 0.614812 0.212241 0.482934
O O11 0.566430 0.067977 0.504601
O O12 0.500000 0.719771 0.014422
O O13 0.404730 0.763328 0.788710
O O14 0.379047 0.640127 0.920852
O O15 0.704629 0.853154 0.683504
O O16 0.246248 0.500000 0.258107
O O17 0.500000 0.420405 0.807116
O O18 0.627650 0.500000 0.795896
#
# Coordination Sequence:
#
# PCOD9374996 Si02
#       8
#     8   8   8   8   2   8   8   8
#     4   8  14  28  49  79 114 150 194 241 287 351
#     4  11  23  40  60  88 128 162 200 255 323 389
#     4  10  22  42  68  92 124 162 220 265 321 378
#     4  10  20  36  58  86 114 154 201 246 305 368
#     4   8  24  40  72  98 120 160 224 286 324 352
#     4  11  23  40  60  87 129 163 199 254 323 390
#     4  10  22  36  60  88 117 156 202 255 316 371
#     4   8  14  26  49  78 112 148 192 242 282 339
#
# _framework density 22.89087
#
# number of rings (size 3 to 8) (size 9 to 14) (size 15 to 20)
#    0.414    1.931    0.000    4.138    1.931    0.000 
#    0.000    5.517    3.034    4.138    0.000    0.000 
#    0.000    9.931    0.000    0.000    0.000    0.000 
#
# Total GULP energy -161562.826198 kJ/mol
# GULP energy per Si atom -5571.131938 kJ/mol
# Density = 2.283877 g / cm^3
# Si number density = 22.890870 Si / 1000 Ang^3
#
#
#
# Elastic Constant Matrix: (Units=GPa)
#
#
# Indices 1 2 3 4 5 6 
#
# 1 106.1612 26.7802 5.4461 0.0000 0.0000 0.0000
# 2 26.7802 64.0187 -7.2873 0.0000 0.0000 0.0000
# 3 5.4461 -7.2873 17.2480 0.0000 0.0000 0.0000
# 4 0.0000 0.0000 0.0000 21.2367 0.0000 0.0000
# 5 0.0000 0.0000 0.0000 0.0000 20.3117 0.0000
# 6 0.0000 0.0000 0.0000 0.0000 0.0000 32.3645
#
#
#
# Elastic Compliance Matrix: (Units=1/GPa)
#
#
# Indices 1 2 3 4 5 6 
#
# 1 0.011042 -0.005269 -0.005713 0.000000 0.000000 0.000000
# 2 -0.005269 0.018924 0.009659 0.000000 0.000000 0.000000
# 3 -0.005713 0.009659 0.063862 0.000000 0.000000 0.000000
# 4 0.000000 0.000000 0.000000 0.047088 0.000000 0.000000
# 5 0.000000 0.000000 0.000000 0.000000 0.049233 0.000000
# 6 0.000000 0.000000 0.000000 0.000000 0.000000 0.030898
#
#
# Mechanical properties :
#
#
# Convention : Reuss Voigt Hill
#
# Bulk Modulus (GPa) = 10.96697 26.36734 18.66716
# Shear Modulus (GPa) = 19.67823 25.61517 22.64670
#
# Velocity S-wave (km/s) = 2.93517 3.34879 3.14878
# Velocity P-wave (km/s) = 4.03588 5.14745 4.62518
#
# Compressibility (1/GPa) = 0.09118287
#
# Stress axis : x y z
#
# Youngs Moduli (GPa) = 90.56372 52.84238 15.65864
#
# Poissons Ratio (x) = 0.27844 0.08945
# Poissons Ratio (y) = 0.47721 -0.15125
# Poissons Ratio (z) = 0.51737 -0.51042
#
# Static dielectric constant tensor:
#      x y z
#    x 1.865860 0.000000 0.000000 
#    y 0.000000 1.882030 0.000000 
#    z 0.000000 0.000000 1.880210 
# 
# From -- ./inp_files/8325.got.cif
#   From: 2010.05.17/outbox.cif.g08.bks.cpg/sg44_5_cif.got.tgz:8325.got - 2010.06.03 19:37:08.
