data_PCOD9374551
_publ_section_title
;
Structure prediction by ZEFSAII (Michael W. Deem and Ramdas Pophale) SiO2 
 PCOD9374551
Probable space group: I M M 2
;
_chemical_formula_sum "Si O2"
_cell_formula_units_Z 56
_cell_length_a 8.194681
_cell_length_b 16.193122
_cell_length_c 20.791778
_cell_angle_alpha 90.000000
_cell_angle_beta 90.000000
_cell_angle_gamma 90.000000
_cell_volume 2759.016320
_symmetry_space_group_name_H-M "I M M 2"
_symmetry_group_IT_number 44
_symmetry_cell_setting 'orthorhombic'
loop_
_space_group_symop_operation_xyz
x,y,z
-x,-y,z
-x,y,z
x,-y,z
1/2+x,1/2+y,1/2+z
1/2-x,1/2-y,1/2+z
1/2-x,1/2+y,1/2+z
1/2+x,1/2-y,1/2+z
loop_
_atom_site_type_symbol
_atom_site_label
_atom_site_fract_x
_atom_site_fract_y
_atom_site_fract_z
Si Si1 0.803505 0.587168 0.923970
Si Si2 0.695854 0.095875 0.953765
Si Si3 0.801926 0.242906 0.858324
Si Si4 0.684300 0.378608 0.061738
Si Si5 0.185626 0.410243 0.191447
Si Si6 0.312482 0.765132 0.214319
Si Si7 0.192201 0.197680 0.076181
O O1 0.763409 0.500000 0.889698
O O2 0.752835 0.674525 0.895555
O O3 0.000000 0.590570 0.929497
O O4 0.724367 0.585735 0.993325
O O5 0.500000 0.096757 0.956424
O O6 0.746702 0.160958 0.897313
O O7 0.748091 0.000000 0.942496
O O8 0.760556 0.128708 0.023388
O O9 0.741653 0.264924 0.786249
O O10 0.000000 0.237441 0.854835
O O11 0.500000 0.398294 0.081190
O O12 0.808741 0.411751 0.114447
O O13 0.708395 0.279925 0.058014
O O14 0.235140 0.500000 0.216963
O O15 0.302074 0.333587 0.203542
O O16 0.000000 0.392982 0.212929
O O17 0.500000 0.793151 0.215218
O O18 0.228534 0.810204 0.153194
O O19 0.000000 0.214042 0.069088
#
# Coordination Sequence:
#
# PCOD9374551 Si02
#       7
#     8   8   8   8   8   8   8
#     4  10  20  35  56  82 113 150 190 233 288 354
#     4  11  24  41  64  94 126 164 210 262 318 373
#     4  10  22  40  61  87 121 162 204 250 307 372
#     4  11  20  31  52  82 114 146 182 230 288 342
#     4  10  20  33  50  75 108 147 190 234 288 354
#     4  10  21  37  58  83 115 157 204 251 307 365
#     4  11  21  37  61  87 117 156 201 248 304 361
#
# _framework density 20.297089
#
# number of rings (size 3 to 8) (size 9 to 14) (size 15 to 20)
#    0.000    1.571    1.429    6.000    0.000    6.000 
#    0.000    3.571    0.000    2.571    0.000    0.000 
#    0.000    0.000    0.000    0.000    0.000    0.000 
#
# Total GULP energy -155970.526329 kJ/mol
# GULP energy per Si atom -5570.375940 kJ/mol
# Density = 2.025089 g / cm^3
# Si number density = 20.297089 Si / 1000 Ang^3
#
#
#
# Elastic Constant Matrix: (Units=GPa)
#
#
# Indices 1 2 3 4 5 6 
#
# 1 32.1681 11.3210 9.1571 0.0000 0.0000 0.0000
# 2 11.3210 97.1430 24.9129 0.0000 0.0000 0.0000
# 3 9.1571 24.9129 96.0964 0.0000 0.0000 0.0000
# 4 0.0000 0.0000 0.0000 -9.8868 0.0000 0.0000
# 5 0.0000 0.0000 0.0000 0.0000 19.9407 0.0000
# 6 0.0000 0.0000 0.0000 0.0000 0.0000 14.9772
#
#
#
# Elastic Compliance Matrix: (Units=1/GPa)
#
#
# Indices 1 2 3 4 5 6 
#
# 1 0.032881 -0.003244 -0.002292 0.000000 0.000000 0.000000
# 2 -0.003244 0.011347 -0.002633 0.000000 0.000000 0.000000
# 3 -0.002292 -0.002633 0.011307 0.000000 0.000000 0.000000
# 4 0.000000 0.000000 0.000000 -0.101144 0.000000 0.000000
# 5 0.000000 0.000000 0.000000 0.000000 0.050149 0.000000
# 6 0.000000 0.000000 0.000000 0.000000 0.000000 0.066768
#
#
# Mechanical properties :
#
#
# Convention : Reuss Voigt Hill
#
# Bulk Modulus (GPa) = 25.51182 35.13215 30.32199
# Shear Modulus (GPa) = 49.64679 17.00732 33.32705
#
# Velocity S-wave (km/s) = 4.95108 2.89782 4.05651
# Velocity P-wave (km/s) = 6.72909 5.34257 6.07551
#
# Compressibility (1/GPa) = 0.03919751
#
# Stress axis : x y z
#
# Youngs Moduli (GPa) = 30.41280 88.12657 88.43955
#
# Poissons Ratio (x) = 0.28589 0.20272
# Poissons Ratio (y) = 0.09866 0.23283
# Poissons Ratio (z) = 0.06971 0.23201
#
# Static dielectric constant tensor:
#      x y z
#    x 1.698700 0.000000 0.000000 
#    y 0.000000 1.787820 0.000000 
#    z 0.000000 0.000000 1.805150 
# 
# From -- ./inp_files/23046.got.cif
#   From: 2010.05.17/outbox.cif.g08.bks.cpg/sg44_12_cif.got.tgz:23046.got - 2010.06.03 19:37:08.
