data_PCOD9374294
_publ_section_title
;
Structure prediction by ZEFSAII (Michael W. Deem and Ramdas Pophale) SiO2 
 PCOD9374294
Probable space group: I M M 2
;
_chemical_formula_sum "Si O2"
_cell_formula_units_Z 64
_cell_length_a 8.081685
_cell_length_b 29.522804
_cell_length_c 12.897033
_cell_angle_alpha 90.000000
_cell_angle_beta 90.000000
_cell_angle_gamma 90.000000
_cell_volume 3077.154721
_symmetry_space_group_name_H-M "I M M 2"
_symmetry_group_IT_number 44
_symmetry_cell_setting 'orthorhombic'
loop_
_space_group_symop_operation_xyz
x,y,z
-x,-y,z
-x,y,z
x,-y,z
1/2+x,1/2+y,1/2+z
1/2-x,1/2-y,1/2+z
1/2-x,1/2+y,1/2+z
1/2+x,1/2-y,1/2+z
loop_
_atom_site_type_symbol
_atom_site_label
_atom_site_fract_x
_atom_site_fract_y
_atom_site_fract_z
Si Si1 0.685952 0.430116 0.526650
Si Si2 0.699488 0.906333 0.248319
Si Si3 0.197628 0.695194 0.697812
Si Si4 0.808528 0.334473 0.474428
Si Si5 0.700356 0.120847 0.650052
Si Si6 0.202081 0.447885 0.967239
Si Si7 0.805537 0.452446 0.308569
Si Si8 0.697735 0.707067 0.259840
O O1 0.500000 0.446983 0.522465
O O2 0.752057 0.432582 0.643335
O O3 0.694213 0.377176 0.496851
O O4 0.785902 0.450948 0.431679
O O5 0.500000 0.904663 0.250623
O O6 0.760017 0.853907 0.237400
O O7 0.755058 0.930854 0.353247
O O8 0.216715 0.697340 0.573543
O O9 0.263151 0.742020 0.743038
O O10 0.000000 0.694335 0.718327
O O11 0.774975 0.312414 0.364877
O O12 0.000000 0.350742 0.478301
O O13 0.500000 0.123868 0.648865
O O14 0.751329 0.089967 0.552064
O O15 0.759386 0.091592 0.750030
O O16 0.763693 0.171686 0.667308
O O17 0.255057 0.500000 0.987454
O O18 0.000000 0.448593 0.968969
O O19 0.732636 0.500000 0.269831
O O20 0.000000 0.452907 0.283951
O O21 0.500000 0.708782 0.271541
#
# Coordination Sequence:
#
# PCOD9374294 Si02
#       8
#     8   8   8   8   8   8   8   8
#     4  11  21  34  54  81 111 143 181 232 287 338
#     4   9  18  36  59  80 111 152 191 234 284 342
#     4   8  18  34  52  76 108 148 188 228 281 339
#     4  10  19  36  57  76 105 146 187 230 281 340
#     4  10  20  35  56  82 113 148 189 235 282 338
#     4   9  18  34  59  88 113 144 192 244 286 334
#     4  10  20  34  54  79 109 146 185 226 277 338
#     4  11  21  34  54  82 114 148 188 236 290 345
#
# _framework density 20.798434
#
# number of rings (size 3 to 8) (size 9 to 14) (size 15 to 20)
#    0.000    2.250    1.250    3.000    0.000    3.250 
#    0.000    9.375    0.000    1.875    0.000    0.000 
#    0.000    0.000    0.000    0.000    0.000    0.000 
#
# Total GULP energy -178441.083382 kJ/mol
# GULP energy per Si atom -5576.283856 kJ/mol
# Density = 2.075110 g / cm^3
# Si number density = 20.798434 Si / 1000 Ang^3
#
#
#
# Elastic Constant Matrix: (Units=GPa)
#
#
# Indices 1 2 3 4 5 6 
#
# 1 23.7938 4.3240 3.1840 -0.0050 0.0000 0.0000
# 2 4.3240 69.5067 14.4543 -0.0200 -0.0001 0.0000
# 3 3.1840 14.4543 89.4169 -0.0175 0.0001 0.0000
# 4 -0.0050 -0.0200 -0.0175-1082.1765 -0.0032 -0.0003
# 5 0.0000 -0.0001 0.0001 -0.0032 4.6637 0.0000
# 6 0.0000 0.0000 0.0000 -0.0003 0.0000 7.7550
#
#
#
# Elastic Compliance Matrix: (Units=1/GPa)
#
#
# Indices 1 2 3 4 5 6 
#
# 1 0.042618 -0.002417 -0.001127 0.000000 0.000000 0.000000
# 2 -0.002417 0.015025 -0.002343 0.000000 0.000000 0.000000
# 3 -0.001127 -0.002343 0.011602 0.000000 0.000000 0.000000
# 4 0.000000 0.000000 0.000000 -0.000924 -0.000001 0.000000
# 5 0.000000 0.000000 0.000000 -0.000001 0.214422 0.000001
# 6 0.000000 0.000000 0.000000 0.000000 0.000001 0.128949
#
#
# Mechanical properties :
#
#
# Convention : Reuss Voigt Hill
#
# Bulk Modulus (GPa) = 17.39982 25.18244 21.29113
# Shear Modulus (GPa) = 11.29632 -203.23456 -95.96912
#
# Velocity S-wave (km/s) = 2.33305 -9.89588 -6.80019
# Velocity P-wave (km/s) = 3.95494 10.88288 7.16922
#
# Compressibility (1/GPa) = 0.05747187
#
# Stress axis : x y z
#
# Youngs Moduli (GPa) = 23.46440 66.55740 86.18914
#
# Poissons Ratio (x) = 0.16086 0.09712
# Poissons Ratio (y) = 0.05671 0.20191
# Poissons Ratio (z) = 0.02644 0.15592
#
# Static dielectric constant tensor:
#      x y z
#    x 1.758390 0.000000 0.000000 
#    y 0.000000 3.082880 0.000000 
#    z 0.000000 0.000000 1.740070 
# 
# From -- ./inp_files/11530.got.cif
#   From: 2010.05.17/outbox.cif.g08.bks.cpg/sg44_6_cif.got.tgz:11530.got - 2010.06.03 19:37:08.
