data_PCOD9374117
_publ_section_title
;
Structure prediction by ZEFSAII (Michael W. Deem and Ramdas Pophale) SiO2 
 PCOD9374117
Probable space group: I M M 2
;
_chemical_formula_sum "Si O2"
_cell_formula_units_Z 40
_cell_length_a 7.430068
_cell_length_b 11.986561
_cell_length_c 20.973461
_cell_angle_alpha 90.000000
_cell_angle_beta 90.000000
_cell_angle_gamma 90.000000
_cell_volume 1867.916641
_symmetry_space_group_name_H-M "I M M 2"
_symmetry_group_IT_number 44
_symmetry_cell_setting 'orthorhombic'
loop_
_space_group_symop_operation_xyz
x,y,z
-x,-y,z
-x,y,z
x,-y,z
1/2+x,1/2+y,1/2+z
1/2-x,1/2-y,1/2+z
1/2-x,1/2+y,1/2+z
1/2+x,1/2-y,1/2+z
loop_
_atom_site_type_symbol
_atom_site_label
_atom_site_fract_x
_atom_site_fract_y
_atom_site_fract_z
Si Si1 0.283057 0.373173 0.330540
Si Si2 0.779151 0.628569 0.075449
Si Si3 0.216927 0.000000 0.377740
Si Si4 0.713906 0.256833 0.699886
Si Si5 0.280160 0.500000 0.729206
Si Si6 0.792748 0.730067 0.946731
O O1 0.500000 0.375313 0.334664
O O2 0.219474 0.500000 0.322335
O O3 0.240769 0.298763 0.268874
O O4 0.213678 0.316628 0.395716
O O5 0.722643 0.500000 0.067457
O O6 0.718794 0.679098 0.142775
O O7 0.000000 0.627275 0.073870
O O8 0.716351 0.705163 0.016612
O O9 0.287030 0.889505 0.411726
O O10 0.268696 0.000000 0.303778
O O11 0.000000 0.000000 0.381687
O O12 0.500000 0.264445 0.690428
O O13 0.783299 0.383591 0.699551
O O14 0.500000 0.500000 0.726931
O O15 0.000000 0.764131 0.956738
#
# Coordination Sequence:
#
# PCOD9374117 Si02
#       6
#     8   8   4   8   4   8
#     4  10  21  35  51  75 105 134 169 212 256 305
#     4   9  17  30  51  76  99 128 172 213 244 296
#     4  11  19  31  53  81 105 126 165 218 258 299
#     4  10  19  34  54  76 102 135 170 210 257 302
#     4   9  18  31  49  77 107 126 161 214 254 297
#     4  10  19  34  54  75 103 137 170 208 255 308
#
# _framework density 21.41423
#
# number of rings (size 3 to 8) (size 9 to 14) (size 15 to 20)
#    0.000    2.200    3.000    0.900    0.000    1.200 
#    1.800    1.500    0.000    0.000    0.000    0.000 
#    0.000    0.000    0.000    0.000    0.000    0.000 
#
# Total GULP energy -111681.216602 kJ/mol
# GULP energy per Si atom -5584.060830 kJ/mol
# Density = 2.136549 g / cm^3
# Si number density = 21.414230 Si / 1000 Ang^3
#
#
#
# Elastic Constant Matrix: (Units=GPa)
#
#
# Indices 1 2 3 4 5 6 
#
# 1 68.5059 -5.0284 1.4636 0.0000 0.0000 0.0000
# 2 -5.0284 141.5127 63.5777 0.0000 0.0000 0.0000
# 3 1.4636 63.5777 152.8806 0.0000 0.0000 0.0000
# 4 0.0000 0.0000 0.0000 38.5965 0.0000 0.0000
# 5 0.0000 0.0000 0.0000 0.0000 11.5259 0.0000
# 6 0.0000 0.0000 0.0000 0.0000 0.0000 2.8322
#
#
#
# Elastic Compliance Matrix: (Units=1/GPa)
#
#
# Indices 1 2 3 4 5 6 
#
# 1 0.014659 0.000718 -0.000439 0.000000 0.000000 0.000000
# 2 0.000718 0.008725 -0.003635 0.000000 0.000000 0.000000
# 3 -0.000439 -0.003635 0.008057 0.000000 0.000000 0.000000
# 4 0.000000 0.000000 0.000000 0.025909 0.000000 0.000000
# 5 0.000000 0.000000 0.000000 0.000000 0.086761 0.000000
# 6 0.000000 0.000000 0.000000 0.000000 0.000000 0.353078
#
#
# Mechanical properties :
#
#
# Convention : Reuss Voigt Hill
#
# Bulk Modulus (GPa) = 40.43799 53.65831 47.04815
# Shear Modulus (GPa) = 9.76286 30.78334 20.27310
#
# Velocity S-wave (km/s) = 2.13751 3.79557 3.08021
# Velocity P-wave (km/s) = 5.00166 6.65734 5.88799
#
# Compressibility (1/GPa) = 0.02472922
#
# Stress axis : x y z
#
# Youngs Moduli (GPa) = 68.21573 114.60904 124.11410
#
# Poissons Ratio (x) = -0.08230 0.05448
# Poissons Ratio (y) = -0.04899 0.45121
# Poissons Ratio (z) = 0.02995 0.41665
#
# Static dielectric constant tensor:
#      x y z
#    x 1.828720 0.000000 0.000000 
#    y 0.000000 1.740650 0.000000 
#    z 0.000000 0.000000 1.749500 
# 
# From -- ./inp_files/22759.got.cif
#   From: 2010.05.17/outbox.cif.g08.bks.cpg/sg44_12_cif.got.tgz:22759.got - 2010.06.03 19:37:08.
