data_PCOD9374295
_publ_section_title
;
Structure prediction by ZEFSAII (Michael W. Deem and Ramdas Pophale) SiO2 
 PCOD9374295
Probable space group: I M M 2
;
_chemical_formula_sum "Si O2"
_cell_formula_units_Z 56
_cell_length_a 21.519550
_cell_length_b 14.610433
_cell_length_c 9.957091
_cell_angle_alpha 90.000000
_cell_angle_beta 90.000000
_cell_angle_gamma 90.000000
_cell_volume 3130.608418
_symmetry_space_group_name_H-M "I M M 2"
_symmetry_group_IT_number 44
_symmetry_cell_setting 'orthorhombic'
loop_
_space_group_symop_operation_xyz
x,y,z
-x,-y,z
-x,y,z
x,-y,z
1/2+x,1/2+y,1/2+z
1/2-x,1/2-y,1/2+z
1/2-x,1/2+y,1/2+z
1/2+x,1/2-y,1/2+z
loop_
_atom_site_type_symbol
_atom_site_label
_atom_site_fract_x
_atom_site_fract_y
_atom_site_fract_z
Si Si1 0.149520 0.187918 0.287150
Si Si2 0.734676 0.900464 0.180921
Si Si3 0.246906 0.201065 0.669126
Si Si4 0.166487 0.395667 0.963020
Si Si5 0.628230 0.607038 0.299043
Si Si6 0.073745 0.766456 0.029361
Si Si7 0.070757 0.892636 0.512646
O O1 0.195129 0.106212 0.239236
O O2 0.196812 0.273066 0.270809
O O3 0.096114 0.203839 0.177259
O O4 0.119600 0.166489 0.429081
O O5 0.728692 0.801691 0.109562
O O6 0.688756 0.893566 0.308692
O O7 0.725712 0.000000 0.114851
O O8 0.275523 0.138873 0.552812
O O9 0.191574 0.154705 0.749466
O O10 0.151134 0.500000 0.997952
O O11 0.110320 0.326560 0.991318
O O12 0.638582 0.500000 0.326571
O O13 0.599431 0.658260 0.425490
O O14 0.582841 0.615466 0.170917
O O15 0.000000 0.757345 0.020677
O O16 0.000000 0.867235 0.480457
O O17 0.079572 0.000000 0.477885
#
# Coordination Sequence:
#
# PCOD9374295 Si02
#       7
#     8   8   8   8   8   8   8
#     4   9  19  33  54  77 108 137 180 224 272 318
#     4   9  17  31  54  79 105 136 174 222 274 318
#     4   9  19  32  54  80 106 137 179 220 279 326
#     4  10  19  36  57  80 108 142 183 230 274 326
#     4  11  22  36  53  78 113 148 180 224 279 331
#     4  11  22  37  53  80 114 147 182 223 273 329
#     4  10  20  34  53  76 102 143 189 217 254 322
#
# _framework density 17.887898
#
# number of rings (size 3 to 8) (size 9 to 14) (size 15 to 20)
#    0.857    1.286    1.429    2.571    0.000    4.571 
#    0.000    0.000    0.000    0.000    0.000    4.000 
#    0.000   12.857    0.000    0.000    0.000    0.000 
#
# Total GULP energy -156024.590224 kJ/mol
# GULP energy per Si atom -5572.306794 kJ/mol
# Density = 1.784718 g / cm^3
# Si number density = 17.887898 Si / 1000 Ang^3
#
#
#
# Elastic Constant Matrix: (Units=GPa)
#
#
# Indices 1 2 3 4 5 6 
#
# 1 94.8155 26.7732 10.8870 0.0000 0.0000 0.0000
# 2 26.7732 111.3805 21.9436 0.0000 0.0000 0.0000
# 3 10.8870 21.9436 36.0513 0.0000 0.0000 0.0000
# 4 0.0000 0.0000 0.0000 21.6711 0.0000 0.0000
# 5 0.0000 0.0000 0.0000 0.0000 15.9364 0.0000
# 6 0.0000 0.0000 0.0000 0.0000 0.0000 9.6816
#
#
#
# Elastic Compliance Matrix: (Units=1/GPa)
#
#
# Indices 1 2 3 4 5 6 
#
# 1 0.011443 -0.002352 -0.002024 0.000000 0.000000 0.000000
# 2 -0.002352 0.010685 -0.005793 0.000000 0.000000 0.000000
# 3 -0.002024 -0.005793 0.031876 0.000000 0.000000 0.000000
# 4 0.000000 0.000000 0.000000 0.046144 0.000000 0.000000
# 5 0.000000 0.000000 0.000000 0.000000 0.062750 0.000000
# 6 0.000000 0.000000 0.000000 0.000000 0.000000 0.103289
#
#
# Mechanical properties :
#
#
# Convention : Reuss Voigt Hill
#
# Bulk Modulus (GPa) = 29.70436 40.16166 34.93301
# Shear Modulus (GPa) = 16.79275 21.63406 19.21341
#
# Velocity S-wave (km/s) = 3.06727 3.48145 3.28090
# Velocity P-wave (km/s) = 5.40242 6.21782 5.82440
#
# Compressibility (1/GPa) = 0.03366509
#
# Stress axis : x y z
#
# Youngs Moduli (GPa) = 87.38715 93.58943 31.37171
#
# Poissons Ratio (x) = 0.22011 0.06350
# Poissons Ratio (y) = 0.20553 0.18175
# Poissons Ratio (z) = 0.17689 0.54220
#
# Static dielectric constant tensor:
#      x y z
#    x 1.602160 0.000000 0.000000 
#    y 0.000000 1.626030 0.000000 
#    z 0.000000 0.000000 1.617180 
# 
# From -- ./inp_files/8921.got.cif
#   From: 2010.05.17/outbox.cif.g08.bks.cpg/sg44_5_cif.got.tgz:8921.got - 2010.06.03 19:37:08.
