data_PCOD9374516
_publ_section_title
;
Structure prediction by ZEFSAII (Michael W. Deem and Ramdas Pophale) SiO2 
 PCOD9374516
Probable space group: I M M 2
;
_chemical_formula_sum "Si O2"
_cell_formula_units_Z 64
_cell_length_a 7.779492
_cell_length_b 20.741321
_cell_length_c 20.722459
_cell_angle_alpha 90.000000
_cell_angle_beta 90.000000
_cell_angle_gamma 90.000000
_cell_volume 3343.712590
_symmetry_space_group_name_H-M "I M M 2"
_symmetry_group_IT_number 44
_symmetry_cell_setting 'orthorhombic'
loop_
_space_group_symop_operation_xyz
x,y,z
-x,-y,z
-x,y,z
x,-y,z
1/2+x,1/2+y,1/2+z
1/2-x,1/2-y,1/2+z
1/2-x,1/2+y,1/2+z
1/2+x,1/2-y,1/2+z
loop_
_atom_site_type_symbol
_atom_site_label
_atom_site_fract_x
_atom_site_fract_y
_atom_site_fract_z
Si Si1 0.289894 0.073681 0.686540
Si Si2 0.292049 0.822047 0.288684
Si Si3 0.204979 0.072986 0.038808
Si Si4 0.706611 0.073147 0.185972
Si Si5 0.710161 0.926165 0.540126
Si Si6 0.796440 0.318264 0.436274
Si Si7 0.706186 0.824258 0.790693
Si Si8 0.296712 0.174155 0.434998
O O1 0.500000 0.074841 0.686806
O O2 0.236092 0.089527 0.613349
O O3 0.227003 0.124046 0.739525
O O4 0.238988 0.000000 0.700728
O O5 0.500000 0.825352 0.290034
O O6 0.228888 0.875013 0.237766
O O7 0.244775 0.749018 0.270650
O O8 0.227377 0.832767 0.362027
O O9 0.253983 0.091069 0.112026
O O10 0.000000 0.070354 0.035693
O O11 0.272459 0.000000 0.026817
O O12 0.263021 0.125212 0.986808
O O13 0.500000 0.071088 0.192168
O O14 0.771813 0.000000 0.196629
O O15 0.500000 0.924669 0.540127
O O16 0.774071 0.875718 0.487237
O O17 0.759947 0.000000 0.525834
O O18 0.728490 0.333377 0.364058
O O19 0.724862 0.248401 0.455786
O O20 0.000000 0.309708 0.430817
O O21 0.500000 0.831868 0.792599
O O22 0.500000 0.161248 0.430547
#
# Coordination Sequence:
#
# PCOD9374516 Si02
#       8
#     8   8   8   8   8   8   8   8
#     4   8  14  26  44  67  93 117 147 190 232 269
#     4   9  18  31  47  69  98 129 159 196 238 277
#     4  10  21  36  53  73  96 123 158 202 251 301
#     4   9  18  33  51  71  97 129 164 201 243 292
#     4   8  14  25  44  71  98 122 153 195 237 275
#     4  10  20  33  49  70  97 128 162 200 241 288
#     4   9  18  31  48  70  95 126 162 197 234 280
#     4   9  17  30  48  71 100 131 163 199 238 282
#
# _framework density 19.140401000000001
#
# number of rings (size 3 to 8) (size 9 to 14) (size 15 to 20)
#    0.000    3.000    0.000    1.500    0.000    3.750 
#    0.000    5.000    0.000    0.750    0.000    5.250 
#    0.000    0.000    0.000    0.000    0.000    0.000 
#
# Total GULP energy -178412.861886 kJ/mol
# GULP energy per Si atom -5575.401934 kJ/mol
# Density = 1.909684 g / cm^3
# Si number density = 19.140401 Si / 1000 Ang^3
#
#
#
# Elastic Constant Matrix: (Units=GPa)
#
#
# Indices 1 2 3 4 5 6 
#
# 1 20.7019 -6.6655 -1.5668 0.0000 0.0000 0.0000
# 2 -6.6655 148.2685 132.5619 0.0000 0.0000 0.0000
# 3 -1.5668 132.5619 142.1632 0.0000 0.0000 0.0000
# 4 0.0000 0.0000 0.0000 46.5439 0.0000 0.0000
# 5 0.0000 0.0000 0.0000 0.0000 8.3898 0.0000
# 6 0.0000 0.0000 0.0000 0.0000 0.0000 16.7754
#
#
#
# Elastic Compliance Matrix: (Units=1/GPa)
#
#
# Indices 1 2 3 4 5 6 
#
# 1 0.051056 0.010776 -0.009485 0.000000 0.000000 0.000000
# 2 0.010776 0.042827 -0.039815 0.000000 0.000000 0.000000
# 3 -0.009485 -0.039815 0.044056 0.000000 0.000000 0.000000
# 4 0.000000 0.000000 0.000000 0.021485 0.000000 0.000000
# 5 0.000000 0.000000 0.000000 0.000000 0.119192 0.000000
# 6 0.000000 0.000000 0.000000 0.000000 0.000000 0.059611
#
#
# Mechanical properties :
#
#
# Convention : Reuss Voigt Hill
#
# Bulk Modulus (GPa) = 16.42335 62.19921 39.31128
# Shear Modulus (GPa) = 11.47913 26.79543 19.13728
#
# Velocity S-wave (km/s) = 2.45160 3.74564 3.16545
# Velocity P-wave (km/s) = 4.07589 7.16053 5.82607
#
# Compressibility (1/GPa) = 0.06088891
#
# Stress axis : x y z
#
# Youngs Moduli (GPa) = 19.58624 23.34998 22.69836
#
# Poissons Ratio (x) = -0.25161 0.21530
# Poissons Ratio (y) = -0.21105 0.90375
# Poissons Ratio (z) = 0.18578 0.92969
#
# Static dielectric constant tensor:
#      x y z
#    x 1.709940 0.000000 0.000000 
#    y 0.000000 1.621390 0.000000 
#    z 0.000000 0.000000 1.664280 
# 
# From -- ./inp_files/20755.got.cif
#   From: 2010.05.17/outbox.cif.g08.bks.cpg/sg44_11_cif.got.tgz:20755.got - 2010.06.03 19:37:08.
