data_PCOD9374979
_publ_section_title
;
Structure prediction by ZEFSAII (Michael W. Deem and Ramdas Pophale) SiO2 
 PCOD9374979
Probable space group: I M M 2
;
_chemical_formula_sum "Si O2"
_cell_formula_units_Z 56
_cell_length_a 7.669094
_cell_length_b 23.475222
_cell_length_c 15.499163
_cell_angle_alpha 90.000000
_cell_angle_beta 90.000000
_cell_angle_gamma 90.000000
_cell_volume 2790.371417
_symmetry_space_group_name_H-M "I M M 2"
_symmetry_group_IT_number 44
_symmetry_cell_setting 'orthorhombic'
loop_
_space_group_symop_operation_xyz
x,y,z
-x,-y,z
-x,y,z
x,-y,z
1/2+x,1/2+y,1/2+z
1/2-x,1/2-y,1/2+z
1/2-x,1/2+y,1/2+z
1/2+x,1/2-y,1/2+z
loop_
_atom_site_type_symbol
_atom_site_label
_atom_site_fract_x
_atom_site_fract_y
_atom_site_fract_z
Si Si1 0.000000 0.931625 0.878561
Si Si2 0.201742 0.185818 0.265721
Si Si3 0.790737 0.434125 0.046766
Si Si4 0.701463 0.897198 0.007818
Si Si5 0.789488 0.437465 0.697503
Si Si6 0.213737 0.774997 0.082549
Si Si7 0.000000 0.931363 0.683847
Si Si8 0.704886 0.176918 0.458284
O O1 0.000000 0.908777 0.780870
O O2 0.169361 0.912042 0.931186
O O3 0.000000 0.000000 0.876741
O O4 0.220810 0.118377 0.245321
O O5 0.274897 0.218430 0.181747
O O6 0.272330 0.196983 0.360633
O O7 0.000000 0.200476 0.269628
O O8 0.752551 0.500000 0.023948
O O9 0.673706 0.417671 0.129345
O O10 0.000000 0.431049 0.063272
O O11 0.738702 0.388190 0.974194
O O12 0.500000 0.910320 0.988377
O O13 0.752681 0.930075 0.096026
O O14 0.722320 0.831114 0.033006
O O15 0.731283 0.500000 0.727609
O O16 0.000000 0.435209 0.704640
O O17 0.000000 0.776840 0.082944
O O18 0.276949 0.720087 0.030001
O O19 0.000000 0.000000 0.690440
O O20 0.500000 0.176237 0.474586
#
# Coordination Sequence:
#
# PCOD9374979 Si02
#       8
#     4   8   8   8   8   8   4   8
#     4  11  22  36  58  87 121 157 200 253 300 348
#     4  10  21  35  55  84 116 148 190 241 290 346
#     4   9  19  38  62  86 116 154 192 241 301 354
#     4  10  20  36  57  83 118 159 201 245 296 352
#     4   9  18  33  54  80 113 152 192 233 287 355
#     4   9  19  40  59  78 117 159 195 244 297 347
#     4   9  20  38  58  83 117 153 195 247 296 350
#     4  10  21  38  61  86 115 154 196 240 293 355
#
# _framework density 20.069013000000002
#
# number of rings (size 3 to 8) (size 9 to 14) (size 15 to 20)
#    0.000    2.429    0.714    0.857    2.000    3.429 
#    2.571    2.857    0.000    0.000    0.000    0.000 
#    0.000    0.000    0.000    0.000    0.000    0.000 
#
# Total GULP energy -156154.517833 kJ/mol
# GULP energy per Si atom -5576.947065 kJ/mol
# Density = 2.002334 g / cm^3
# Si number density = 20.069013 Si / 1000 Ang^3
#
#
#
# Elastic Constant Matrix: (Units=GPa)
#
#
# Indices 1 2 3 4 5 6 
#
# 1 45.0292 7.0247 14.3610 0.0000 0.0000 0.0000
# 2 7.0247 90.7909 54.4061 0.0000 0.0000 0.0000
# 3 14.3610 54.4061 119.1175 0.0000 0.0000 0.0000
# 4 0.0000 0.0000 0.0000 17.2871 0.0000 0.0000
# 5 0.0000 0.0000 0.0000 0.0000 24.9053 0.0000
# 6 0.0000 0.0000 0.0000 0.0000 0.0000 10.6555
#
#
#
# Elastic Compliance Matrix: (Units=1/GPa)
#
#
# Indices 1 2 3 4 5 6 
#
# 1 0.023098 -0.000163 -0.002710 0.000000 0.000000 0.000000
# 2 -0.000163 0.015166 -0.006907 0.000000 0.000000 0.000000
# 3 -0.002710 -0.006907 0.011877 0.000000 0.000000 0.000000
# 4 0.000000 0.000000 0.000000 0.057847 0.000000 0.000000
# 5 0.000000 0.000000 0.000000 0.000000 0.040152 0.000000
# 6 0.000000 0.000000 0.000000 0.000000 0.000000 0.093848
#
#
# Mechanical properties :
#
#
# Convention : Reuss Voigt Hill
#
# Bulk Modulus (GPa) = 32.70195 45.16903 38.93549
# Shear Modulus (GPa) = 18.39981 22.51263 20.45622
#
# Velocity S-wave (km/s) = 3.03120 3.35290 3.19610
# Velocity P-wave (km/s) = 5.34612 6.12740 5.75004
#
# Compressibility (1/GPa) = 0.03057922
#
# Stress axis : x y z
#
# Youngs Moduli (GPa) = 43.29455 65.93625 84.19824
#
# Poissons Ratio (x) = 0.01075 0.22820
# Poissons Ratio (y) = 0.00706 0.58159
# Poissons Ratio (z) = 0.11734 0.45545
#
# Static dielectric constant tensor:
#      x y z
#    x 1.750840 0.000000 0.000000 
#    y 0.000000 1.732810 0.000000 
#    z 0.000000 0.000000 1.705280 
# 
# From -- ./inp_files/16548.got.cif
#   From: 2010.05.17/outbox.cif.g08.bks.cpg/sg44_9_cif.got.tgz:16548.got - 2010.06.03 19:37:08.
