data_PCOD9374700
_publ_section_title
;
Structure prediction by ZEFSAII (Michael W. Deem and Ramdas Pophale) SiO2 
 PCOD9374700
Probable space group: I M M 2
;
_chemical_formula_sum "Si O2"
_cell_formula_units_Z 48
_cell_length_a 8.954192
_cell_length_b 8.042177
_cell_length_c 35.362320
_cell_angle_alpha 90.000000
_cell_angle_beta 90.000000
_cell_angle_gamma 90.000000
_cell_volume 2546.482990
_symmetry_space_group_name_H-M "I M M 2"
_symmetry_group_IT_number 44
_symmetry_cell_setting 'orthorhombic'
loop_
_space_group_symop_operation_xyz
x,y,z
-x,-y,z
-x,y,z
x,-y,z
1/2+x,1/2+y,1/2+z
1/2-x,1/2-y,1/2+z
1/2-x,1/2+y,1/2+z
1/2+x,1/2-y,1/2+z
loop_
_atom_site_type_symbol
_atom_site_label
_atom_site_fract_x
_atom_site_fract_y
_atom_site_fract_z
Si Si1 0.173663 0.200721 0.096590
Si Si2 0.318751 0.000000 0.887390
Si Si3 0.820322 0.683729 0.754609
Si Si4 0.178282 0.302326 0.519061
Si Si5 0.675332 0.196911 0.678751
Si Si6 0.181130 0.000000 0.804443
Si Si7 0.317998 0.683886 0.937318
O O1 0.252867 0.258502 0.058356
O O2 0.234049 0.264385 0.136681
O O3 0.000000 0.249656 0.094538
O O4 0.182472 0.000000 0.097438
O O5 0.250329 0.000000 0.845888
O O6 0.271687 0.835638 0.910644
O O7 0.500000 0.000000 0.885291
O O8 0.774722 0.500000 0.768222
O O9 0.759062 0.712161 0.712511
O O10 0.000000 0.689267 0.753255
O O11 0.771335 0.835494 0.781270
O O12 0.210054 0.500000 0.515320
O O13 0.230747 0.215804 0.480573
O O14 0.000000 0.283497 0.521273
O O15 0.500000 0.245416 0.679400
O O16 0.685604 0.000000 0.685329
O O17 0.000000 0.000000 0.806781
O O18 0.500000 0.687364 0.937848
O O19 0.271137 0.500000 0.924668
#
# Coordination Sequence:
#
# PCOD9374700 Si02
#       7
#     8   4   8   8   8   4   8
#     4   9  18  31  46  69 104 143 178 218 269 317
#     4  10  20  36  58  82 108 138 176 222 266 320
#     4  10  21  38  60  82 107 143 182 221 270 326
#     4   9  16  29  49  71  98 135 178 221 264 311
#     4  10  20  34  53  77 108 145 184 226 273 322
#     4  10  22  40  58  82 114 142 172 220 276 328
#     4   9  17  31  53  79 106 137 174 219 269 313
#
# _framework density 18.849527999999999
#
# number of rings (size 3 to 8) (size 9 to 14) (size 15 to 20)
#    0.000    2.500    1.667    0.500    0.000    3.667 
#    0.000    2.500    0.000    1.000    0.000    0.000 
#    0.000    0.000    0.000    0.000    0.000    0.000 
#
# Total GULP energy -133872.043173 kJ/mol
# GULP energy per Si atom -5578.001799 kJ/mol
# Density = 1.880663 g / cm^3
# Si number density = 18.849528 Si / 1000 Ang^3
#
#
#
# Elastic Constant Matrix: (Units=GPa)
#
#
# Indices 1 2 3 4 5 6 
#
# 1 -3.4489 28.1151 17.7799 0.0000 0.0000 0.0000
# 2 28.1151 126.2669 88.7769 0.0000 0.0000 0.0000
# 3 17.7799 88.7769 152.2111 0.0000 0.0000 0.0000
# 4 0.0000 0.0000 0.0000 20.1786 0.0000 0.0000
# 5 0.0000 0.0000 0.0000 0.0000 35.0277 0.0000
# 6 0.0000 0.0000 0.0000 0.0000 0.0000 6.1263
#
#
#
# Elastic Compliance Matrix: (Units=1/GPa)
#
#
# Indices 1 2 3 4 5 6 
#
# 1 -0.102531 0.024426 -0.002270 0.000000 0.000000 0.000000
# 2 0.024426 0.007606 -0.007289 0.000000 0.000000 0.000000
# 3 -0.002270 -0.007289 0.011086 0.000000 0.000000 0.000000
# 4 0.000000 0.000000 0.000000 0.049557 0.000000 0.000000
# 5 0.000000 0.000000 0.000000 0.000000 0.028549 0.000000
# 6 0.000000 0.000000 0.000000 0.000000 0.000000 0.163230
#
#
# Mechanical properties :
#
#
# Convention : Reuss Voigt Hill
#
# Bulk Modulus (GPa) = -18.48264 60.48588 21.00162
# Shear Modulus (GPa) = 45.56631 21.62368 33.59500
#
# Velocity S-wave (km/s) = 4.92201 3.39067 4.22628
# Velocity P-wave (km/s) = 4.74078 6.89110 5.91449
#
# Compressibility (1/GPa) = -0.05410483
#
# Stress axis : x y z
#
# Youngs Moduli (GPa) = -9.75317 131.47245 90.19993
#
# Poissons Ratio (x) = -3.21129 0.20471
# Poissons Ratio (y) = 0.23823 0.65751
# Poissons Ratio (z) = -0.02213 0.95836
#
# Static dielectric constant tensor:
#      x y z
#    x 1.636930 0.000000 0.000000 
#    y 0.000000 1.680170 0.000000 
#    z 0.000000 0.000000 1.628710 
# 
# From -- ./inp_files/26940.got.cif
#   From: 2010.05.17/outbox.cif.g08.bks.cpg/sg44_14_cif.got.tgz:26940.got - 2010.06.03 19:37:08.
