data_PCOD9374418
_publ_section_title
;
Structure prediction by ZEFSAII (Michael W. Deem and Ramdas Pophale) SiO2 
 PCOD9374418
Probable space group: I M M 2
;
_chemical_formula_sum "Si O2"
_cell_formula_units_Z 56
_cell_length_a 13.665685
_cell_length_b 14.255811
_cell_length_c 16.749734
_cell_angle_alpha 90.000000
_cell_angle_beta 90.000000
_cell_angle_gamma 90.000000
_cell_volume 3263.106507
_symmetry_space_group_name_H-M "I M M 2"
_symmetry_group_IT_number 44
_symmetry_cell_setting 'orthorhombic'
loop_
_space_group_symop_operation_xyz
x,y,z
-x,-y,z
-x,y,z
x,-y,z
1/2+x,1/2+y,1/2+z
1/2-x,1/2-y,1/2+z
1/2-x,1/2+y,1/2+z
1/2+x,1/2-y,1/2+z
loop_
_atom_site_type_symbol
_atom_site_label
_atom_site_fract_x
_atom_site_fract_y
_atom_site_fract_z
Si Si1 0.805829 0.208316 0.724220
Si Si2 0.118392 0.895347 0.395333
Si Si3 0.387937 0.211619 0.808556
Si Si4 0.887656 0.113055 0.569151
Si Si5 0.111204 0.888098 0.880755
Si Si6 0.617786 0.110997 0.143278
Si Si7 0.311109 0.112092 0.964674
O O1 0.693999 0.184204 0.745781
O O2 0.834008 0.153092 0.644789
O O3 0.866249 0.170024 0.800433
O O4 0.831529 0.316511 0.704202
O O5 0.137045 0.819614 0.328649
O O6 0.154694 0.862025 0.482154
O O7 0.000000 0.899804 0.403664
O O8 0.153790 0.000000 0.378255
O O9 0.500000 0.201850 0.783387
O O10 0.371949 0.158600 0.892766
O O11 0.000000 0.146487 0.573627
O O12 0.888968 0.000000 0.570983
O O13 0.197166 0.866651 0.944298
O O14 0.000000 0.870188 0.907943
O O15 0.118687 0.000000 0.862542
O O16 0.500000 0.121564 0.147224
O O17 0.640224 0.000000 0.156256
O O18 0.653722 0.137284 0.053476
O O19 0.323706 0.000000 0.958477
#
# Coordination Sequence:
#
# PCOD9374418 Si02
#       7
#     8   8   8   8   8   8   8
#     4  11  20  29  45  68  97 126 152 184 231 280
#     4   8  15  29  49  69  86 108 142 185 230 269
#     4  10  20  32  46  66  93 124 156 190 228 273
#     4   9  16  27  47  74  96 112 138 183 237 283
#     4   9  17  30  49  73  98 121 148 187 235 283
#     4  10  20  33  49  69  93 122 157 194 228 267
#     4   9  18  32  50  71  93 121 158 194 228 270
#
# _framework density 17.161560999999999
#
# number of rings (size 3 to 8) (size 9 to 14) (size 15 to 20)
#    0.000    2.571    0.000    3.857    0.000    4.286 
#    0.000    0.714    0.000    0.857    0.000    0.000 
#    0.000    6.857    0.000    0.000    0.000    0.000 
#
# Total GULP energy -156023.252911 kJ/mol
# GULP energy per Si atom -5572.259033 kJ/mol
# Density = 1.712250 g / cm^3
# Si number density = 17.161561 Si / 1000 Ang^3
#
#
#
# Elastic Constant Matrix: (Units=GPa)
#
#
# Indices 1 2 3 4 5 6 
#
# 1 87.0166 10.1218 21.8132 0.0000 0.0000 0.0000
# 2 10.1218 28.9430 5.3025 0.0000 0.0000 0.0000
# 3 21.8132 5.3025 29.6700 0.0000 0.0000 0.0000
# 4 0.0000 0.0000 0.0000 25.5263 0.0000 0.0000
# 5 0.0000 0.0000 0.0000 0.0000 15.9383 0.0000
# 6 0.0000 0.0000 0.0000 0.0000 0.0000 18.0705
#
#
#
# Elastic Compliance Matrix: (Units=1/GPa)
#
#
# Indices 1 2 3 4 5 6 
#
# 1 0.014369 -0.003194 -0.009993 0.000000 0.000000 0.000000
# 2 -0.003194 0.036430 -0.004162 0.000000 0.000000 0.000000
# 3 -0.009993 -0.004162 0.041795 0.000000 0.000000 0.000000
# 4 0.000000 0.000000 0.000000 0.039175 0.000000 0.000000
# 5 0.000000 0.000000 0.000000 0.000000 0.062742 0.000000
# 6 0.000000 0.000000 0.000000 0.000000 0.000000 0.055339
#
#
# Mechanical properties :
#
#
# Convention : Reuss Voigt Hill
#
# Bulk Modulus (GPa) = 17.27270 24.45605 20.86437
# Shear Modulus (GPa) = 16.45567 19.13315 17.79441
#
# Velocity S-wave (km/s) = 3.09992 3.34261 3.22355
# Velocity P-wave (km/s) = 4.78532 5.40174 5.10285
#
# Compressibility (1/GPa) = 0.05789483
#
# Stress axis : x y z
#
# Youngs Moduli (GPa) = 69.59624 27.44970 23.92655
#
# Poissons Ratio (x) = 0.08768 0.23909
# Poissons Ratio (y) = 0.22230 0.09959
# Poissons Ratio (z) = 0.69546 0.11425
#
# Static dielectric constant tensor:
#      x y z
#    x 1.578520 0.000000 0.000000 
#    y 0.000000 1.634800 0.000000 
#    z 0.000000 0.000000 1.569260 
# 
# From -- ./inp_files/18421.got.cif
#   From: 2010.05.17/outbox.cif.g08.bks.cpg/sg44_10_cif.got.tgz:18421.got - 2010.06.03 19:37:08.
