data_PCOD9374458
_publ_section_title
;
Structure prediction by ZEFSAII (Michael W. Deem and Ramdas Pophale) SiO2 
 PCOD9374458
Probable space group: I M M 2
;
_chemical_formula_sum "Si O2"
_cell_formula_units_Z 64
_cell_length_a 14.165866
_cell_length_b 13.305355
_cell_length_c 16.814808
_cell_angle_alpha 90.000000
_cell_angle_beta 90.000000
_cell_angle_gamma 90.000000
_cell_volume 3169.286557
_symmetry_space_group_name_H-M "I M M 2"
_symmetry_group_IT_number 44
_symmetry_cell_setting 'orthorhombic'
loop_
_space_group_symop_operation_xyz
x,y,z
-x,-y,z
-x,y,z
x,-y,z
1/2+x,1/2+y,1/2+z
1/2-x,1/2-y,1/2+z
1/2-x,1/2+y,1/2+z
1/2+x,1/2-y,1/2+z
loop_
_atom_site_type_symbol
_atom_site_label
_atom_site_fract_x
_atom_site_fract_y
_atom_site_fract_z
Si Si1 0.888001 0.113947 0.007200
Si Si2 0.741352 0.387720 0.919779
Si Si3 0.793705 0.110385 0.597760
Si Si4 0.713208 0.386563 0.673403
Si Si5 0.277383 0.183311 0.756268
Si Si6 0.612479 0.806302 0.906658
Si Si7 0.890180 0.323526 0.587005
Si Si8 0.111191 0.748001 0.854411
O O1 0.837265 0.137985 0.089543
O O2 0.000000 0.115236 0.021532
O O3 0.860996 0.000000 0.984200
O O4 0.869931 0.189243 0.935324
O O5 0.710667 0.500000 0.899370
O O6 0.660942 0.303892 0.908143
O O7 0.833059 0.355276 0.870022
O O8 0.761846 0.385186 0.014346
O O9 0.726983 0.123867 0.674123
O O10 0.864225 0.205168 0.595744
O O11 0.839698 0.000000 0.601170
O O12 0.688384 0.500000 0.697461
O O13 0.690364 0.296873 0.733384
O O14 0.823235 0.379121 0.649273
O O15 0.339014 0.143544 0.829743
O O16 0.169469 0.194441 0.786683
O O17 0.500000 0.801244 0.898118
O O18 0.632123 0.851531 0.994607
O O19 0.000000 0.340678 0.600820
O O20 0.000000 0.739939 0.840386
#
# Coordination Sequence:
#
# PCOD9374458 Si02
#       8
#     8   8   8   8   8   8   8   8
#     4   9  18  34  56  78  96 121 166 216 254 293
#     4   9  18  34  54  75  97 126 171 214 243 285
#     4   9  18  33  53  74  99 132 166 205 252 294
#     4  10  20  34  52  73 100 134 166 202 249 296
#     4  10  20  32  48  76 108 134 162 198 244 304
#     4   9  18  33  53  74  99 132 166 205 252 294
#     4   9  18  34  54  75  97 126 171 214 243 285
#     4  10  20  34  52  73 100 134 166 202 249 296
#
# _framework density 20.193819999999999
#
# number of rings (size 3 to 8) (size 9 to 14) (size 15 to 20)
#    0.000    2.625    0.000    3.000    0.000    6.000 
#    0.000    3.750    0.000    1.875    0.000    0.000 
#    0.000    0.000    0.000    0.000    0.000    0.000 
#
# Total GULP energy -178442.185530 kJ/mol
# GULP energy per Si atom -5576.318298 kJ/mol
# Density = 2.014786 g / cm^3
# Si number density = 20.193820 Si / 1000 Ang^3
#
#
#
# Elastic Constant Matrix: (Units=GPa)
#
#
# Indices 1 2 3 4 5 6 
#
# 1 38.4225 -12.8326 10.2051 0.0000 0.0000 0.0000
# 2 -12.8326 16.5117 -3.3207 0.0000 0.0000 0.0000
# 3 10.2051 -3.3207 83.9827 0.0000 0.0000 0.0000
# 4 0.0000 0.0000 0.0000 6.8792 0.0000 0.0000
# 5 0.0000 0.0000 0.0000 0.0000 16.0234 0.0000
# 6 0.0000 0.0000 0.0000 0.0000 0.0000 12.3586
#
#
#
# Elastic Compliance Matrix: (Units=1/GPa)
#
#
# Indices 1 2 3 4 5 6 
#
# 1 0.036034 0.027342 -0.003298 0.000000 0.000000 0.000000
# 2 0.027342 0.081795 -0.000088 0.000000 0.000000 0.000000
# 3 -0.003298 -0.000088 0.012304 0.000000 0.000000 0.000000
# 4 0.000000 0.000000 0.000000 0.145367 0.000000 0.000000
# 5 0.000000 0.000000 0.000000 0.000000 0.062409 0.000000
# 6 0.000000 0.000000 0.000000 0.000000 0.000000 0.080916
#
#
# Mechanical properties :
#
#
# Convention : Reuss Voigt Hill
#
# Bulk Modulus (GPa) = 5.61653 14.11337 9.86495
# Shear Modulus (GPa) = 11.62086 16.70990 14.16538
#
# Velocity S-wave (km/s) = 2.40149 2.87971 2.65140
# Velocity P-wave (km/s) = 3.23680 4.24983 3.77743
#
# Compressibility (1/GPa) = 0.17804572
#
# Stress axis : x y z
#
# Youngs Moduli (GPa) = 27.75153 12.22569 81.27158
#
# Poissons Ratio (x) = -0.33427 0.26800
# Poissons Ratio (y) = -0.75878 0.00717
# Poissons Ratio (z) = 0.09151 0.00108
#
# Static dielectric constant tensor:
#      x y z
#    x 1.690080 0.000000 0.000000 
#    y 0.000000 1.750040 0.000000 
#    z 0.000000 0.000000 1.759960 
# 
# From -- ./inp_files/21954.got.cif
#   From: 2010.05.17/outbox.cif.g08.bks.cpg/sg44_11_cif.got.tgz:21954.got - 2010.06.03 19:37:08.
