data_PCOD9374716
_publ_section_title
;
Structure prediction by ZEFSAII (Michael W. Deem and Ramdas Pophale) SiO2 
 PCOD9374716
Probable space group: I M M 2
;
_chemical_formula_sum "Si O2"
_cell_formula_units_Z 64
_cell_length_a 9.373356
_cell_length_b 7.527471
_cell_length_c 42.507392
_cell_angle_alpha 90.000000
_cell_angle_beta 90.000000
_cell_angle_gamma 90.000000
_cell_volume 2999.222344
_symmetry_space_group_name_H-M "I M M 2"
_symmetry_group_IT_number 44
_symmetry_cell_setting 'orthorhombic'
loop_
_space_group_symop_operation_xyz
x,y,z
-x,-y,z
-x,y,z
x,-y,z
1/2+x,1/2+y,1/2+z
1/2-x,1/2-y,1/2+z
1/2-x,1/2+y,1/2+z
1/2+x,1/2-y,1/2+z
loop_
_atom_site_type_symbol
_atom_site_label
_atom_site_fract_x
_atom_site_fract_y
_atom_site_fract_z
Si Si1 0.662190 0.712903 0.596770
Si Si2 0.163943 0.717658 0.972632
Si Si3 0.837812 0.786741 0.533728
Si Si4 0.836057 0.782342 0.781000
Si Si5 0.662829 0.212688 0.841545
Si Si6 0.162829 0.787312 0.412087
Si Si7 0.337812 0.213259 0.719904
Si Si8 0.837810 0.712903 0.656861
O O1 0.500000 0.781648 0.595500
O O2 0.653079 0.500000 0.600228
O O3 0.747788 0.747688 0.564862
O O4 0.750000 0.781812 0.626816
O O5 0.163937 0.500000 0.972710
O O6 0.237994 0.777165 0.940280
O O7 0.000000 0.774110 0.974920
O O8 0.255593 0.776984 0.002658
O O9 0.000000 0.718987 0.535869
O O10 0.845935 0.000000 0.531020
O O11 0.762006 0.722835 0.813351
O O12 0.744407 0.723016 0.750974
O O13 0.000000 0.725890 0.778711
O O14 0.836063 0.000000 0.780922
O O15 0.500000 0.281503 0.838990
O O16 0.715369 0.250000 0.876816
O O17 0.655425 0.000000 0.838358
O O18 0.000000 0.718497 0.414641
O O19 0.155425 0.000000 0.415273
O O20 0.500000 0.281014 0.717762
O O21 0.247789 0.252313 0.688769
O O22 0.345935 0.000000 0.722612
O O23 0.846921 0.500000 0.653404
O O24 0.000000 0.781648 0.658132
#
# Coordination Sequence:
#
# PCOD9374716 Si02
#       8
#     8   8   8   8   8   8   8   8
#     4  10  21  37  56  77 103 136 171 206 249 301
#     4   9  17  30  49  72  98 129 164 203 248 296
#     4  10  20  34  54  79 104 132 169 211 253 298
#     4   9  17  30  49  72  98 129 164 203 248 296
#     4   9  17  30  48  69  94 125 161 200 243 293
#     4   9  17  30  48  69  94 125 161 200 243 293
#     4  10  20  34  54  79 104 132 169 211 253 298
#     4  10  21  37  56  77 103 136 171 206 249 301
#
# _framework density 21.338864999999998
#
# number of rings (size 3 to 8) (size 9 to 14) (size 15 to 20)
#    0.000    2.500    0.000    2.250    0.000    7.000 
#    0.000    1.250    0.000    4.500    0.000    0.000 
#    0.000    0.000    0.000    0.000    0.000    0.000 
#
# Total GULP energy -178779.255096 kJ/mol
# GULP energy per Si atom -5586.851722 kJ/mol
# Density = 2.129030 g / cm^3
# Si number density = 21.338865 Si / 1000 Ang^3
#
#
#
# Elastic Constant Matrix: (Units=GPa)
#
#
# Indices 1 2 3 4 5 6 
#
# 1 226.3085 8.1961 156.0821 0.0000 0.0000 0.0000
# 2 8.1961 54.2102 -1.2648 0.0000 0.0000 0.0000
# 3 156.0821 -1.2648 238.7298 0.0000 0.0000 0.0000
# 4 0.0000 0.0000 0.0000 21.8590 0.0000 0.0000
# 5 0.0000 0.0000 0.0000 0.0000 41.4999 0.0000
# 6 0.0000 0.0000 0.0000 0.0000 0.0000 12.5053
#
#
#
# Elastic Compliance Matrix: (Units=1/GPa)
#
#
# Indices 1 2 3 4 5 6 
#
# 1 0.008146 -0.001356 -0.005333 0.000000 0.000000 0.000000
# 2 -0.001356 0.018675 0.000986 0.000000 0.000000 0.000000
# 3 -0.005333 0.000986 0.007681 0.000000 0.000000 0.000000
# 4 0.000000 0.000000 0.000000 0.045748 0.000000 0.000000
# 5 0.000000 0.000000 0.000000 0.000000 0.024096 0.000000
# 6 0.000000 0.000000 0.000000 0.000000 0.000000 0.079966
#
#
# Mechanical properties :
#
#
# Convention : Reuss Voigt Hill
#
# Bulk Modulus (GPa) = 43.30052 93.91947 68.60999
# Shear Modulus (GPa) = 24.58004 38.92184 31.75094
#
# Velocity S-wave (km/s) = 3.39763 4.27545 3.86157
# Velocity P-wave (km/s) = 5.97727 8.27536 7.21836
#
# Compressibility (1/GPa) = 0.02309441
#
# Stress axis : x y z
#
# Youngs Moduli (GPa) = 122.75967 53.54828 130.19439
#
# Poissons Ratio (x) = 0.07261 0.69433
# Poissons Ratio (y) = 0.16647 -0.12831
# Poissons Ratio (z) = 0.65468 -0.05277
#
# Static dielectric constant tensor:
#      x y z
#    x 1.745570 0.000000 0.000000 
#    y 0.000000 1.825870 0.000000 
#    z 0.000000 0.000000 1.719700 
# 
# From -- ./inp_files/27200.got.cif
#   From: 2010.05.17/outbox.cif.g08.bks.cpg/sg44_14_cif.got.tgz:27200.got - 2010.06.03 19:37:08.
