data_PCOD9374725
_publ_section_title
;
Structure prediction by ZEFSAII (Michael W. Deem and Ramdas Pophale) SiO2 
 PCOD9374725
Probable space group: I M M 2
;
_chemical_formula_sum "Si O2"
_cell_formula_units_Z 48
_cell_length_a 9.239589
_cell_length_b 32.467037
_cell_length_c 8.380055
_cell_angle_alpha 90.000000
_cell_angle_beta 90.000000
_cell_angle_gamma 90.000000
_cell_volume 2513.866312
_symmetry_space_group_name_H-M "I M M 2"
_symmetry_group_IT_number 44
_symmetry_cell_setting 'orthorhombic'
loop_
_space_group_symop_operation_xyz
x,y,z
-x,-y,z
-x,y,z
x,-y,z
1/2+x,1/2+y,1/2+z
1/2-x,1/2-y,1/2+z
1/2-x,1/2+y,1/2+z
1/2+x,1/2-y,1/2+z
loop_
_atom_site_type_symbol
_atom_site_label
_atom_site_fract_x
_atom_site_fract_y
_atom_site_fract_z
Si Si1 0.832247 0.626867 0.807440
Si Si2 0.335226 0.287176 0.302796
Si Si3 0.665387 0.292542 0.921513
Si Si4 0.172848 0.045539 0.282966
Si Si5 0.666522 0.133810 0.921225
Si Si6 0.827135 0.455342 0.439433
O O1 0.753210 0.666976 0.873095
O O2 0.752079 0.584828 0.857877
O O3 0.827442 0.630049 0.613885
O O4 0.000000 0.625811 0.855072
O O5 0.500000 0.282134 0.360461
O O6 0.240923 0.248263 0.355056
O O7 0.268001 0.329514 0.366714
O O8 0.336413 0.289101 0.112048
O O9 0.500000 0.295512 0.863332
O O10 0.000000 0.051439 0.280777
O O11 0.203662 0.000000 0.352940
O O12 0.234915 0.044078 0.102118
O O13 0.500000 0.143076 0.876813
O O14 0.706072 0.088168 0.856136
O O15 0.803588 0.500000 0.358974
O O16 0.000000 0.453056 0.479105
#
# Coordination Sequence:
#
# PCOD9374725 Si02
#       6
#     8   8   8   8   8   8
#     4  10  20  34  54  80 108 139 177 217 259 308
#     4  11  24  39  56  79 105 135 172 212 259 315
#     4  11  24  40  57  78 104 133 170 215 261 312
#     4   9  16  26  44  73 107 141 176 214 257 303
#     4   9  18  32  52  79 108 138 174 215 258 305
#     4   8  14  26  45  71 104 139 175 217 260 302
#
# _framework density 19.094093999999998
#
# number of rings (size 3 to 8) (size 9 to 14) (size 15 to 20)
#    0.000    2.333    0.000    4.000    0.000   11.000 
#    0.000    0.000    0.000    1.000    0.000    4.667 
#    0.000    0.000    0.000    0.000    0.000    0.000 
#
# Total GULP energy -133844.877347 kJ/mol
# GULP energy per Si atom -5576.869889 kJ/mol
# Density = 1.905063 g / cm^3
# Si number density = 19.094094 Si / 1000 Ang^3
#
#
#
# Elastic Constant Matrix: (Units=GPa)
#
#
# Indices 1 2 3 4 5 6 
#
# 1 134.3620 109.1243 18.2223 -0.0001 0.0000 0.0000
# 2 109.1243 214.8405 22.0224 0.0001 -0.0001 -0.0001
# 3 18.2223 22.0224 12.2615 0.0002 0.0000 0.0000
# 4 -0.0001 0.0001 0.0002 19.5924 0.0000 -0.0001
# 5 0.0000 -0.0001 0.0000 0.0000 19.6674 -0.0001
# 6 0.0000 -0.0001 0.0000 -0.0001 -0.0001 36.3834
#
#
#
# Elastic Compliance Matrix: (Units=1/GPa)
#
#
# Indices 1 2 3 4 5 6 
#
# 1 0.013516 -0.005891 -0.009507 0.000000 0.000000 0.000000
# 2 -0.005891 0.008272 -0.006103 0.000000 0.000000 0.000000
# 3 -0.009507 -0.006103 0.106645 -0.000001 0.000000 0.000000
# 4 0.000000 0.000000 -0.000001 0.051040 0.000000 0.000000
# 5 0.000000 0.000000 0.000000 0.000000 0.050846 0.000000
# 6 0.000000 0.000000 0.000000 0.000000 0.000000 0.027485
#
#
# Mechanical properties :
#
#
# Convention : Reuss Voigt Hill
#
# Bulk Modulus (GPa) = 11.70508 73.35579 42.53044
# Shear Modulus (GPa) = 15.18449 29.26831 22.22640
#
# Velocity S-wave (km/s) = 2.82307 3.91941 3.41551
# Velocity P-wave (km/s) = 4.09510 7.68009 6.15441
#
# Compressibility (1/GPa) = 0.08543297
#
# Stress axis : x y z
#
# Youngs Moduli (GPa) = 73.98526 120.88452 9.37687
#
# Poissons Ratio (x) = 0.71211 0.08914
# Poissons Ratio (y) = 0.43583 0.05723
# Poissons Ratio (z) = 0.70335 0.73777
#
# Static dielectric constant tensor:
#      x y z
#    x 1.649810 0.000000 0.000000 
#    y 0.000000 1.691730 0.000000 
#    z 0.000000 0.000000 1.664080 
# 
# From -- ./inp_files/4898.got.cif
#   From: 2010.05.17/outbox.cif.g08.bks.cpg/sg44_3_cif.got.tgz:4898.got - 2010.06.03 19:37:08.
