data_PCOD9374439
_publ_section_title
;
Structure prediction by ZEFSAII (Michael W. Deem and Ramdas Pophale) SiO2 
 PCOD9374439
Probable space group: I M M 2
;
_chemical_formula_sum "Si O2"
_cell_formula_units_Z 64
_cell_length_a 14.345263
_cell_length_b 7.299599
_cell_length_c 25.275184
_cell_angle_alpha 90.000000
_cell_angle_beta 90.000000
_cell_angle_gamma 90.000000
_cell_volume 2646.682487
_symmetry_space_group_name_H-M "I M M 2"
_symmetry_group_IT_number 44
_symmetry_cell_setting 'orthorhombic'
loop_
_space_group_symop_operation_xyz
x,y,z
-x,-y,z
-x,y,z
x,-y,z
1/2+x,1/2+y,1/2+z
1/2-x,1/2-y,1/2+z
1/2-x,1/2+y,1/2+z
1/2+x,1/2-y,1/2+z
loop_
_atom_site_type_symbol
_atom_site_label
_atom_site_fract_x
_atom_site_fract_y
_atom_site_fract_z
Si Si1 0.305294 0.277658 0.190410
Si Si2 0.602670 0.776415 0.695583
Si Si3 0.106977 0.782296 0.581322
Si Si4 0.602457 0.723467 0.294597
Si Si5 0.110717 0.296228 0.076627
Si Si6 0.106587 0.280490 0.460623
Si Si7 0.607621 0.776663 0.464631
Si Si8 0.249423 0.704704 0.375647
O O1 0.302292 0.500000 0.188382
O O2 0.204746 0.222240 0.215063
O O3 0.330585 0.214897 0.130775
O O4 0.382847 0.227816 0.233283
O O5 0.500000 0.716708 0.715524
O O6 0.612713 0.714630 0.634390
O O7 0.598652 0.000000 0.696282
O O8 0.140300 0.754940 0.520824
O O9 0.000000 0.711409 0.584654
O O10 0.101652 0.000000 0.588290
O O11 0.500000 0.783337 0.313618
O O12 0.603819 0.500000 0.298469
O O13 0.692198 0.789497 0.327536
O O14 0.153509 0.500000 0.081298
O O15 0.000000 0.317397 0.066628
O O16 0.142991 0.211678 0.022171
O O17 0.107050 0.500000 0.455321
O O18 0.166385 0.210234 0.410717
O O19 0.000000 0.215128 0.458313
O O20 0.500000 0.728133 0.456650
O O21 0.670064 0.695566 0.419566
O O22 0.614428 0.000000 0.464259
O O23 0.219027 0.500000 0.358519
#
# Coordination Sequence:
#
# PCOD9374439 Si02
#       8
#     8   8   8   8   8   8   8   8
#     4   9  16  25  42  68  95 124 155 191 240 287
#     4   8  13  21  33  54  88 123 150 179 221 276
#     4   9  17  29  48  75  99 119 153 200 242 286
#     4   9  17  30  46  64  90 122 157 199 241 282
#     4   7  11  20  33  52  82 117 145 170 212 268
#     4   9  19  35  50  66  95 131 163 200 247 296
#     4   9  17  28  44  68  96 125 156 192 237 286
#     4  10  20  32  48  68  91 127 168 199 237 289
#
# _framework density 24.181214000000001
#
# number of rings (size 3 to 8) (size 9 to 14) (size 15 to 20)
#    0.000    3.250    0.000    2.250    1.750    2.750 
#    0.000    0.625    0.000    4.500    0.000    1.750 
#    0.000    0.000    0.000    0.000    0.000    0.000 
#
# Total GULP energy -178304.353267 kJ/mol
# GULP energy per Si atom -5572.011040 kJ/mol
# Density = 2.412618 g / cm^3
# Si number density = 24.181214 Si / 1000 Ang^3
#
#
#
# Elastic Constant Matrix: (Units=GPa)
#
#
# Indices 1 2 3 4 5 6 
#
# 1 154.8092 0.8510 50.2719 0.0000 0.0000 0.0000
# 2 0.8510 101.1199 -2.8704 0.0000 0.0000 0.0000
# 3 50.2719 -2.8704 99.1795 0.0000 0.0000 0.0000
# 4 0.0000 0.0000 0.0000 4.3237 0.0000 0.0000
# 5 0.0000 0.0000 0.0000 0.0000 40.7887 0.0000
# 6 0.0000 0.0000 0.0000 0.0000 0.0000 -4.7661
#
#
#
# Elastic Compliance Matrix: (Units=1/GPa)
#
#
# Indices 1 2 3 4 5 6 
#
# 1 0.007735 -0.000177 -0.003926 0.000000 0.000000 0.000000
# 2 -0.000177 0.009901 0.000376 0.000000 0.000000 0.000000
# 3 -0.003926 0.000376 0.012084 0.000000 0.000000 0.000000
# 4 0.000000 0.000000 0.000000 0.231286 0.000000 0.000000
# 5 0.000000 0.000000 0.000000 0.000000 0.024517 0.000000
# 6 0.000000 0.000000 0.000000 0.000000 0.000000 -0.209814
#
#
# Mechanical properties :
#
#
# Convention : Reuss Voigt Hill
#
# Bulk Modulus (GPa) = 44.90864 50.17928 47.54396
# Shear Modulus (GPa) = 55.19742 28.52631 41.86186
#
# Velocity S-wave (km/s) = 4.78290 3.43839 4.16525
# Velocity P-wave (km/s) = 7.00810 6.04646 6.54497
#
# Compressibility (1/GPa) = 0.02226743
#
# Stress axis : x y z
#
# Youngs Moduli (GPa) = 129.27491 100.99567 82.75657
#
# Poissons Ratio (x) = 0.01783 0.32491
# Poissons Ratio (y) = 0.02282 -0.03112
# Poissons Ratio (z) = 0.50754 -0.03798
#
# Static dielectric constant tensor:
#      x y z
#    x 1.997900 0.000000 0.000000 
#    y 0.000000 1.995250 0.000000 
#    z 0.000000 0.000000 1.920010 
# 
# From -- ./inp_files/25795.got.cif
#   From: 2010.05.17/outbox.cif.g08.bks.cpg/sg44_13_cif.got.tgz:25795.got - 2010.06.03 19:37:08.
