data_PCOD9374837
_publ_section_title
;
Structure prediction by ZEFSAII (Michael W. Deem and Ramdas Pophale) SiO2 
 PCOD9374837
Probable space group: I M M 2
;
_chemical_formula_sum "Si O2"
_cell_formula_units_Z 42
_cell_length_a 23.302973
_cell_length_b 7.849849
_cell_length_c 9.412564
_cell_angle_alpha 90.000000
_cell_angle_beta 90.000000
_cell_angle_gamma 90.000000
_cell_volume 1721.791569
_symmetry_space_group_name_H-M "I M M 2"
_symmetry_group_IT_number 44
_symmetry_cell_setting 'orthorhombic'
loop_
_space_group_symop_operation_xyz
x,y,z
-x,-y,z
-x,y,z
x,-y,z
1/2+x,1/2+y,1/2+z
1/2-x,1/2-y,1/2+z
1/2-x,1/2+y,1/2+z
1/2+x,1/2-y,1/2+z
loop_
_atom_site_type_symbol
_atom_site_label
_atom_site_fract_x
_atom_site_fract_y
_atom_site_fract_z
Si Si1 0.126281 0.705392 0.721230
Si Si2 0.758690 0.706041 0.552353
Si Si3 0.562977 0.795330 0.939164
Si Si4 0.677087 0.300991 0.776757
Si Si5 0.562225 0.311987 0.490009
Si Si6 0.500000 0.000000 0.606969
O O1 0.123569 0.500000 0.735106
O O2 0.187655 0.751251 0.654857
O O3 0.080625 0.756210 0.599011
O O4 0.110226 0.783250 0.872065
O O5 0.757736 0.500000 0.542238
O O6 0.701577 0.772183 0.629638
O O7 0.775048 0.772158 0.398226
O O8 0.500000 0.728096 0.898530
O O9 0.558501 0.000000 0.937441
O O10 0.617236 0.755615 0.841839
O O11 0.672601 0.500000 0.754170
O O12 0.500000 0.312972 0.410029
O O13 0.568658 0.500000 0.556248
O O14 0.549761 0.151637 0.591509
#
# Coordination Sequence:
#
# PCOD9374837 Si02
#       6
#     8   8   8   8   8   2
#     4   9  14  26  42  61  93 134 167 209 267 322
#     4   9  20  35  53  74 109 148 182 226 286 338
#     4   9  18  30  49  73 106 144 179 221 284 338
#     4  10  20  35  54  83 112 146 191 234 277 336
#     4   9  15  21  34  55  80 116 162 199 248 317
#     4   8  14  24  32  46  84 124 146 202 258 306
#
# _framework density 24.393198000000002
#
# number of rings (size 3 to 8) (size 9 to 14) (size 15 to 20)
#    0.571    2.286    0.952    2.286    0.000    5.714 
#    0.000    0.000    0.000    0.000    0.000    6.667 
#    0.000   26.286    0.000    0.000    0.000    0.000 
#
# Total GULP energy -117009.139071 kJ/mol
# GULP energy per Si atom -5571.863765 kJ/mol
# Density = 2.433768 g / cm^3
# Si number density = 24.393198 Si / 1000 Ang^3
#
#
#
# Elastic Constant Matrix: (Units=GPa)
#
#
# Indices 1 2 3 4 5 6 
#
# 1 99.7832 13.6650 73.5227 0.0000 0.0000 0.0000
# 2 13.6650 80.6463 14.9587 0.0000 0.0000 0.0000
# 3 73.5227 14.9587 104.0641 0.0000 0.0000 0.0000
# 4 0.0000 0.0000 0.0000 -29.7355 0.0000 0.0000
# 5 0.0000 0.0000 0.0000 0.0000 98.0891 0.0000
# 6 0.0000 0.0000 0.0000 0.0000 0.0000 18.5800
#
#
#
# Elastic Compliance Matrix: (Units=1/GPa)
#
#
# Indices 1 2 3 4 5 6 
#
# 1 0.020957 -0.000827 -0.014688 0.000000 0.000000 0.000000
# 2 -0.000827 0.012772 -0.001252 0.000000 0.000000 0.000000
# 3 -0.014688 -0.001252 0.020166 0.000000 0.000000 0.000000
# 4 0.000000 0.000000 0.000000 -0.033630 0.000000 0.000000
# 5 0.000000 0.000000 0.000000 0.000000 0.010195 0.000000
# 6 0.000000 0.000000 0.000000 0.000000 0.000000 0.053821
#
#
# Mechanical properties :
#
#
# Convention : Reuss Voigt Hill
#
# Bulk Modulus (GPa) = 49.10809 54.30962 51.70886
# Shear Modulus (GPa) = 40.12761 29.54320 34.83541
#
# Velocity S-wave (km/s) = 4.06030 3.48390 3.78309
# Velocity P-wave (km/s) = 6.49284 6.20451 6.35031
#
# Compressibility (1/GPa) = 0.02036324
#
# Stress axis : x y z
#
# Youngs Moduli (GPa) = 47.71629 78.29561 49.58724
#
# Poissons Ratio (x) = 0.06473 0.72832
# Poissons Ratio (y) = 0.03945 0.06208
# Poissons Ratio (z) = 0.70084 0.09801
#
# Static dielectric constant tensor:
#      x y z
#    x 1.898800 0.000000 0.000000 
#    y 0.000000 1.919450 0.000000 
#    z 0.000000 0.000000 1.964280 
# 
# From -- ./inp_files/14563.got.cif
#   From: 2010.05.17/outbox.cif.g08.bks.cpg/sg44_8_cif.got.tgz:14563.got - 2010.06.03 19:37:08.
