data_PCOD9374833
_publ_section_title
;
Structure prediction by ZEFSAII (Michael W. Deem and Ramdas Pophale) SiO2 
 PCOD9374833
Probable space group: I M M 2
;
_chemical_formula_sum "Si O2"
_cell_formula_units_Z 40
_cell_length_a 8.727337
_cell_length_b 24.195734
_cell_length_c 10.569165
_cell_angle_alpha 90.000000
_cell_angle_beta 90.000000
_cell_angle_gamma 90.000000
_cell_volume 2231.830589
_symmetry_space_group_name_H-M "I M M 2"
_symmetry_group_IT_number 44
_symmetry_cell_setting 'orthorhombic'
loop_
_space_group_symop_operation_xyz
x,y,z
-x,-y,z
-x,y,z
x,-y,z
1/2+x,1/2+y,1/2+z
1/2-x,1/2-y,1/2+z
1/2-x,1/2+y,1/2+z
1/2+x,1/2-y,1/2+z
loop_
_atom_site_type_symbol
_atom_site_label
_atom_site_fract_x
_atom_site_fract_y
_atom_site_fract_z
Si Si1 0.819218 0.745795 0.161980
Si Si2 0.817147 0.638122 0.583824
Si Si3 0.317478 0.131609 0.561614
Si Si4 0.687008 0.063445 0.317205
Si Si5 0.181318 0.152761 0.815336
O O1 0.729896 0.801255 0.133344
O O2 0.759366 0.712283 0.284588
O O3 0.000000 0.756935 0.171510
O O4 0.795705 0.698202 0.054442
O O5 0.765875 0.593882 0.688649
O O6 0.741221 0.630232 0.447466
O O7 0.000000 0.635063 0.570902
O O8 0.500000 0.122763 0.577626
O O9 0.263617 0.098567 0.439669
O O10 0.233803 0.117237 0.693193
O O11 0.500000 0.064017 0.318696
O O12 0.736857 0.000000 0.323490
O O13 0.000000 0.159159 0.817327
#
# Coordination Sequence:
#
# PCOD9374833 Si02
#       5
#     8   8   8   8   8
#     4   9  19  33  53  83 116 145 179 229 288 344
#     4  11  21  33  55  86 117 150 188 233 284 343
#     4   8  17  34  56  82 111 141 183 236 283 339
#     4   9  19  37  60  84 111 147 192 239 285 333
#     4  10  20  35  54  79 112 150 187 227 280 335
#
# _framework density 17.922507
#
# number of rings (size 3 to 8) (size 9 to 14) (size 15 to 20)
#    1.200    1.400    0.000    2.400    2.800    0.000 
#    0.000    3.000    0.000   11.400    0.000    0.000 
#    0.000    0.000    0.000    0.000    0.000    0.000 
#
# Total GULP energy -111349.794029 kJ/mol
# GULP energy per Si atom -5567.489701 kJ/mol
# Density = 1.788171 g / cm^3
# Si number density = 17.922507 Si / 1000 Ang^3
#
#
#
# Elastic Constant Matrix: (Units=GPa)
#
#
# Indices 1 2 3 4 5 6 
#
# 1 26.5460 3.2515 4.5445 0.0001 -0.0001 0.0000
# 2 3.2515 64.9424 29.5204 0.0000 -0.0001 0.0000
# 3 4.5445 29.5204 102.1787 0.0004 -0.0005 -0.0001
# 4 0.0001 0.0000 0.0004 18.1813 -0.0001 0.0000
# 5 -0.0001 -0.0001 -0.0005 -0.0001 15.8371 0.0001
# 6 0.0000 0.0000 -0.0001 0.0000 0.0001 15.9206
#
#
#
# Elastic Compliance Matrix: (Units=1/GPa)
#
#
# Indices 1 2 3 4 5 6 
#
# 1 0.038056 -0.001308 -0.001315 0.000000 0.000000 0.000000
# 2 -0.001308 0.017771 -0.005076 0.000000 0.000000 0.000000
# 3 -0.001315 -0.005076 0.011312 0.000000 0.000000 0.000000
# 4 0.000000 0.000000 0.000000 0.055002 0.000000 0.000000
# 5 0.000000 0.000000 0.000000 0.000000 0.063143 0.000000
# 6 0.000000 0.000000 0.000000 0.000000 0.000000 0.062812
#
#
# Mechanical properties :
#
#
# Convention : Reuss Voigt Hill
#
# Bulk Modulus (GPa) = 19.32685 29.81109 24.56897
# Shear Modulus (GPa) = 17.81014 20.41118 19.11066
#
# Velocity S-wave (km/s) = 3.15577 3.37836 3.26896
# Velocity P-wave (km/s) = 4.90770 5.64687 5.29021
#
# Compressibility (1/GPa) = 0.05174149
#
# Stress axis : x y z
#
# Youngs Moduli (GPa) = 26.27730 56.27103 88.40344
#
# Poissons Ratio (x) = 0.07359 0.11623
# Poissons Ratio (y) = 0.03436 0.44874
# Poissons Ratio (z) = 0.03455 0.28564
#
# Static dielectric constant tensor:
#      x y z
#    x 1.599230 0.000000 0.000000 
#    y 0.000000 1.612230 0.000000 
#    z 0.000000 0.000000 1.628270 
# 
# From -- ./inp_files/4608.got.cif
#   From: 2010.05.17/outbox.cif.g08.bks.cpg/sg44_3_cif.got.tgz:4608.got - 2010.06.03 19:37:08.
