data_PCOD9374071
_publ_section_title
;
Structure prediction by ZEFSAII (Michael W. Deem and Ramdas Pophale) SiO2 
 PCOD9374071
Probable space group: I M M 2
;
_chemical_formula_sum "Si O2"
_cell_formula_units_Z 56
_cell_length_a 9.067452
_cell_length_b 19.039983
_cell_length_c 15.562258
_cell_angle_alpha 90.000000
_cell_angle_beta 90.000000
_cell_angle_gamma 90.000000
_cell_volume 2686.732523
_symmetry_space_group_name_H-M "I M M 2"
_symmetry_group_IT_number 44
_symmetry_cell_setting 'orthorhombic'
loop_
_space_group_symop_operation_xyz
x,y,z
-x,-y,z
-x,y,z
x,-y,z
1/2+x,1/2+y,1/2+z
1/2-x,1/2-y,1/2+z
1/2-x,1/2+y,1/2+z
1/2+x,1/2-y,1/2+z
loop_
_atom_site_type_symbol
_atom_site_label
_atom_site_fract_x
_atom_site_fract_y
_atom_site_fract_z
Si Si1 0.177517 0.226967 0.882230
Si Si2 0.173687 0.721948 0.686892
Si Si3 0.669149 0.159062 0.592317
Si Si4 0.677388 0.421461 0.742294
Si Si5 0.325423 0.628036 0.931191
Si Si6 0.669300 0.576507 0.422541
Si Si7 0.659219 0.579098 0.216094
O O1 0.194060 0.235931 0.778282
O O2 0.267590 0.293054 0.915734
O O3 0.230884 0.155566 0.929838
O O4 0.000000 0.232401 0.896792
O O5 0.249194 0.767684 0.612515
O O6 0.246243 0.645081 0.697706
O O7 0.000000 0.714286 0.672960
O O8 0.500000 0.171200 0.573332
O O9 0.743391 0.111259 0.519124
O O10 0.699113 0.116547 0.679234
O O11 0.500000 0.414573 0.733408
O O12 0.719720 0.500000 0.712891
O O13 0.711426 0.414052 0.844452
O O14 0.500000 0.624890 0.942842
O O15 0.500000 0.577626 0.455506
O O16 0.733742 0.500000 0.449554
O O17 0.660283 0.574924 0.318636
O O18 0.500000 0.612755 0.190719
O O19 0.657470 0.500000 0.183534
#
# Coordination Sequence:
#
# PCOD9374071 Si02
#       7
#     8   8   8   8   8   8   8
#     4   9  16  30  51  74 100 129 169 216 259 309
#     4  10  19  33  55  80 105 138 180 224 271 319
#     4  12  23  34  50  75 109 144 181 224 271 318
#     4   9  19  37  59  83 110 141 180 226 278 334
#     4  10  21  35  52  74 103 140 180 218 267 325
#     4   8  13  24  46  73  98 127 162 197 237 291
#     4   9  17  31  50  72 101 137 172 203 243 300
#
# _framework density 20.843160999999998
#
# number of rings (size 3 to 8) (size 9 to 14) (size 15 to 20)
#    0.000    2.429    1.429    3.000    0.000    2.286 
#    0.000    1.429    0.000    1.286    0.000    2.000 
#    0.000    0.000    0.000    0.000    0.000    0.000 
#
# Total GULP energy -155924.769697 kJ/mol
# GULP energy per Si atom -5568.741775 kJ/mol
# Density = 2.079572 g / cm^3
# Si number density = 20.843161 Si / 1000 Ang^3
#
#
#
# Elastic Constant Matrix: (Units=GPa)
#
#
# Indices 1 2 3 4 5 6 
#
# 1 46.3227 9.2984 8.8998 0.0000 0.0000 0.0000
# 2 9.2984 102.9614 -21.4275 0.0000 0.0000 0.0000
# 3 8.8998 -21.4275 14.4550 0.0000 0.0000 0.0000
# 4 0.0000 0.0000 0.0000 11.2130 0.0000 0.0000
# 5 0.0000 0.0000 0.0000 0.0000 16.4403 0.0000
# 6 0.0000 0.0000 0.0000 0.0000 0.0000 21.9368
#
#
#
# Elastic Compliance Matrix: (Units=1/GPa)
#
#
# Indices 1 2 3 4 5 6 
#
# 1 0.029640 -0.009363 -0.032128 0.000000 0.000000 0.000000
# 2 -0.009363 0.017003 0.030969 0.000000 0.000000 0.000000
# 3 -0.032128 0.030969 0.134869 0.000000 0.000000 0.000000
# 4 0.000000 0.000000 0.000000 0.089182 0.000000 0.000000
# 5 0.000000 0.000000 0.000000 0.000000 0.060826 0.000000
# 6 0.000000 0.000000 0.000000 0.000000 0.000000 0.045586
#
#
# Mechanical properties :
#
#
# Convention : Reuss Voigt Hill
#
# Bulk Modulus (GPa) = 6.23178 17.47562 11.85370
# Shear Modulus (GPa) = 11.07078 21.04925 16.06001
#
# Velocity S-wave (km/s) = 2.30716 3.18132 2.77883
# Velocity P-wave (km/s) = 3.17705 4.67942 3.99941
#
# Compressibility (1/GPa) = 0.16046787
#
# Stress axis : x y z
#
# Youngs Moduli (GPa) = 33.73834 58.81291 7.41459
#
# Poissons Ratio (x) = 0.55067 0.23822
# Poissons Ratio (y) = 0.31590 -0.22963
# Poissons Ratio (z) = 1.08396 -1.82140
#
# Static dielectric constant tensor:
#      x y z
#    x 1.706230 0.000000 0.000000 
#    y 0.000000 1.830260 0.000000 
#    z 0.000000 0.000000 1.834450 
# 
# From -- ./inp_files/20662.got.cif
#   From: 2010.05.17/outbox.cif.g08.bks.cpg/sg44_11_cif.got.tgz:20662.got - 2010.06.03 19:37:08.
