data_PCOD9374282
_publ_section_title
;
Structure prediction by ZEFSAII (Michael W. Deem and Ramdas Pophale) SiO2 
 PCOD9374282
Probable space group: I M M 2
;
_chemical_formula_sum "Si O2"
_cell_formula_units_Z 64
_cell_length_a 31.710235
_cell_length_b 8.301582
_cell_length_c 12.168742
_cell_angle_alpha 90.000000
_cell_angle_beta 90.000000
_cell_angle_gamma 90.000000
_cell_volume 3203.361900
_symmetry_space_group_name_H-M "I M M 2"
_symmetry_group_IT_number 44
_symmetry_cell_setting 'orthorhombic'
loop_
_space_group_symop_operation_xyz
x,y,z
-x,-y,z
-x,y,z
x,-y,z
1/2+x,1/2+y,1/2+z
1/2-x,1/2-y,1/2+z
1/2-x,1/2+y,1/2+z
1/2+x,1/2-y,1/2+z
loop_
_atom_site_type_symbol
_atom_site_label
_atom_site_fract_x
_atom_site_fract_y
_atom_site_fract_z
Si Si1 0.201481 0.688278 0.098120
Si Si2 0.829663 0.811979 0.871041
Si Si3 0.870663 0.807441 0.513316
Si Si4 0.046114 0.306772 0.126276
Si Si5 0.208489 0.314669 0.652001
Si Si6 0.428098 0.693884 0.388096
Si Si7 0.627442 0.804789 0.763251
Si Si8 0.953681 0.803523 0.644924
O O1 0.192978 0.500000 0.075695
O O2 0.249569 0.711942 0.132931
O O3 0.168794 0.740477 0.192907
O O4 0.192320 0.784836 0.987272
O O5 0.807792 0.712327 0.775345
O O6 0.878576 0.765420 0.883384
O O7 0.828412 0.000000 0.838986
O O8 0.829771 0.734678 0.572424
O O9 0.871519 0.762988 0.385605
O O10 0.913612 0.749846 0.573642
O O11 0.868580 0.000000 0.526254
O O12 0.046107 0.500000 0.136425
O O13 0.085813 0.247867 0.197349
O O14 0.000000 0.245854 0.162115
O O15 0.052654 0.265386 0.998459
O O16 0.219483 0.500000 0.633168
O O17 0.432105 0.500000 0.394986
O O18 0.447944 0.745442 0.272209
O O19 0.626585 0.000000 0.769737
O O20 0.000000 0.751954 0.604968
O O21 0.952963 0.000000 0.643652
#
# Coordination Sequence:
#
# PCOD9374282 Si02
#       8
#     8   8   8   8   8   8   8   8
#     4  11  24  43  66  91 123 162 206 255 307 365
#     4  11  22  40  66  96 127 159 202 253 307 364
#     4  11  23  41  63  89 122 161 207 258 307 361
#     4  10  21  38  60  88 124 162 202 250 303 361
#     4  12  26  43  65  92 125 164 205 251 306 366
#     4  10  19  35  61  90 124 159 198 249 302 359
#     4  10  23  42  61  86 121 163 205 250 307 366
#     4   9  18  35  59  88 121 157 197 247 307 363
#
# _framework density 19.979009999999999
#
# number of rings (size 3 to 8) (size 9 to 14) (size 15 to 20)
#    0.000    1.500    2.500    2.625    1.750    3.250 
#    0.000    0.000    0.000    1.875    0.000    0.000 
#    0.000    0.000    0.000    0.000    0.000    0.000 
#
# Total GULP energy -178859.606970 kJ/mol
# GULP energy per Si atom -5589.362718 kJ/mol
# Density = 1.993354 g / cm^3
# Si number density = 19.979010 Si / 1000 Ang^3
#
#
#
# Elastic Constant Matrix: (Units=GPa)
#
#
# Indices 1 2 3 4 5 6 
#
# 1 140.6713 -0.2971 47.7938 0.0000 0.0000 0.0000
# 2 -0.2971 15.2255 -2.9405 0.0000 0.0000 0.0000
# 3 47.7938 -2.9405 115.5031 0.0000 0.0000 0.0000
# 4 0.0000 0.0000 0.0000 30.2615 0.0000 0.0000
# 5 0.0000 0.0000 0.0000 0.0000 28.1022 0.0000
# 6 0.0000 0.0000 0.0000 0.0000 0.0000 1.0439
#
#
#
# Elastic Compliance Matrix: (Units=1/GPa)
#
#
# Indices 1 2 3 4 5 6 
#
# 1 0.008275 -0.000502 -0.003437 0.000000 0.000000 0.000000
# 2 -0.000502 0.066034 0.001889 0.000000 0.000000 0.000000
# 3 -0.003437 0.001889 0.010128 0.000000 0.000000 0.000000
# 4 0.000000 0.000000 0.000000 0.033045 0.000000 0.000000
# 5 0.000000 0.000000 0.000000 0.000000 0.035584 0.000000
# 6 0.000000 0.000000 0.000000 0.000000 0.000000 0.957989
#
#
# Mechanical properties :
#
#
# Convention : Reuss Voigt Hill
#
# Bulk Modulus (GPa) = 12.44755 40.05690 26.25223
# Shear Modulus (GPa) = 4.37853 27.00442 15.69147
#
# Velocity S-wave (km/s) = 1.48200 3.68045 2.80554
# Velocity P-wave (km/s) = 3.02858 6.17689 4.86448
#
# Compressibility (1/GPa) = 0.08033707
#
# Stress axis : x y z
#
# Youngs Moduli (GPa) = 120.83894 15.14363 98.73529
#
# Poissons Ratio (x) = 0.00761 0.33936
# Poissons Ratio (y) = 0.06070 -0.18651
# Poissons Ratio (z) = 0.41533 -0.02861
#
# Static dielectric constant tensor:
#      x y z
#    x 1.706650 0.000000 0.000000 
#    y 0.000000 1.691110 0.000000 
#    z 0.000000 0.000000 1.659680 
# 
# From -- ./inp_files/15073.got.cif
#   From: 2010.05.17/outbox.cif.g08.bks.cpg/sg44_8_cif.got.tgz:15073.got - 2010.06.03 19:37:08.
