data_PCOD9374492
_publ_section_title
;
Structure prediction by ZEFSAII (Michael W. Deem and Ramdas Pophale) SiO2 
 PCOD9374492
Probable space group: I M M 2
;
_chemical_formula_sum "Si O2"
_cell_formula_units_Z 64
_cell_length_a 15.302143
_cell_length_b 8.930102
_cell_length_c 23.457078
_cell_angle_alpha 90.000000
_cell_angle_beta 90.000000
_cell_angle_gamma 90.000000
_cell_volume 3205.402620
_symmetry_space_group_name_H-M "I M M 2"
_symmetry_group_IT_number 44
_symmetry_cell_setting 'orthorhombic'
loop_
_space_group_symop_operation_xyz
x,y,z
-x,-y,z
-x,y,z
x,-y,z
1/2+x,1/2+y,1/2+z
1/2-x,1/2-y,1/2+z
1/2-x,1/2+y,1/2+z
1/2+x,1/2-y,1/2+z
loop_
_atom_site_type_symbol
_atom_site_label
_atom_site_fract_x
_atom_site_fract_y
_atom_site_fract_z
Si Si1 0.638329 0.329056 0.696350
Si Si2 0.784930 0.819793 0.540894
Si Si3 0.601212 0.179416 0.817679
Si Si4 0.592977 0.179779 0.579981
Si Si5 0.225429 0.320823 0.423390
Si Si6 0.660791 0.828835 0.155445
Si Si7 0.396815 0.177124 0.379530
Si Si8 0.897665 0.164887 0.764953
O O1 0.606633 0.500000 0.695920
O O2 0.623803 0.257194 0.757878
O O3 0.596268 0.235538 0.645047
O O4 0.740440 0.331204 0.679917
O O5 0.683028 0.772372 0.550598
O O6 0.812079 0.755785 0.480073
O O7 0.836453 0.747692 0.593751
O O8 0.790181 0.000000 0.542749
O O9 0.500000 0.213480 0.832358
O O10 0.667655 0.222166 0.868170
O O11 0.608126 0.000000 0.810011
O O12 0.500000 0.229754 0.554091
O O13 0.594187 0.000000 0.579293
O O14 0.223543 0.500000 0.428696
O O15 0.325211 0.265159 0.415847
O O16 0.612619 0.730269 0.202331
O O17 0.629018 0.000000 0.152609
O O18 0.500000 0.213729 0.389299
O O19 0.371011 0.220662 0.314455
O O20 0.387448 0.000000 0.388892
O O21 0.000000 0.147226 0.774861
O O22 0.854975 0.000000 0.770981
#
# Coordination Sequence:
#
# PCOD9374492 Si02
#       8
#     8   8   8   8   8   8   8   8
#     4  10  20  32  51  82 113 138 170 216 267 318
#     4  10  21  37  56  77 105 142 184 229 274 323
#     4  10  22  39  57  78 107 145 186 226 273 330
#     4   9  18  33  53  77 106 140 174 208 255 319
#     4  11  23  39  59  81 108 145 190 238 283 330
#     4  10  20  35  55  79 109 144 181 221 270 330
#     4  10  21  37  58  85 117 151 185 223 274 339
#     4  10  20  34  54  82 113 141 175 223 276 330
#
# _framework density 19.966290999999998
#
# number of rings (size 3 to 8) (size 9 to 14) (size 15 to 20)
#    0.000    2.000    0.000    3.375    0.000    9.000 
#    0.000    1.875    0.000    2.250    0.000    0.000 
#    0.000    0.000    0.000    0.000    0.000    0.000 
#
# Total GULP energy -178603.400558 kJ/mol
# GULP energy per Si atom -5581.356267 kJ/mol
# Density = 1.992085 g / cm^3
# Si number density = 19.966291 Si / 1000 Ang^3
#
#
#
# Elastic Constant Matrix: (Units=GPa)
#
#
# Indices 1 2 3 4 5 6 
#
# 1 24.8584 10.1673 9.6560 0.0000 0.0000 0.0000
# 2 10.1673 42.1602 9.9440 0.0000 0.0000 0.0000
# 3 9.6560 9.9440 89.0983 0.0000 0.0000 0.0000
# 4 0.0000 0.0000 0.0000 32.7812 0.0000 0.0000
# 5 0.0000 0.0000 0.0000 0.0000 12.6308 0.0000
# 6 0.0000 0.0000 0.0000 0.0000 0.0000 12.2002
#
#
#
# Elastic Compliance Matrix: (Units=1/GPa)
#
#
# Indices 1 2 3 4 5 6 
#
# 1 0.045873 -0.010158 -0.003838 0.000000 0.000000 0.000000
# 2 -0.010158 0.026609 -0.001869 0.000000 0.000000 0.000000
# 3 -0.003838 -0.001869 0.011848 0.000000 0.000000 0.000000
# 4 0.000000 0.000000 0.000000 0.030505 0.000000 0.000000
# 5 0.000000 0.000000 0.000000 0.000000 0.079171 0.000000
# 6 0.000000 0.000000 0.000000 0.000000 0.000000 0.081966
#
#
# Mechanical properties :
#
#
# Convention : Reuss Voigt Hill
#
# Bulk Modulus (GPa) = 19.01070 23.96126 21.48598
# Shear Modulus (GPa) = 15.37347 19.94576 17.65962
#
# Velocity S-wave (km/s) = 2.77785 3.16408 2.97723
# Velocity P-wave (km/s) = 4.45316 5.03741 4.75427
#
# Compressibility (1/GPa) = 0.05260195
#
# Stress axis : x y z
#
# Youngs Moduli (GPa) = 21.79929 37.58058 84.40189
#
# Poissons Ratio (x) = 0.38173 0.32392
# Poissons Ratio (y) = 0.22143 0.15775
# Poissons Ratio (z) = 0.08366 0.07024
#
# Static dielectric constant tensor:
#      x y z
#    x 1.765350 0.000000 0.000000 
#    y 0.000000 1.686590 0.000000 
#    z 0.000000 0.000000 1.685840 
# 
# From -- ./inp_files/23326.got.cif
#   From: 2010.05.17/outbox.cif.g08.bks.cpg/sg44_12_cif.got.tgz:23326.got - 2010.06.03 19:37:08.
