data_PCOD9374114
_publ_section_title
;
Structure prediction by ZEFSAII (Michael W. Deem and Ramdas Pophale) SiO2 
 PCOD9374114
Probable space group: I M M 2
;
_chemical_formula_sum "Si O2"
_cell_formula_units_Z 28
_cell_length_a 11.309315
_cell_length_b 5.266867
_cell_length_c 26.657292
_cell_angle_alpha 90.000000
_cell_angle_beta 90.000000
_cell_angle_gamma 90.000000
_cell_volume 1587.832480
_symmetry_space_group_name_H-M "I M M 2"
_symmetry_group_IT_number 44
_symmetry_cell_setting 'orthorhombic'
loop_
_space_group_symop_operation_xyz
x,y,z
-x,-y,z
-x,y,z
x,-y,z
1/2+x,1/2+y,1/2+z
1/2-x,1/2-y,1/2+z
1/2-x,1/2+y,1/2+z
1/2+x,1/2-y,1/2+z
loop_
_atom_site_type_symbol
_atom_site_label
_atom_site_fract_x
_atom_site_fract_y
_atom_site_fract_z
Si Si1 0.356669 0.500000 0.181070
Si Si2 0.500000 0.000000 0.431775
Si Si3 0.859483 0.000000 0.455068
Si Si4 0.733199 0.000000 0.012765
Si Si5 0.720702 0.000000 0.357774
Si Si6 0.500000 0.500000 0.498858
Si Si7 0.641625 0.000000 0.124630
Si Si8 0.355493 0.500000 0.299579
O O1 0.500000 0.500000 0.177248
O O2 0.312651 0.749541 0.152555
O O3 0.332123 0.500000 0.240142
O O4 0.613271 0.000000 0.396929
O O5 0.500000 0.749639 0.464816
O O6 0.802804 0.250701 0.480789
O O7 0.832047 0.000000 0.395401
O O8 0.000000 0.000000 0.464119
O O9 0.872997 0.000000 0.025242
O O10 0.667867 0.000000 0.065877
O O11 0.701474 0.749072 0.324607
O O12 0.500000 0.000000 0.130522
O O13 0.500000 0.500000 0.307262
#
# Coordination Sequence:
#
# PCOD9374114 Si02
#       8
#     4   2   4   4   4   2   4   4
#     4   9  19  33  51  79 110 136 178 229 278 329
#     4  12  20  36  54  80 124 146 182 218 280 334
#     4  12  25  39  55  83 117 153 191 224 266 334
#     4  12  23  38  60  83 114 150 186 231 276 331
#     4  12  21  33  55  80 111 149 179 222 277 330
#     4  12  22  38  56  86 114 146 188 230 276 320
#     4  10  19  34  53  77 109 145 178 221 279 330
#     4  11  20  32  54  84 111 140 179 230 285 328
#
# _framework density 17.634101000000001
#
# number of rings (size 3 to 8) (size 9 to 14) (size 15 to 20)
#    0.000    0.857    4.286    4.714    0.000    3.429 
#    0.000    0.000    0.000    0.000   11.143    0.000 
#    0.000    0.000    0.000    0.000    0.000    0.000 
#
# Total GULP energy -78162.217216 kJ/mol
# GULP energy per Si atom -5583.015515 kJ/mol
# Density = 1.759396 g / cm^3
# Si number density = 17.634101 Si / 1000 Ang^3
#
#
#
# Elastic Constant Matrix: (Units=GPa)
#
#
# Indices 1 2 3 4 5 6 
#
# 1 63.4786 16.3371 -0.9789 0.0000 0.0000 0.0000
# 2 16.3371 194.0354 80.8316 0.0000 0.0000 0.0000
# 3 -0.9789 80.8316 112.7854 0.0000 0.0000 0.0000
# 4 0.0000 0.0000 0.0000 24.5833 0.0000 0.0000
# 5 0.0000 0.0000 0.0000 0.0000 -31.7070 0.0000
# 6 0.0000 0.0000 0.0000 0.0000 0.0000 6.2983
#
#
#
# Elastic Compliance Matrix: (Units=1/GPa)
#
#
# Indices 1 2 3 4 5 6 
#
# 1 0.016303 -0.002041 0.001604 0.000000 0.000000 0.000000
# 2 -0.002041 0.007603 -0.005467 0.000000 0.000000 0.000000
# 3 0.001604 -0.005467 0.012798 0.000000 0.000000 0.000000
# 4 0.000000 0.000000 0.000000 0.040678 0.000000 0.000000
# 5 0.000000 0.000000 0.000000 0.000000 -0.031539 0.000000
# 6 0.000000 0.000000 0.000000 0.000000 0.000000 0.158772
#
#
# Mechanical properties :
#
#
# Convention : Reuss Voigt Hill
#
# Bulk Modulus (GPa) = 40.16433 62.51988 51.34211
# Shear Modulus (GPa) = 22.24978 18.10889 20.17933
#
# Velocity S-wave (km/s) = 3.55596 3.20804 3.38647
# Velocity P-wave (km/s) = 6.29966 7.01805 6.66854
#
# Compressibility (1/GPa) = 0.02489771
#
# Stress axis : x y z
#
# Youngs Moduli (GPa) = 61.33710 131.53055 78.13662
#
# Poissons Ratio (x) = 0.26845 -0.12535
# Poissons Ratio (y) = 0.12519 0.42714
# Poissons Ratio (z) = -0.09840 0.71901
#
# Static dielectric constant tensor:
#      x y z
#    x 1.625100 0.000000 0.000000 
#    y 0.000000 1.535800 0.000000 
#    z 0.000000 0.000000 1.566440 
# 
# From -- ./inp_files/22379.got.cif
#   From: 2010.05.17/outbox.cif.g08.bks.cpg/sg44_12_cif.got.tgz:22379.got - 2010.06.03 19:37:08.
