data_PCOD9374193
_publ_section_title
;
Structure prediction by ZEFSAII (Michael W. Deem and Ramdas Pophale) SiO2 
 PCOD9374193
Probable space group: I M M 2
;
_chemical_formula_sum "Si O2"
_cell_formula_units_Z 58
_cell_length_a 9.792786
_cell_length_b 15.428154
_cell_length_c 18.007134
_cell_angle_alpha 90.000000
_cell_angle_beta 90.000000
_cell_angle_gamma 90.000000
_cell_volume 2720.600827
_symmetry_space_group_name_H-M "I M M 2"
_symmetry_group_IT_number 44
_symmetry_cell_setting 'orthorhombic'
loop_
_space_group_symop_operation_xyz
x,y,z
-x,-y,z
-x,y,z
x,-y,z
1/2+x,1/2+y,1/2+z
1/2-x,1/2-y,1/2+z
1/2-x,1/2+y,1/2+z
1/2+x,1/2-y,1/2+z
loop_
_atom_site_type_symbol
_atom_site_label
_atom_site_fract_x
_atom_site_fract_y
_atom_site_fract_z
Si Si1 0.844196 0.398211 0.734940
Si Si2 0.752792 0.365065 0.147296
Si Si3 0.655295 0.606391 0.868711
Si Si4 0.334704 0.323752 0.610632
Si Si5 0.152450 0.395050 0.313902
Si Si6 0.143816 0.399491 0.990055
Si Si7 0.500000 0.500000 0.145286
Si Si8 0.659082 0.397278 0.447057
O O1 0.859361 0.500000 0.750097
O O2 0.758147 0.362042 0.804669
O O3 0.743841 0.389463 0.664588
O O4 0.000000 0.363377 0.726380
O O5 0.752593 0.263919 0.127997
O O6 0.811663 0.370998 0.229956
O O7 0.842770 0.398303 0.078266
O O8 0.618696 0.423796 0.145479
O O9 0.500000 0.636808 0.859689
O O10 0.648302 0.500000 0.865918
O O11 0.723502 0.633409 0.946934
O O12 0.500000 0.317056 0.625481
O O13 0.319052 0.349595 0.524892
O O14 0.157601 0.500000 0.315518
O O15 0.253762 0.364006 0.377864
O O16 0.000000 0.366284 0.331380
O O17 0.136173 0.500000 0.967333
O O18 0.000000 0.356083 0.968512
O O19 0.500000 0.390949 0.427501
O O20 0.689260 0.500000 0.458654
#
# Coordination Sequence:
#
# PCOD9374193 Si02
#       8
#     8   8   8   8   8   8   2   8
#     4  10  21  39  63  93 131 177 227 274 335 406
#     4  12  25  42  67  94 132 171 227 280 344 409
#     4   9  18  32  56  87 121 164 217 268 317 387
#     4  11  24  43  66  97 135 177 225 284 346 405
#     4  10  20  38  66  97 130 172 224 278 338 405
#     4  10  19  34  58  86 120 160 209 265 330 399
#     4  12  28  44  70 104 130 180 228 288 344 428
#     4   9  20  39  67  99 134 177 223 272 335 410
#
# _framework density 21.318819999999999
#
# number of rings (size 3 to 8) (size 9 to 14) (size 15 to 20)
#    0.000    1.793    1.379    2.483    2.897    4.690 
#    2.483    1.379    0.000    0.000    0.000    0.000 
#    0.000    0.000    0.000    0.000    0.000    0.000 
#
# Total GULP energy -161493.721576 kJ/mol
# GULP energy per Si atom -5568.749020 kJ/mol
# Density = 2.127030 g / cm^3
# Si number density = 21.318820 Si / 1000 Ang^3
#
#
#
# Elastic Constant Matrix: (Units=GPa)
#
#
# Indices 1 2 3 4 5 6 
#
# 1 133.8439 39.2534 89.2334 0.0000 0.0000 0.0000
# 2 39.2534 41.4558 16.3827 0.0000 0.0000 0.0000
# 3 89.2334 16.3827 143.1895 0.0000 0.0000 0.0000
# 4 0.0000 0.0000 0.0000 4.7185 0.0000 0.0000
# 5 0.0000 0.0000 0.0000 0.0000 -284.7030 0.0000
# 6 0.0000 0.0000 0.0000 0.0000 0.0000 -15.1061
#
#
#
# Elastic Compliance Matrix: (Units=1/GPa)
#
#
# Indices 1 2 3 4 5 6 
#
# 1 0.017568 -0.012891 -0.009473 0.000000 0.000000 0.000000
# 2 -0.012891 0.034723 0.004060 0.000000 0.000000 0.000000
# 3 -0.009473 0.004060 0.012423 0.000000 0.000000 0.000000
# 4 0.000000 0.000000 0.000000 0.211930 0.000000 0.000000
# 5 0.000000 0.000000 0.000000 0.000000 -0.003512 0.000000
# 6 0.000000 0.000000 0.000000 0.000000 0.000000 -0.066198
#
#
# Mechanical properties :
#
#
# Convention : Reuss Voigt Hill
#
# Bulk Modulus (GPa) = 35.57826 67.58090 51.57958
# Shear Modulus (GPa) = 19.77005 -47.44347 -13.83671
#
# Velocity S-wave (km/s) = 3.04855 -4.72256 -2.55038
# Velocity P-wave (km/s) = 5.39596 1.42554 3.94643
#
# Compressibility (1/GPa) = 0.02810705
#
# Stress axis : x y z
#
# Youngs Moduli (GPa) = 56.92329 28.79921 80.49867
#
# Poissons Ratio (x) = 0.37124 0.76256
# Poissons Ratio (y) = 0.73378 -0.32686
# Poissons Ratio (z) = 0.53923 -0.11694
#
# Static dielectric constant tensor:
#      x y z
#    x 1.973700 0.000000 0.000000 
#    y 0.000000 1.813250 0.000000 
#    z 0.000000 0.000000 1.770010 
# 
# From -- ./inp_files/20576.got.cif
#   From: 2010.05.17/outbox.cif.g08.bks.cpg/sg44_11_cif.got.tgz:20576.got - 2010.06.03 19:37:08.
