data_PCOD9374983
_publ_section_title
;
Structure prediction by ZEFSAII (Michael W. Deem and Ramdas Pophale) SiO2 
 PCOD9374983
Probable space group: I M M 2
;
_chemical_formula_sum "Si O2"
_cell_formula_units_Z 64
_cell_length_a 10.820635
_cell_length_b 21.680147
_cell_length_c 14.260335
_cell_angle_alpha 90.000000
_cell_angle_beta 90.000000
_cell_angle_gamma 90.000000
_cell_volume 3345.374162
_symmetry_space_group_name_H-M "I M M 2"
_symmetry_group_IT_number 44
_symmetry_cell_setting 'orthorhombic'
loop_
_space_group_symop_operation_xyz
x,y,z
-x,-y,z
-x,y,z
x,-y,z
1/2+x,1/2+y,1/2+z
1/2-x,1/2-y,1/2+z
1/2-x,1/2+y,1/2+z
1/2+x,1/2-y,1/2+z
loop_
_atom_site_type_symbol
_atom_site_label
_atom_site_fract_x
_atom_site_fract_y
_atom_site_fract_z
Si Si1 0.145507 0.850741 0.900800
Si Si2 0.864165 0.108865 0.697977
Si Si3 0.638727 0.926890 0.572039
Si Si4 0.785671 0.841229 0.235283
Si Si5 0.863092 0.754703 0.615024
Si Si6 0.140047 0.749066 0.395196
Si Si7 0.857062 0.930606 0.075673
Si Si8 0.352907 0.070018 0.366787
O O1 0.144317 0.894408 0.809841
O O2 0.243962 0.796708 0.879667
O O3 0.000000 0.830053 0.913684
O O4 0.193216 0.888053 0.991554
O O5 0.743551 0.082921 0.648357
O O6 0.862789 0.180941 0.669713
O O7 0.000000 0.084196 0.668274
O O8 0.500000 0.901997 0.593349
O O9 0.684412 0.905089 0.469749
O O10 0.625664 0.000000 0.559951
O O11 0.733578 0.790944 0.162460
O O12 0.852098 0.803768 0.318785
O O13 0.853221 0.892039 0.171640
O O14 0.683487 0.881849 0.288150
O O15 0.845522 0.767646 0.504616
O O16 0.000000 0.726627 0.625688
O O17 0.000000 0.722041 0.386446
O O18 0.000000 0.937460 0.049594
O O19 0.803558 0.000000 0.083489
O O20 0.500000 0.065463 0.371264
O O21 0.303776 0.000000 0.351086
#
# Coordination Sequence:
#
# PCOD9374983 Si02
#       8
#     8   8   8   8   8   8   8   8
#     4  10  21  39  61  85 116 158 201 247 301 358
#     4  10  20  36  57  85 117 152 196 240 291 354
#     4   9  19  37  58  83 117 151 188 242 299 349
#     4  12  20  35  62  85 114 162 200 241 299 367
#     4  10  21  36  54  82 123 158 186 242 302 348
#     4  11  23  38  57  88 125 157 195 251 306 356
#     4  10  22  40  60  86 120 158 207 259 298 351
#     4   9  19  35  56  85 117 151 198 249 294 351
#
# _framework density 19.130893
#
# number of rings (size 3 to 8) (size 9 to 14) (size 15 to 20)
#    0.000    1.875    2.500    2.625    0.000    1.750 
#    0.000    2.500    0.000    2.625    0.000    0.000 
#    0.000    0.000    0.000    0.000    0.000    0.000 
#
# Total GULP energy -178168.392464 kJ/mol
# GULP energy per Si atom -5567.762265 kJ/mol
# Density = 1.908735 g / cm^3
# Si number density = 19.130893 Si / 1000 Ang^3
#
#
#
# Elastic Constant Matrix: (Units=GPa)
#
#
# Indices 1 2 3 4 5 6 
#
# 1 65.8544 26.4879 29.0935 0.0000 0.0000 0.0000
# 2 26.4879 57.4124 25.3920 0.0000 0.0001 0.0000
# 3 29.0935 25.3920 112.1949 0.0001 0.0001 0.0000
# 4 0.0000 0.0000 0.0001 20.4427 0.0001 0.0000
# 5 0.0000 0.0001 0.0001 0.0001 4.2534 0.0000
# 6 0.0000 0.0000 0.0000 0.0000 0.0000 24.7583
#
#
#
# Elastic Compliance Matrix: (Units=1/GPa)
#
#
# Indices 1 2 3 4 5 6 
#
# 1 0.019746 -0.007607 -0.003399 0.000000 0.000000 0.000000
# 2 -0.007607 0.022286 -0.003071 0.000000 0.000000 0.000000
# 3 -0.003399 -0.003071 0.010489 0.000000 0.000000 0.000000
# 4 0.000000 0.000000 0.000000 0.048917 -0.000001 0.000000
# 5 0.000000 0.000000 0.000000 -0.000001 0.235108 0.000000
# 6 0.000000 0.000000 0.000000 0.000000 0.000000 0.040390
#
#
# Mechanical properties :
#
#
# Convention : Reuss Voigt Hill
#
# Bulk Modulus (GPa) = 41.03817 44.15652 42.59734
# Shear Modulus (GPa) = 12.10029 20.19010 16.14520
#
# Velocity S-wave (km/s) = 2.51768 3.25216 2.90820
# Velocity P-wave (km/s) = 5.47261 6.10192 5.79581
#
# Compressibility (1/GPa) = 0.02436756
#
# Stress axis : x y z
#
# Youngs Moduli (GPa) = 50.64259 44.87187 95.33367
#
# Poissons Ratio (x) = 0.34134 0.32402
# Poissons Ratio (y) = 0.38524 0.29278
# Poissons Ratio (z) = 0.17213 0.13781
#
# Static dielectric constant tensor:
#      x y z
#    x 1.706210 0.000000 0.000000 
#    y 0.000000 1.683980 0.000000 
#    z 0.000000 0.000000 1.699340 
# 
# From -- ./inp_files/17927.got.cif
#   From: 2010.05.17/outbox.cif.g08.bks.cpg/sg44_9_cif.got.tgz:17927.got - 2010.06.03 19:37:08.
