data_PCOD9374252
_publ_section_title
;
Structure prediction by ZEFSAII (Michael W. Deem and Ramdas Pophale) SiO2 
 PCOD9374252
Probable space group: I M M 2
;
_chemical_formula_sum "Si O2"
_cell_formula_units_Z 48
_cell_length_a 14.188856
_cell_length_b 7.998547
_cell_length_c 19.583719
_cell_angle_alpha 90.000000
_cell_angle_beta 90.000000
_cell_angle_gamma 90.000000
_cell_volume 2222.560805
_symmetry_space_group_name_H-M "I M M 2"
_symmetry_group_IT_number 44
_symmetry_cell_setting 'orthorhombic'
loop_
_space_group_symop_operation_xyz
x,y,z
-x,-y,z
-x,y,z
x,-y,z
1/2+x,1/2+y,1/2+z
1/2-x,1/2-y,1/2+z
1/2-x,1/2+y,1/2+z
1/2+x,1/2-y,1/2+z
loop_
_atom_site_type_symbol
_atom_site_label
_atom_site_fract_x
_atom_site_fract_y
_atom_site_fract_z
Si Si1 0.605826 0.192690 0.825420
Si Si2 0.390331 0.795032 0.312222
Si Si3 0.754009 0.314028 0.922028
Si Si4 0.396384 0.200716 0.031353
Si Si5 0.602878 0.803889 0.661581
Si Si6 0.309829 0.197744 0.168260
O O1 0.500000 0.223111 0.850302
O O2 0.679431 0.313772 0.859531
O O3 0.603057 0.206086 0.744087
O O4 0.630500 0.000000 0.843075
O O5 0.500000 0.751420 0.306449
O O6 0.343278 0.734051 0.383177
O O7 0.334920 0.735519 0.243911
O O8 0.384069 0.000000 0.314480
O O9 0.780480 0.500000 0.944238
O O10 0.691597 0.238217 0.982298
O O11 0.500000 0.261987 0.008732
O O12 0.374564 0.265575 0.107478
O O13 0.401493 0.000000 0.034422
O O14 0.500000 0.737814 0.638325
O O15 0.702069 0.722178 0.643975
O O16 0.606798 0.000000 0.643208
O O17 0.327315 0.000000 0.173082
#
# Coordination Sequence:
#
# PCOD9374252 Si02
#       6
#     8   8   8   8   8   8
#     4   9  17  30  49  73 105 143 176 210 261 324
#     4   9  18  34  56  81 107 137 179 230 280 328
#     4  11  21  33  53  82 110 139 179 230 278 319
#     4  10  22  39  58  80 110 150 186 219 272 338
#     4   9  18  32  51  78 112 147 178 214 270 331
#     4  10  19  35  59  84 108 140 186 235 275 318
#
# _framework density 21.596708
#
# number of rings (size 3 to 8) (size 9 to 14) (size 15 to 20)
#    0.000    2.333    1.667    2.500    0.000    5.667 
#    0.000    2.500    0.000    8.500    0.000    0.000 
#    0.000    0.000    0.000    0.000    0.000    0.000 
#
# Total GULP energy -133728.698398 kJ/mol
# GULP energy per Si atom -5572.029100 kJ/mol
# Density = 2.154755 g / cm^3
# Si number density = 21.596708 Si / 1000 Ang^3
#
#
#
# Elastic Constant Matrix: (Units=GPa)
#
#
# Indices 1 2 3 4 5 6 
#
# 1 120.8733 2.3158 43.9628 0.0000 0.0000 0.0000
# 2 2.3158 7.0271 6.0828 0.0000 0.0000 0.0000
# 3 43.9628 6.0828 83.6028 0.0000 0.0000 0.0000
# 4 0.0000 0.0000 0.0000 14.4433 0.0000 0.0000
# 5 0.0000 0.0000 0.0000 0.0000 18.9506 0.0000
# 6 0.0000 0.0000 0.0000 0.0000 0.0000 16.2081
#
#
#
# Elastic Compliance Matrix: (Units=1/GPa)
#
#
# Indices 1 2 3 4 5 6 
#
# 1 0.010242 0.001373 -0.005486 0.000000 0.000000 0.000000
# 2 0.001373 0.152054 -0.011785 0.000000 0.000000 0.000000
# 3 -0.005486 -0.011785 0.015703 0.000000 0.000000 0.000000
# 4 0.000000 0.000000 0.000000 0.069236 0.000000 0.000000
# 5 0.000000 0.000000 0.000000 0.000000 0.052769 0.000000
# 6 0.000000 0.000000 0.000000 0.000000 0.000000 0.061698
#
#
# Mechanical properties :
#
#
# Convention : Reuss Voigt Hill
#
# Bulk Modulus (GPa) = 6.83975 35.13623 20.98799
# Shear Modulus (GPa) = 11.30626 20.52985 15.91805
#
# Velocity S-wave (km/s) = 2.29053 3.08653 2.71783
# Velocity P-wave (km/s) = 3.18893 5.38579 4.42584
#
# Compressibility (1/GPa) = 0.14620426
#
# Stress axis : x y z
#
# Youngs Moduli (GPa) = 97.63692 6.57660 63.68017
#
# Poissons Ratio (x) = -0.00903 0.34933
# Poissons Ratio (y) = -0.13408 0.75049
# Poissons Ratio (z) = 0.53561 0.07751
#
# Static dielectric constant tensor:
#      x y z
#    x 1.838870 0.000000 0.000000 
#    y 0.000000 1.801200 0.000000 
#    z 0.000000 0.000000 1.814620 
# 
# From -- ./inp_files/21722.got.cif
#   From: 2010.05.17/outbox.cif.g08.bks.cpg/sg44_11_cif.got.tgz:21722.got - 2010.06.03 19:37:08.
