data_PCOD9374599
_publ_section_title
;
Structure prediction by ZEFSAII (Michael W. Deem and Ramdas Pophale) SiO2 
 PCOD9374599
Probable space group: I M M 2
;
_chemical_formula_sum "Si O2"
_cell_formula_units_Z 64
_cell_length_a 9.159801
_cell_length_b 16.010529
_cell_length_c 23.128979
_cell_angle_alpha 90.000000
_cell_angle_beta 90.000000
_cell_angle_gamma 90.000000
_cell_volume 3391.940160
_symmetry_space_group_name_H-M "I M M 2"
_symmetry_group_IT_number 44
_symmetry_cell_setting 'orthorhombic'
loop_
_space_group_symop_operation_xyz
x,y,z
-x,-y,z
-x,y,z
x,-y,z
1/2+x,1/2+y,1/2+z
1/2-x,1/2-y,1/2+z
1/2-x,1/2+y,1/2+z
1/2+x,1/2-y,1/2+z
loop_
_atom_site_type_symbol
_atom_site_label
_atom_site_fract_x
_atom_site_fract_y
_atom_site_fract_z
Si Si1 0.170776 0.685491 0.423590
Si Si2 0.828229 0.407315 0.834306
Si Si3 0.160790 0.098480 0.017153
Si Si4 0.174794 0.404411 0.093070
Si Si5 0.327386 0.759161 0.794941
Si Si6 0.329037 0.849906 0.462723
Si Si7 0.824944 0.404044 0.633126
Si Si8 0.324665 0.725599 0.179561
O O1 0.268217 0.618836 0.456212
O O2 0.196684 0.692673 0.355326
O O3 0.223260 0.771947 0.452656
O O4 0.000000 0.671584 0.433648
O O5 0.789689 0.500000 0.813638
O O6 0.733235 0.333790 0.807641
O O7 0.813323 0.403728 0.904173
O O8 0.000000 0.392525 0.821056
O O9 0.265651 0.121362 0.069961
O O10 0.000000 0.137251 0.023675
O O11 0.146725 0.000000 0.021793
O O12 0.215381 0.500000 0.108767
O O13 0.257197 0.334299 0.130427
O O14 0.000000 0.395332 0.101914
O O15 0.201144 0.392029 0.024253
O O16 0.500000 0.756961 0.783189
O O17 0.240870 0.798117 0.741648
O O18 0.500000 0.823446 0.463397
O O19 0.775038 0.500000 0.647300
O O20 0.782894 0.324017 0.671485
O O21 0.000000 0.407314 0.632425
O O22 0.500000 0.720117 0.178325
#
# Coordination Sequence:
#
# PCOD9374599 Si02
#       8
#     8   8   8   8   8   8   8   8
#     4  10  20  34  53  77 105 138 174 213 263 320
#     4   9  17  31  53  81 112 143 174 211 258 314
#     4  10  20  33  52  80 109 135 168 212 262 317
#     4  10  21  37  57  81 110 145 184 225 271 324
#     4  10  22  38  54  74 102 139 183 225 266 317
#     4   9  17  31  54  82 110 140 173 211 258 315
#     4   9  19  36  57  82 113 146 178 215 264 324
#     4  11  23  38  57  80 107 143 187 232 276 321
#
# _framework density 18.868258000000001
#
# number of rings (size 3 to 8) (size 9 to 14) (size 15 to 20)
#    0.000    2.250    0.000    2.625    0.000    8.250 
#    0.000    1.875    0.000    3.000    0.000    0.000 
#    0.000    0.000    0.000    0.000    0.000    0.000 
#
# Total GULP energy -178440.726673 kJ/mol
# GULP energy per Si atom -5576.272709 kJ/mol
# Density = 1.882531 g / cm^3
# Si number density = 18.868258 Si / 1000 Ang^3
#
#
#
# Elastic Constant Matrix: (Units=GPa)
#
#
# Indices 1 2 3 4 5 6 
#
# 1 23.3340 15.8094 27.1117 0.0000 0.0000 0.0000
# 2 15.8094 38.8161 25.2463 0.0000 0.0000 0.0000
# 3 27.1117 25.2463 69.5368 0.0000 0.0000 0.0000
# 4 0.0000 0.0000 0.0000 7.9429 0.0000 0.0000
# 5 0.0000 0.0000 0.0000 0.0000 24.4483 0.0000
# 6 0.0000 0.0000 0.0000 0.0000 0.0000 23.2426
#
#
#
# Elastic Compliance Matrix: (Units=1/GPa)
#
#
# Indices 1 2 3 4 5 6 
#
# 1 0.086483 -0.017402 -0.027401 0.000000 0.000000 0.000000
# 2 -0.017402 0.037228 -0.006731 0.000000 0.000000 0.000000
# 3 -0.027401 -0.006731 0.027508 0.000000 0.000000 0.000000
# 4 0.000000 0.000000 0.000000 0.125899 0.000000 0.000000
# 5 0.000000 0.000000 0.000000 0.000000 0.040903 0.000000
# 6 0.000000 0.000000 0.000000 0.000000 0.000000 0.043025
#
#
# Mechanical properties :
#
#
# Convention : Reuss Voigt Hill
#
# Bulk Modulus (GPa) = 20.76793 29.78017 25.27405
# Shear Modulus (GPa) = 10.41308 15.36138 12.88723
#
# Velocity S-wave (km/s) = 2.35177 2.85641 2.61628
# Velocity P-wave (km/s) = 4.29012 5.16684 4.74876
#
# Compressibility (1/GPa) = 0.04815115
#
# Stress axis : x y z
#
# Youngs Moduli (GPa) = 11.56291 26.86123 36.35293
#
# Poissons Ratio (x) = 0.46744 0.99610
# Poissons Ratio (y) = 0.20122 0.24471
# Poissons Ratio (z) = 0.31683 0.18081
#
# Static dielectric constant tensor:
#      x y z
#    x 1.645140 0.000000 0.000000 
#    y 0.000000 1.689640 0.000000 
#    z 0.000000 0.000000 1.653110 
# 
# From -- ./inp_files/23284.got.cif
#   From: 2010.05.17/outbox.cif.g08.bks.cpg/sg44_12_cif.got.tgz:23284.got - 2010.06.03 19:37:08.
