data_PCOD9374729
_publ_section_title
;
Structure prediction by ZEFSAII (Michael W. Deem and Ramdas Pophale) SiO2 
 PCOD9374729
Probable space group: I M M 2
;
_chemical_formula_sum "Si O2"
_cell_formula_units_Z 56
_cell_length_a 15.967419
_cell_length_b 14.759917
_cell_length_c 12.783793
_cell_angle_alpha 90.000000
_cell_angle_beta 90.000000
_cell_angle_gamma 90.000000
_cell_volume 3012.855943
_symmetry_space_group_name_H-M "I M M 2"
_symmetry_group_IT_number 44
_symmetry_cell_setting 'orthorhombic'
loop_
_space_group_symop_operation_xyz
x,y,z
-x,-y,z
-x,y,z
x,-y,z
1/2+x,1/2+y,1/2+z
1/2-x,1/2-y,1/2+z
1/2-x,1/2+y,1/2+z
1/2+x,1/2-y,1/2+z
loop_
_atom_site_type_symbol
_atom_site_label
_atom_site_fract_x
_atom_site_fract_y
_atom_site_fract_z
Si Si1 0.595735 0.401740 0.166760
Si Si2 0.405768 0.103790 0.631488
Si Si3 0.821510 0.717870 0.732341
Si Si4 0.139795 0.722098 0.322629
Si Si5 0.822564 0.603642 0.926459
Si Si6 0.602546 0.110460 0.032943
Si Si7 0.878929 0.901177 0.420321
O O1 0.500000 0.403106 0.201889
O O2 0.635306 0.500000 0.190836
O O3 0.639355 0.315654 0.214090
O O4 0.595857 0.392850 0.041072
O O5 0.500000 0.103265 0.589301
O O6 0.402637 0.161952 0.734892
O O7 0.346484 0.139725 0.540244
O O8 0.381492 0.000000 0.655862
O O9 0.726306 0.743102 0.767570
O O10 0.856231 0.663649 0.832432
O O11 0.847311 0.656520 0.631062
O O12 0.139295 0.660511 0.428669
O O13 0.094274 0.814588 0.355562
O O14 0.853640 0.500000 0.919187
O O15 0.722250 0.600559 0.920098
O O16 0.500000 0.126901 0.039308
O O17 0.613470 0.000000 0.030442
O O18 0.905238 0.000000 0.381294
#
# Coordination Sequence:
#
# PCOD9374729 Si02
#       7
#     8   8   8   8   8   8   8
#     4  10  20  34  54  80 110 146 191 242 295 351
#     4  10  21  36  56  83 117 156 196 242 298 363
#     4  11  22  36  61  87 122 158 202 249 307 368
#     4  11  22  35  61  88 122 157 205 246 304 370
#     4   9  19  36  57  82 113 149 192 239 294 361
#     4  11  24  42  65  97 133 164 203 264 331 382
#     4   9  18  34  55  80 109 143 186 242 292 345
#
# _framework density 18.587015999999998
#
# number of rings (size 3 to 8) (size 9 to 14) (size 15 to 20)
#    0.000    1.857    1.429    2.571    2.000    5.714 
#    0.000    1.429    0.000    0.000    0.000    0.000 
#    0.000    0.000    0.000    0.000    0.000    0.000 
#
# Total GULP energy -155968.219976 kJ/mol
# GULP energy per Si atom -5570.293571 kJ/mol
# Density = 1.854471 g / cm^3
# Si number density = 18.587016 Si / 1000 Ang^3
#
#
#
# Elastic Constant Matrix: (Units=GPa)
#
#
# Indices 1 2 3 4 5 6 
#
# 1 66.1240 46.6351 38.1030 0.0000 0.0000 0.0000
# 2 46.6351 133.7463 70.9921 0.0000 0.0000 0.0000
# 3 38.1030 70.9921 114.9341 0.0000 0.0000 0.0000
# 4 0.0000 0.0000 0.0000 40.1268 0.0000 0.0000
# 5 0.0000 0.0000 0.0000 0.0000 43.4803 0.0000
# 6 0.0000 0.0000 0.0000 0.0000 0.0000 2.8186
#
#
#
# Elastic Compliance Matrix: (Units=1/GPa)
#
#
# Indices 1 2 3 4 5 6 
#
# 1 0.021028 -0.005403 -0.003634 0.000000 0.000000 0.000000
# 2 -0.005403 0.012512 -0.005937 0.000000 0.000000 0.000000
# 3 -0.003634 -0.005937 0.013573 0.000000 0.000000 0.000000
# 4 0.000000 0.000000 0.000000 0.024921 0.000000 0.000000
# 5 0.000000 0.000000 0.000000 0.000000 0.022999 0.000000
# 6 0.000000 0.000000 0.000000 0.000000 0.000000 0.354784
#
#
# Mechanical properties :
#
#
# Convention : Reuss Voigt Hill
#
# Bulk Modulus (GPa) = 58.26070 69.58499 63.92284
# Shear Modulus (GPa) = 10.29895 27.89007 19.09451
#
# Velocity S-wave (km/s) = 2.35647 3.87785 3.20864
# Velocity P-wave (km/s) = 6.23032 7.58742 6.94211
#
# Compressibility (1/GPa) = 0.01716423
#
# Stress axis : x y z
#
# Youngs Moduli (GPa) = 47.55632 79.92083 73.67786
#
# Poissons Ratio (x) = 0.43183 0.26772
# Poissons Ratio (y) = 0.25696 0.43745
# Poissons Ratio (z) = 0.17280 0.47451
#
# Static dielectric constant tensor:
#      x y z
#    x 1.693920 0.000000 0.000000 
#    y 0.000000 1.671400 0.000000 
#    z 0.000000 0.000000 1.622750 
# 
# From -- ./inp_files/13245.got.cif
#   From: 2010.05.17/outbox.cif.g08.bks.cpg/sg44_7_cif.got.tgz:13245.got - 2010.06.03 19:37:08.
