data_PCOD9374654
_publ_section_title
;
Structure prediction by ZEFSAII (Michael W. Deem and Ramdas Pophale) SiO2 
 PCOD9374654
Probable space group: I M M 2
;
_chemical_formula_sum "Si O2"
_cell_formula_units_Z 64
_cell_length_a 28.287646
_cell_length_b 8.802115
_cell_length_c 15.124483
_cell_angle_alpha 90.000000
_cell_angle_beta 90.000000
_cell_angle_gamma 90.000000
_cell_volume 3765.861858
_symmetry_space_group_name_H-M "I M M 2"
_symmetry_group_IT_number 44
_symmetry_cell_setting 'orthorhombic'
loop_
_space_group_symop_operation_xyz
x,y,z
-x,-y,z
-x,y,z
x,-y,z
1/2+x,1/2+y,1/2+z
1/2-x,1/2-y,1/2+z
1/2-x,1/2+y,1/2+z
1/2+x,1/2-y,1/2+z
loop_
_atom_site_type_symbol
_atom_site_label
_atom_site_fract_x
_atom_site_fract_y
_atom_site_fract_z
Si Si1 0.139652 0.681963 0.465650
Si Si2 0.053820 0.315140 0.342825
Si Si3 0.280728 0.681196 0.841319
Si Si4 0.716799 0.818303 0.649779
Si Si5 0.055275 0.317416 0.141262
Si Si6 0.177124 0.817313 0.841472
Si Si7 0.362749 0.681280 0.525649
Si Si8 0.827925 0.818511 0.641573
O O1 0.142467 0.500000 0.460560
O O2 0.092394 0.733202 0.414136
O O3 0.183963 0.753040 0.414002
O O4 0.142695 0.734848 0.566600
O O5 0.053216 0.500000 0.342686
O O6 0.066874 0.269864 0.242399
O O7 0.000000 0.264977 0.360824
O O8 0.282283 0.500000 0.841356
O O9 0.294608 0.745872 0.744958
O O10 0.227450 0.738345 0.857831
O O11 0.681736 0.753288 0.576862
O O12 0.771871 0.784390 0.629883
O O13 0.711769 0.000000 0.655886
O O14 0.060683 0.500000 0.136836
O O15 0.090218 0.242089 0.071984
O O16 0.000000 0.282383 0.126164
O O17 0.160361 0.776002 0.742836
O O18 0.185253 0.000000 0.840561
O O19 0.142440 0.780732 0.921973
O O20 0.360482 0.500000 0.534517
O O21 0.833582 0.000000 0.631700
#
# Coordination Sequence:
#
# PCOD9374654 Si02
#       8
#     8   8   8   8   8   8   8   8
#     4  11  20  30  50  76 100 129 164 203 248 298
#     4   8  16  32  52  73  97 126 159 193 235 291
#     4  11  21  32  49  74 103 133 166 206 247 291
#     4  10  20  34  50  70 101 138 169 201 245 297
#     4   9  18  34  55  76 100 132 165 198 246 308
#     4   9  20  37  52  68  96 135 173 207 246 292
#     4  11  21  32  51  77 101 129 168 211 252 298
#     4   9  19  35  51  68  96 133 170 208 245 284
#
# _framework density 16.994782000000001
#
# number of rings (size 3 to 8) (size 9 to 14) (size 15 to 20)
#    0.000    2.250    0.000    5.250    0.000    6.750 
#    0.000    0.625    0.000    3.750    0.000    3.500 
#    0.000    0.000    0.000    0.000    0.000    0.000 
#
# Total GULP energy -178614.722987 kJ/mol
# GULP energy per Si atom -5581.710093 kJ/mol
# Density = 1.695610 g / cm^3
# Si number density = 16.994782 Si / 1000 Ang^3
#
#
#
# Elastic Constant Matrix: (Units=GPa)
#
#
# Indices 1 2 3 4 5 6 
#
# 1 76.3986 39.0175 89.3716 0.0000 0.0000 0.0000
# 2 39.0175 42.3925 52.3673 0.0000 0.0000 0.0000
# 3 89.3716 52.3673 156.2304 0.0000 0.0000 0.0000
# 4 0.0000 0.0000 0.0000 28.8873 0.0000 0.0000
# 5 0.0000 0.0000 0.0000 0.0000 27.6256 0.0000
# 6 0.0000 0.0000 0.0000 0.0000 0.0000 18.5731
#
#
#
# Elastic Compliance Matrix: (Units=1/GPa)
#
#
# Indices 1 2 3 4 5 6 
#
# 1 0.045520 -0.016605 -0.020474 0.000000 0.000000 0.000000
# 2 -0.016605 0.046316 -0.006026 0.000000 0.000000 0.000000
# 3 -0.020474 -0.006026 0.020133 0.000000 0.000000 0.000000
# 4 0.000000 0.000000 0.000000 0.034617 0.000000 0.000000
# 5 0.000000 0.000000 0.000000 0.000000 0.036198 0.000000
# 6 0.000000 0.000000 0.000000 0.000000 0.000000 0.053841
#
#
# Mechanical properties :
#
#
# Convention : Reuss Voigt Hill
#
# Bulk Modulus (GPa) = 38.82101 70.72603 54.77352
# Shear Modulus (GPa) = 15.08656 21.30154 18.19405
#
# Velocity S-wave (km/s) = 2.98269 3.54420 3.27550
# Velocity P-wave (km/s) = 5.89529 7.64560 6.82677
#
# Compressibility (1/GPa) = 0.02575925
#
# Stress axis : x y z
#
# Youngs Moduli (GPa) = 21.96834 21.59102 49.67017
#
# Poissons Ratio (x) = 0.35851 1.01695
# Poissons Ratio (y) = 0.36478 0.29931
# Poissons Ratio (z) = 0.44978 0.13011
#
# Static dielectric constant tensor:
#      x y z
#    x 1.555690 0.000000 0.000000 
#    y 0.000000 1.570720 0.000000 
#    z 0.000000 0.000000 1.584790 
# 
# From -- ./inp_files/19704.got.cif
#   From: 2010.05.17/outbox.cif.g08.bks.cpg/sg44_10_cif.got.tgz:19704.got - 2010.06.03 19:37:08.
