data_PCOD9374660
_publ_section_title
;
Structure prediction by ZEFSAII (Michael W. Deem and Ramdas Pophale) SiO2 
 PCOD9374660
Probable space group: I M M 2
;
_chemical_formula_sum "Si O2"
_cell_formula_units_Z 40
_cell_length_a 19.086129
_cell_length_b 8.086159
_cell_length_c 13.981195
_cell_angle_alpha 90.000000
_cell_angle_beta 90.000000
_cell_angle_gamma 90.000000
_cell_volume 2157.766392
_symmetry_space_group_name_H-M "I M M 2"
_symmetry_group_IT_number 44
_symmetry_cell_setting 'orthorhombic'
loop_
_space_group_symop_operation_xyz
x,y,z
-x,-y,z
-x,y,z
x,-y,z
1/2+x,1/2+y,1/2+z
1/2-x,1/2-y,1/2+z
1/2-x,1/2+y,1/2+z
1/2+x,1/2-y,1/2+z
loop_
_atom_site_type_symbol
_atom_site_label
_atom_site_fract_x
_atom_site_fract_y
_atom_site_fract_z
Si Si1 0.291002 0.801354 0.057880
Si Si2 0.500000 0.194520 0.567997
Si Si3 0.285162 0.200177 0.845611
Si Si4 0.000000 0.191013 0.854409
Si Si5 0.359482 0.198000 0.252192
Si Si6 0.646384 0.200594 0.649925
O O1 0.339028 0.740244 0.145579
O O2 0.211113 0.759346 0.085270
O O3 0.297762 0.000000 0.057158
O O4 0.306200 0.740186 0.951013
O O5 0.500000 0.210905 0.453895
O O6 0.572056 0.263274 0.611634
O O7 0.500000 0.000000 0.592119
O O8 0.207006 0.257534 0.818324
O O9 0.335246 0.252595 0.758386
O O10 0.284650 0.000000 0.846786
O O11 0.930673 0.230269 0.793971
O O12 0.000000 0.000000 0.881356
O O13 0.366201 0.000000 0.249563
O O14 0.646588 0.000000 0.647016
#
# Coordination Sequence:
#
# PCOD9374660 Si02
#       6
#     8   4   8   4   8   8
#     4   9  18  32  51  73  98 128 164 202 243 288
#     4  10  20  34  51  74 102 132 163 200 245 292
#     4   9  17  32  52  75 101 131 165 202 242 287
#     4  12  24  36  51  72  98 130 163 202 249 296
#     4  10  20  34  51  74 101 130 164 203 244 291
#     4   9  18  31  49  73 101 130 164 202 241 286
#
# _framework density 18.537686999999998
#
# number of rings (size 3 to 8) (size 9 to 14) (size 15 to 20)
#    0.000    2.400    0.000    2.700    0.000    5.600 
#    0.000    1.000    0.000    4.800    0.000    1.400 
#    0.000    0.000    0.000    0.000    0.000    0.000 
#
# Total GULP energy -111576.426626 kJ/mol
# GULP energy per Si atom -5578.821331 kJ/mol
# Density = 1.849549 g / cm^3
# Si number density = 18.537687 Si / 1000 Ang^3
#
#
#
# Elastic Constant Matrix: (Units=GPa)
#
#
# Indices 1 2 3 4 5 6 
#
# 1 109.3250 -11.0936 44.1368 0.0000 0.0000 0.0000
# 2 -11.0936 8.1099 -11.3666 0.0000 0.0000 0.0000
# 3 44.1368 -11.3666 119.9676 0.0000 0.0000 0.0000
# 4 0.0000 0.0000 0.0000 13.5684 0.0000 0.0000
# 5 0.0000 0.0000 0.0000 0.0000 13.2199 0.0000
# 6 0.0000 0.0000 0.0000 0.0000 0.0000 20.9999
#
#
#
# Elastic Compliance Matrix: (Units=1/GPa)
#
#
# Indices 1 2 3 4 5 6 
#
# 1 0.011588 0.011389 -0.003184 0.000000 0.000000 0.000000
# 2 0.011389 0.153381 0.010342 0.000000 0.000000 0.000000
# 3 -0.003184 0.010342 0.010487 0.000000 0.000000 0.000000
# 4 0.000000 0.000000 0.000000 0.073701 0.000000 0.000000
# 5 0.000000 0.000000 0.000000 0.000000 0.075644 0.000000
# 6 0.000000 0.000000 0.000000 0.000000 0.000000 0.047619
#
#
# Mechanical properties :
#
#
# Convention : Reuss Voigt Hill
#
# Bulk Modulus (GPa) = 4.70479 31.19508 17.94993
# Shear Modulus (GPa) = 12.30994 23.93936 18.12465
#
# Velocity S-wave (km/s) = 2.57971 3.59749 3.13024
# Velocity P-wave (km/s) = 3.37886 5.84126 4.77164
#
# Compressibility (1/GPa) = 0.21254942
#
# Stress axis : x y z
#
# Youngs Moduli (GPa) = 86.29407 6.51973 95.35568
#
# Poissons Ratio (x) = -0.07425 0.30365
# Poissons Ratio (y) = -0.98277 -0.98621
# Poissons Ratio (z) = 0.27479 -0.06743
#
# Static dielectric constant tensor:
#      x y z
#    x 1.605060 0.000000 0.000000 
#    y 0.000000 1.654770 0.000000 
#    z 0.000000 0.000000 1.662630 
# 
# From -- ./inp_files/15813.got.cif
#   From: 2010.05.17/outbox.cif.g08.bks.cpg/sg44_8_cif.got.tgz:15813.got - 2010.06.03 19:37:08.
