data_PCOD9374249
_publ_section_title
;
Structure prediction by ZEFSAII (Michael W. Deem and Ramdas Pophale) SiO2 
 PCOD9374249
Probable space group: I M M 2
;
_chemical_formula_sum "Si O2"
_cell_formula_units_Z 56
_cell_length_a 14.042851
_cell_length_b 15.789534
_cell_length_c 11.566808
_cell_angle_alpha 90.000000
_cell_angle_beta 90.000000
_cell_angle_gamma 90.000000
_cell_volume 2564.709186
_symmetry_space_group_name_H-M "I M M 2"
_symmetry_group_IT_number 44
_symmetry_cell_setting 'orthorhombic'
loop_
_space_group_symop_operation_xyz
x,y,z
-x,-y,z
-x,y,z
x,-y,z
1/2+x,1/2+y,1/2+z
1/2-x,1/2-y,1/2+z
1/2-x,1/2+y,1/2+z
1/2+x,1/2-y,1/2+z
loop_
_atom_site_type_symbol
_atom_site_label
_atom_site_fract_x
_atom_site_fract_y
_atom_site_fract_z
Si Si1 0.613853 0.596050 0.587880
Si Si2 0.349269 0.909762 0.668591
Si Si3 0.613289 0.287168 0.004938
Si Si4 0.609200 0.778374 0.251384
Si Si5 0.160330 0.905421 0.828688
Si Si6 0.104681 0.236554 0.259943
Si Si7 0.728783 0.904926 0.414633
O O1 0.500000 0.612092 0.562378
O O2 0.620024 0.500000 0.632162
O O3 0.670552 0.600213 0.467414
O O4 0.649642 0.663695 0.681560
O O5 0.252686 0.904616 0.745668
O O6 0.400082 0.822397 0.691103
O O7 0.331318 0.910271 0.532272
O O8 0.393549 0.000000 0.701046
O O9 0.500000 0.301111 0.021773
O O10 0.644297 0.237549 0.119499
O O11 0.637026 0.236441 0.887597
O O12 0.670629 0.371518 0.968068
O O13 0.500000 0.811026 0.251199
O O14 0.607953 0.681764 0.298128
O O15 0.676526 0.838585 0.328901
O O16 0.116276 0.000000 0.809280
O O17 0.000000 0.200237 0.282306
O O18 0.736843 0.000000 0.365792
#
# Coordination Sequence:
#
# PCOD9374249 Si02
#       7
#     8   8   8   8   8   8   8
#     4   9  18  33  56  87 119 152 196 256 327 399
#     4  10  21  37  58  87 123 166 218 270 329 401
#     4  10  23  42  67  98 132 176 229 286 354 421
#     4  11  23  41  68  99 134 180 234 294 353 416
#     4  10  19  35  58  88 126 166 215 277 342 407
#     4  10  21  38  59  84 120 164 212 271 334 401
#     4  11  24  43  67  98 138 184 230 285 348 418
#
# _framework density 21.834834000000001
#
# number of rings (size 3 to 8) (size 9 to 14) (size 15 to 20)
#    0.000    1.857    1.429    2.143    0.000    4.000 
#    0.000    5.000    0.000    2.571    0.000    0.000 
#    0.000    0.000    0.000    0.000    0.000    0.000 
#
# Total GULP energy -155888.589702 kJ/mol
# GULP energy per Si atom -5567.449632 kJ/mol
# Density = 2.178514 g / cm^3
# Si number density = 21.834834 Si / 1000 Ang^3
#
#
#
# Elastic Constant Matrix: (Units=GPa)
#
#
# Indices 1 2 3 4 5 6 
#
# 1 89.5262 44.5741 40.8330 0.0000 0.0000 0.0000
# 2 44.5741 142.7252 78.9686 0.0000 0.0000 0.0000
# 3 40.8330 78.9686 158.7809 0.0000 0.0000 0.0000
# 4 0.0000 0.0000 0.0000 22.9798 0.0000 0.0000
# 5 0.0000 0.0000 0.0000 0.0000 21.5863 0.0000
# 6 0.0000 0.0000 0.0000 0.0000 0.0000 18.1850
#
#
#
# Elastic Compliance Matrix: (Units=1/GPa)
#
#
# Indices 1 2 3 4 5 6 
#
# 1 0.013636 -0.003199 -0.001916 0.000000 0.000000 0.000000
# 2 -0.003199 0.010417 -0.004358 0.000000 0.000000 0.000000
# 3 -0.001916 -0.004358 0.008958 0.000000 0.000000 0.000000
# 4 0.000000 0.000000 0.000000 0.043516 0.000000 0.000000
# 5 0.000000 0.000000 0.000000 0.000000 0.046326 0.000000
# 6 0.000000 0.000000 0.000000 0.000000 0.000000 0.054990
#
#
# Mechanical properties :
#
#
# Convention : Reuss Voigt Hill
#
# Bulk Modulus (GPa) = 71.09431 79.97595 75.53513
# Shear Modulus (GPa) = 24.81663 27.66067 26.23865
#
# Velocity S-wave (km/s) = 3.37495 3.56309 3.47030
# Velocity P-wave (km/s) = 6.91504 7.32357 7.12224
#
# Compressibility (1/GPa) = 0.01406582
#
# Stress axis : x y z
#
# Youngs Moduli (GPa) = 73.33329 95.99936 111.62974
#
# Poissons Ratio (x) = 0.30707 0.21388
# Poissons Ratio (y) = 0.23457 0.48649
# Poissons Ratio (z) = 0.14051 0.41838
#
# Static dielectric constant tensor:
#      x y z
#    x 1.893700 0.000000 0.000000 
#    y 0.000000 1.817780 0.000000 
#    z 0.000000 0.000000 1.837130 
# 
# From -- ./inp_files/13243.got.cif
#   From: 2010.05.17/outbox.cif.g08.bks.cpg/sg44_7_cif.got.tgz:13243.got - 2010.06.03 19:37:08.
