data_PCOD9375255
_publ_section_title
;
Structure prediction by ZEFSAII (Michael W. Deem and Ramdas Pophale) SiO2 
 PCOD9375255
Probable space group: I M M 2
;
_chemical_formula_sum "Si O2"
_cell_formula_units_Z 56
_cell_length_a 10.037665
_cell_length_b 13.818750
_cell_length_c 19.655285
_cell_angle_alpha 90.000000
_cell_angle_beta 90.000000
_cell_angle_gamma 90.000000
_cell_volume 2726.344942
_symmetry_space_group_name_H-M "I M M 2"
_symmetry_group_IT_number 44
_symmetry_cell_setting 'orthorhombic'
loop_
_space_group_symop_operation_xyz
x,y,z
-x,-y,z
-x,y,z
x,-y,z
1/2+x,1/2+y,1/2+z
1/2-x,1/2-y,1/2+z
1/2-x,1/2+y,1/2+z
1/2+x,1/2-y,1/2+z
loop_
_atom_site_type_symbol
_atom_site_label
_atom_site_fract_x
_atom_site_fract_y
_atom_site_fract_z
Si Si1 0.656038 0.777792 0.043170
Si Si2 0.342602 0.384621 0.433155
Si Si3 0.854522 0.886051 0.298913
Si Si4 0.839656 0.891097 0.773133
Si Si5 0.344615 0.194784 0.195955
Si Si6 0.360965 0.887551 0.393805
Si Si7 0.147562 0.389493 0.056532
O O1 0.500000 0.768154 0.023759
O O2 0.662693 0.829967 0.116287
O O3 0.724924 0.676994 0.065983
O O4 0.746928 0.826921 0.985004
O O5 0.500000 0.359195 0.443823
O O6 0.330211 0.500000 0.445768
O O7 0.309023 0.370509 0.352962
O O8 0.756523 0.871858 0.236368
O O9 0.772305 0.845079 0.362850
O O10 0.000000 0.841825 0.289841
O O11 0.871889 0.000000 0.310143
O O12 0.803607 0.803468 0.722300
O O13 0.000000 0.896635 0.770199
O O14 0.788601 0.000000 0.756346
O O15 0.500000 0.182850 0.215083
O O16 0.500000 0.840587 0.370919
O O17 0.360205 0.889922 0.474421
O O18 0.365596 0.000000 0.372025
O O19 0.164833 0.500000 0.079630
O O20 0.000000 0.354761 0.080573
#
# Coordination Sequence:
#
# PCOD9375255 Si02
#       7
#     8   8   8   8   8   8   8
#     4  11  24  37  53  84 122 155 187 235 297 351
#     4   9  19  38  64  88 109 143 196 253 300 346
#     4  10  21  35  52  78 112 146 180 225 279 330
#     4   8  16  35  63  88 106 135 190 249 289 331
#     4  10  22  38  56  81 113 151 192 232 282 346
#     4   8  15  30  52  76 101 134 177 218 259 316
#     4   9  19  36  57  80 109 149 192 229 269 329
#
# _framework density 20.540320999999999
#
# number of rings (size 3 to 8) (size 9 to 14) (size 15 to 20)
#    0.000    2.714    0.000    2.571    2.000    4.286 
#    0.000    5.714    0.000    1.286    0.000    0.000 
#    0.000    0.000    0.000    0.000    0.000    0.000 
#
# Total GULP energy -155897.377341 kJ/mol
# GULP energy per Si atom -5567.763476 kJ/mol
# Density = 2.049357 g / cm^3
# Si number density = 20.540321 Si / 1000 Ang^3
#
#
#
# Elastic Constant Matrix: (Units=GPa)
#
#
# Indices 1 2 3 4 5 6 
#
# 1 113.0324 28.3843 22.6228 0.0000 0.0000 0.0000
# 2 28.3843 70.1322 4.0799 0.0000 0.0000 0.0000
# 3 22.6228 4.0799 67.5267 0.0000 0.0000 0.0000
# 4 0.0000 0.0000 0.0000 16.9498 0.0000 0.0000
# 5 0.0000 0.0000 0.0000 0.0000 14.7022 0.0000
# 6 0.0000 0.0000 0.0000 0.0000 0.0000 22.8457
#
#
#
# Elastic Compliance Matrix: (Units=1/GPa)
#
#
# Indices 1 2 3 4 5 6 
#
# 1 0.010525 -0.004069 -0.003280 0.000000 0.000000 0.000000
# 2 -0.004069 0.015882 0.000404 0.000000 0.000000 0.000000
# 3 -0.003280 0.000404 0.015884 0.000000 0.000000 0.000000
# 4 0.000000 0.000000 0.000000 0.058998 0.000000 0.000000
# 5 0.000000 0.000000 0.000000 0.000000 0.068017 0.000000
# 6 0.000000 0.000000 0.000000 0.000000 0.000000 0.043772
#
#
# Mechanical properties :
#
#
# Convention : Reuss Voigt Hill
#
# Bulk Modulus (GPa) = 35.21187 40.09615 37.65401
# Shear Modulus (GPa) = 21.14740 23.93983 22.54361
#
# Velocity S-wave (km/s) = 3.21215 3.41765 3.31649
# Velocity P-wave (km/s) = 5.56212 5.92764 5.74779
#
# Compressibility (1/GPa) = 0.02839951
#
# Stress axis : x y z
#
# Youngs Moduli (GPa) = 95.00849 62.96378 62.95815
#
# Poissons Ratio (x) = 0.25620 0.20653
# Poissons Ratio (y) = 0.38659 -0.02541
# Poissons Ratio (z) = 0.31166 -0.02541
#
# Static dielectric constant tensor:
#      x y z
#    x 1.937500 0.000000 0.000000 
#    y 0.000000 1.816890 0.000000 
#    z 0.000000 0.000000 1.744050 
# 
# From -- ./inp_files/23069.got.cif
#   From: 2010.05.17/outbox.cif.g08.bks.cpg/sg44_12_cif.got.tgz:23069.got - 2010.06.03 19:37:08.
