data_PCOD9375779
_publ_section_title
;
Structure prediction by ZEFSAII (Michael W. Deem and Ramdas Pophale) SiO2 
 PCOD9375779
Probable space group: I M M 2
;
_chemical_formula_sum "Si O2"
_cell_formula_units_Z 26
_cell_length_a 16.254821
_cell_length_b 13.518183
_cell_length_c 5.328919
_cell_angle_alpha 90.000000
_cell_angle_beta 90.000000
_cell_angle_gamma 90.000000
_cell_volume 1170.953453
_symmetry_space_group_name_H-M "I M M 2"
_symmetry_group_IT_number 44
_symmetry_cell_setting 'orthorhombic'
loop_
_space_group_symop_operation_xyz
x,y,z
-x,-y,z
-x,y,z
x,-y,z
1/2+x,1/2+y,1/2+z
1/2-x,1/2-y,1/2+z
1/2-x,1/2+y,1/2+z
1/2+x,1/2-y,1/2+z
loop_
_atom_site_type_symbol
_atom_site_label
_atom_site_fract_x
_atom_site_fract_y
_atom_site_fract_z
Si Si1 0.833816 0.390676 0.651450
Si Si2 0.000000 0.500000 0.761773
Si Si3 0.905060 0.118001 0.871914
Si Si4 0.678180 0.300301 0.871676
O O1 0.799621 0.500000 0.587020
O O2 0.772032 0.337033 0.842497
O O3 0.832790 0.316570 0.417171
O O4 0.925713 0.415002 0.746762
O O5 0.860199 0.150560 0.618384
O O6 0.000000 0.148275 0.853314
O O7 0.901437 0.000000 0.894324
O O8 0.866181 0.164287 0.120626
#
# Coordination Sequence:
#
# PCOD9375779 Si02
#       4
#     8   2   8   8
#     4  10  24  46  78 113 156 202 263 315 394 461
#     4   8  24  48  80 114 160 202 260 334 376 470
#     4  11  25  42  71 111 155 202 258 319 388 466
#     4  12  24  46  78 108 153 208 257 324 390 466
#
# _framework density 22.204125000000001
#
# number of rings (size 3 to 8) (size 9 to 14) (size 15 to 20)
#    0.923    0.308    0.000    5.538    4.308    2.462 
#    0.000   10.769    0.000   18.462    0.000    0.000 
#    0.000    0.000    0.000    0.000    0.000    0.000 
#
# Total GULP energy -72419.029823 kJ/mol
# GULP energy per Si atom -5570.694602 kJ/mol
# Density = 2.215359 g / cm^3
# Si number density = 22.204125 Si / 1000 Ang^3
#
#
#
# Elastic Constant Matrix: (Units=GPa)
#
#
# Indices 1 2 3 4 5 6 
#
# 1 213.7199 35.0317 69.5205 0.0000 0.0000 0.0000
# 2 35.0317 116.8548 22.0626 0.0000 0.0000 0.0000
# 3 69.5205 22.0626 155.0757 0.0000 0.0000 0.0000
# 4 0.0000 0.0000 0.0000 14.1638 0.0000 0.0000
# 5 0.0000 0.0000 0.0000 0.0000 9.5530 0.0000
# 6 0.0000 0.0000 0.0000 0.0000 0.0000 98.0904
#
#
#
# Elastic Compliance Matrix: (Units=1/GPa)
#
#
# Indices 1 2 3 4 5 6 
#
# 1 0.005650 -0.001249 -0.002355 0.000000 0.000000 0.000000
# 2 -0.001249 0.009070 -0.000730 0.000000 0.000000 0.000000
# 3 -0.002355 -0.000730 0.007608 0.000000 0.000000 0.000000
# 4 0.000000 0.000000 0.000000 0.070602 0.000000 0.000000
# 5 0.000000 0.000000 0.000000 0.000000 0.104679 0.000000
# 6 0.000000 0.000000 0.000000 0.000000 0.000000 0.010195
#
#
# Mechanical properties :
#
#
# Convention : Reuss Voigt Hill
#
# Bulk Modulus (GPa) = 73.21313 82.09778 77.65545
# Shear Modulus (GPa) = 22.62174 48.29716 35.45945
#
# Velocity S-wave (km/s) = 3.19534 4.66890 4.00055
# Velocity P-wave (km/s) = 6.83066 8.13137 7.50923
#
# Compressibility (1/GPa) = 0.01365875
#
# Stress axis : x y z
#
# Youngs Moduli (GPa) = 176.99547 110.25361 131.43744
#
# Poissons Ratio (x) = 0.13772 0.30955
# Poissons Ratio (y) = 0.22109 0.09600
# Poissons Ratio (z) = 0.41685 0.08053
#
# Static dielectric constant tensor:
#      x y z
#    x 1.835230 0.000000 0.000000 
#    y 0.000000 1.845430 0.000000 
#    z 0.000000 0.000000 1.797970 
# 
# From -- ./inp_files/1817.got.cif
#   From: 2010.05.17/outbox.cif.g08.bks.cpg/sg44_1_cif.got.tgz:1817.got - 2010.06.03 19:37:08.
