data_PCOD9375070
_publ_section_title
;
Structure prediction by ZEFSAII (Michael W. Deem and Ramdas Pophale) SiO2 
 PCOD9375070
Probable space group: I M M 2
;
_chemical_formula_sum "Si O2"
_cell_formula_units_Z 36
_cell_length_a 24.286754
_cell_length_b 7.426709
_cell_length_c 7.575466
_cell_angle_alpha 90.000000
_cell_angle_beta 90.000000
_cell_angle_gamma 90.000000
_cell_volume 1366.391761
_symmetry_space_group_name_H-M "I M M 2"
_symmetry_group_IT_number 44
_symmetry_cell_setting 'orthorhombic'
loop_
_space_group_symop_operation_xyz
x,y,z
-x,-y,z
-x,y,z
x,-y,z
1/2+x,1/2+y,1/2+z
1/2-x,1/2-y,1/2+z
1/2-x,1/2+y,1/2+z
1/2+x,1/2-y,1/2+z
loop_
_atom_site_type_symbol
_atom_site_label
_atom_site_fract_x
_atom_site_fract_y
_atom_site_fract_z
Si Si1 0.331492 0.292276 0.342890
Si Si2 0.936035 0.215480 0.430635
Si Si3 0.560476 0.281446 0.511646
Si Si4 0.344716 0.000000 0.954472
Si Si5 0.718811 0.305930 0.735194
O O1 0.335543 0.500000 0.285422
O O2 0.390946 0.215032 0.388821
O O3 0.304038 0.289921 0.538484
O O4 0.285411 0.195420 0.228012
O O5 0.889539 0.340185 0.512769
O O6 0.000000 0.253488 0.479497
O O7 0.928324 0.000000 0.455096
O O8 0.931257 0.258505 0.219047
O O9 0.500000 0.220487 0.459497
O O10 0.561854 0.500000 0.501350
O O11 0.306412 0.846949 0.853431
O O12 0.701527 0.500000 0.806283
#
# Coordination Sequence:
#
# PCOD9375070 Si02
#       5
#     8   8   8   4   8
#     4  10  20  37  54  83 114 150 192 232 282 347
#     4   9  17  29  48  76 110 143 181 232 286 334
#     4   8  14  27  50  77 108 139 177 232 281 325
#     4  12  19  32  50  78 107 156 184 226 276 350
#     4  11  24  36  55  79 115 153 192 238 280 338
#
# _framework density 26.346764
#
# number of rings (size 3 to 8) (size 9 to 14) (size 15 to 20)
#    0.000    2.222    3.333    2.333    1.556    0.000 
#    0.000    0.000    0.000    0.000    0.000    4.667 
#    0.000   10.667    0.000    0.000    0.000    0.000 
#
# Total GULP energy -100340.531311 kJ/mol
# GULP energy per Si atom -5574.473962 kJ/mol
# Density = 2.628680 g / cm^3
# Si number density = 26.346764 Si / 1000 Ang^3
#
#
#
# Elastic Constant Matrix: (Units=GPa)
#
#
# Indices 1 2 3 4 5 6 
#
# 1 153.1262 -11.2960 26.1634 0.0000 0.0000 0.0000
# 2 -11.2960 122.7353 20.2185 0.0000 0.0000 0.0000
# 3 26.1634 20.2185 77.3246 0.0000 0.0000 0.0000
# 4 0.0000 0.0000 0.0000 1015.6984 0.0000 0.0000
# 5 0.0000 0.0000 0.0000 0.0000 17.3712 0.0000
# 6 0.0000 0.0000 0.0000 0.0000 0.0000 19.0650
#
#
#
# Elastic Compliance Matrix: (Units=1/GPa)
#
#
# Indices 1 2 3 4 5 6 
#
# 1 0.007068 0.001092 -0.002677 0.000000 0.000000 0.000000
# 2 0.001092 0.008683 -0.002640 0.000000 0.000000 0.000000
# 3 -0.002677 -0.002640 0.014529 0.000000 0.000000 0.000000
# 4 0.000000 0.000000 0.000000 0.000985 0.000000 0.000000
# 5 0.000000 0.000000 0.000000 0.000000 0.057567 0.000000
# 6 0.000000 0.000000 0.000000 0.000000 0.000000 0.052452
#
#
# Mechanical properties :
#
#
# Convention : Reuss Voigt Hill
#
# Bulk Modulus (GPa) = 45.80965 47.03975 46.42470
# Shear Modulus (GPa) = 31.84507 231.63360 131.73933
#
# Velocity S-wave (km/s) = 3.48039 9.38659 7.07889
# Velocity P-wave (km/s) = 5.79446 11.63488 9.19092
#
# Compressibility (1/GPa) = 0.02182946
#
# Stress axis : x y z
#
# Youngs Moduli (GPa) = 141.47279 115.16861 68.83011
#
# Poissons Ratio (x) = -0.12571 0.18426
# Poissons Ratio (y) = -0.15443 0.18169
# Poissons Ratio (z) = 0.37874 0.30401
#
# Static dielectric constant tensor:
#      x y z
#    x 2.103040 0.000000 0.000000 
#    y 0.000000 1.555130 0.000000 
#    z 0.000000 0.000000 2.149680 
# 
# From -- ./inp_files/14537.got.cif
#   From: 2010.05.17/outbox.cif.g08.bks.cpg/sg44_8_cif.got.tgz:14537.got - 2010.06.03 19:37:08.
