data_PCOD9375579
_publ_section_title
;
Structure prediction by ZEFSAII (Michael W. Deem and Ramdas Pophale) SiO2 
 PCOD9375579
Probable space group: I M M 2
;
_chemical_formula_sum "Si O2"
_cell_formula_units_Z 58
_cell_length_a 23.101764
_cell_length_b 9.170758
_cell_length_c 15.211081
_cell_angle_alpha 90.000000
_cell_angle_beta 90.000000
_cell_angle_gamma 90.000000
_cell_volume 3222.630071
_symmetry_space_group_name_H-M "I M M 2"
_symmetry_group_IT_number 44
_symmetry_cell_setting 'orthorhombic'
loop_
_space_group_symop_operation_xyz
x,y,z
-x,-y,z
-x,y,z
x,-y,z
1/2+x,1/2+y,1/2+z
1/2-x,1/2-y,1/2+z
1/2-x,1/2+y,1/2+z
1/2+x,1/2-y,1/2+z
loop_
_atom_site_type_symbol
_atom_site_label
_atom_site_fract_x
_atom_site_fract_y
_atom_site_fract_z
Si Si1 0.256162 0.170280 0.085330
Si Si2 0.773642 0.175269 0.882543
Si Si3 0.630727 0.330181 0.143453
Si Si4 0.932863 0.660667 0.503908
Si Si5 0.565563 0.830130 0.793251
Si Si6 0.181872 0.170765 0.251579
Si Si7 0.613579 0.161753 0.315701
Si Si8 0.000000 0.500000 0.869120
O O1 0.305025 0.270942 0.127693
O O2 0.202317 0.185538 0.150837
O O3 0.274015 0.000000 0.088501
O O4 0.243914 0.205949 0.983750
O O5 0.726085 0.243517 0.816223
O O6 0.836715 0.244684 0.863401
O O7 0.775433 0.000000 0.870723
O O8 0.629910 0.500000 0.162462
O O9 0.602629 0.240153 0.222956
O O10 0.598533 0.288585 0.053917
O O11 0.908751 0.500000 0.528056
O O12 0.930040 0.673793 0.399295
O O13 0.000000 0.661645 0.529079
O O14 0.500000 0.784998 0.769287
O O15 0.617596 0.733763 0.758949
O O16 0.572671 0.000000 0.767315
O O17 0.183715 0.000000 0.275322
O O18 0.639471 0.000000 0.298085
O O19 0.552598 0.125343 0.362602
#
# Coordination Sequence:
#
# PCOD9375579 Si02
#       8
#     8   8   8   8   8   8   8   2
#     4  10  23  40  58  84 120 160 195 240 311 375
#     4  11  22  39  64  91 120 157 203 260 313 363
#     4  12  23  33  52  86 121 151 196 246 297 359
#     4   9  19  34  53  75 108 155 194 228 285 360
#     4   9  19  37  58  81 114 156 199 246 301 356
#     4  11  22  37  60  89 119 159 198 242 301 367
#     4  10  21  40  61  83 114 159 202 247 308 372
#     4   8  24  40  66  84 112 168 214 244 316 392
#
# _framework density 17.997720999999999
#
# number of rings (size 3 to 8) (size 9 to 14) (size 15 to 20)
#    0.414    1.379    1.379    4.138    0.966    6.069 
#    0.000    2.414    1.517    0.000    0.000    0.000 
#    0.000    0.000    0.000    0.000    0.000    0.000 
#
# Total GULP energy -161455.344427 kJ/mol
# GULP energy per Si atom -5567.425670 kJ/mol
# Density = 1.795676 g / cm^3
# Si number density = 17.997721 Si / 1000 Ang^3
#
#
#
# Elastic Constant Matrix: (Units=GPa)
#
#
# Indices 1 2 3 4 5 6 
#
# 1 99.4976 28.3711 19.7050 0.0000 0.0000 0.0000
# 2 28.3711 76.2417 23.9079 0.0000 0.0000 0.0000
# 3 19.7050 23.9079 49.2254 0.0000 0.0000 0.0000
# 4 0.0000 0.0000 0.0000 24.0015 0.0000 0.0000
# 5 0.0000 0.0000 0.0000 0.0000 25.3569 0.0000
# 6 0.0000 0.0000 0.0000 0.0000 0.0000 35.7699
#
#
#
# Elastic Compliance Matrix: (Units=1/GPa)
#
#
# Indices 1 2 3 4 5 6 
#
# 1 0.011609 -0.003377 -0.003007 0.000000 0.000000 0.000000
# 2 -0.003377 0.016455 -0.006640 0.000000 0.000000 0.000000
# 3 -0.003007 -0.006640 0.024743 0.000000 0.000000 0.000000
# 4 0.000000 0.000000 0.000000 0.041664 0.000000 0.000000
# 5 0.000000 0.000000 0.000000 0.000000 0.039437 0.000000
# 6 0.000000 0.000000 0.000000 0.000000 0.000000 0.027956
#
#
# Mechanical properties :
#
#
# Convention : Reuss Voigt Hill
#
# Bulk Modulus (GPa) = 37.37019 40.99251 39.18135
# Shear Modulus (GPa) = 25.40231 27.22439 26.31335
#
# Velocity S-wave (km/s) = 3.76096 3.89351 3.82781
# Velocity P-wave (km/s) = 6.29831 6.56037 6.43068
#
# Compressibility (1/GPa) = 0.02675930
#
# Stress axis : x y z
#
# Youngs Moduli (GPa) = 86.14052 60.77166 40.41491
#
# Poissons Ratio (x) = 0.20523 0.12152
# Poissons Ratio (y) = 0.29090 0.26836
# Poissons Ratio (z) = 0.25902 0.40353
#
# Static dielectric constant tensor:
#      x y z
#    x 1.529820 0.000000 0.000000 
#    y 0.000000 1.616070 0.000000 
#    z 0.000000 0.000000 1.618800 
# 
# From -- ./inp_files/19413.got.cif
#   From: 2010.05.17/outbox.cif.g08.bks.cpg/sg44_10_cif.got.tgz:19413.got - 2010.06.03 19:37:08.
