data_PCOD9375703
_publ_section_title
;
Structure prediction by ZEFSAII (Michael W. Deem and Ramdas Pophale) SiO2 
 PCOD9375703
Probable space group: I M M 2
;
_chemical_formula_sum "Si O2"
_cell_formula_units_Z 48
_cell_length_a 32.266323
_cell_length_b 9.169924
_cell_length_c 7.652306
_cell_angle_alpha 90.000000
_cell_angle_beta 90.000000
_cell_angle_gamma 90.000000
_cell_volume 2264.162231
_symmetry_space_group_name_H-M "I M M 2"
_symmetry_group_IT_number 44
_symmetry_cell_setting 'orthorhombic'
loop_
_space_group_symop_operation_xyz
x,y,z
-x,-y,z
-x,y,z
x,-y,z
1/2+x,1/2+y,1/2+z
1/2-x,1/2-y,1/2+z
1/2-x,1/2+y,1/2+z
1/2+x,1/2-y,1/2+z
loop_
_atom_site_type_symbol
_atom_site_label
_atom_site_fract_x
_atom_site_fract_y
_atom_site_fract_z
Si Si1 0.952661 0.500000 0.140940
Si Si2 0.276607 0.829322 0.096619
Si Si3 0.046522 0.500000 0.718763
Si Si4 0.154800 0.155483 0.445780
Si Si5 0.891123 0.248535 0.110005
Si Si6 0.198289 0.334349 0.984260
Si Si7 0.417273 0.332116 0.226403
O O1 0.925530 0.358782 0.185651
O O2 0.000000 0.500000 0.204320
O O3 0.953757 0.500000 0.929716
O O4 0.309483 0.774600 0.953868
O O5 0.231148 0.763438 0.084211
O O6 0.296745 0.790606 0.282389
O O7 0.273049 0.000000 0.082351
O O8 0.064116 0.333053 0.680832
O O9 0.000000 0.500000 0.648597
O O10 0.126387 0.160655 0.274095
O O11 0.124270 0.167736 0.610837
O O12 0.176861 0.000000 0.453977
O O13 0.849321 0.325194 0.039768
O O14 0.909407 0.173588 0.935897
O O15 0.212267 0.500000 0.002752
O O16 0.435767 0.500000 0.192874
#
# Coordination Sequence:
#
# PCOD9375703 Si02
#       7
#     4   8   4   8   8   8   8
#     4   9  20  39  67 105 134 171 223 280 341 413
#     4  11  25  39  61  89 130 175 222 280 325 400
#     4   9  20  39  67  99 132 169 223 280 333 417
#     4  11  24  40  61  93 126 171 224 271 328 405
#     4  11  21  39  68  92 130 175 217 272 336 407
#     4  11  23  41  60  90 129 174 222 273 335 394
#     4  10  22  40  64  93 130 172 217 274 338 399
#
# _framework density 21.199894
#
# number of rings (size 3 to 8) (size 9 to 14) (size 15 to 20)
#    0.000    1.500    2.500    2.000    2.333    5.667 
#    0.000    1.667    0.000    2.500    0.000    0.000 
#    0.000    0.000    0.000    0.000    0.000    0.000 
#
# Total GULP energy -133679.503894 kJ/mol
# GULP energy per Si atom -5569.979329 kJ/mol
# Density = 2.115164 g / cm^3
# Si number density = 21.199894 Si / 1000 Ang^3
#
#
#
# Elastic Constant Matrix: (Units=GPa)
#
#
# Indices 1 2 3 4 5 6 
#
# 1 114.1391 58.7959 18.6476 0.0000 0.0000 0.0000
# 2 58.7959 94.2904 41.6858 0.0000 0.0000 0.0000
# 3 18.6476 41.6858 56.3230 0.0000 0.0000 0.0000
# 4 0.0000 0.0000 0.0000 9.3698 0.0000 0.0000
# 5 0.0000 0.0000 0.0000 0.0000 8.6698 0.0000
# 6 0.0000 0.0000 0.0000 0.0000 0.0000 116.3086
#
#
#
# Elastic Compliance Matrix: (Units=1/GPa)
#
#
# Indices 1 2 3 4 5 6 
#
# 1 0.013149 -0.009326 0.002549 0.000000 0.000000 0.000000
# 2 -0.009326 0.022378 -0.013475 0.000000 0.000000 0.000000
# 3 0.002549 -0.013475 0.026884 0.000000 0.000000 0.000000
# 4 0.000000 0.000000 0.000000 0.106726 0.000000 0.000000
# 5 0.000000 0.000000 0.000000 0.000000 0.115342 0.000000
# 6 0.000000 0.000000 0.000000 0.000000 0.000000 0.008598
#
#
# Mechanical properties :
#
#
# Convention : Reuss Voigt Hill
#
# Bulk Modulus (GPa) = 45.64726 55.89011 50.76868
# Shear Modulus (GPa) = 14.66777 36.57786 25.62281
#
# Velocity S-wave (km/s) = 2.63321 4.15827 3.48031
# Velocity P-wave (km/s) = 5.55191 7.03389 6.33637
#
# Compressibility (1/GPa) = 0.02190712
#
# Stress axis : x y z
#
# Youngs Moduli (GPa) = 76.05210 44.68647 37.19714
#
# Poissons Ratio (x) = 0.41675 -0.09482
# Poissons Ratio (y) = 0.70927 0.50122
# Poissons Ratio (z) = -0.19386 0.60214
#
# Static dielectric constant tensor:
#      x y z
#    x 1.722540 0.000000 0.000000 
#    y 0.000000 1.813590 0.000000 
#    z 0.000000 0.000000 1.808580 
# 
# From -- ./inp_files/4986.got.cif
#   From: 2010.05.17/outbox.cif.g08.bks.cpg/sg44_3_cif.got.tgz:4986.got - 2010.06.03 19:37:08.
