data_PCOD9375319
_publ_section_title
;
Structure prediction by ZEFSAII (Michael W. Deem and Ramdas Pophale) SiO2 
 PCOD9375319
Probable space group: I M M 2
;
_chemical_formula_sum "Si O2"
_cell_formula_units_Z 64
_cell_length_a 9.559315
_cell_length_b 33.012169
_cell_length_c 10.336315
_cell_angle_alpha 90.000000
_cell_angle_beta 90.000000
_cell_angle_gamma 90.000000
_cell_volume 3261.869399
_symmetry_space_group_name_H-M "I M M 2"
_symmetry_group_IT_number 44
_symmetry_cell_setting 'orthorhombic'
loop_
_space_group_symop_operation_xyz
x,y,z
-x,-y,z
-x,y,z
x,-y,z
1/2+x,1/2+y,1/2+z
1/2-x,1/2-y,1/2+z
1/2-x,1/2+y,1/2+z
1/2+x,1/2-y,1/2+z
loop_
_atom_site_type_symbol
_atom_site_label
_atom_site_fract_x
_atom_site_fract_y
_atom_site_fract_z
Si Si1 0.668664 0.286486 0.507670
Si Si2 0.666318 0.348499 0.127943
Si Si3 0.337647 0.379375 0.850203
Si Si4 0.833938 0.545461 0.489628
Si Si5 0.834116 0.544242 0.919899
Si Si6 0.837236 0.574667 0.204952
Si Si7 0.836647 0.125576 0.058882
Si Si8 0.332189 0.741074 0.228217
O O1 0.500000 0.285255 0.526093
O O2 0.704579 0.333897 0.481557
O O3 0.702925 0.259696 0.380894
O O4 0.748378 0.270548 0.633681
O O5 0.500000 0.353923 0.143878
O O6 0.743675 0.385238 0.199022
O O7 0.700930 0.304299 0.178863
O O8 0.701156 0.352792 0.974908
O O9 0.500000 0.390802 0.867635
O O10 0.245224 0.419475 0.853146
O O11 0.324910 0.360782 0.708873
O O12 0.789751 0.500000 0.531509
O O13 0.816436 0.549127 0.334269
O O14 0.751812 0.584785 0.540487
O O15 0.000000 0.549275 0.518708
O O16 0.786158 0.500000 0.877953
O O17 0.000000 0.547264 0.897277
O O18 0.810529 0.549825 0.073758
O O19 0.000000 0.587050 0.201768
O O20 0.000000 0.116572 0.031576
O O21 0.500000 0.747574 0.215961
#
# Coordination Sequence:
#
# PCOD9375319 Si02
#       8
#     8   8   8   8   8   8   8   8
#     4  10  23  41  62  90 122 156 197 245 296 353
#     4   9  18  34  57  82 111 143 183 231 283 341
#     4   9  19  34  53  77 103 141 184 226 278 335
#     4  10  21  36  55  80 110 146 189 236 285 341
#     4   9  17  30  49  74 105 140 178 224 279 334
#     4   9  17  31  52  78 107 141 181 227 282 341
#     4  10  22  40  59  79 110 150 193 237 287 341
#     4  10  22  39  61  91 120 152 195 242 293 353
#
# _framework density 19.620650000000001
#
# number of rings (size 3 to 8) (size 9 to 14) (size 15 to 20)
#    0.000    2.500    0.000    1.125    1.750    6.000 
#    0.000    2.500    0.000    2.250    0.000    0.000 
#    0.000    0.000    0.000    0.000    0.000    0.000 
#
# Total GULP energy -178508.173678 kJ/mol
# GULP energy per Si atom -5578.380427 kJ/mol
# Density = 1.957599 g / cm^3
# Si number density = 19.620650 Si / 1000 Ang^3
#
#
#
# Elastic Constant Matrix: (Units=GPa)
#
#
# Indices 1 2 3 4 5 6 
#
# 1 29.3563 46.7069 30.3479 -0.0003 0.0000 0.0000
# 2 46.7069 110.1589 32.2647 -0.0004 0.0000 0.0000
# 3 30.3479 32.2647 69.3241 -0.0006 0.0003 0.0000
# 4 -0.0003 -0.0004 -0.0006 7.7954 0.0000 0.0000
# 5 0.0000 0.0000 0.0003 0.0000 26.2377 -0.0002
# 6 0.0000 0.0000 0.0000 0.0000 -0.0002 31.5757
#
#
#
# Elastic Compliance Matrix: (Units=1/GPa)
#
#
# Indices 1 2 3 4 5 6 
#
# 1 0.203552 -0.069708 -0.056665 0.000000 0.000001 0.000000
# 2 -0.069708 0.034383 0.014514 0.000000 0.000000 0.000000
# 3 -0.056665 0.014514 0.032476 0.000001 0.000000 0.000000
# 4 0.000000 0.000000 0.000001 0.128281 0.000000 0.000000
# 5 0.000001 0.000000 0.000000 0.000000 0.038113 0.000000
# 6 0.000000 0.000000 0.000000 0.000000 0.000000 0.031670
#
#
# Mechanical properties :
#
#
# Convention : Reuss Voigt Hill
#
# Bulk Modulus (GPa) = 21.41714 47.49760 34.45737
# Shear Modulus (GPa) = 7.06456 19.75642 13.41049
#
# Velocity S-wave (km/s) = 1.89958 3.17664 2.61720
# Velocity P-wave (km/s) = 3.96869 6.14127 5.17038
#
# Compressibility (1/GPa) = 0.04669158
#
# Stress axis : x y z
#
# Youngs Moduli (GPa) = 4.91275 29.08424 30.79168
#
# Poissons Ratio (x) = 2.02742 1.74482
# Poissons Ratio (y) = 0.34246 -0.44690
# Poissons Ratio (z) = 0.27838 -0.42212
#
# Static dielectric constant tensor:
#      x y z
#    x 1.652970 0.000000 0.000000 
#    y 0.000000 1.669720 0.000000 
#    z 0.000000 0.000000 1.737590 
# 
# From -- ./inp_files/11577.got.cif
#   From: 2010.05.17/outbox.cif.g08.bks.cpg/sg44_6_cif.got.tgz:11577.got - 2010.06.03 19:37:08.
