data_PCOD9375282
_publ_section_title
;
Structure prediction by ZEFSAII (Michael W. Deem and Ramdas Pophale) SiO2 
 PCOD9375282
Probable space group: I M M 2
;
_chemical_formula_sum "Si O2"
_cell_formula_units_Z 48
_cell_length_a 17.998026
_cell_length_b 21.121061
_cell_length_c 5.522129
_cell_angle_alpha 90.000000
_cell_angle_beta 90.000000
_cell_angle_gamma 90.000000
_cell_volume 2099.167788
_symmetry_space_group_name_H-M "I M M 2"
_symmetry_group_IT_number 44
_symmetry_cell_setting 'orthorhombic'
loop_
_space_group_symop_operation_xyz
x,y,z
-x,-y,z
-x,y,z
x,-y,z
1/2+x,1/2+y,1/2+z
1/2-x,1/2-y,1/2+z
1/2-x,1/2+y,1/2+z
1/2+x,1/2-y,1/2+z
loop_
_atom_site_type_symbol
_atom_site_label
_atom_site_fract_x
_atom_site_fract_y
_atom_site_fract_z
Si Si1 0.415584 0.926236 0.047270
Si Si2 0.912234 0.138355 0.242308
Si Si3 0.081675 0.691974 0.917746
Si Si4 0.410436 0.570060 0.253549
Si Si5 0.297982 0.157852 0.813218
Si Si6 0.166249 0.223397 0.578520
O O1 0.500000 0.921740 0.929483
O O2 0.418251 0.871621 0.251863
O O3 0.409197 0.000000 0.123920
O O4 0.340045 0.905632 0.904092
O O5 0.885785 0.108798 0.990893
O O6 0.868548 0.199547 0.329378
O O7 0.000000 0.150791 0.225733
O O8 0.900634 0.094012 0.479286
O O9 0.101211 0.753874 0.758026
O O10 0.000000 0.699356 0.024186
O O11 0.142901 0.681046 0.116473
O O12 0.500000 0.567379 0.282529
O O13 0.378561 0.500000 0.273541
O O14 0.220097 0.169014 0.678982
O O15 0.292879 0.209938 0.028391
#
# Coordination Sequence:
#
# PCOD9375282 Si02
#       6
#     8   8   8   8   8   8
#     4   9  20  40  65  95 127 161 212 270 322 388
#     4  10  21  35  58  87 118 160 211 265 314 376
#     4  10  21  38  63  92 123 165 213 261 318 389
#     4   9  18  35  57  82 114 155 204 260 316 365
#     4  11  22  39  63  88 124 170 202 256 328 393
#     4  11  23  38  58  87 126 165 204 259 323 393
#
# _framework density 22.866202999999999
#
# number of rings (size 3 to 8) (size 9 to 14) (size 15 to 20)
#    0.000    2.000    1.667    1.500    2.333    4.667 
#    0.000    3.333    0.000    0.000    0.000    0.000 
#    0.000    0.000    0.000    0.000    0.000    0.000 
#
# Total GULP energy -133785.387958 kJ/mol
# GULP energy per Si atom -5574.391165 kJ/mol
# Density = 2.281416 g / cm^3
# Si number density = 22.866203 Si / 1000 Ang^3
#
#
#
# Elastic Constant Matrix: (Units=GPa)
#
#
# Indices 1 2 3 4 5 6 
#
# 1 107.8433 45.3064 33.5534 0.0000 0.0000 0.0000
# 2 45.3064 128.4243 41.9925 0.0000 0.0000 0.0000
# 3 33.5534 41.9925 86.7829 0.0000 0.0000 0.0000
# 4 0.0000 0.0000 0.0000 20.0779 0.0000 0.0000
# 5 0.0000 0.0000 0.0000 0.0000 40.4516 0.0000
# 6 0.0000 0.0000 0.0000 0.0000 0.0000 24.2594
#
#
#
# Elastic Compliance Matrix: (Units=1/GPa)
#
#
# Indices 1 2 3 4 5 6 
#
# 1 0.011487 -0.003089 -0.002947 0.000000 0.000000 0.000000
# 2 -0.003089 0.010081 -0.003684 0.000000 0.000000 0.000000
# 3 -0.002947 -0.003684 0.014445 0.000000 0.000000 0.000000
# 4 0.000000 0.000000 0.000000 0.049806 0.000000 0.000000
# 5 0.000000 0.000000 0.000000 0.000000 0.024721 0.000000
# 6 0.000000 0.000000 0.000000 0.000000 0.000000 0.041221
#
#
# Mechanical properties :
#
#
# Convention : Reuss Voigt Hill
#
# Bulk Modulus (GPa) = 60.33452 62.75056 61.54254
# Shear Modulus (GPa) = 28.29265 30.43767 29.36516
#
# Velocity S-wave (km/s) = 3.52136 3.65241 3.58748
# Velocity P-wave (km/s) = 6.55565 6.72970 6.64324
#
# Compressibility (1/GPa) = 0.01657426
#
# Stress axis : x y z
#
# Youngs Moduli (GPa) = 87.05300 99.19705 69.22942
#
# Poissons Ratio (x) = 0.30642 0.20400
# Poissons Ratio (y) = 0.26891 0.25502
# Poissons Ratio (z) = 0.25652 0.36541
#
# Static dielectric constant tensor:
#      x y z
#    x 1.944110 0.000000 0.000000 
#    y 0.000000 1.909350 0.000000 
#    z 0.000000 0.000000 1.871980 
# 
# From -- ./inp_files/2390.got.cif
#   From: 2010.05.17/outbox.cif.g08.bks.cpg/sg44_2_cif.got.tgz:2390.got - 2010.06.03 19:37:08.
