data_PCOD9375724
_publ_section_title
;
Structure prediction by ZEFSAII (Michael W. Deem and Ramdas Pophale) SiO2 
 PCOD9375724
Probable space group: I M M 2
;
_chemical_formula_sum "Si O2"
_cell_formula_units_Z 56
_cell_length_a 21.841206
_cell_length_b 13.878745
_cell_length_c 9.705096
_cell_angle_alpha 90.000000
_cell_angle_beta 90.000000
_cell_angle_gamma 90.000000
_cell_volume 2941.891470
_symmetry_space_group_name_H-M "I M M 2"
_symmetry_group_IT_number 44
_symmetry_cell_setting 'orthorhombic'
loop_
_space_group_symop_operation_xyz
x,y,z
-x,-y,z
-x,y,z
x,-y,z
1/2+x,1/2+y,1/2+z
1/2-x,1/2-y,1/2+z
1/2-x,1/2+y,1/2+z
1/2+x,1/2-y,1/2+z
loop_
_atom_site_type_symbol
_atom_site_label
_atom_site_fract_x
_atom_site_fract_y
_atom_site_fract_z
Si Si1 0.500000 0.384676 0.098740
Si Si2 0.663957 0.228187 0.487612
Si Si3 0.710057 0.385779 0.981027
Si Si4 0.878619 0.780923 0.684669
Si Si5 0.073557 0.387041 0.496917
Si Si6 0.135891 0.886122 0.197084
Si Si7 0.500000 0.383115 0.777648
Si Si8 0.570433 0.884128 0.678549
O O1 0.500000 0.500000 0.100455
O O2 0.440141 0.343135 0.170274
O O3 0.500000 0.352588 0.937827
O O4 0.726936 0.171488 0.466074
O O5 0.637289 0.257514 0.340614
O O6 0.669877 0.322512 0.583697
O O7 0.616728 0.161333 0.571294
O O8 0.720458 0.500000 0.998042
O O9 0.667335 0.373081 0.846034
O O10 0.674235 0.341449 0.110102
O O11 0.891190 0.683113 0.599113
O O12 0.088504 0.500000 0.517156
O O13 0.086601 0.360871 0.337575
O O14 0.000000 0.377461 0.516944
O O15 0.064276 0.855291 0.208346
O O16 0.137763 0.000000 0.164900
O O17 0.500000 0.500000 0.779573
O O18 0.500000 0.854099 0.654805
O O19 0.572111 0.000000 0.668673
#
# Coordination Sequence:
#
# PCOD9375724 Si02
#       8
#     4   8   8   8   8   8   4   8
#     4  11  22  39  64  98 129 165 213 264 320 380
#     4  12  26  39  61  93 134 162 201 255 332 380
#     4  11  24  46  67  85 119 172 225 262 300 374
#     4  12  24  38  64  98 129 168 207 263 327 381
#     4   9  19  38  63  92 126 166 214 261 304 369
#     4  10  22  41  66  92 122 163 214 263 308 372
#     4   9  18  37  67  94 115 161 216 258 301 358
#     4   9  20  38  61  88 121 166 214 257 306 368
#
# _framework density 19.035371999999999
#
# number of rings (size 3 to 8) (size 9 to 14) (size 15 to 20)
#    0.000    1.571    2.143    3.429    2.000    2.286 
#    0.000    2.857    0.000    0.000    0.000    0.000 
#    0.000    0.000    0.000    0.000    0.000    0.000 
#
# Total GULP energy -156560.514748 kJ/mol
# GULP energy per Si atom -5591.446955 kJ/mol
# Density = 1.899205 g / cm^3
# Si number density = 19.035372 Si / 1000 Ang^3
#
#
#
# Elastic Constant Matrix: (Units=GPa)
#
#
# Indices 1 2 3 4 5 6 
#
# 1 58.4373 28.3263 15.6552 0.0000 0.0000 0.0000
# 2 28.3263 104.0252 40.7312 0.0000 0.0000 0.0000
# 3 15.6552 40.7312 89.2843 0.0000 0.0000 0.0000
# 4 0.0000 0.0000 0.0000 15.2931 0.0000 0.0000
# 5 0.0000 0.0000 0.0000 0.0000 -3.9542 0.0000
# 6 0.0000 0.0000 0.0000 0.0000 0.0000 39.0151
#
#
#
# Elastic Compliance Matrix: (Units=1/GPa)
#
#
# Indices 1 2 3 4 5 6 
#
# 1 0.019826 -0.004915 -0.001234 0.000000 0.000000 0.000000
# 2 -0.004915 0.012922 -0.005033 0.000000 0.000000 0.000000
# 3 -0.001234 -0.005033 0.013713 0.000000 0.000000 0.000000
# 4 0.000000 0.000000 0.000000 0.065389 0.000000 0.000000
# 5 0.000000 0.000000 0.000000 0.000000 -0.252897 0.000000
# 6 0.000000 0.000000 0.000000 0.000000 0.000000 0.025631
#
#
# Mechanical properties :
#
#
# Convention : Reuss Voigt Hill
#
# Bulk Modulus (GPa) = 41.50146 46.79690 44.14918
# Shear Modulus (GPa) = -58.81010 21.20643 -18.80183
#
# Velocity S-wave (km/s) = -5.56437 3.34137 -3.14623
# Velocity P-wave (km/s) = 4.40833 6.28680 3.16942
#
# Compressibility (1/GPa) = 0.02409554
#
# Stress axis : x y z
#
# Youngs Moduli (GPa) = 50.43994 77.38559 72.92536
#
# Poissons Ratio (x) = 0.38038 0.08998
# Poissons Ratio (y) = 0.24793 0.36705
# Poissons Ratio (z) = 0.06223 0.38950
#
# Static dielectric constant tensor:
#      x y z
#    x 1.648810 0.000000 0.000000 
#    y 0.000000 1.683690 0.000000 
#    z 0.000000 0.000000 1.613800 
# 
# From -- ./inp_files/8947.got.cif
#   From: 2010.05.17/outbox.cif.g08.bks.cpg/sg44_5_cif.got.tgz:8947.got - 2010.06.03 19:37:08.
