data_PCOD9375684
_publ_section_title
;
Structure prediction by ZEFSAII (Michael W. Deem and Ramdas Pophale) SiO2 
 PCOD9375684
Probable space group: I M M 2
;
_chemical_formula_sum "Si O2"
_cell_formula_units_Z 48
_cell_length_a 8.638812
_cell_length_b 10.537820
_cell_length_c 29.101099
_cell_angle_alpha 90.000000
_cell_angle_beta 90.000000
_cell_angle_gamma 90.000000
_cell_volume 2649.196601
_symmetry_space_group_name_H-M "I M M 2"
_symmetry_group_IT_number 44
_symmetry_cell_setting 'orthorhombic'
loop_
_space_group_symop_operation_xyz
x,y,z
-x,-y,z
-x,y,z
x,-y,z
1/2+x,1/2+y,1/2+z
1/2-x,1/2-y,1/2+z
1/2-x,1/2+y,1/2+z
1/2+x,1/2-y,1/2+z
loop_
_atom_site_type_symbol
_atom_site_label
_atom_site_fract_x
_atom_site_fract_y
_atom_site_fract_z
Si Si1 0.185042 0.249503 0.474870
Si Si2 0.688205 0.853265 0.670737
Si Si3 0.686359 0.850195 0.567966
Si Si4 0.312730 0.500000 0.917696
Si Si5 0.686616 0.247395 0.767609
Si Si6 0.185090 0.000000 0.927013
Si Si7 0.313491 0.500000 0.319642
Si Si8 0.184582 0.500000 0.814670
O O1 0.239996 0.228392 0.526940
O O2 0.234523 0.125479 0.445723
O O3 0.252823 0.374991 0.452037
O O4 0.000000 0.255554 0.473665
O O5 0.500000 0.854261 0.670198
O O6 0.736931 0.812846 0.619598
O O7 0.735827 0.770964 0.714394
O O8 0.736644 0.000000 0.677864
O O9 0.500000 0.839503 0.565491
O O10 0.724560 0.000000 0.562253
O O11 0.500000 0.500000 0.914192
O O12 0.242578 0.500000 0.867134
O O13 0.500000 0.249279 0.769531
O O14 0.751891 0.374767 0.789686
O O15 0.746815 0.124937 0.795216
O O16 0.231135 0.000000 0.873365
O O17 0.000000 0.000000 0.928861
O O18 0.500000 0.500000 0.316346
O O19 0.000000 0.500000 0.813801
#
# Coordination Sequence:
#
# PCOD9375684 Si02
#       8
#     8   8   8   4   8   4   4   4
#     4  11  22  38  59  86 117 147 187 237 287 338
#     4   8  15  31  57  88 113 142 190 235 270 328
#     4   9  17  32  58  87 115 147 187 232 277 332
#     4  10  22  40  61  84 111 149 197 235 277 346
#     4  11  21  38  63  87 115 154 197 235 280 342
#     4  11  25  41  56  79 114 155 195 231 280 343
#     4  11  23  39  60  89 118 148 191 242 290 337
#     4  12  26  40  55  82 121 154 191 244 295 340
#
# _framework density 18.118698999999999
#
# number of rings (size 3 to 8) (size 9 to 14) (size 15 to 20)
#    0.000    1.833    1.667    4.250    0.000    5.333 
#    0.000    2.500    0.000    2.000    0.000    0.000 
#    0.000    0.000    0.000    0.000    0.000    0.000 
#
# Total GULP energy -134040.268258 kJ/mol
# GULP energy per Si atom -5585.011177 kJ/mol
# Density = 1.807746 g / cm^3
# Si number density = 18.118699 Si / 1000 Ang^3
#
#
#
# Elastic Constant Matrix: (Units=GPa)
#
#
# Indices 1 2 3 4 5 6 
#
# 1 39.4713 40.6543 46.2094 0.0000 0.0000 0.0000
# 2 40.6543 150.3757 99.3918 0.0002 0.0000 0.0000
# 3 46.2094 99.3918 200.6766 0.0001 0.0000 0.0000
# 4 0.0000 0.0002 0.0001 -295.4994 0.0000 0.0000
# 5 0.0000 0.0000 0.0000 0.0000 26.7152 0.0000
# 6 0.0000 0.0000 0.0000 0.0000 0.0000 25.6305
#
#
#
# Elastic Compliance Matrix: (Units=1/GPa)
#
#
# Indices 1 2 3 4 5 6 
#
# 1 0.038896 -0.006832 -0.005572 0.000000 0.000000 0.000000
# 2 -0.006832 0.011087 -0.003918 0.000000 0.000000 0.000000
# 3 -0.005572 -0.003918 0.008207 0.000000 0.000000 0.000000
# 4 0.000000 0.000000 0.000000 -0.003384 0.000000 0.000000
# 5 0.000000 0.000000 0.000000 0.000000 0.037432 0.000000
# 6 0.000000 0.000000 0.000000 0.000000 0.000000 0.039016
#
#
# Mechanical properties :
#
#
# Convention : Reuss Voigt Hill
#
# Bulk Modulus (GPa) = 39.14833 84.78162 61.96497
# Shear Modulus (GPa) = 29.00020 -35.01287 -3.00634
#
# Velocity S-wave (km/s) = 4.00505 -4.40069 -1.28951
# Velocity P-wave (km/s) = 6.56054 4.59047 5.66185
#
# Compressibility (1/GPa) = 0.02554388
#
# Stress axis : x y z
#
# Youngs Moduli (GPa) = 25.70977 90.19898 121.85166
#
# Poissons Ratio (x) = 0.61627 0.67902
# Poissons Ratio (y) = 0.17566 0.47738
# Poissons Ratio (z) = 0.14327 0.35338
#
# Static dielectric constant tensor:
#      x y z
#    x 1.612230 0.000000 0.000000 
#    y 0.000000 1.582530 0.000000 
#    z 0.000000 0.000000 1.622950 
# 
# From -- ./inp_files/27019.got.cif
#   From: 2010.05.17/outbox.cif.g08.bks.cpg/sg44_14_cif.got.tgz:27019.got - 2010.06.03 19:37:08.
