data_PCOD9375804
_publ_section_title
;
Structure prediction by ZEFSAII (Michael W. Deem and Ramdas Pophale) SiO2 
 PCOD9375804
Probable space group: I M M 2
;
_chemical_formula_sum "Si O2"
_cell_formula_units_Z 64
_cell_length_a 16.033003
_cell_length_b 8.203840
_cell_length_c 24.332561
_cell_angle_alpha 90.000000
_cell_angle_beta 90.000000
_cell_angle_gamma 90.000000
_cell_volume 3200.515069
_symmetry_space_group_name_H-M "I M M 2"
_symmetry_group_IT_number 44
_symmetry_cell_setting 'orthorhombic'
loop_
_space_group_symop_operation_xyz
x,y,z
-x,-y,z
-x,y,z
x,-y,z
1/2+x,1/2+y,1/2+z
1/2-x,1/2-y,1/2+z
1/2-x,1/2+y,1/2+z
1/2+x,1/2-y,1/2+z
loop_
_atom_site_type_symbol
_atom_site_label
_atom_site_fract_x
_atom_site_fract_y
_atom_site_fract_z
Si Si1 0.407921 0.699167 0.645270
Si Si2 0.407996 0.300586 0.883536
Si Si3 0.651431 0.698503 0.764266
Si Si4 0.654953 0.806590 0.261196
Si Si5 0.406887 0.692821 0.145402
Si Si6 0.250508 0.806322 0.074737
Si Si7 0.593162 0.693755 0.378934
Si Si8 0.752830 0.692980 0.950616
O O1 0.500000 0.750242 0.626661
O O2 0.406372 0.500000 0.645187
O O3 0.392123 0.751369 0.708119
O O4 0.330810 0.753698 0.608098
O O5 0.500000 0.248020 0.901849
O O6 0.407486 0.500000 0.884443
O O7 0.391601 0.249335 0.820644
O O8 0.330664 0.244304 0.920300
O O9 0.649891 0.500000 0.764549
O O10 0.748385 0.747328 0.763599
O O11 0.610173 0.723161 0.209873
O O12 0.614520 0.772028 0.320059
O O13 0.653952 0.000000 0.250704
O O14 0.500000 0.753789 0.131736
O O15 0.404477 0.500000 0.134839
O O16 0.332939 0.772019 0.110378
O O17 0.242268 0.000000 0.067713
O O18 0.253381 0.728009 0.014905
O O19 0.500000 0.744766 0.396536
O O20 0.593114 0.500000 0.371020
O O21 0.664608 0.735459 0.422577
O O22 0.756401 0.500000 0.941024
#
# Coordination Sequence:
#
# PCOD9375804 Si02
#       8
#     8   8   8   8   8   8   8   8
#     4   9  17  31  55  86 117 147 184 234 289 350
#     4   9  17  31  55  86 117 147 184 234 289 350
#     4   9  15  28  53  87 117 142 179 227 286 352
#     4  11  20  35  61  93 123 154 195 244 303 368
#     4  11  24  41  61  87 120 160 204 249 301 360
#     4  11  23  40  61  87 118 156 203 249 299 354
#     4  11  24  41  61  87 120 160 204 249 301 360
#     4  11  23  40  61  87 118 156 203 249 299 354
#
# _framework density 19.996782
#
# number of rings (size 3 to 8) (size 9 to 14) (size 15 to 20)
#    0.000    1.750    2.500    2.625    0.000    6.000 
#    0.000    2.500    0.000    2.250    0.000    1.750 
#    0.000    0.000    0.000    0.000    0.000    0.000 
#
# Total GULP energy -178774.655732 kJ/mol
# GULP energy per Si atom -5586.707992 kJ/mol
# Density = 1.995127 g / cm^3
# Si number density = 19.996782 Si / 1000 Ang^3
#
#
#
# Elastic Constant Matrix: (Units=GPa)
#
#
# Indices 1 2 3 4 5 6 
#
# 1 178.2869 2.9561 50.7506 0.0000 0.0000 0.0000
# 2 2.9561 13.1981 -14.7458 0.0000 0.0000 0.0000
# 3 50.7506 -14.7458 92.4676 0.0000 0.0000 0.0000
# 4 0.0000 0.0000 0.0000 29.0441 0.0000 0.0000
# 5 0.0000 0.0000 0.0000 0.0000 -0.1664 0.0000
# 6 0.0000 0.0000 0.0000 0.0000 0.0000 9.4672
#
#
#
# Elastic Compliance Matrix: (Units=1/GPa)
#
#
# Indices 1 2 3 4 5 6 
#
# 1 0.007185 -0.007319 -0.005111 0.000000 0.000000 0.000000
# 2 -0.007319 0.099651 0.019908 0.000000 0.000000 0.000000
# 3 -0.005111 0.019908 0.016794 0.000000 0.000000 0.000000
# 4 0.000000 0.000000 0.000000 0.034430 0.000000 0.000000
# 5 0.000000 0.000000 0.000000 0.000000 -6.007841 0.000000
# 6 0.000000 0.000000 0.000000 0.000000 0.000000 0.105628
#
#
# Mechanical properties :
#
#
# Convention : Reuss Voigt Hill
#
# Bulk Modulus (GPa) = 7.21568 40.20826 23.71197
# Shear Modulus (GPa) = -0.87521 24.00175 11.56327
#
# Velocity S-wave (km/s) = -0.66229 3.46827 2.40731
# Velocity P-wave (km/s) = 1.74110 6.01577 4.42837
#
# Compressibility (1/GPa) = 0.13858703
#
# Stress axis : x y z
#
# Youngs Moduli (GPa) = 139.17692 10.03505 59.54364
#
# Poissons Ratio (x) = 0.07345 0.30431
# Poissons Ratio (y) = 1.01868 -1.18542
# Poissons Ratio (z) = 0.71130 -0.19978
#
# Static dielectric constant tensor:
#      x y z
#    x 1.715300 0.000000 0.000000 
#    y 0.000000 1.706110 0.000000 
#    z 0.000000 0.000000 1.659080 
# 
# From -- ./inp_files/25799.got.cif
#   From: 2010.05.17/outbox.cif.g08.bks.cpg/sg44_13_cif.got.tgz:25799.got - 2010.06.03 19:37:08.
