data_PCOD9375555
_publ_section_title
;
Structure prediction by ZEFSAII (Michael W. Deem and Ramdas Pophale) SiO2 
 PCOD9375555
Probable space group: I M M 2
;
_chemical_formula_sum "Si O2"
_cell_formula_units_Z 64
_cell_length_a 7.772549
_cell_length_b 31.806570
_cell_length_c 12.149120
_cell_angle_alpha 90.000000
_cell_angle_beta 90.000000
_cell_angle_gamma 90.000000
_cell_volume 3003.482653
_symmetry_space_group_name_H-M "I M M 2"
_symmetry_group_IT_number 44
_symmetry_cell_setting 'orthorhombic'
loop_
_space_group_symop_operation_xyz
x,y,z
-x,-y,z
-x,y,z
x,-y,z
1/2+x,1/2+y,1/2+z
1/2-x,1/2-y,1/2+z
1/2-x,1/2+y,1/2+z
1/2+x,1/2-y,1/2+z
loop_
_atom_site_type_symbol
_atom_site_label
_atom_site_fract_x
_atom_site_fract_y
_atom_site_fract_z
Si Si1 0.800624 0.121844 0.009530
Si Si2 0.701520 0.194423 0.850987
Si Si3 0.791912 0.290170 0.890021
Si Si4 0.701202 0.045171 0.365060
Si Si5 0.291465 0.836288 0.612472
Si Si6 0.299253 0.870301 0.257989
Si Si7 0.800058 0.067217 0.604879
Si Si8 0.789937 0.952939 0.851192
O O1 0.712545 0.126520 0.127187
O O2 0.000000 0.112345 0.032294
O O3 0.789162 0.165038 0.941451
O O4 0.731036 0.084222 0.931987
O O5 0.500000 0.184021 0.856679
O O6 0.723937 0.243799 0.868559
O O7 0.764490 0.181912 0.729589
O O8 0.729733 0.326275 0.805290
O O9 0.000000 0.287224 0.884095
O O10 0.743745 0.306663 0.011052
O O11 0.500000 0.044330 0.333169
O O12 0.777989 0.087537 0.312497
O O13 0.711369 0.049053 0.496924
O O14 0.777684 0.000000 0.331832
O O15 0.500000 0.839912 0.611518
O O16 0.216835 0.882568 0.597912
O O17 0.500000 0.869811 0.291981
O O18 0.732053 0.054082 0.725032
O O19 0.000000 0.054725 0.599487
O O20 0.000000 0.950515 0.848311
O O21 0.742291 0.000000 0.887233
#
# Coordination Sequence:
#
# PCOD9375555 Si02
#       8
#     8   8   8   8   8   8   8   8
#     4  11  23  40  61  85 118 159 200 242 294 353
#     4  11  24  40  62  91 121 152 195 247 294 349
#     4  10  22  41  63  86 118 157 194 241 297 352
#     4  10  21  39  62  87 120 160 198 240 297 357
#     4  10  21  40  63  87 119 156 193 241 295 351
#     4  10  22  41  61  85 118 156 198 246 297 346
#     4  11  20  34  60  91 123 154 193 245 293 348
#     4   9  19  36  57  84 118 154 191 237 293 345
#
# _framework density 21.308596999999999
#
# number of rings (size 3 to 8) (size 9 to 14) (size 15 to 20)
#    0.000    1.750    2.500    1.500    1.750    3.250 
#    0.000    0.000    0.000    3.375    0.000    0.000 
#    0.000    0.000    0.000    0.000    0.000    0.000 
#
# Total GULP energy -178800.708994 kJ/mol
# GULP energy per Si atom -5587.522156 kJ/mol
# Density = 2.126010 g / cm^3
# Si number density = 21.308597 Si / 1000 Ang^3
#
#
#
# Elastic Constant Matrix: (Units=GPa)
#
#
# Indices 1 2 3 4 5 6 
#
# 1 27.1752 -7.9773 -10.3951 0.0000 0.0000 -0.0001
# 2 -7.9773 159.1186 45.6045 -0.0001 0.0001 -0.0001
# 3 -10.3951 45.6045 98.6491 0.0003 0.0001 0.0000
# 4 0.0000 -0.0001 0.0003 41.5853 0.0002 -0.0003
# 5 0.0000 0.0001 0.0001 0.0002 5.1521 0.0000
# 6 -0.0001 -0.0001 0.0000 -0.0003 0.0000 -15.0254
#
#
#
# Elastic Compliance Matrix: (Units=1/GPa)
#
#
# Indices 1 2 3 4 5 6 
#
# 1 0.038451 0.000884 0.003643 0.000000 0.000000 0.000000
# 2 0.000884 0.007265 -0.003265 0.000000 0.000000 0.000000
# 3 0.003643 -0.003265 0.012030 0.000000 0.000000 0.000000
# 4 0.000000 0.000000 0.000000 0.024047 -0.000001 -0.000001
# 5 0.000000 0.000000 0.000000 -0.000001 0.194096 0.000001
# 6 0.000000 0.000000 0.000000 -0.000001 0.000001 -0.066554
#
#
# Mechanical properties :
#
#
# Convention : Reuss Voigt Hill
#
# Bulk Modulus (GPa) = 16.59215 37.71189 27.15202
# Shear Modulus (GPa) = 22.03593 23.52312 22.77952
#
# Velocity S-wave (km/s) = 3.21928 3.32614 3.27315
# Velocity P-wave (km/s) = 4.64993 5.69977 5.20141
#
# Compressibility (1/GPa) = 0.06026947
#
# Stress axis : x y z
#
# Youngs Moduli (GPa) = 26.00698 137.65026 83.12276
#
# Poissons Ratio (x) = -0.12162 -0.30285
# Poissons Ratio (y) = -0.02298 0.27142
# Poissons Ratio (z) = -0.09475 0.44948
#
# Static dielectric constant tensor:
#      x y z
#    x 1.793890 0.000000 0.000000 
#    y 0.000000 1.757940 0.000000 
#    z 0.000000 0.000000 1.733570 
# 
# From -- ./inp_files/11463.got.cif
#   From: 2010.05.17/outbox.cif.g08.bks.cpg/sg44_6_cif.got.tgz:11463.got - 2010.06.03 19:37:08.
