data_PCOD9375360
_publ_section_title
;
Structure prediction by ZEFSAII (Michael W. Deem and Ramdas Pophale) SiO2 
 PCOD9375360
Probable space group: I M M 2
;
_chemical_formula_sum "Si O2"
_cell_formula_units_Z 64
_cell_length_a 22.143209
_cell_length_b 13.820820
_cell_length_c 9.941991
_cell_angle_alpha 90.000000
_cell_angle_beta 90.000000
_cell_angle_gamma 90.000000
_cell_volume 3042.620140
_symmetry_space_group_name_H-M "I M M 2"
_symmetry_group_IT_number 44
_symmetry_cell_setting 'orthorhombic'
loop_
_space_group_symop_operation_xyz
x,y,z
-x,-y,z
-x,y,z
x,-y,z
1/2+x,1/2+y,1/2+z
1/2-x,1/2-y,1/2+z
1/2-x,1/2+y,1/2+z
1/2+x,1/2-y,1/2+z
loop_
_atom_site_type_symbol
_atom_site_label
_atom_site_fract_x
_atom_site_fract_y
_atom_site_fract_z
Si Si1 0.139923 0.756496 0.571140
Si Si2 0.069542 0.116337 0.764271
Si Si3 0.932422 0.385820 0.047055
Si Si4 0.747433 0.388150 0.164566
Si Si5 0.792865 0.114053 0.232265
Si Si6 0.337225 0.114864 0.311075
Si Si7 0.675258 0.609239 0.442801
Si Si8 0.368278 0.786120 0.771434
O O1 0.090168 0.832204 0.626691
O O2 0.201804 0.820860 0.578935
O O3 0.140411 0.674242 0.684298
O O4 0.128870 0.702129 0.431058
O O5 0.112990 0.153025 0.885860
O O6 0.000000 0.134533 0.793552
O O7 0.078928 0.000000 0.750771
O O8 0.927641 0.500000 0.083138
O O9 0.922686 0.321677 0.179761
O O10 0.000000 0.370542 0.990736
O O11 0.879379 0.367298 0.939082
O O12 0.752870 0.500000 0.113934
O O13 0.715916 0.392072 0.310851
O O14 0.811700 0.341272 0.200498
O O15 0.733573 0.144802 0.315919
O O16 0.852647 0.172484 0.266185
O O17 0.798629 0.000000 0.251306
O O18 0.787181 0.140719 0.073007
O O19 0.338050 0.000000 0.285832
O O20 0.658281 0.500000 0.480536
#
# Coordination Sequence:
#
# PCOD9375360 Si02
#       8
#     8   8   8   8   8   8   8   8
#     4  11  23  37  60  96 132 161 217 277 333 394
#     4   9  19  37  62  90 124 172 223 269 326 401
#     4  10  25  49  71  94 129 177 231 277 323 393
#     4  10  21  36  59  90 130 173 211 262 334 404
#     4  10  21  36  58  92 136 171 210 272 339 397
#     4  10  22  41  66  91 126 174 222 273 330 388
#     4   8  16  33  55  84 123 163 206 264 322 381
#     4  12  25  37  64  97 132 173 218 269 337 399
#
# _framework density 21.034503000000001
#
# number of rings (size 3 to 8) (size 9 to 14) (size 15 to 20)
#    0.000    2.000    1.250    2.250    5.250    4.000 
#    0.000    0.000    0.000    1.875    0.000    0.000 
#    0.000    0.000    0.000    0.000    0.000    0.000 
#
# Total GULP energy -178431.452206 kJ/mol
# GULP energy per Si atom -5575.982881 kJ/mol
# Density = 2.098663 g / cm^3
# Si number density = 21.034503 Si / 1000 Ang^3
#
#
#
# Elastic Constant Matrix: (Units=GPa)
#
#
# Indices 1 2 3 4 5 6 
#
# 1 101.3359 27.0955 40.0373 0.0000 0.0000 0.0000
# 2 27.0955 94.7602 35.2036 0.0000 0.0000 0.0000
# 3 40.0373 35.2036 117.4778 0.0000 0.0000 0.0000
# 4 0.0000 0.0000 0.0000 24.3246 0.0000 0.0000
# 5 0.0000 0.0000 0.0000 0.0000 22.2072 0.0000
# 6 0.0000 0.0000 0.0000 0.0000 0.0000 14.4772
#
#
#
# Elastic Compliance Matrix: (Units=1/GPa)
#
#
# Indices 1 2 3 4 5 6 
#
# 1 0.011767 -0.002110 -0.003378 0.000000 0.000000 0.000000
# 2 -0.002110 0.012253 -0.002953 0.000000 0.000000 0.000000
# 3 -0.003378 -0.002953 0.010548 0.000000 0.000000 0.000000
# 4 0.000000 0.000000 0.000000 0.041111 0.000000 0.000000
# 5 0.000000 0.000000 0.000000 0.000000 0.045030 0.000000
# 6 0.000000 0.000000 0.000000 0.000000 0.000000 0.069074
#
#
# Mechanical properties :
#
#
# Convention : Reuss Voigt Hill
#
# Bulk Modulus (GPa) = 56.53753 57.58298 57.06026
# Shear Modulus (GPa) = 23.52269 26.28428 24.90348
#
# Velocity S-wave (km/s) = 3.34771 3.53877 3.44457
# Velocity P-wave (km/s) = 6.47146 6.64320 6.55789
#
# Compressibility (1/GPa) = 0.01768736
#
# Stress axis : x y z
#
# Youngs Moduli (GPa) = 84.98399 81.61154 94.80137
#
# Poissons Ratio (x) = 0.17217 0.32025
# Poissons Ratio (y) = 0.17929 0.27993
# Poissons Ratio (z) = 0.28708 0.24098
#
# Static dielectric constant tensor:
#      x y z
#    x 1.775470 0.000000 0.000000 
#    y 0.000000 1.803990 0.000000 
#    z 0.000000 0.000000 1.814920 
# 
# From -- ./inp_files/9461.got.cif
#   From: 2010.05.17/outbox.cif.g08.bks.cpg/sg44_5_cif.got.tgz:9461.got - 2010.06.03 19:37:08.
