data_PCOD9375686
_publ_section_title
;
Structure prediction by ZEFSAII (Michael W. Deem and Ramdas Pophale) SiO2 
 PCOD9375686
Probable space group: I M M 2
;
_chemical_formula_sum "Si O2"
_cell_formula_units_Z 56
_cell_length_a 13.915679
_cell_length_b 21.591511
_cell_length_c 10.282972
_cell_angle_alpha 90.000000
_cell_angle_beta 90.000000
_cell_angle_gamma 90.000000
_cell_volume 3089.627281
_symmetry_space_group_name_H-M "I M M 2"
_symmetry_group_IT_number 44
_symmetry_cell_setting 'orthorhombic'
loop_
_space_group_symop_operation_xyz
x,y,z
-x,-y,z
-x,y,z
x,-y,z
1/2+x,1/2+y,1/2+z
1/2-x,1/2-y,1/2+z
1/2-x,1/2+y,1/2+z
1/2+x,1/2-y,1/2+z
loop_
_atom_site_type_symbol
_atom_site_label
_atom_site_fract_x
_atom_site_fract_y
_atom_site_fract_z
Si Si1 0.738723 0.360057 0.199720
Si Si2 0.886175 0.250503 0.784899
Si Si3 0.295368 0.925754 0.964746
Si Si4 0.000000 0.574789 0.575345
Si Si5 0.387658 0.240043 0.594369
Si Si6 0.000000 0.574699 0.877200
Si Si7 0.228690 0.848210 0.201559
Si Si8 0.716665 0.926238 0.445218
O O1 0.648439 0.315372 0.227525
O O2 0.763723 0.396812 0.329632
O O3 0.824095 0.313393 0.158534
O O4 0.735105 0.407480 0.080328
O O5 0.821680 0.302831 0.715096
O O6 0.000000 0.259390 0.769200
O O7 0.863563 0.252487 0.940331
O O8 0.287713 0.000000 0.964070
O O9 0.405050 0.907688 0.998327
O O10 0.237397 0.895323 0.082430
O O11 0.000000 0.500000 0.583051
O O12 0.000000 0.594921 0.726116
O O13 0.500000 0.226988 0.603917
O O14 0.358863 0.302492 0.670871
O O15 0.897720 0.592923 0.940122
O O16 0.000000 0.500000 0.879688
O O17 0.230708 0.888434 0.331918
O O18 0.719666 0.000000 0.422617
#
# Coordination Sequence:
#
# PCOD9375686 Si02
#       8
#     8   8   8   4   8   4   8   8
#     4  11  23  39  59  90 117 152 192 238 297 345
#     4  10  22  40  63  85 111 154 201 245 284 334
#     4  11  22  36  56  85 123 155 189 238 286 343
#     4   9  18  31  49  81 119 157 191 221 268 337
#     4  10  22  40  61  85 115 153 197 247 287 332
#     4   9  18  31  51  83 115 157 195 215 266 349
#     4  11  21  37  61  89 113 154 196 234 287 347
#     4  11  22  36  59  87 123 156 187 233 290 357
#
# _framework density 18.125163000000001
#
# number of rings (size 3 to 8) (size 9 to 14) (size 15 to 20)
#    0.000    1.571    4.286    0.857    4.000    0.000 
#    0.000    4.286    0.000    5.143    0.000    0.000 
#    0.000    0.000    0.000    0.000    0.000    0.000 
#
# Total GULP energy -156295.748999 kJ/mol
# GULP energy per Si atom -5581.991036 kJ/mol
# Density = 1.808391 g / cm^3
# Si number density = 18.125163 Si / 1000 Ang^3
#
#
#
# Elastic Constant Matrix: (Units=GPa)
#
#
# Indices 1 2 3 4 5 6 
#
# 1 35.5862 12.4303 14.8261 0.0000 0.0000 0.0000
# 2 12.4303 74.7858 23.6485 -0.0001 0.0000 0.0000
# 3 14.8261 23.6485 108.0434 0.0006 0.0000 0.0000
# 4 0.0000 -0.0001 0.0006 16.6287 0.0000 0.0001
# 5 0.0000 0.0000 0.0000 0.0000 17.9700 0.0000
# 6 0.0000 0.0000 0.0000 0.0001 0.0000 26.4558
#
#
#
# Elastic Compliance Matrix: (Units=1/GPa)
#
#
# Indices 1 2 3 4 5 6 
#
# 1 0.030922 -0.004080 -0.003350 0.000000 0.000000 0.000000
# 2 -0.004080 0.014904 -0.002702 0.000000 0.000000 0.000000
# 3 -0.003350 -0.002702 0.010307 0.000000 0.000000 0.000000
# 4 0.000000 0.000000 0.000000 0.060137 0.000000 0.000000
# 5 0.000000 0.000000 0.000000 0.000000 0.055648 0.000000
# 6 0.000000 0.000000 0.000000 0.000000 0.000000 0.037799
#
#
# Mechanical properties :
#
#
# Convention : Reuss Voigt Hill
#
# Bulk Modulus (GPa) = 27.88047 35.58057 31.73052
# Shear Modulus (GPa) = 20.66645 23.37826 22.02236
#
# Velocity S-wave (km/s) = 3.38036 3.59531 3.48949
# Velocity P-wave (km/s) = 5.53637 6.07520 5.81203
#
# Compressibility (1/GPa) = 0.03586740
#
# Stress axis : x y z
#
# Youngs Moduli (GPa) = 32.33971 67.09506 97.02388
#
# Poissons Ratio (x) = 0.27376 0.32504
# Poissons Ratio (y) = 0.13195 0.26219
# Poissons Ratio (z) = 0.10834 0.18131
#
# Static dielectric constant tensor:
#      x y z
#    x 1.611780 0.000000 0.000000 
#    y 0.000000 1.641030 0.000000 
#    z 0.000000 0.000000 1.614330 
# 
# From -- ./inp_files/7431.got.cif
#   From: 2010.05.17/outbox.cif.g08.bks.cpg/sg44_4_cif.got.tgz:7431.got - 2010.06.03 19:37:08.
