data_PCOD9375181
_publ_section_title
;
Structure prediction by ZEFSAII (Michael W. Deem and Ramdas Pophale) SiO2 
 PCOD9375181
Probable space group: I M M 2
;
_chemical_formula_sum "Si O2"
_cell_formula_units_Z 42
_cell_length_a 11.375468
_cell_length_b 15.092310
_cell_length_c 11.722459
_cell_angle_alpha 90.000000
_cell_angle_beta 90.000000
_cell_angle_gamma 90.000000
_cell_volume 2012.536255
_symmetry_space_group_name_H-M "I M M 2"
_symmetry_group_IT_number 44
_symmetry_cell_setting 'orthorhombic'
loop_
_space_group_symop_operation_xyz
x,y,z
-x,-y,z
-x,y,z
x,-y,z
1/2+x,1/2+y,1/2+z
1/2-x,1/2-y,1/2+z
1/2-x,1/2+y,1/2+z
1/2+x,1/2-y,1/2+z
loop_
_atom_site_type_symbol
_atom_site_label
_atom_site_fract_x
_atom_site_fract_y
_atom_site_fract_z
Si Si1 0.857646 0.000000 0.269620
Si Si2 0.276992 0.851506 0.413788
Si Si3 0.363237 0.396858 0.118260
Si Si4 0.241885 0.000000 0.018944
Si Si5 0.500000 0.170152 0.801471
Si Si6 0.241471 0.833129 0.850546
Si Si7 0.000000 0.500000 0.465309
Si Si8 0.500000 0.904038 0.556555
O O1 0.790581 0.085115 0.324629
O O2 0.832779 0.000000 0.134072
O O3 0.000000 0.000000 0.292638
O O4 0.185472 0.837067 0.517415
O O5 0.326813 0.757936 0.369854
O O6 0.386432 0.896932 0.477268
O O7 0.500000 0.381359 0.140439
O O8 0.349427 0.500000 0.083557
O O9 0.290891 0.378925 0.231972
O O10 0.223046 0.909933 0.944679
O O11 0.382520 0.000000 0.039952
O O12 0.626237 0.205981 0.837809
O O13 0.500000 0.080667 0.876770
O O14 0.500000 0.161542 0.664375
O O15 0.500000 0.000000 0.614268
#
# Coordination Sequence:
#
# PCOD9375181 Si02
#       8
#     4   8   8   4   4   8   2   4
#     4  12  28  48  69  94 140 189 224 272 341 410
#     4  12  27  44  67 105 135 177 228 278 341 403
#     4  11  23  44  71  95 131 179 230 283 331 391
#     4  10  24  45  67  98 140 181 225 271 338 408
#     4  10  20  38  71  99 130 173 224 280 337 393
#     4  11  25  44  68 103 137 176 228 280 336 400
#     4   8  18  38  68  96 126 170 224 274 332 392
#     4  12  22  43  74 101 134 173 226 288 338 402
#
# _framework density 20.869191000000001
#
# number of rings (size 3 to 8) (size 9 to 14) (size 15 to 20)
#    0.000    0.952    5.238    0.571    6.667    1.524 
#    0.000    0.000    0.000    0.000    0.000    0.000 
#    0.000    0.000    0.000    0.000    0.000    0.000 
#
# Total GULP energy -117136.076657 kJ/mol
# GULP energy per Si atom -5577.908412 kJ/mol
# Density = 2.082169 g / cm^3
# Si number density = 20.869191 Si / 1000 Ang^3
#
#
#
# Elastic Constant Matrix: (Units=GPa)
#
#
# Indices 1 2 3 4 5 6 
#
# 1 86.6373 6.6780 28.3839 0.0000 0.0000 0.0000
# 2 6.6780 82.3919 25.5112 0.0000 0.0000 0.0000
# 3 28.3839 25.5112 111.7068 -0.0001 0.0000 0.0000
# 4 0.0000 0.0000 -0.0001 27.1935 0.0000 0.0000
# 5 0.0000 0.0000 0.0000 0.0000 23.3477 0.0000
# 6 0.0000 0.0000 0.0000 0.0000 0.0000 -1.8741
#
#
#
# Elastic Compliance Matrix: (Units=1/GPa)
#
#
# Indices 1 2 3 4 5 6 
#
# 1 0.012591 -0.000032 -0.003192 0.000000 0.000000 0.000000
# 2 -0.000032 0.013061 -0.002975 0.000000 0.000000 0.000000
# 3 -0.003192 -0.002975 0.010442 0.000000 0.000000 0.000000
# 4 0.000000 0.000000 0.000000 0.036774 0.000000 0.000000
# 5 0.000000 0.000000 0.000000 0.000000 0.042831 0.000000
# 6 0.000000 0.000000 0.000000 0.000000 0.000000 -0.533589
#
#
# Mechanical properties :
#
#
# Convention : Reuss Voigt Hill
#
# Bulk Modulus (GPa) = 42.20039 44.65356 43.42698
# Shear Modulus (GPa) = -12.57561 24.41094 5.91767
#
# Velocity S-wave (km/s) = -2.45744 3.42382 1.68575
# Velocity P-wave (km/s) = 3.49475 6.08879 4.96420
#
# Compressibility (1/GPa) = 0.02369646
#
# Stress axis : x y z
#
# Youngs Moduli (GPa) = 79.42468 76.56523 95.76384
#
# Poissons Ratio (x) = 0.00246 0.30566
# Poissons Ratio (y) = 0.00256 0.28486
# Poissons Ratio (z) = 0.25351 0.22775
#
# Static dielectric constant tensor:
#      x y z
#    x 1.836160 0.000000 0.000000 
#    y 0.000000 1.754870 0.000000 
#    z 0.000000 0.000000 1.696760 
# 
# From -- ./inp_files/12263.got.cif
#   From: 2010.05.17/outbox.cif.g08.bks.cpg/sg44_7_cif.got.tgz:12263.got - 2010.06.03 19:37:08.
