data_PCOD9375144
_publ_section_title
;
Structure prediction by ZEFSAII (Michael W. Deem and Ramdas Pophale) SiO2 
 PCOD9375144
Probable space group: I M M 2
;
_chemical_formula_sum "Si O2"
_cell_formula_units_Z 58
_cell_length_a 7.855801
_cell_length_b 18.494179
_cell_length_c 17.364269
_cell_angle_alpha 90.000000
_cell_angle_beta 90.000000
_cell_angle_gamma 90.000000
_cell_volume 2522.795429
_symmetry_space_group_name_H-M "I M M 2"
_symmetry_group_IT_number 44
_symmetry_cell_setting 'orthorhombic'
loop_
_space_group_symop_operation_xyz
x,y,z
-x,-y,z
-x,y,z
x,-y,z
1/2+x,1/2+y,1/2+z
1/2-x,1/2-y,1/2+z
1/2-x,1/2+y,1/2+z
1/2+x,1/2-y,1/2+z
loop_
_atom_site_type_symbol
_atom_site_label
_atom_site_fract_x
_atom_site_fract_y
_atom_site_fract_z
Si Si1 0.692119 0.891746 0.544920
Si Si2 0.292924 0.081024 0.308326
Si Si3 0.200004 0.287500 0.919889
Si Si4 0.798504 0.674748 0.667547
Si Si5 0.307577 0.865818 0.869255
Si Si6 0.200432 0.162532 0.699288
Si Si7 0.800311 0.079142 0.030897
Si Si8 0.000000 0.000000 0.509669
O O1 0.500000 0.914985 0.521453
O O2 0.714080 0.812061 0.507973
O O3 0.705950 0.886172 0.636500
O O4 0.847775 0.938685 0.515320
O O5 0.500000 0.076617 0.307889
O O6 0.250189 0.141947 0.370749
O O7 0.233332 0.113726 0.226955
O O8 0.227795 0.000000 0.323780
O O9 0.301954 0.217742 0.896051
O O10 0.000000 0.271720 0.903219
O O11 0.733640 0.754704 0.689291
O O12 0.772677 0.643892 0.582298
O O13 0.000000 0.679562 0.681625
O O14 0.500000 0.891251 0.860964
O O15 0.222278 0.865679 0.785729
O O16 0.224269 0.907914 0.940145
O O17 0.000000 0.161520 0.679756
O O18 0.000000 0.078580 0.046930
O O19 0.727376 0.000000 0.051868
#
# Coordination Sequence:
#
# PCOD9375144 Si02
#       8
#     8   8   8   8   8   8   8   2
#     4  11  25  44  70  99 133 182 231 279 348 411
#     4   9  17  32  57  92 130 170 212 261 321 389
#     4  10  21  40  65  96 133 176 222 273 331 406
#     4  10  20  37  67  96 129 170 216 270 327 398
#     4  12  25  41  67  98 131 171 225 283 337 406
#     4  11  22  43  68  97 133 174 224 282 343 400
#     4  11  25  44  65  92 130 173 217 272 341 405
#     4  12  26  48  68  98 140 180 222 300 332 414
#
# _framework density 22.990369000000001
#
# number of rings (size 3 to 8) (size 9 to 14) (size 15 to 20)
#    0.000    1.379    2.069    3.517    1.931    4.966 
#    1.241    0.000    0.000    0.000    0.000    0.000 
#    0.000    0.000    0.000    0.000    0.000    0.000 
#
# Total GULP energy -161851.764502 kJ/mol
# GULP energy per Si atom -5581.095328 kJ/mol
# Density = 2.293804 g / cm^3
# Si number density = 22.990369 Si / 1000 Ang^3
#
#
#
# Elastic Constant Matrix: (Units=GPa)
#
#
# Indices 1 2 3 4 5 6 
#
# 1 82.4618 10.2700 -9.0852 0.0000 0.0000 0.0000
# 2 10.2700 39.1326 -10.1709 0.0000 0.0000 0.0000
# 3 -9.0852 -10.1709 92.0342 0.0000 0.0000 0.0000
# 4 0.0000 0.0000 0.0000 1.7832 0.0000 0.0000
# 5 0.0000 0.0000 0.0000 0.0000 18.7236 0.0000
# 6 0.0000 0.0000 0.0000 0.0000 0.0000 27.1473
#
#
#
# Elastic Compliance Matrix: (Units=1/GPa)
#
#
# Indices 1 2 3 4 5 6 
#
# 1 0.012609 -0.003074 0.000905 0.000000 0.000000 0.000000
# 2 -0.003074 0.027059 0.002687 0.000000 0.000000 0.000000
# 3 0.000905 0.002687 0.011252 0.000000 0.000000 0.000000
# 4 0.000000 0.000000 0.000000 0.560796 0.000000 0.000000
# 5 0.000000 0.000000 0.000000 0.000000 0.053408 0.000000
# 6 0.000000 0.000000 0.000000 0.000000 0.000000 0.036836
#
#
# Mechanical properties :
#
#
# Convention : Reuss Voigt Hill
#
# Bulk Modulus (GPa) = 19.24693 21.73961 20.49327
# Shear Modulus (GPa) = 6.96143 24.37180 15.66661
#
# Velocity S-wave (km/s) = 1.74200 3.25943 2.61328
# Velocity P-wave (km/s) = 3.52647 4.86227 4.24721
#
# Compressibility (1/GPa) = 0.05195632
#
# Stress axis : x y z
#
# Youngs Moduli (GPa) = 79.30604 36.95593 88.87462
#
# Poissons Ratio (x) = 0.11360 -0.08043
# Poissons Ratio (y) = 0.24379 -0.23880
# Poissons Ratio (z) = -0.07177 -0.09930
#
# Static dielectric constant tensor:
#      x y z
#    x 1.811320 0.000000 0.000000 
#    y 0.000000 1.870460 0.000000 
#    z 0.000000 0.000000 1.884670 
# 
# From -- ./inp_files/20554.got.cif
#   From: 2010.05.17/outbox.cif.g08.bks.cpg/sg44_11_cif.got.tgz:20554.got - 2010.06.03 19:37:08.
