data_PCOD9375553
_publ_section_title
;
Structure prediction by ZEFSAII (Michael W. Deem and Ramdas Pophale) SiO2 
 PCOD9375553
Probable space group: I M M 2
;
_chemical_formula_sum "Si O2"
_cell_formula_units_Z 48
_cell_length_a 8.744079
_cell_length_b 14.751090
_cell_length_c 20.889749
_cell_angle_alpha 90.000000
_cell_angle_beta 90.000000
_cell_angle_gamma 90.000000
_cell_volume 2694.457930
_symmetry_space_group_name_H-M "I M M 2"
_symmetry_group_IT_number 44
_symmetry_cell_setting 'orthorhombic'
loop_
_space_group_symop_operation_xyz
x,y,z
-x,-y,z
-x,y,z
x,-y,z
1/2+x,1/2+y,1/2+z
1/2-x,1/2-y,1/2+z
1/2-x,1/2+y,1/2+z
1/2+x,1/2-y,1/2+z
loop_
_atom_site_type_symbol
_atom_site_label
_atom_site_fract_x
_atom_site_fract_y
_atom_site_fract_z
Si Si1 0.681623 0.500000 0.449630
Si Si2 0.816899 0.809664 0.370986
Si Si3 0.182816 0.500000 0.062204
Si Si4 0.183017 0.500000 0.306730
Si Si5 0.684206 0.186141 0.994986
Si Si6 0.316455 0.311036 0.258208
Si Si7 0.683950 0.687371 0.112486
Si Si8 0.183476 0.500000 0.912220
O O1 0.500000 0.500000 0.439970
O O2 0.764015 0.500000 0.380570
O O3 0.734474 0.409657 0.486019
O O4 0.779138 0.749319 0.433765
O O5 0.750101 0.759102 0.309365
O O6 0.748633 0.909207 0.380609
O O7 0.000000 0.814452 0.366567
O O8 0.246104 0.409693 0.094971
O O9 0.000000 0.500000 0.065598
O O10 0.228710 0.500000 0.987331
O O11 0.249120 0.409902 0.274166
O O12 0.000000 0.500000 0.303589
O O13 0.500000 0.172827 0.995646
O O14 0.730215 0.239420 0.059131
O O15 0.500000 0.314372 0.264182
O O16 0.276457 0.286876 0.185072
O O17 0.500000 0.678900 0.108689
O O18 0.000000 0.500000 0.908620
#
# Coordination Sequence:
#
# PCOD9375553 Si02
#       8
#     4   8   4   4   8   8   8   4
#     4  12  24  37  60  91 120 150 194 249 296 342
#     4  11  22  38  63  88 117 156 198 244 292 348
#     4  11  22  34  57  91 124 154 187 243 298 342
#     4  12  23  37  58  86 122 160 195 238 295 354
#     4  10  21  39  62  86 116 154 198 240 288 350
#     4  11  23  39  60  88 121 156 197 243 295 349
#     4  10  22  40  61  85 118 160 197 236 288 354
#     4  11  23  38  59  90 124 154 196 248 293 340
#
# _framework density 17.814343999999998
#
# number of rings (size 3 to 8) (size 9 to 14) (size 15 to 20)
#    0.000    1.167    3.333    3.500    0.000    5.333 
#    0.000    0.833    0.000    2.000    0.000    0.000 
#    0.000    0.000    0.000    0.000    0.000    0.000 
#
# Total GULP energy -134191.635746 kJ/mol
# GULP energy per Si atom -5591.318156 kJ/mol
# Density = 1.777380 g / cm^3
# Si number density = 17.814344 Si / 1000 Ang^3
#
#
#
# Elastic Constant Matrix: (Units=GPa)
#
#
# Indices 1 2 3 4 5 6 
#
# 1 60.4102 59.4338 60.5362 0.0000 0.0000 0.0000
# 2 59.4338 153.9458 88.7293 0.0000 0.0000 0.0000
# 3 60.5362 88.7293 172.6805 0.0000 0.0000 0.0000
# 4 0.0000 0.0000 0.0000 -15.0926 0.0000 0.0000
# 5 0.0000 0.0000 0.0000 0.0000 26.1876 0.0000
# 6 0.0000 0.0000 0.0000 0.0000 0.0000 26.9407
#
#
#
# Elastic Compliance Matrix: (Units=1/GPa)
#
#
# Indices 1 2 3 4 5 6 
#
# 1 0.031464 -0.008226 -0.006804 0.000000 0.000000 0.000000
# 2 -0.008226 0.011380 -0.002963 0.000000 0.000000 0.000000
# 3 -0.006804 -0.002963 0.009699 0.000000 0.000000 0.000000
# 4 0.000000 0.000000 0.000000 -0.066257 0.000000 0.000000
# 5 0.000000 0.000000 0.000000 0.000000 0.038186 0.000000
# 6 0.000000 0.000000 0.000000 0.000000 0.000000 0.037119
#
#
# Mechanical properties :
#
#
# Convention : Reuss Voigt Hill
#
# Bulk Modulus (GPa) = 60.39847 89.38169 74.89008
# Shear Modulus (GPa) = 48.49890 19.49628 33.99759
#
# Velocity S-wave (km/s) = 5.22338 3.31178 4.37331
# Velocity P-wave (km/s) = 8.38787 8.05648 8.22384
#
# Compressibility (1/GPa) = 0.01655671
#
# Stress axis : x y z
#
# Youngs Moduli (GPa) = 31.78201 87.87584 103.10468
#
# Poissons Ratio (x) = 0.72287 0.70148
# Poissons Ratio (y) = 0.26144 0.30555
# Poissons Ratio (z) = 0.21623 0.26042
#
# Static dielectric constant tensor:
#      x y z
#    x 1.594320 0.000000 0.000000 
#    y 0.000000 1.567840 0.000000 
#    z 0.000000 0.000000 1.604250 
# 
# From -- ./inp_files/20357.got.cif
#   From: 2010.05.17/outbox.cif.g08.bks.cpg/sg44_11_cif.got.tgz:20357.got - 2010.06.03 19:37:08.
