data_PCOD9375958
_publ_section_title
;
Structure prediction by ZEFSAII (Michael W. Deem and Ramdas Pophale) SiO2 
 PCOD9375958
Probable space group: I M M 2
;
_chemical_formula_sum "Si O2"
_cell_formula_units_Z 32
_cell_length_a 9.000000
_cell_length_b 30.000000
_cell_length_c 12.000000
_cell_angle_alpha 90.000000
_cell_angle_beta 90.000000
_cell_angle_gamma 90.000000
_cell_volume 3240.000000
_symmetry_space_group_name_H-M "I M M 2"
_symmetry_group_IT_number 44
_symmetry_cell_setting 'orthorhombic'
loop_
_space_group_symop_operation_xyz
x,y,z
-x,-y,z
-x,y,z
x,-y,z
1/2+x,1/2+y,1/2+z
1/2-x,1/2-y,1/2+z
1/2-x,1/2+y,1/2+z
1/2+x,1/2-y,1/2+z
loop_
_atom_site_type_symbol
_atom_site_label
_atom_site_fract_x
_atom_site_fract_y
_atom_site_fract_z
Si Si1 0.167117 0.950001 0.448950
Si Si2 0.175259 0.191477 0.205918
Si Si3 0.175929 0.219346 0.788108
Si Si4 0.170810 0.664530 0.118303
Si Si5 0.678657 0.050706 0.924852
Si Si6 0.831615 0.631893 0.868826
Si Si7 0.173235 0.923399 0.699736
Si Si8 0.320317 0.155415 0.978540
O O1 0.292081 0.918531 0.399621
O O2 0.178177 0.949624 0.583299
O O3 0.000000 0.932773 0.424329
O O4 0.179396 0.000000 0.407409
O O5 0.248172 0.232281 0.276059
O O6 0.211085 0.149346 0.283265
O O7 0.000000 0.199218 0.189107
O O8 0.255000 0.179437 0.089010
O O9 0.213320 0.199517 0.666196
O O10 0.250145 0.184470 0.875999
O O11 0.000000 0.222738 0.809335
O O12 0.220478 0.618592 0.176052
O O13 0.000000 0.675810 0.147487
O O14 0.179371 0.657939 0.986177
O O15 0.500000 0.051783 0.910497
O O16 0.763689 0.051975 0.806930
O O17 0.715221 0.101183 0.975070
O O18 0.710950 0.000000 0.974426
O O19 0.000000 0.636843 0.825781
O O20 0.000000 0.910167 0.717939
O O21 0.500000 0.158981 0.974911
#
# Coordination Sequence:
#
# PCOD9375958 Si02
#       8
#     8   8   8   8   8   8   8   8
#     4   9  18  33  54  84 123 166 211 260 318 379
#     4  12  27  46  68  92 125 168 217 267 325 387
#     4  12  25  42  67  97 129 164 208 258 321 386
#     4  10  20  36  59  89 126 164 203 251 307 371
#     4  10  21  37  60  90 127 171 215 263 323 388
#     4  10  22  40  62  89 124 162 210 262 313 374
#     4  10  18  30  52  85 125 165 205 255 312 372
#     4  11  24  45  69  95 133 172 218 272 326 386
#
# _framework density 9.8765429999999999
#
# number of rings (size 3 to 8) (size 9 to 14) (size 15 to 20)
#    0.000    1.500    1.250    4.125    1.750    3.500 
#    0.000    0.625    0.000    2.250    0.000    0.000 
#    0.000    0.000    0.000    0.000    0.000    0.000 
#
# Total GULP energy -178428.691350 kJ/mol
# GULP energy per Si atom -5575.896605 kJ/mol
# Density = 0.985406 g / cm^3
# Si number density = 9.876543 Si / 1000 Ang^3
#
#
#
# Elastic Constant Matrix: (Units=GPa)
#
#
# Indices 1 2 3 4 5 6 
#
# 1 103.9241 33.8284 29.5857 0.0002 0.0000 0.0000
# 2 33.8284 92.2308 29.3400 0.0002 0.0000 0.0000
# 3 29.5857 29.3400 53.1894 0.0009 -0.0002 0.0002
# 4 0.0002 0.0002 0.0009 8.9223 -0.0001 0.0001
# 5 0.0000 0.0000 -0.0002 -0.0001 27.6707 0.0000
# 6 0.0000 0.0000 0.0002 0.0001 0.0000 26.2408
#
#
#
# Elastic Compliance Matrix: (Units=1/GPa)
#
#
# Indices 1 2 3 4 5 6 
#
# 1 0.011985 -0.002759 -0.005144 0.000000 0.000000 0.000000
# 2 -0.002759 0.013785 -0.006069 0.000000 0.000000 0.000000
# 3 -0.005144 -0.006069 0.025010 -0.000002 0.000000 0.000000
# 4 0.000000 0.000000 -0.000002 0.112079 0.000000 0.000000
# 5 0.000000 0.000000 0.000000 0.000000 0.036139 0.000000
# 6 0.000000 0.000000 0.000000 0.000000 0.000000 0.038109
#
#
# Mechanical properties :
#
#
# Convention : Reuss Voigt Hill
#
# Bulk Modulus (GPa) = 43.79364 48.31693 46.05529
# Shear Modulus (GPa) = 18.33752 23.00610 20.67181
#
# Velocity S-wave (km/s) = 3.05017 3.41645 3.23849
# Velocity P-wave (km/s) = 5.88416 6.33059 6.11145
#
# Compressibility (1/GPa) = 0.02283436
#
# Stress axis : x y z
#
# Youngs Moduli (GPa) = 83.43644 72.54173 39.98387
#
# Poissons Ratio (x) = 0.20017 0.20569
# Poissons Ratio (y) = 0.23024 0.24267
# Poissons Ratio (z) = 0.42923 0.44027
#
# Static dielectric constant tensor:
#      x y z
#    x 1.670020 0.000000 0.000000 
#    y 0.000000 1.768860 0.000000 
#    z 0.000000 0.000000 1.700300 
# 
# From -- ./inp_files/11567.got.cif
#   From: 2010.05.17/outbox.ucp.g08.bks.cvg/sg44_6_cif.got.tgz:11567.got - 2010.06.11 16:32:36.
