data_PCOD9375785
_publ_section_title
;
Structure prediction by ZEFSAII (Michael W. Deem and Ramdas Pophale) SiO2 
 PCOD9375785
Probable space group: I M M 2
;
_chemical_formula_sum "Si O2"
_cell_formula_units_Z 48
_cell_length_a 10.371182
_cell_length_b 12.890149
_cell_length_c 19.490644
_cell_angle_alpha 90.000000
_cell_angle_beta 90.000000
_cell_angle_gamma 90.000000
_cell_volume 2605.627818
_symmetry_space_group_name_H-M "I M M 2"
_symmetry_group_IT_number 44
_symmetry_cell_setting 'orthorhombic'
loop_
_space_group_symop_operation_xyz
x,y,z
-x,-y,z
-x,y,z
x,-y,z
1/2+x,1/2+y,1/2+z
1/2-x,1/2-y,1/2+z
1/2-x,1/2+y,1/2+z
1/2+x,1/2-y,1/2+z
loop_
_atom_site_type_symbol
_atom_site_label
_atom_site_fract_x
_atom_site_fract_y
_atom_site_fract_z
Si Si1 0.000000 0.379318 0.385280
Si Si2 0.844351 0.621015 0.986926
Si Si3 0.266247 0.274303 0.589570
Si Si4 0.845428 0.119658 0.226862
Si Si5 0.500000 0.619786 0.348458
Si Si6 0.000000 0.620362 0.550528
Si Si7 0.752060 0.254974 0.852676
Si Si8 0.500000 0.383770 0.513596
O O1 0.872591 0.318340 0.361493
O O2 0.000000 0.500000 0.363106
O O3 0.000000 0.378586 0.467973
O O4 0.818922 0.500000 0.975010
O O5 0.787728 0.689080 0.924455
O O6 0.000000 0.635231 0.989170
O O7 0.782330 0.659415 0.058646
O O8 0.305456 0.301157 0.666792
O O9 0.126628 0.321154 0.576077
O O10 0.371658 0.333093 0.542722
O O11 0.779906 0.157920 0.296602
O O12 0.000000 0.123314 0.234324
O O13 0.810219 0.000000 0.209844
O O14 0.500000 0.500000 0.324612
O O15 0.372546 0.684108 0.329678
O O16 0.500000 0.616370 0.431737
O O17 0.000000 0.500000 0.572841
O O18 0.500000 0.500000 0.540201
#
# Coordination Sequence:
#
# PCOD9375785 Si02
#       8
#     4   8   8   8   4   4   8   4
#     4  11  22  37  62  94 128 161 201 250 304 359
#     4  11  22  40  65  92 121 162 210 254 301 358
#     4  12  21  40  61  92 121 159 202 254 303 357
#     4  11  24  40  63  91 122 162 205 252 305 365
#     4  11  22  37  64  96 122 157 207 254 304 357
#     4  11  22  35  58  94 130 153 189 254 316 357
#     4  12  21  42  60  91 129 163 204 248 305 360
#     4  11  18  33  64  90 116 155 203 248 296 353
#
# _framework density 18.421662999999999
#
# number of rings (size 3 to 8) (size 9 to 14) (size 15 to 20)
#    0.000    0.667    6.667    2.500    0.000    3.333 
#    0.000    3.750    0.000    0.000    0.000    0.000 
#    0.000    0.000    0.000    0.000    0.000    0.000 
#
# Total GULP energy -134046.506461 kJ/mol
# GULP energy per Si atom -5585.271103 kJ/mol
# Density = 1.837973 g / cm^3
# Si number density = 18.421663 Si / 1000 Ang^3
#
#
#
# Elastic Constant Matrix: (Units=GPa)
#
#
# Indices 1 2 3 4 5 6 
#
# 1 135.0463 47.2943 12.4054 0.0000 0.0000 0.0000
# 2 47.2943 111.8608 21.4977 0.0000 0.0000 0.0000
# 3 12.4054 21.4977 74.7246 0.0000 0.0000 0.0000
# 4 0.0000 0.0000 0.0000 24.2227 0.0000 0.0000
# 5 0.0000 0.0000 0.0000 0.0000 32.6228 0.0000
# 6 0.0000 0.0000 0.0000 0.0000 0.0000 29.6496
#
#
#
# Elastic Compliance Matrix: (Units=1/GPa)
#
#
# Indices 1 2 3 4 5 6 
#
# 1 0.008704 -0.003601 -0.000409 0.000000 0.000000 0.000000
# 2 -0.003601 0.010953 -0.002553 0.000000 0.000000 0.000000
# 3 -0.000409 -0.002553 0.014185 0.000000 0.000000 0.000000
# 4 0.000000 0.000000 0.000000 0.041284 0.000000 0.000000
# 5 0.000000 0.000000 0.000000 0.000000 0.030653 0.000000
# 6 0.000000 0.000000 0.000000 0.000000 0.000000 0.033727
#
#
# Mechanical properties :
#
#
# Convention : Reuss Voigt Hill
#
# Bulk Modulus (GPa) = 48.27480 53.78075 51.02777
# Shear Modulus (GPa) = 31.34061 33.32797 32.33429
#
# Velocity S-wave (km/s) = 4.12915 4.25805 4.19409
# Velocity P-wave (km/s) = 6.99968 7.30974 7.15639
#
# Compressibility (1/GPa) = 0.02071474
#
# Stress axis : x y z
#
# Youngs Moduli (GPa) = 114.89462 91.29942 70.49748
#
# Poissons Ratio (x) = 0.32879 0.02882
# Poissons Ratio (y) = 0.41377 0.18000
# Poissons Ratio (z) = 0.04698 0.23311
#
# Static dielectric constant tensor:
#      x y z
#    x 1.599970 0.000000 0.000000 
#    y 0.000000 1.669890 0.000000 
#    z 0.000000 0.000000 1.621730 
# 
# From -- ./inp_files/20365.got.cif
#   From: 2010.05.17/outbox.cif.g08.bks.cpg/sg44_11_cif.got.tgz:20365.got - 2010.06.03 19:37:08.
