data_PCOD9375209
_publ_section_title
;
Structure prediction by ZEFSAII (Michael W. Deem and Ramdas Pophale) SiO2 
 PCOD9375209
Probable space group: I M M 2
;
_chemical_formula_sum "Si O2"
_cell_formula_units_Z 40
_cell_length_a 17.559731
_cell_length_b 27.359998
_cell_length_c 4.856398
_cell_angle_alpha 90.000000
_cell_angle_beta 90.000000
_cell_angle_gamma 90.000000
_cell_volume 2333.179712
_symmetry_space_group_name_H-M "I M M 2"
_symmetry_group_IT_number 44
_symmetry_cell_setting 'orthorhombic'
loop_
_space_group_symop_operation_xyz
x,y,z
-x,-y,z
-x,y,z
x,-y,z
1/2+x,1/2+y,1/2+z
1/2-x,1/2-y,1/2+z
1/2-x,1/2+y,1/2+z
1/2+x,1/2-y,1/2+z
loop_
_atom_site_type_symbol
_atom_site_label
_atom_site_fract_x
_atom_site_fract_y
_atom_site_fract_z
Si Si1 0.500000 0.809842 0.648950
Si Si2 0.626896 0.118212 0.896600
Si Si3 0.500000 0.740695 0.134851
Si Si4 0.756225 0.684128 0.721704
Si Si5 0.413229 0.056715 0.419362
Si Si6 0.165581 0.789610 0.729864
O O1 0.426487 0.841160 0.745712
O O2 0.500000 0.789260 0.337074
O O3 0.500000 0.761313 0.828597
O O4 0.694981 0.143219 0.067015
O O5 0.641873 0.081099 0.645108
O O6 0.587121 0.086976 0.137217
O O7 0.423363 0.710322 0.174638
O O8 0.807746 0.733027 0.706289
O O9 0.722600 0.680574 0.028313
O O10 0.682595 0.694341 0.537524
O O11 0.500000 0.059641 0.532657
O O12 0.395728 0.000000 0.369797
#
# Coordination Sequence:
#
# PCOD9375209 Si02
#       6
#     4   8   4   8   8   8
#     4  12  22  30  49  80  94 134 188 210 249 296
#     4  12  21  35  52  71 102 138 178 222 252 303
#     4  12  22  34  52  70 103 136 175 222 250 298
#     4  10  21  33  49  69  99 129 171 211 256 296
#     4  11  22  35  50  73 102 135 175 220 265 305
#     4  10  21  34  47  71  98 132 166 214 257 297
#
# _framework density 17.143986000000002
#
# number of rings (size 3 to 8) (size 9 to 14) (size 15 to 20)
#    0.000    1.000    4.000    4.200    5.600    1.600 
#    0.000    0.000    0.000    0.000    0.000    0.000 
#    0.000    0.000    0.000   63.000    0.000    0.000 
#
# Total GULP energy -111577.408805 kJ/mol
# GULP energy per Si atom -5578.870440 kJ/mol
# Density = 1.710497 g / cm^3
# Si number density = 17.143986 Si / 1000 Ang^3
#
#
#
# Elastic Constant Matrix: (Units=GPa)
#
#
# Indices 1 2 3 4 5 6 
#
# 1 68.3904 12.3339 -1.9738 0.0000 -0.0001 0.0000
# 2 12.3339 48.2660 10.3240 0.0000 0.0000 0.0000
# 3 -1.9738 10.3240 74.0249 0.0000 -0.0001 -0.0001
# 4 0.0000 0.0000 0.0000 20.4009 0.0000 0.0000
# 5 -0.0001 0.0000 -0.0001 0.0000 9.9599 0.0000
# 6 0.0000 0.0000 -0.0001 0.0000 0.0000 10.8818
#
#
#
# Elastic Compliance Matrix: (Units=1/GPa)
#
#
# Indices 1 2 3 4 5 6 
#
# 1 0.015398 -0.004146 0.000989 0.000000 0.000000 0.000000
# 2 -0.004146 0.022472 -0.003245 0.000000 0.000000 0.000000
# 3 0.000989 -0.003245 0.013988 0.000000 0.000000 0.000000
# 4 0.000000 0.000000 0.000000 0.049018 0.000000 0.000000
# 5 0.000000 0.000000 0.000000 0.000000 0.100403 0.000000
# 6 0.000000 0.000000 0.000000 0.000000 0.000000 0.091897
#
#
# Mechanical properties :
#
#
# Convention : Reuss Voigt Hill
#
# Bulk Modulus (GPa) = 25.60568 25.78328 25.69448
# Shear Modulus (GPa) = 15.67410 19.58165 17.62787
#
# Velocity S-wave (km/s) = 3.02696 3.38329 3.21007
# Velocity P-wave (km/s) = 5.21390 5.50764 5.36278
#
# Compressibility (1/GPa) = 0.03905384
#
# Stress axis : x y z
#
# Youngs Moduli (GPa) = 64.94241 44.49953 71.49059
#
# Poissons Ratio (x) = 0.18451 -0.07069
# Poissons Ratio (y) = 0.26928 0.23196
# Poissons Ratio (z) = -0.06422 0.14439
#
# Static dielectric constant tensor:
#      x y z
#    x 1.607970 0.000000 0.000000 
#    y 0.000000 1.592320 0.000000 
#    z 0.000000 0.000000 1.604180 
# 
# From -- ./inp_files/1493.got.cif
#   From: 2010.05.17/outbox.cif.g08.bks.cpg/sg44_1_cif.got.tgz:1493.got - 2010.06.03 19:37:08.
