data_PCOD9375935
_publ_section_title
;
Structure prediction by ZEFSAII (Michael W. Deem and Ramdas Pophale) SiO2 
 PCOD9375935
Probable space group: I M M 2
;
_chemical_formula_sum "Si O2"
_cell_formula_units_Z 56
_cell_length_a 11.497094
_cell_length_b 7.238272
_cell_length_c 29.717539
_cell_angle_alpha 90.000000
_cell_angle_beta 90.000000
_cell_angle_gamma 90.000000
_cell_volume 2473.066659
_symmetry_space_group_name_H-M "I M M 2"
_symmetry_group_IT_number 44
_symmetry_cell_setting 'orthorhombic'
loop_
_space_group_symop_operation_xyz
x,y,z
-x,-y,z
-x,y,z
x,-y,z
1/2+x,1/2+y,1/2+z
1/2-x,1/2-y,1/2+z
1/2-x,1/2+y,1/2+z
1/2+x,1/2-y,1/2+z
loop_
_atom_site_type_symbol
_atom_site_label
_atom_site_fract_x
_atom_site_fract_y
_atom_site_fract_z
Si Si1 0.369264 0.225021 0.915440
Si Si2 0.000000 0.775250 0.023251
Si Si3 0.130396 0.276959 0.764766
Si Si4 0.232602 0.224625 0.180211
Si Si5 0.370489 0.224555 0.094926
Si Si6 0.500000 0.725113 0.628819
Si Si7 0.749493 0.224089 0.005258
Si Si8 0.630633 0.712167 0.369993
O O1 0.500000 0.285474 0.902110
O O2 0.252587 0.288040 0.889168
O O3 0.371284 0.000000 0.912417
O O4 0.340533 0.278217 0.966880
O O5 0.000000 0.718618 0.076208
O O6 0.117653 0.717185 0.998506
O O7 0.000000 0.000000 0.023968
O O8 0.133900 0.500000 0.766068
O O9 0.227906 0.214201 0.729533
O O10 0.143072 0.213224 0.815923
O O11 0.000000 0.225100 0.749196
O O12 0.329493 0.279958 0.144025
O O13 0.112341 0.282881 0.157340
O O14 0.228834 0.000000 0.181765
O O15 0.500000 0.283905 0.084908
O O16 0.287054 0.284096 0.054907
O O17 0.368158 0.000000 0.094785
O O18 0.500000 0.500000 0.627161
O O19 0.748710 0.000000 0.005088
O O20 0.500000 0.789703 0.379607
O O21 0.626252 0.500000 0.386253
#
# Coordination Sequence:
#
# PCOD9375935 Si02
#       8
#     8   4   8   8   8   4   8   8
#     4   9  17  28  41  58  82 113 147 182 221 265
#     4   9  14  20  30  48  76 111 143 173 207 250
#     4   9  17  30  47  66  88 114 146 184 222 260
#     4   9  15  23  35  53  78 110 142 172 211 257
#     4   9  14  19  29  47  73 104 136 168 204 251
#     4   9  14  22  32  48  79 115 145 173 209 252
#     4   9  15  21  32  50  75 108 143 173 207 254
#     4   9  18  32  49  67  87 114 149 187 225 265
#
# _framework density 22.643953
#
# number of rings (size 3 to 8) (size 9 to 14) (size 15 to 20)
#    0.000    3.000    1.429    0.857    1.000    3.429 
#    1.286    0.000    0.000    0.000    0.000    0.000 
#    0.000    1.143    0.000    2.000    0.000    1.429 
#
# Total GULP energy -156229.574056 kJ/mol
# GULP energy per Si atom -5579.627645 kJ/mol
# Density = 2.259241 g / cm^3
# Si number density = 22.643953 Si / 1000 Ang^3
#
#
#
# Elastic Constant Matrix: (Units=GPa)
#
#
# Indices 1 2 3 4 5 6 
#
# 1 171.9260 3.6148 45.1916 0.0000 0.0000 0.0000
# 2 3.6148 103.2418 -4.9307 0.0000 0.0000 0.0000
# 3 45.1916 -4.9307 66.7089 0.0000 0.0000 0.0000
# 4 0.0000 0.0000 0.0000 1.1559 0.0000 0.0000
# 5 0.0000 0.0000 0.0000 0.0000 42.3538 0.0000
# 6 0.0000 0.0000 0.0000 0.0000 0.0000 -34.4381
#
#
#
# Elastic Compliance Matrix: (Units=1/GPa)
#
#
# Indices 1 2 3 4 5 6 
#
# 1 0.007100 -0.000480 -0.004845 0.000000 0.000000 0.000000
# 2 -0.000480 0.009753 0.001046 0.000000 0.000000 0.000000
# 3 -0.004845 0.001046 0.018350 0.000000 0.000000 0.000000
# 4 0.000000 0.000000 0.000000 0.865118 0.000000 0.000000
# 5 0.000000 0.000000 0.000000 0.000000 0.023611 0.000000
# 6 0.000000 0.000000 0.000000 0.000000 0.000000 -0.029038
#
#
# Mechanical properties :
#
#
# Convention : Reuss Voigt Hill
#
# Bulk Modulus (GPa) = 37.53129 47.73645 42.63387
# Shear Modulus (GPa) = 5.48044 21.68104 13.58074
#
# Velocity S-wave (km/s) = 1.55741 3.09767 2.45164
# Velocity P-wave (km/s) = 4.45472 5.82419 5.18487
#
# Compressibility (1/GPa) = 0.02664444
#
# Stress axis : x y z
#
# Youngs Moduli (GPa) = 140.84098 102.53506 54.49483
#
# Poissons Ratio (x) = 0.04922 0.26405
# Poissons Ratio (y) = 0.06761 -0.05700
# Poissons Ratio (z) = 0.68244 -0.10726
#
# Static dielectric constant tensor:
#      x y z
#    x 1.828440 0.000000 0.000000 
#    y 0.000000 1.901180 0.000000 
#    z 0.000000 0.000000 1.772830 
# 
# From -- ./inp_files/25499.got.cif
#   From: 2010.05.17/outbox.cif.g08.bks.cpg/sg44_13_cif.got.tgz:25499.got - 2010.06.03 19:37:08.
