data_PCOD9375008
_publ_section_title
;
Structure prediction by ZEFSAII (Michael W. Deem and Ramdas Pophale) SiO2 
 PCOD9375008
Probable space group: I M M 2
;
_chemical_formula_sum "Si O2"
_cell_formula_units_Z 64
_cell_length_a 14.706746
_cell_length_b 23.009006
_cell_length_c 9.741612
_cell_angle_alpha 90.000000
_cell_angle_beta 90.000000
_cell_angle_gamma 90.000000
_cell_volume 3296.440773
_symmetry_space_group_name_H-M "I M M 2"
_symmetry_group_IT_number 44
_symmetry_cell_setting 'orthorhombic'
loop_
_space_group_symop_operation_xyz
x,y,z
-x,-y,z
-x,y,z
x,-y,z
1/2+x,1/2+y,1/2+z
1/2-x,1/2-y,1/2+z
1/2-x,1/2+y,1/2+z
1/2+x,1/2-y,1/2+z
loop_
_atom_site_type_symbol
_atom_site_label
_atom_site_fract_x
_atom_site_fract_y
_atom_site_fract_z
Si Si1 0.709876 0.359015 0.532800
Si Si2 0.898058 0.566400 0.901974
Si Si3 0.893943 0.204845 0.268033
Si Si4 0.219328 0.565738 0.167154
Si Si5 0.102836 0.776294 0.590484
Si Si6 0.898395 0.066957 0.813977
Si Si7 0.227385 0.687432 0.273073
Si Si8 0.100630 0.364185 0.626387
O O1 0.664210 0.339034 0.674265
O O2 0.642986 0.396859 0.439504
O O3 0.736243 0.306369 0.428976
O O4 0.807131 0.388719 0.560977
O O5 0.889925 0.500000 0.846060
O O6 0.894144 0.614098 0.783173
O O7 0.000000 0.570060 0.964699
O O8 0.821295 0.573699 0.016378
O O9 0.886997 0.201849 0.433450
O O10 0.850701 0.267613 0.237379
O O11 0.000000 0.200780 0.231454
O O12 0.192677 0.500000 0.212168
O O13 0.328330 0.568898 0.186927
O O14 0.190067 0.622091 0.253416
O O15 0.184934 0.801535 0.678961
O O16 0.105938 0.705731 0.607168
O O17 0.000000 0.792260 0.635448
O O18 0.000000 0.085370 0.779253
O O19 0.900607 0.000000 0.857688
O O20 0.000000 0.382043 0.574379
#
# Coordination Sequence:
#
# PCOD9375008 Si02
#       8
#     8   8   8   8   8   8   8   8
#     4  11  22  36  61  86 118 153 201 248 289 357
#     4   9  19  36  58  87 122 157 195 242 296 355
#     4  11  22  37  56  83 117 153 192 243 298 346
#     4   9  20  36  58  85 114 153 197 244 292 347
#     4  10  22  39  58  81 116 155 193 240 296 354
#     4   9  19  38  61  86 119 160 203 249 301 353
#     4  11  21  36  58  83 113 153 191 238 293 357
#     4  10  20  36  59  83 117 159 195 240 298 358
#
# _framework density 19.414878999999999
#
# number of rings (size 3 to 8) (size 9 to 14) (size 15 to 20)
#    0.000    2.000    2.500    0.375    1.750    4.500 
#    0.000    3.125    0.000    0.750    0.000    0.000 
#    0.000    0.000    0.000    0.000    0.000    0.000 
#
# Total GULP energy -178162.216128 kJ/mol
# GULP energy per Si atom -5567.569254 kJ/mol
# Density = 1.937069 g / cm^3
# Si number density = 19.414879 Si / 1000 Ang^3
#
#
#
# Elastic Constant Matrix: (Units=GPa)
#
#
# Indices 1 2 3 4 5 6 
#
# 1 131.8357 28.2875 61.4722 0.0000 0.0000 0.0000
# 2 28.2875 37.5617 22.5289 0.0000 0.0000 0.0000
# 3 61.4722 22.5289 89.7752 0.0002 -0.0002 -0.0001
# 4 0.0000 0.0000 0.0002 21.5718 -0.0001 -0.0001
# 5 0.0000 0.0000 -0.0002 -0.0001 33.6975 0.0000
# 6 0.0000 0.0000 -0.0001 -0.0001 0.0000 6.4193
#
#
#
# Elastic Compliance Matrix: (Units=1/GPa)
#
#
# Indices 1 2 3 4 5 6 
#
# 1 0.011826 -0.004767 -0.006901 0.000000 0.000000 0.000000
# 2 -0.004767 0.033261 -0.005083 0.000000 0.000000 0.000000
# 3 -0.006901 -0.005083 0.017140 0.000000 0.000000 0.000000
# 4 0.000000 0.000000 0.000000 0.046357 0.000000 0.000000
# 5 0.000000 0.000000 0.000000 0.000000 0.029676 0.000000
# 6 0.000000 0.000000 0.000000 0.000000 0.000000 0.155781
#
#
# Mechanical properties :
#
#
# Convention : Reuss Voigt Hill
#
# Bulk Modulus (GPa) = 34.81261 53.74998 44.28130
# Shear Modulus (GPa) = 14.83159 22.12998 18.48079
#
# Velocity S-wave (km/s) = 2.76693 3.37982 3.08862
# Velocity P-wave (km/s) = 5.30826 6.55561 5.96463
#
# Compressibility (1/GPa) = 0.02872522
#
# Stress axis : x y z
#
# Youngs Moduli (GPa) = 84.55961 30.06501 58.34254
#
# Poissons Ratio (x) = 0.14331 0.40265
# Poissons Ratio (y) = 0.40307 0.29655
# Poissons Ratio (z) = 0.58359 0.15282
#
# Static dielectric constant tensor:
#      x y z
#    x 1.710430 0.000000 0.000000 
#    y 0.000000 1.712280 0.000000 
#    z 0.000000 0.000000 1.678250 
# 
# From -- ./inp_files/7531.got.cif
#   From: 2010.05.17/outbox.cif.g08.bks.cpg/sg44_4_cif.got.tgz:7531.got - 2010.06.03 19:37:08.
