data_PCOD9375294
_publ_section_title
;
Structure prediction by ZEFSAII (Michael W. Deem and Ramdas Pophale) SiO2 
 PCOD9375294
Probable space group: I M M 2
;
_chemical_formula_sum "Si O2"
_cell_formula_units_Z 64
_cell_length_a 7.549155
_cell_length_b 9.528819
_cell_length_c 43.081254
_cell_angle_alpha 90.000000
_cell_angle_beta 90.000000
_cell_angle_gamma 90.000000
_cell_volume 3099.029827
_symmetry_space_group_name_H-M "I M M 2"
_symmetry_group_IT_number 44
_symmetry_cell_setting 'orthorhombic'
loop_
_space_group_symop_operation_xyz
x,y,z
-x,-y,z
-x,y,z
x,-y,z
1/2+x,1/2+y,1/2+z
1/2-x,1/2-y,1/2+z
1/2-x,1/2+y,1/2+z
1/2+x,1/2-y,1/2+z
loop_
_atom_site_type_symbol
_atom_site_label
_atom_site_fract_x
_atom_site_fract_y
_atom_site_fract_z
Si Si1 0.212805 0.837292 0.030190
Si Si2 0.787078 0.159124 0.843808
Si Si3 0.710263 0.160338 0.962322
Si Si4 0.287302 0.340817 0.904759
Si Si5 0.216178 0.163665 0.097953
Si Si6 0.282911 0.838796 0.657628
Si Si7 0.212150 0.339853 0.786116
Si Si8 0.287577 0.659984 0.716276
O O1 0.265044 0.777448 0.996867
O O2 0.272273 0.782023 0.063791
O O3 0.000000 0.837059 0.030733
O O4 0.273121 0.000000 0.029472
O O5 0.748817 0.251315 0.874038
O O6 0.719709 0.238934 0.813118
O O7 0.000000 0.150844 0.841109
O O8 0.719559 0.000000 0.846702
O O9 0.500000 0.148841 0.957528
O O10 0.782649 0.000000 0.961349
O O11 0.781704 0.257445 0.934895
O O12 0.500000 0.349771 0.907852
O O13 0.219168 0.500000 0.902385
O O14 0.275211 0.255689 0.126911
O O15 0.000000 0.164545 0.098250
O O16 0.268205 0.000000 0.101184
O O17 0.500000 0.837602 0.657592
O O18 0.223298 0.758414 0.688622
O O19 0.226998 0.000000 0.657294
O O20 0.280851 0.500000 0.789062
O O21 0.248360 0.290147 0.751124
O O22 0.000000 0.347086 0.789506
O O23 0.500000 0.653498 0.713381
O O24 0.219597 0.500000 0.713345
#
# Coordination Sequence:
#
# PCOD9375294 Si02
#       8
#     8   8   8   8   8   8   8   8
#     4   8  14  25  43  67  91 116 150 190 229 272
#     4  10  21  36  54  76 100 127 160 197 239 287
#     4   9  17  30  48  69  94 123 154 190 234 282
#     4  10  21  36  53  73  98 129 164 200 239 284
#     4   8  13  23  40  60  83 114 151 188 227 273
#     4   9  16  25  39  62  91 119 148 187 233 274
#     4   9  18  33  51  70  95 126 156 188 230 279
#     4   9  17  29  46  68  92 119 153 190 227 271
#
# _framework density 20.651626
#
# number of rings (size 3 to 8) (size 9 to 14) (size 15 to 20)
#    0.000    3.000    0.000    1.875    0.000    4.500 
#    0.000    3.125    0.000    1.500    0.000    3.500 
#    0.000    0.000    0.000    0.000    0.000    0.000 
#
# Total GULP energy -178477.206585 kJ/mol
# GULP energy per Si atom -5577.412706 kJ/mol
# Density = 2.060462 g / cm^3
# Si number density = 20.651626 Si / 1000 Ang^3
#
#
#
# Elastic Constant Matrix: (Units=GPa)
#
#
# Indices 1 2 3 4 5 6 
#
# 1 47.9369 6.0284 0.1817 0.0000 0.0000 0.0000
# 2 6.0284 132.2532 130.5097 0.0000 0.0000 0.0000
# 3 0.1817 130.5097 246.3476 0.0000 0.0000 0.0000
# 4 0.0000 0.0000 0.0000 31.2195 0.0000 0.0000
# 5 0.0000 0.0000 0.0000 0.0000 14.6302 0.0000
# 6 0.0000 0.0000 0.0000 0.0000 0.0000 6.7771
#
#
#
# Elastic Compliance Matrix: (Units=1/GPa)
#
#
# Indices 1 2 3 4 5 6 
#
# 1 0.021106 -0.001984 0.001035 0.000000 0.000000 0.000000
# 2 -0.001984 0.016031 -0.008492 0.000000 0.000000 0.000000
# 3 0.001035 -0.008492 0.008557 0.000000 0.000000 0.000000
# 4 0.000000 0.000000 0.000000 0.032031 0.000000 0.000000
# 5 0.000000 0.000000 0.000000 0.000000 0.068352 0.000000
# 6 0.000000 0.000000 0.000000 0.000000 0.000000 0.147556
#
#
# Mechanical properties :
#
#
# Convention : Reuss Voigt Hill
#
# Bulk Modulus (GPa) = 37.29282 77.77528 57.53405
# Shear Modulus (GPa) = 15.55439 29.84652 22.70045
#
# Velocity S-wave (km/s) = 2.74739 3.80575 3.31903
# Velocity P-wave (km/s) = 5.30674 7.55341 6.52746
#
# Compressibility (1/GPa) = 0.02681481
#
# Stress axis : x y z
#
# Youngs Moduli (GPa) = 47.37917 62.37778 116.86045
#
# Poissons Ratio (x) = 0.12375 -0.12100
# Poissons Ratio (y) = 0.09399 0.99233
# Poissons Ratio (z) = -0.04906 0.52969
#
# Static dielectric constant tensor:
#      x y z
#    x 1.803260 0.000000 0.000000 
#    y 0.000000 1.725660 0.000000 
#    z 0.000000 0.000000 1.732120 
# 
# From -- ./inp_files/27450.got.cif
#   From: 2010.05.17/outbox.cif.g08.bks.cpg/sg44_14_cif.got.tgz:27450.got - 2010.06.03 19:37:08.
