data_PCOD9375027
_publ_section_title
;
Structure prediction by ZEFSAII (Michael W. Deem and Ramdas Pophale) SiO2 
 PCOD9375027
Probable space group: I M M 2
;
_chemical_formula_sum "Si O2"
_cell_formula_units_Z 48
_cell_length_a 8.426629
_cell_length_b 23.763335
_cell_length_c 12.042577
_cell_angle_alpha 90.000000
_cell_angle_beta 90.000000
_cell_angle_gamma 90.000000
_cell_volume 2411.463517
_symmetry_space_group_name_H-M "I M M 2"
_symmetry_group_IT_number 44
_symmetry_cell_setting 'orthorhombic'
loop_
_space_group_symop_operation_xyz
x,y,z
-x,-y,z
-x,y,z
x,-y,z
1/2+x,1/2+y,1/2+z
1/2-x,1/2-y,1/2+z
1/2-x,1/2+y,1/2+z
1/2+x,1/2-y,1/2+z
loop_
_atom_site_type_symbol
_atom_site_label
_atom_site_fract_x
_atom_site_fract_y
_atom_site_fract_z
Si Si1 0.690097 0.143064 0.945750
Si Si2 0.189319 0.934806 0.747093
Si Si3 0.189453 0.768205 0.113075
Si Si4 0.807245 0.437923 0.645374
Si Si5 0.192174 0.644244 0.064765
Si Si6 0.808838 0.653713 0.811197
O O1 0.500000 0.146900 0.940051
O O2 0.747323 0.112125 0.834300
O O3 0.749917 0.201978 0.998892
O O4 0.741838 0.099608 0.041971
O O5 0.238708 0.909495 0.627860
O O6 0.000000 0.936053 0.756392
O O7 0.246677 0.000000 0.764674
O O8 0.238329 0.703194 0.122142
O O9 0.246446 0.800916 0.222840
O O10 0.000000 0.770444 0.108402
O O11 0.742695 0.500000 0.637961
O O12 0.764614 0.405949 0.757049
O O13 0.000000 0.440013 0.641337
O O14 0.000000 0.639509 0.066859
O O15 0.244278 0.653263 0.937648
O O16 0.000000 0.659291 0.810961
#
# Coordination Sequence:
#
# PCOD9375027 Si02
#       6
#     8   8   8   8   8   8
#     4  10  20  36  60  88 118 156 199 246 299 356
#     4  11  25  42  60  87 124 164 204 250 307 363
#     4  10  21  37  58  88 121 154 198 251 307 359
#     4   8  14  27  51  81 108 138 181 233 284 333
#     4  10  23  40  59  85 117 158 204 248 299 362
#     4   9  19  36  56  82 113 148 194 245 296 354
#
# _framework density 19.904923
#
# number of rings (size 3 to 8) (size 9 to 14) (size 15 to 20)
#    0.000    2.333    0.000    3.000    2.333    4.667 
#    0.000    1.667    0.000    4.500    0.000    0.000 
#    0.000    0.000    0.000    0.000    0.000    0.000 
#
# Total GULP energy -133788.663489 kJ/mol
# GULP energy per Si atom -5574.527645 kJ/mol
# Density = 1.985962 g / cm^3
# Si number density = 19.904923 Si / 1000 Ang^3
#
#
#
# Elastic Constant Matrix: (Units=GPa)
#
#
# Indices 1 2 3 4 5 6 
#
# 1 32.1035 12.7528 13.9239 0.0000 0.0000 0.0000
# 2 12.7528 78.3863 17.0209 0.0000 0.0000 0.0000
# 3 13.9239 17.0209 90.8443 0.0002 0.0001 0.0000
# 4 0.0000 0.0000 0.0002 17.3070 0.0000 0.0000
# 5 0.0000 0.0000 0.0001 0.0000 27.9226 0.0000
# 6 0.0000 0.0000 0.0000 0.0000 0.0000 16.5789
#
#
#
# Elastic Compliance Matrix: (Units=1/GPa)
#
#
# Indices 1 2 3 4 5 6 
#
# 1 0.034964 -0.004717 -0.004475 0.000000 0.000000 0.000000
# 2 -0.004717 0.013935 -0.001888 0.000000 0.000000 0.000000
# 3 -0.004475 -0.001888 0.012048 0.000000 0.000000 0.000000
# 4 0.000000 0.000000 0.000000 0.057780 0.000000 0.000000
# 5 0.000000 0.000000 0.000000 0.000000 0.035813 0.000000
# 6 0.000000 0.000000 0.000000 0.000000 0.000000 0.060318
#
#
# Mechanical properties :
#
#
# Convention : Reuss Voigt Hill
#
# Bulk Modulus (GPa) = 25.78220 32.08105 28.93163
# Shear Modulus (GPa) = 20.00438 22.87081 21.43759
#
# Velocity S-wave (km/s) = 3.17361 3.39337 3.28533
# Velocity P-wave (km/s) = 5.13905 5.61297 5.38123
#
# Compressibility (1/GPa) = 0.03878645
#
# Stress axis : x y z
#
# Youngs Moduli (GPa) = 28.60098 71.76372 83.00471
#
# Poissons Ratio (x) = 0.33848 0.37147
# Poissons Ratio (y) = 0.13490 0.15671
# Poissons Ratio (z) = 0.12800 0.13548
#
# Static dielectric constant tensor:
#      x y z
#    x 1.695580 0.000000 0.000000 
#    y 0.000000 1.723050 0.000000 
#    z 0.000000 0.000000 1.715080 
# 
# From -- ./inp_files/11160.got.cif
#   From: 2010.05.17/outbox.cif.g08.bks.cpg/sg44_6_cif.got.tgz:11160.got - 2010.06.03 19:37:08.
