data_PCOD9375905
_publ_section_title
;
Structure prediction by ZEFSAII (Michael W. Deem and Ramdas Pophale) SiO2 
 PCOD9375905
Probable space group: I M M 2
;
_chemical_formula_sum "Si O2"
_cell_formula_units_Z 56
_cell_length_a 7.341987
_cell_length_b 14.274700
_cell_length_c 30.634523
_cell_angle_alpha 90.000000
_cell_angle_beta 90.000000
_cell_angle_gamma 90.000000
_cell_volume 3210.640823
_symmetry_space_group_name_H-M "I M M 2"
_symmetry_group_IT_number 44
_symmetry_cell_setting 'orthorhombic'
loop_
_space_group_symop_operation_xyz
x,y,z
-x,-y,z
-x,y,z
x,-y,z
1/2+x,1/2+y,1/2+z
1/2-x,1/2-y,1/2+z
1/2-x,1/2+y,1/2+z
1/2+x,1/2-y,1/2+z
loop_
_atom_site_type_symbol
_atom_site_label
_atom_site_fract_x
_atom_site_fract_y
_atom_site_fract_z
Si Si1 0.715459 0.393001 0.180530
Si Si2 0.221871 0.709638 0.902047
Si Si3 0.721948 0.109608 0.489405
Si Si4 0.778164 0.605524 0.813786
Si Si5 0.778012 0.210000 0.766259
Si Si6 0.218137 0.607773 0.084712
Si Si7 0.278312 0.394450 0.354534
O O1 0.500000 0.401038 0.187727
O O2 0.789388 0.500000 0.181247
O O3 0.786401 0.330448 0.220212
O O4 0.737315 0.351035 0.131971
O O5 0.284341 0.670089 0.948346
O O6 0.274739 0.641934 0.861958
O O7 0.279113 0.814361 0.888629
O O8 0.000000 0.709715 0.902732
O O9 0.500000 0.110705 0.488609
O O10 0.779703 0.144858 0.537556
O O11 0.773850 0.000000 0.484918
O O12 0.716516 0.500000 0.805486
O O13 0.720024 0.685426 0.779688
O O14 0.000000 0.604634 0.813381
O O15 0.726027 0.142023 0.806350
O O16 0.000000 0.211589 0.765725
O O17 0.284329 0.500000 0.086532
O O18 0.000000 0.605396 0.082785
O O19 0.500000 0.395408 0.355076
O O20 0.216371 0.500000 0.362792
#
# Coordination Sequence:
#
# PCOD9375905 Si02
#       7
#     8   8   8   8   8   8   8
#     4   9  15  22  33  48  66  88 111 133 158 191
#     4   8  12  16  24  39  57  79 105 127 151 188
#     4   8  12  18  28  41  58  79 100 123 154 191
#     4   8  12  17  25  39  61  85 105 128 159 192
#     4   8  13  19  27  41  61  85 109 129 155 192
#     4   8  14  23  33  46  65  87 109 134 164 194
#     4   8  12  17  24  36  58  85 107 126 150 184
#
# _framework density 17.442001999999999
#
# number of rings (size 3 to 8) (size 9 to 14) (size 15 to 20)
#    0.000    3.857    0.000    3.429    0.000    3.429 
#    0.000    0.000    0.000    0.000    0.000    1.000 
#    0.000    6.286    0.000    2.000    0.000    0.714 
#
# Total GULP energy -155904.517593 kJ/mol
# GULP energy per Si atom -5568.018485 kJ/mol
# Density = 1.740230 g / cm^3
# Si number density = 17.442002 Si / 1000 Ang^3
#
#
#
# Elastic Constant Matrix: (Units=GPa)
#
#
# Indices 1 2 3 4 5 6 
#
# 1 64.5537 4.5097 4.5518 0.0000 0.0000 0.0000
# 2 4.5097 126.7826 90.0308 0.0000 0.0000 0.0000
# 3 4.5518 90.0308 189.5167 0.0000 0.0000 0.0000
# 4 0.0000 0.0000 0.0000 25.9684 0.0000 0.0000
# 5 0.0000 0.0000 0.0000 0.0000 4.9666 0.0000
# 6 0.0000 0.0000 0.0000 0.0000 0.0000 -11.3721
#
#
#
# Elastic Compliance Matrix: (Units=1/GPa)
#
#
# Indices 1 2 3 4 5 6 
#
# 1 0.015533 -0.000434 -0.000167 0.000000 0.000000 0.000000
# 2 -0.000434 0.011915 -0.005650 0.000000 0.000000 0.000000
# 3 -0.000167 -0.005650 0.007965 0.000000 0.000000 0.000000
# 4 0.000000 0.000000 0.000000 0.038508 0.000000 0.000000
# 5 0.000000 0.000000 0.000000 0.000000 0.201344 0.000000
# 6 0.000000 0.000000 0.000000 0.000000 0.000000 -0.087934
#
#
# Mechanical properties :
#
#
# Convention : Reuss Voigt Hill
#
# Bulk Modulus (GPa) = 43.64687 64.33752 53.99220
# Shear Modulus (GPa) = 24.09998 22.69662 23.39830
#
# Velocity S-wave (km/s) = 3.72118 3.61121 3.66661
# Velocity P-wave (km/s) = 6.59858 7.37255 6.99627
#
# Compressibility (1/GPa) = 0.02291115
#
# Stress axis : x y z
#
# Youngs Moduli (GPa) = 64.37878 83.92750 125.55571
#
# Poissons Ratio (x) = 0.03643 0.02095
# Poissons Ratio (y) = 0.02794 0.70937
# Poissons Ratio (z) = 0.01074 0.47418
#
# Static dielectric constant tensor:
#      x y z
#    x 1.716480 0.000000 0.000000 
#    y 0.000000 1.572350 0.000000 
#    z 0.000000 0.000000 1.609710 
# 
# From -- ./inp_files/27207.got.cif
#   From: 2010.05.17/outbox.cif.g08.bks.cpg/sg44_14_cif.got.tgz:27207.got - 2010.06.03 19:37:08.
