data_PCOD9375013
_publ_section_title
;
Structure prediction by ZEFSAII (Michael W. Deem and Ramdas Pophale) SiO2 
 PCOD9375013
Probable space group: I M M 2
;
_chemical_formula_sum "Si O2"
_cell_formula_units_Z 40
_cell_length_a 18.039139
_cell_length_b 12.876201
_cell_length_c 8.156647
_cell_angle_alpha 90.000000
_cell_angle_beta 90.000000
_cell_angle_gamma 90.000000
_cell_volume 1894.589910
_symmetry_space_group_name_H-M "I M M 2"
_symmetry_group_IT_number 44
_symmetry_cell_setting 'orthorhombic'
loop_
_space_group_symop_operation_xyz
x,y,z
-x,-y,z
-x,y,z
x,-y,z
1/2+x,1/2+y,1/2+z
1/2-x,1/2-y,1/2+z
1/2-x,1/2+y,1/2+z
1/2+x,1/2-y,1/2+z
loop_
_atom_site_type_symbol
_atom_site_label
_atom_site_fract_x
_atom_site_fract_y
_atom_site_fract_z
Si Si1 0.913412 0.833906 0.299430
Si Si2 0.413192 0.884131 0.661123
Si Si3 0.588685 0.615166 0.173817
Si Si4 0.273715 0.385166 0.590098
Si Si5 0.321016 0.787090 0.368526
O O1 0.905153 0.708876 0.290835
O O2 0.894974 0.873938 0.480173
O O3 0.857429 0.877370 0.163464
O O4 0.000000 0.858656 0.264773
O O5 0.500000 0.883261 0.612652
O O6 0.364003 0.852371 0.505661
O O7 0.394912 0.000000 0.719715
O O8 0.500000 0.620816 0.191401
O O9 0.613224 0.500000 0.229106
O O10 0.625079 0.708553 0.272355
O O11 0.260074 0.500000 0.524890
O O12 0.265802 0.292114 0.461287
O O13 0.220940 0.360092 0.742466
#
# Coordination Sequence:
#
# PCOD9375013 Si02
#       5
#     8   8   8   8   8
#     4   9  19  36  58  83 110 142 183 227 272 326
#     4   9  18  35  58  82 110 144 180 221 270 323
#     4  10  20  36  59  85 113 144 179 224 275 324
#     4  11  23  38  57  81 111 147 184 226 276 326
#     4  11  22  38  55  81 112 145 185 228 270 326
#
# _framework density 21.112746999999999
#
# number of rings (size 3 to 8) (size 9 to 14) (size 15 to 20)
#    0.000    2.000    0.000    3.600    0.000    2.000 
#    0.000   15.000    0.000    4.800    0.000    0.000 
#    0.000    0.000    0.000    0.000    0.000    0.000 
#
# Total GULP energy -111784.239920 kJ/mol
# GULP energy per Si atom -5589.211996 kJ/mol
# Density = 2.106469 g / cm^3
# Si number density = 21.112747 Si / 1000 Ang^3
#
#
#
# Elastic Constant Matrix: (Units=GPa)
#
#
# Indices 1 2 3 4 5 6 
#
# 1 45.0519 15.5870 8.4187 0.0000 0.0000 0.0000
# 2 15.5870 120.3960 -1.1000 0.0000 0.0000 0.0000
# 3 8.4187 -1.1000 30.3231 0.0000 0.0000 0.0000
# 4 0.0000 0.0000 0.0000 9.2741 0.0000 0.0000
# 5 0.0000 0.0000 0.0000 0.0000 36.7519 0.0000
# 6 0.0000 0.0000 0.0000 0.0000 0.0000 -4.5095
#
#
#
# Elastic Compliance Matrix: (Units=1/GPa)
#
#
# Indices 1 2 3 4 5 6 
#
# 1 0.024621 -0.003251 -0.006954 0.000000 0.000000 0.000000
# 2 -0.003251 0.008738 0.001220 0.000000 0.000000 0.000000
# 3 -0.006954 0.001220 0.034953 0.000000 0.000000 0.000000
# 4 0.000000 0.000000 0.000000 0.107828 0.000000 0.000000
# 5 0.000000 0.000000 0.000000 0.000000 0.027209 0.000000
# 6 0.000000 0.000000 0.000000 0.000000 0.000000 -0.221756
#
#
# Mechanical properties :
#
#
# Convention : Reuss Voigt Hill
#
# Bulk Modulus (GPa) = 19.86422 26.84250 23.35336
# Shear Modulus (GPa) = 305.92752 19.82766 162.87759
#
# Velocity S-wave (km/s) = 12.05058 3.06785 8.79284
# Velocity P-wave (km/s) = 14.24959 5.02896 10.68507
#
# Compressibility (1/GPa) = 0.05034176
#
# Stress axis : x y z
#
# Youngs Moduli (GPa) = 40.61608 114.44316 28.60987
#
# Poissons Ratio (x) = 0.37206 0.19894
# Poissons Ratio (y) = 0.13204 -0.03489
# Poissons Ratio (z) = 0.28242 -0.13957
#
# Static dielectric constant tensor:
#      x y z
#    x 1.762720 0.000000 0.000000 
#    y 0.000000 1.751320 0.000000 
#    z 0.000000 0.000000 1.735360 
# 
# From -- ./inp_files/5621.got.cif
#   From: 2010.05.17/outbox.cif.g08.bks.cpg/sg44_3_cif.got.tgz:5621.got - 2010.06.03 19:37:08.
