data_PCOD9375222
_publ_section_title
;
Structure prediction by ZEFSAII (Michael W. Deem and Ramdas Pophale) SiO2 
 PCOD9375222
Probable space group: I M M 2
;
_chemical_formula_sum "Si O2"
_cell_formula_units_Z 48
_cell_length_a 30.014229
_cell_length_b 9.534193
_cell_length_c 8.925592
_cell_angle_alpha 90.000000
_cell_angle_beta 90.000000
_cell_angle_gamma 90.000000
_cell_volume 2554.160367
_symmetry_space_group_name_H-M "I M M 2"
_symmetry_group_IT_number 44
_symmetry_cell_setting 'orthorhombic'
loop_
_space_group_symop_operation_xyz
x,y,z
-x,-y,z
-x,y,z
x,-y,z
1/2+x,1/2+y,1/2+z
1/2-x,1/2-y,1/2+z
1/2-x,1/2+y,1/2+z
1/2+x,1/2-y,1/2+z
loop_
_atom_site_type_symbol
_atom_site_label
_atom_site_fract_x
_atom_site_fract_y
_atom_site_fract_z
Si Si1 0.127378 0.840813 0.971950
Si Si2 0.691376 0.246252 0.719036
Si Si3 0.656502 0.830901 0.188332
Si Si4 0.271031 0.656346 0.026406
Si Si5 0.447671 0.831135 0.631950
Si Si6 0.893259 0.659781 0.406253
O O1 0.149671 0.749328 0.842053
O O2 0.118301 0.000000 0.925221
O O3 0.161365 0.843816 0.112791
O O4 0.083127 0.757066 0.020675
O O5 0.722511 0.163699 0.602175
O O6 0.652991 0.163755 0.811125
O O7 0.722164 0.314117 0.849341
O O8 0.701386 0.776386 0.110901
O O9 0.656199 0.000000 0.203482
O O10 0.618594 0.781711 0.068837
O O11 0.289328 0.500000 0.055360
O O12 0.500000 0.810322 0.611281
O O13 0.431067 0.782471 0.797094
O O14 0.438513 0.000000 0.618626
O O15 0.905929 0.500000 0.434324
#
# Coordination Sequence:
#
# PCOD9375222 Si02
#       6
#     8   8   8   8   8   8
#     4  11  22  36  55  79 112 149 184 223 269 322
#     4  10  21  34  52  77 107 142 182 226 274 321
#     4  10  21  36  55  79 109 145 184 227 271 319
#     4  11  22  36  55  78 106 141 185 231 274 321
#     4   9  18  35  60  85 107 135 174 221 274 332
#     4   8  16  33  54  77 104 134 172 219 273 327
#
# _framework density 18.792869
#
# number of rings (size 3 to 8) (size 9 to 14) (size 15 to 20)
#    0.000    2.167    0.000    3.000    0.000    5.667 
#    0.000    1.667    0.000    3.000    0.000    0.000 
#    0.000    0.000    0.000    0.000    0.000    0.000 
#
# Total GULP energy -133609.451761 kJ/mol
# GULP energy per Si atom -5567.060490 kJ/mol
# Density = 1.875010 g / cm^3
# Si number density = 18.792869 Si / 1000 Ang^3
#
#
#
# Elastic Constant Matrix: (Units=GPa)
#
#
# Indices 1 2 3 4 5 6 
#
# 1 70.0608 30.5415 41.5730 0.0000 0.0000 0.0000
# 2 30.5415 98.1086 42.4031 0.0000 0.0000 0.0000
# 3 41.5730 42.4031 109.5943 0.0000 0.0000 0.0000
# 4 0.0000 0.0000 0.0000 17.0258 0.0000 0.0000
# 5 0.0000 0.0000 0.0000 0.0000 23.7268 0.0000
# 6 0.0000 0.0000 0.0000 0.0000 0.0000 8.9557
#
#
#
# Elastic Compliance Matrix: (Units=1/GPa)
#
#
# Indices 1 2 3 4 5 6 
#
# 1 0.019330 -0.003420 -0.006009 0.000000 0.000000 0.000000
# 2 -0.003420 0.012845 -0.003672 0.000000 0.000000 0.000000
# 3 -0.006009 -0.003672 0.012825 0.000000 0.000000 0.000000
# 4 0.000000 0.000000 0.000000 0.058734 0.000000 0.000000
# 5 0.000000 0.000000 0.000000 0.000000 0.042146 0.000000
# 6 0.000000 0.000000 0.000000 0.000000 0.000000 0.111661
#
#
# Mechanical properties :
#
#
# Convention : Reuss Voigt Hill
#
# Bulk Modulus (GPa) = 53.20263 56.31101 54.75682
# Shear Modulus (GPa) = 17.24076 20.82473 19.03275
#
# Velocity S-wave (km/s) = 3.03216 3.33245 3.18585
# Velocity P-wave (km/s) = 6.37418 6.69597 6.53706
#
# Compressibility (1/GPa) = 0.01879606
#
# Stress axis : x y z
#
# Youngs Moduli (GPa) = 51.73267 77.85291 77.97303
#
# Poissons Ratio (x) = 0.26628 0.46856
# Poissons Ratio (y) = 0.17694 0.28634
# Poissons Ratio (z) = 0.31088 0.28590
#
# Static dielectric constant tensor:
#      x y z
#    x 1.652890 0.000000 0.000000 
#    y 0.000000 1.645910 0.000000 
#    z 0.000000 0.000000 1.683440 
# 
# From -- ./inp_files/4940.got.cif
#   From: 2010.05.17/outbox.cif.g08.bks.cpg/sg44_3_cif.got.tgz:4940.got - 2010.06.03 19:37:08.
