data_PCOD9375659
_publ_section_title
;
Structure prediction by ZEFSAII (Michael W. Deem and Ramdas Pophale) SiO2 
 PCOD9375659
Probable space group: I M M 2
;
_chemical_formula_sum "Si O2"
_cell_formula_units_Z 48
_cell_length_a 31.898975
_cell_length_b 9.253069
_cell_length_c 7.559450
_cell_angle_alpha 90.000000
_cell_angle_beta 90.000000
_cell_angle_gamma 90.000000
_cell_volume 2231.273090
_symmetry_space_group_name_H-M "I M M 2"
_symmetry_group_IT_number 44
_symmetry_cell_setting 'orthorhombic'
loop_
_space_group_symop_operation_xyz
x,y,z
-x,-y,z
-x,y,z
x,-y,z
1/2+x,1/2+y,1/2+z
1/2-x,1/2-y,1/2+z
1/2-x,1/2+y,1/2+z
1/2+x,1/2-y,1/2+z
loop_
_atom_site_type_symbol
_atom_site_label
_atom_site_fract_x
_atom_site_fract_y
_atom_site_fract_z
Si Si1 0.951642 0.000000 0.431510
Si Si2 0.157230 0.661369 0.638679
Si Si3 0.694780 0.653815 0.649282
Si Si4 0.084130 0.332859 0.358016
Si Si5 0.234998 0.157937 0.762459
Si Si6 0.108213 0.748440 0.990223
Si Si7 0.951165 0.000000 0.856191
O O1 0.935294 0.165952 0.380436
O O2 0.947982 0.000000 0.644107
O O3 0.000000 0.000000 0.375418
O O4 0.174383 0.500000 0.634140
O O5 0.127100 0.682243 0.470660
O O6 0.196817 0.763895 0.663483
O O7 0.127864 0.678471 0.813921
O O8 0.698542 0.500000 0.740872
O O9 0.719410 0.772156 0.757185
O O10 0.719897 0.652254 0.464273
O O11 0.647455 0.677553 0.590007
O O12 0.067811 0.500000 0.413709
O O13 0.089603 0.345670 0.147709
O O14 0.239096 0.000000 0.684979
O O15 0.073545 0.862215 0.929098
O O16 0.000000 0.000000 0.905311
#
# Coordination Sequence:
#
# PCOD9375659 Si02
#       7
#     4   8   8   8   8   8   4
#     4  11  25  47  77 106 143 185 232 295 367 442
#     4  10  22  41  64  91 134 180 228 283 345 416
#     4  10  22  39  59  88 128 172 225 277 339 410
#     4  11  25  42  71 106 138 181 232 286 356 431
#     4  10  23  38  58  85 124 171 220 284 336 403
#     4  11  22  42  69 100 137 181 231 288 354 420
#     4  11  23  45  75 106 141 187 240 295 367 436
#
# _framework density 21.51238
#
# number of rings (size 3 to 8) (size 9 to 14) (size 15 to 20)
#    0.000    1.500    2.500    1.500    4.667    5.667 
#    0.000    0.000    0.000    1.500    0.000    0.000 
#    0.000    0.000    0.000    0.000    0.000    0.000 
#
# Total GULP energy -133688.071421 kJ/mol
# GULP energy per Si atom -5570.336309 kJ/mol
# Density = 2.146342 g / cm^3
# Si number density = 21.512380 Si / 1000 Ang^3
#
#
#
# Elastic Constant Matrix: (Units=GPa)
#
#
# Indices 1 2 3 4 5 6 
#
# 1 102.3433 57.1054 11.7787 0.0000 0.0000 0.0000
# 2 57.1054 155.7378 15.0779 0.0000 0.0000 0.0000
# 3 11.7787 15.0779 85.8162 0.0000 0.0000 0.0000
# 4 0.0000 0.0000 0.0000 31.5998 0.0000 0.0000
# 5 0.0000 0.0000 0.0000 0.0000 19.8866 0.0000
# 6 0.0000 0.0000 0.0000 0.0000 0.0000 39.5135
#
#
#
# Elastic Compliance Matrix: (Units=1/GPa)
#
#
# Indices 1 2 3 4 5 6 
#
# 1 0.012355 -0.004442 -0.000915 0.000000 0.000000 0.000000
# 2 -0.004442 0.008129 -0.000819 0.000000 0.000000 0.000000
# 3 -0.000915 -0.000819 0.011922 0.000000 0.000000 0.000000
# 4 0.000000 0.000000 0.000000 0.031646 0.000000 0.000000
# 5 0.000000 0.000000 0.000000 0.000000 0.050285 0.000000
# 6 0.000000 0.000000 0.000000 0.000000 0.000000 0.025308
#
#
# Mechanical properties :
#
#
# Convention : Reuss Voigt Hill
#
# Bulk Modulus (GPa) = 49.86335 56.86902 53.36618
# Shear Modulus (GPa) = 31.50986 35.52901 33.51943
#
# Velocity S-wave (km/s) = 3.83133 4.06835 3.95162
# Velocity P-wave (km/s) = 6.54228 6.96861 6.75880
#
# Compressibility (1/GPa) = 0.02005481
#
# Stress axis : x y z
#
# Youngs Moduli (GPa) = 80.94105 123.01761 83.87654
#
# Poissons Ratio (x) = 0.54639 0.07678
# Poissons Ratio (y) = 0.35950 0.06866
# Poissons Ratio (z) = 0.07409 0.10071
#
# Static dielectric constant tensor:
#      x y z
#    x 1.752110 0.000000 0.000000 
#    y 0.000000 1.870290 0.000000 
#    z 0.000000 0.000000 1.807410 
# 
# From -- ./inp_files/9984.got.cif
#   From: 2010.05.17/outbox.cif.g08.bks.cpg/sg44_5_cif.got.tgz:9984.got - 2010.06.03 19:37:08.
