data_PCOD9375289
_publ_section_title
;
Structure prediction by ZEFSAII (Michael W. Deem and Ramdas Pophale) SiO2 
 PCOD9375289
Probable space group: I M M 2
;
_chemical_formula_sum "Si O2"
_cell_formula_units_Z 64
_cell_length_a 8.748458
_cell_length_b 31.056159
_cell_length_c 14.780377
_cell_angle_alpha 90.000000
_cell_angle_beta 90.000000
_cell_angle_gamma 90.000000
_cell_volume 4015.732398
_symmetry_space_group_name_H-M "I M M 2"
_symmetry_group_IT_number 44
_symmetry_cell_setting 'orthorhombic'
loop_
_space_group_symop_operation_xyz
x,y,z
-x,-y,z
-x,y,z
x,-y,z
1/2+x,1/2+y,1/2+z
1/2-x,1/2-y,1/2+z
1/2-x,1/2+y,1/2+z
1/2+x,1/2-y,1/2+z
loop_
_atom_site_type_symbol
_atom_site_label
_atom_site_fract_x
_atom_site_fract_y
_atom_site_fract_z
Si Si1 0.682950 0.209690 0.415130
Si Si2 0.316208 0.049995 0.020449
Si Si3 0.317937 0.768119 0.621456
Si Si4 0.679019 0.174754 0.129695
Si Si5 0.181683 0.866038 0.951858
Si Si6 0.179581 0.132118 0.303821
Si Si7 0.183665 0.204030 0.802425
Si Si8 0.183913 0.549052 0.731662
O O1 0.500000 0.207291 0.405267
O O2 0.717332 0.214280 0.521463
O O3 0.753225 0.166505 0.374080
O O4 0.730299 0.252947 0.359696
O O5 0.500000 0.055481 0.014446
O O6 0.233655 0.084446 0.956920
O O7 0.281481 0.000000 0.000595
O O8 0.272933 0.057892 0.126214
O O9 0.500000 0.758899 0.624398
O O10 0.221752 0.724621 0.632989
O O11 0.269463 0.796665 0.706920
O O12 0.500000 0.167559 0.147058
O O13 0.776633 0.151722 0.206490
O O14 0.727079 0.156619 0.032962
O O15 0.214114 0.838321 0.862299
O O16 0.000000 0.862703 0.968932
O O17 0.250102 0.084472 0.298977
O O18 0.000000 0.129362 0.315434
O O19 0.000000 0.206868 0.788472
O O20 0.230806 0.500000 0.752049
O O21 0.000000 0.550990 0.734092
#
# Coordination Sequence:
#
# PCOD9375289 Si02
#       8
#     8   8   8   8   8   8   8   8
#     4  10  21  37  53  72 103 138 170 210 257 302
#     4   9  18  32  50  74 104 137 171 207 252 306
#     4  11  22  37  54  74 100 132 178 221 250 293
#     4  12  22  32  49  71 103 141 173 209 256 301
#     4  11  21  34  51  75 104 136 176 214 251 301
#     4  12  23  33  50  77 104 135 177 214 249 300
#     4  10  21  36  52  73 105 138 168 209 260 306
#     4   9  18  33  52  74 103 138 170 204 254 308
#
# _framework density 15.937317999999999
#
# number of rings (size 3 to 8) (size 9 to 14) (size 15 to 20)
#    0.000    1.500    3.750    3.750    0.000    2.500 
#    0.000    1.250    0.000    0.000    0.000    0.875 
#    0.000    5.000    0.000    0.000    0.000    0.000 
#
# Total GULP energy -178604.346833 kJ/mol
# GULP energy per Si atom -5581.385839 kJ/mol
# Density = 1.590104 g / cm^3
# Si number density = 15.937318 Si / 1000 Ang^3
#
#
#
# Elastic Constant Matrix: (Units=GPa)
#
#
# Indices 1 2 3 4 5 6 
#
# 1 17.9377 22.6055 14.4436 0.0000 0.0000 0.0000
# 2 22.6055 103.8526 26.7883 0.0000 0.0000 0.0000
# 3 14.4436 26.7883 64.5600 0.0002 0.0000 0.0000
# 4 0.0000 0.0000 0.0002 19.6881 0.0000 0.0000
# 5 0.0000 0.0000 0.0000 0.0000 21.7331 0.0000
# 6 0.0000 0.0000 0.0000 0.0000 0.0000 24.8543
#
#
#
# Elastic Compliance Matrix: (Units=1/GPa)
#
#
# Indices 1 2 3 4 5 6 
#
# 1 0.085248 -0.015271 -0.012736 0.000000 0.000000 0.000000
# 2 -0.015271 0.013519 -0.002193 0.000000 0.000000 0.000000
# 3 -0.012736 -0.002193 0.019249 0.000000 0.000000 0.000000
# 4 0.000000 0.000000 0.000000 0.050792 0.000000 0.000000
# 5 0.000000 0.000000 0.000000 0.000000 0.046013 0.000000
# 6 0.000000 0.000000 0.000000 0.000000 0.000000 0.040234
#
#
# Mechanical properties :
#
#
# Convention : Reuss Voigt Hill
#
# Bulk Modulus (GPa) = 17.35613 34.89167 26.12390
# Shear Modulus (GPa) = 14.94061 21.42264 18.18162
#
# Velocity S-wave (km/s) = 3.06512 3.67028 3.38127
# Velocity P-wave (km/s) = 4.84154 6.31680 5.62772
#
# Compressibility (1/GPa) = 0.05761654
#
# Stress axis : x y z
#
# Youngs Moduli (GPa) = 11.73052 73.97179 51.95170
#
# Poissons Ratio (x) = 1.12960 0.66163
# Poissons Ratio (y) = 0.17913 0.11393
# Poissons Ratio (z) = 0.14939 0.16222
#
# Static dielectric constant tensor:
#      x y z
#    x 1.534450 0.000000 0.000000 
#    y 0.000000 1.558630 0.000000 
#    z 0.000000 0.000000 1.523740 
# 
# From -- ./inp_files/17098.got.cif
#   From: 2010.05.17/outbox.cif.g08.bks.cpg/sg44_9_cif.got.tgz:17098.got - 2010.06.03 19:37:08.
