data_PCOD9375443
_publ_section_title
;
Structure prediction by ZEFSAII (Michael W. Deem and Ramdas Pophale) SiO2 
 PCOD9375443
Probable space group: I M M 2
;
_chemical_formula_sum "Si O2"
_cell_formula_units_Z 64
_cell_length_a 8.145451
_cell_length_b 24.524160
_cell_length_c 15.864515
_cell_angle_alpha 90.000000
_cell_angle_beta 90.000000
_cell_angle_gamma 90.000000
_cell_volume 3169.100967
_symmetry_space_group_name_H-M "I M M 2"
_symmetry_group_IT_number 44
_symmetry_cell_setting 'orthorhombic'
loop_
_space_group_symop_operation_xyz
x,y,z
-x,-y,z
-x,y,z
x,-y,z
1/2+x,1/2+y,1/2+z
1/2-x,1/2-y,1/2+z
1/2-x,1/2+y,1/2+z
1/2+x,1/2-y,1/2+z
loop_
_atom_site_type_symbol
_atom_site_label
_atom_site_fract_x
_atom_site_fract_y
_atom_site_fract_z
Si Si1 0.799379 0.937505 0.753180
Si Si2 0.192425 0.125393 0.403992
Si Si3 0.308400 0.753259 0.662839
Si Si4 0.199030 0.131515 0.591716
Si Si5 0.301148 0.362043 0.408768
Si Si6 0.803984 0.359452 0.593046
Si Si7 0.695838 0.938532 0.241312
Si Si8 0.692205 0.757133 0.351415
O O1 0.747355 0.908711 0.666389
O O2 0.746757 0.901106 0.832740
O O3 0.000000 0.937355 0.753370
O O4 0.745400 0.000000 0.758990
O O5 0.256401 0.115277 0.498442
O O6 0.273498 0.090564 0.330213
O O7 0.216752 0.189297 0.383565
O O8 0.000000 0.112584 0.402352
O O9 0.500000 0.756210 0.683740
O O10 0.256066 0.807799 0.614928
O O11 0.274421 0.699725 0.607906
O O12 0.211399 0.747582 0.750604
O O13 0.000000 0.131868 0.590530
O O14 0.500000 0.361937 0.409134
O O15 0.238358 0.379650 0.499835
O O16 0.247602 0.299869 0.390187
O O17 0.741448 0.400169 0.665789
O O18 0.000000 0.353667 0.601566
O O19 0.500000 0.941853 0.229501
O O20 0.762902 0.000000 0.239423
O O21 0.500000 0.763704 0.372115
#
# Coordination Sequence:
#
# PCOD9375443 Si02
#       8
#     8   8   8   8   8   8   8   8
#     4   9  18  36  61  86 116 157 201 243 289 343
#     4  11  23  37  60  92 121 152 196 248 296 349
#     4  12  23  36  60  91 121 153 195 243 293 351
#     4  10  21  39  61  89 123 158 195 237 293 356
#     4  10  21  37  60  89 120 155 197 242 291 348
#     4  11  23  39  61  87 119 157 195 240 297 355
#     4  10  23  43  63  82 113 162 207 244 296 356
#     4  11  21  37  60  85 120 160 193 236 298 360
#
# _framework density 20.195001000000001
#
# number of rings (size 3 to 8) (size 9 to 14) (size 15 to 20)
#    0.000    1.500    2.500    3.000    0.000    5.750 
#    0.000    1.250    0.000    1.125    0.000    0.000 
#    0.000    0.000    0.000    0.000    0.000    0.000 
#
# Total GULP energy -178881.134775 kJ/mol
# GULP energy per Si atom -5590.035462 kJ/mol
# Density = 2.014904 g / cm^3
# Si number density = 20.195001 Si / 1000 Ang^3
#
#
#
# Elastic Constant Matrix: (Units=GPa)
#
#
# Indices 1 2 3 4 5 6 
#
# 1 13.7681 -0.7862 -9.9480 0.0000 0.0000 0.0000
# 2 -0.7862 121.5245 49.5731 0.0000 0.0000 0.0000
# 3 -9.9480 49.5731 141.5385 0.0001 -0.0001 0.0000
# 4 0.0000 0.0000 0.0001 -1.1603 0.0000 0.0000
# 5 0.0000 0.0000 -0.0001 0.0000 13.3575 0.0000
# 6 0.0000 0.0000 0.0000 0.0000 0.0000 -5.7996
#
#
#
# Elastic Compliance Matrix: (Units=1/GPa)
#
#
# Indices 1 2 3 4 5 6 
#
# 1 0.076929 -0.001993 0.006105 0.000001 0.000000 0.000000
# 2 -0.001993 0.009652 -0.003521 0.000000 0.000000 0.000000
# 3 0.006105 -0.003521 0.008727 0.000001 0.000000 0.000000
# 4 0.000001 0.000000 0.000001 -0.861834 -0.000001 0.000000
# 5 0.000000 0.000000 0.000000 -0.000001 0.074864 0.000000
# 6 0.000000 0.000000 0.000000 0.000000 0.000000 -0.172427
#
#
# Mechanical properties :
#
#
# Convention : Reuss Voigt Hill
#
# Bulk Modulus (GPa) = 10.36358 39.38988 24.87673
# Shear Modulus (GPa) = -6.00163 17.14566 5.57201
#
# Velocity S-wave (km/s) = -1.72577 2.91693 1.66286
# Velocity P-wave (km/s) = 1.08252 5.55804 4.00397
#
# Compressibility (1/GPa) = 0.09649176
#
# Stress axis : x y z
#
# Youngs Moduli (GPa) = 12.99897 103.60476 114.58183
#
# Poissons Ratio (x) = 0.20645 -0.69951
# Poissons Ratio (y) = 0.02590 0.40340
# Poissons Ratio (z) = -0.07936 0.36476
#
# Static dielectric constant tensor:
#      x y z
#    x 1.702580 0.000000 0.000000 
#    y 0.000000 1.688890 0.000000 
#    z 0.000000 0.000000 1.706160 
# 
# From -- ./inp_files/16835.got.cif
#   From: 2010.05.17/outbox.cif.g08.bks.cpg/sg44_9_cif.got.tgz:16835.got - 2010.06.03 19:37:08.
