data_PCOD9375342
_publ_section_title
;
Structure prediction by ZEFSAII (Michael W. Deem and Ramdas Pophale) SiO2 
 PCOD9375342
Probable space group: I M M 2
;
_chemical_formula_sum "Si O2"
_cell_formula_units_Z 64
_cell_length_a 19.957343
_cell_length_b 10.725273
_cell_length_c 14.578048
_cell_angle_alpha 90.000000
_cell_angle_beta 90.000000
_cell_angle_gamma 90.000000
_cell_volume 3120.401319
_symmetry_space_group_name_H-M "I M M 2"
_symmetry_group_IT_number 44
_symmetry_cell_setting 'orthorhombic'
loop_
_space_group_symop_operation_xyz
x,y,z
-x,-y,z
-x,y,z
x,-y,z
1/2+x,1/2+y,1/2+z
1/2-x,1/2-y,1/2+z
1/2-x,1/2+y,1/2+z
1/2+x,1/2-y,1/2+z
loop_
_atom_site_type_symbol
_atom_site_label
_atom_site_fract_x
_atom_site_fract_y
_atom_site_fract_z
Si Si1 0.642598 0.365364 0.190850
Si Si2 0.635474 0.858866 0.511888
Si Si3 0.719934 0.775272 0.750354
Si Si4 0.570842 0.144829 0.698634
Si Si5 0.080318 0.641936 0.806626
Si Si6 0.272966 0.365257 0.582370
Si Si7 0.920277 0.139028 0.488274
Si Si8 0.169332 0.355123 0.430158
O O1 0.619990 0.500000 0.228769
O O2 0.723110 0.359210 0.202503
O O3 0.613324 0.248217 0.245097
O O4 0.616380 0.360179 0.086937
O O5 0.577483 0.850412 0.588397
O O6 0.607643 0.844720 0.410029
O O7 0.685883 0.750221 0.541419
O O8 0.664442 0.000000 0.520392
O O9 0.641845 0.806148 0.733601
O O10 0.731314 0.649893 0.692254
O O11 0.723812 0.797216 0.858953
O O12 0.500000 0.203737 0.728021
O O13 0.569070 0.000000 0.724438
O O14 0.096162 0.500000 0.775742
O O15 0.000000 0.655050 0.805830
O O16 0.303554 0.500000 0.559772
O O17 0.202266 0.360102 0.530810
O O18 0.891240 0.257050 0.433577
O O19 0.000000 0.150646 0.500710
O O20 0.907015 0.000000 0.447399
O O21 0.154857 0.500000 0.405245
#
# Coordination Sequence:
#
# PCOD9375342 Si02
#       8
#     8   8   8   8   8   8   8   8
#     4  11  22  39  63  89 122 163 213 270 325 384
#     4   9  18  33  56  84 118 161 205 249 308 376
#     4  11  22  38  64  92 124 165 213 264 324 387
#     4   9  17  31  53  82 116 153 197 251 308 370
#     4  10  21  36  56  87 126 165 207 258 317 381
#     4  10  22  40  61  90 129 166 207 262 322 382
#     4  10  23  43  65  90 125 173 222 267 323 389
#     4  11  23  40  63  94 128 166 215 270 326 383
#
# _framework density 20.510183000000001
#
# number of rings (size 3 to 8) (size 9 to 14) (size 15 to 20)
#    0.000    1.875    1.250    2.625    0.000    7.500 
#    0.000    0.000    0.000    9.000    0.000    0.000 
#    0.000    0.000    0.000    0.000    0.000    0.000 
#
# Total GULP energy -178277.638478 kJ/mol
# GULP energy per Si atom -5571.176202 kJ/mol
# Density = 2.046350 g / cm^3
# Si number density = 20.510183 Si / 1000 Ang^3
#
#
#
# Elastic Constant Matrix: (Units=GPa)
#
#
# Indices 1 2 3 4 5 6 
#
# 1 80.8196 57.8344 18.6141 0.0000 0.0000 0.0000
# 2 57.8344 151.5673 42.9010 0.0000 0.0000 0.0000
# 3 18.6141 42.9010 66.4886 0.0000 0.0000 0.0000
# 4 0.0000 0.0000 0.0000 19.7146 0.0000 0.0000
# 5 0.0000 0.0000 0.0000 0.0000 12.2723 0.0000
# 6 0.0000 0.0000 0.0000 0.0000 0.0000 23.3502
#
#
#
# Elastic Compliance Matrix: (Units=1/GPa)
#
#
# Indices 1 2 3 4 5 6 
#
# 1 0.017048 -0.006306 -0.000704 0.000000 0.000000 0.000000
# 2 -0.006306 0.010404 -0.004948 0.000000 0.000000 0.000000
# 3 -0.000704 -0.004948 0.018430 0.000000 0.000000 0.000000
# 4 0.000000 0.000000 0.000000 0.050724 0.000000 0.000000
# 5 0.000000 0.000000 0.000000 0.000000 0.081485 0.000000
# 6 0.000000 0.000000 0.000000 0.000000 0.000000 0.042826
#
#
# Mechanical properties :
#
#
# Convention : Reuss Voigt Hill
#
# Bulk Modulus (GPa) = 45.52351 59.73050 52.62701
# Shear Modulus (GPa) = 19.82916 23.03583 21.43249
#
# Velocity S-wave (km/s) = 3.11271 3.35497 3.23610
# Velocity P-wave (km/s) = 5.92978 6.64780 6.29903
#
# Compressibility (1/GPa) = 0.02196667
#
# Stress axis : x y z
#
# Youngs Moduli (GPa) = 58.65873 96.11348 54.25975
#
# Poissons Ratio (x) = 0.60607 0.03820
# Poissons Ratio (y) = 0.36989 0.26847
# Poissons Ratio (z) = 0.04129 0.47557
#
# Static dielectric constant tensor:
#      x y z
#    x 1.743340 0.000000 0.000000 
#    y 0.000000 1.755300 0.000000 
#    z 0.000000 0.000000 1.789010 
# 
# From -- ./inp_files/18958.got.cif
#   From: 2010.05.17/outbox.cif.g08.bks.cpg/sg44_10_cif.got.tgz:18958.got - 2010.06.03 19:37:08.
