data_PCOD9375702
_publ_section_title
;
Structure prediction by ZEFSAII (Michael W. Deem and Ramdas Pophale) SiO2 
 PCOD9375702
Probable space group: I M M 2
;
_chemical_formula_sum "Si O2"
_cell_formula_units_Z 64
_cell_length_a 18.867919
_cell_length_b 15.325476
_cell_length_c 11.767057
_cell_angle_alpha 90.000000
_cell_angle_beta 90.000000
_cell_angle_gamma 90.000000
_cell_volume 3402.560317
_symmetry_space_group_name_H-M "I M M 2"
_symmetry_group_IT_number 44
_symmetry_cell_setting 'orthorhombic'
loop_
_space_group_symop_operation_xyz
x,y,z
-x,-y,z
-x,y,z
x,-y,z
1/2+x,1/2+y,1/2+z
1/2-x,1/2-y,1/2+z
1/2-x,1/2+y,1/2+z
1/2+x,1/2-y,1/2+z
loop_
_atom_site_type_symbol
_atom_site_label
_atom_site_fract_x
_atom_site_fract_y
_atom_site_fract_z
Si Si1 0.879850 0.401125 0.963280
Si Si2 0.080995 0.676769 0.200698
Si Si3 0.920183 0.769764 0.831738
Si Si4 0.810227 0.098975 0.945134
Si Si5 0.788834 0.100513 0.440610
Si Si6 0.299073 0.675759 0.688971
Si Si7 0.348603 0.748788 0.101409
Si Si8 0.645703 0.899019 0.925414
O O1 0.896236 0.500000 0.928244
O O2 0.908107 0.328124 0.877714
O O3 0.794628 0.391749 0.969404
O O4 0.910234 0.380802 0.087640
O O5 0.136586 0.755829 0.190175
O O6 0.102362 0.623267 0.312732
O O7 0.000000 0.707352 0.208718
O O8 0.863593 0.831627 0.893140
O O9 0.904645 0.772701 0.698187
O O10 0.000000 0.796750 0.858988
O O11 0.729917 0.114830 0.902031
O O12 0.830072 0.000000 0.916625
O O13 0.807999 0.112675 0.080860
O O14 0.796626 0.127107 0.308941
O O15 0.831171 0.168346 0.518609
O O16 0.810035 0.000000 0.458443
O O17 0.224696 0.724916 0.665304
O O18 0.371626 0.831080 0.024956
O O19 0.636684 0.000000 0.958614
#
# Coordination Sequence:
#
# PCOD9375702 Si02
#       8
#     8   8   8   8   8   8   8   8
#     4  11  23  39  61  92 124 158 199 247 304 365
#     4  12  23  37  61  90 125 164 200 243 300 363
#     4  12  25  41  60  87 125 167 200 238 298 364
#     4  10  22  40  66  92 116 150 201 257 302 350
#     4  11  22  39  68  95 118 155 205 258 306 351
#     4  11  20  40  65  91 120 156 200 254 301 356
#     4  11  22  40  63  89 124 159 203 252 294 358
#     4  10  22  40  64  91 119 156 202 253 304 351
#
# _framework density 18.809365
#
# number of rings (size 3 to 8) (size 9 to 14) (size 15 to 20)
#    0.000    1.000    5.000    2.625    0.000    4.000 
#    0.000    0.000    0.000    1.875    0.000    0.000 
#    0.000    0.000    0.000    0.000    0.000    0.000 
#
# Total GULP energy -178899.655135 kJ/mol
# GULP energy per Si atom -5590.614223 kJ/mol
# Density = 1.876655 g / cm^3
# Si number density = 18.809365 Si / 1000 Ang^3
#
#
#
# Elastic Constant Matrix: (Units=GPa)
#
#
# Indices 1 2 3 4 5 6 
#
# 1 30.6896 2.7675 10.8252 0.0000 0.0000 0.0000
# 2 2.7675 62.5448 18.8311 0.0000 0.0000 0.0000
# 3 10.8252 18.8311 91.8180 0.0000 0.0000 0.0000
# 4 0.0000 0.0000 0.0000 7.3781 0.0000 0.0000
# 5 0.0000 0.0000 0.0000 0.0000 -15.4449 0.0000
# 6 0.0000 0.0000 0.0000 0.0000 0.0000 7.9830
#
#
#
# Elastic Compliance Matrix: (Units=1/GPa)
#
#
# Indices 1 2 3 4 5 6 
#
# 1 0.034004 -0.000317 -0.003944 0.000000 0.000000 0.000000
# 2 -0.000317 0.017044 -0.003458 0.000000 0.000000 0.000000
# 3 -0.003944 -0.003458 0.012065 0.000000 0.000000 0.000000
# 4 0.000000 0.000000 0.000000 0.135536 0.000000 0.000000
# 5 0.000000 0.000000 0.000000 0.000000 -0.064746 0.000000
# 6 0.000000 0.000000 0.000000 0.000000 0.000000 0.125266
#
#
# Mechanical properties :
#
#
# Convention : Reuss Voigt Hill
#
# Bulk Modulus (GPa) = 20.97550 27.76666 24.37108
# Shear Modulus (GPa) = 17.21182 10.15850 13.68516
#
# Velocity S-wave (km/s) = 3.02829 2.32648 2.70028
# Velocity P-wave (km/s) = 4.83769 4.69157 4.76519
#
# Compressibility (1/GPa) = 0.04767466
#
# Stress axis : x y z
#
# Youngs Moduli (GPa) = 29.40823 58.67248 82.88208
#
# Poissons Ratio (x) = 0.01861 0.32689
# Poissons Ratio (y) = 0.00933 0.28662
# Poissons Ratio (z) = 0.11599 0.20290
#
# Static dielectric constant tensor:
#      x y z
#    x 1.635420 0.000000 0.000000 
#    y 0.000000 1.639750 0.000000 
#    z 0.000000 0.000000 1.640530 
# 
# From -- ./inp_files/13412.got.cif
#   From: 2010.05.17/outbox.cif.g08.bks.cpg/sg44_7_cif.got.tgz:13412.got - 2010.06.03 19:37:08.
