data_PCOD9375106
_publ_section_title
;
Structure prediction by ZEFSAII (Michael W. Deem and Ramdas Pophale) SiO2 
 PCOD9375106
Probable space group: I M M 2
;
_chemical_formula_sum "Si O2"
_cell_formula_units_Z 48
_cell_length_a 16.720724
_cell_length_b 7.607462
_cell_length_c 20.446207
_cell_angle_alpha 90.000000
_cell_angle_beta 90.000000
_cell_angle_gamma 90.000000
_cell_volume 2600.803993
_symmetry_space_group_name_H-M "I M M 2"
_symmetry_group_IT_number 44
_symmetry_cell_setting 'orthorhombic'
loop_
_space_group_symop_operation_xyz
x,y,z
-x,-y,z
-x,y,z
x,-y,z
1/2+x,1/2+y,1/2+z
1/2-x,1/2-y,1/2+z
1/2-x,1/2+y,1/2+z
1/2+x,1/2-y,1/2+z
loop_
_atom_site_type_symbol
_atom_site_label
_atom_site_fract_x
_atom_site_fract_y
_atom_site_fract_z
Si Si1 0.500000 0.285033 0.076751
Si Si2 0.500000 0.294274 0.225821
Si Si3 0.591479 0.000000 0.828329
Si Si4 0.092027 0.500000 0.170824
Si Si5 0.674966 0.712134 0.034115
Si Si6 0.283106 0.297425 0.656152
Si Si7 0.293169 0.288239 0.885690
Si Si8 0.826890 0.709383 0.776578
O O1 0.500000 0.500000 0.076205
O O2 0.500000 0.218633 0.151991
O O3 0.417387 0.230991 0.042573
O O4 0.500000 0.500000 0.215115
O O5 0.418787 0.253178 0.263989
O O6 0.636737 0.826950 0.853945
O O7 0.500000 0.000000 0.850611
O O8 0.592947 0.000000 0.749773
O O9 0.141277 0.328957 0.148509
O O10 0.000000 0.500000 0.149058
O O11 0.677047 0.500000 0.041539
O O12 0.727940 0.789066 0.092133
O O13 0.708163 0.753906 0.962417
O O14 0.305866 0.500000 0.669269
O O15 0.228772 0.227313 0.716593
O O16 0.306164 0.500000 0.879128
O O17 0.213660 0.238452 0.844900
O O18 0.822292 0.500000 0.773583
#
# Coordination Sequence:
#
# PCOD9375106 Si02
#       8
#     4   4   4   4   8   8   8   8
#     4   9  18  31  53  89 125 155 192 235 298 366
#     4  11  21  31  59  91 117 154 193 246 294 352
#     4  11  24  38  60  90 120 157 203 250 299 364
#     4  11  24  42  66  88 116 159 205 260 307 356
#     4  10  20  37  60  88 124 164 199 243 304 368
#     4  11  22  38  63  91 120 154 200 255 307 366
#     4  10  23  40  60  85 121 166 202 245 299 365
#     4  10  21  38  57  84 119 157 199 244 296 353
#
# _framework density 18.455832999999998
#
# number of rings (size 3 to 8) (size 9 to 14) (size 15 to 20)
#    0.000    1.667    4.167    0.250    4.667    0.667 
#    0.000    2.083    1.833    0.000    0.000    0.000 
#    0.000    0.000    0.000    0.000    0.000    0.000 
#
# Total GULP energy -133977.355113 kJ/mol
# GULP energy per Si atom -5582.389796 kJ/mol
# Density = 1.841383 g / cm^3
# Si number density = 18.455833 Si / 1000 Ang^3
#
#
#
# Elastic Constant Matrix: (Units=GPa)
#
#
# Indices 1 2 3 4 5 6 
#
# 1 159.0553 37.6690 65.9802 0.0000 0.0000 0.0000
# 2 37.6690 62.0283 19.8134 0.0000 0.0000 0.0000
# 3 65.9802 19.8134 118.8221 0.0000 0.0000 0.0000
# 4 0.0000 0.0000 0.0000 19.4137 0.0000 0.0000
# 5 0.0000 0.0000 0.0000 0.0000 32.6347 0.0000
# 6 0.0000 0.0000 0.0000 0.0000 0.0000 10.2472
#
#
#
# Elastic Compliance Matrix: (Units=1/GPa)
#
#
# Indices 1 2 3 4 5 6 
#
# 1 0.009066 -0.004117 -0.004348 0.000000 0.000000 0.000000
# 2 -0.004117 0.018898 -0.000865 0.000000 0.000000 0.000000
# 3 -0.004348 -0.000865 0.010974 0.000000 0.000000 0.000000
# 4 0.000000 0.000000 0.000000 0.051510 0.000000 0.000000
# 5 0.000000 0.000000 0.000000 0.000000 0.030642 0.000000
# 6 0.000000 0.000000 0.000000 0.000000 0.000000 0.097588
#
#
# Mechanical properties :
#
#
# Convention : Reuss Voigt Hill
#
# Bulk Modulus (GPa) = 49.31214 65.20343 57.25778
# Shear Modulus (GPa) = 20.48371 26.88865 23.68618
#
# Velocity S-wave (km/s) = 3.33510 3.82110 3.58634
# Velocity P-wave (km/s) = 6.45039 7.40769 6.94555
#
# Compressibility (1/GPa) = 0.02027898
#
# Stress axis : x y z
#
# Youngs Moduli (GPa) = 110.30797 52.91545 91.12167
#
# Poissons Ratio (x) = 0.21784 0.39615
# Poissons Ratio (y) = 0.45410 0.07885
# Poissons Ratio (z) = 0.47956 0.04579
#
# Static dielectric constant tensor:
#      x y z
#    x 1.517760 0.000000 0.000000 
#    y 0.000000 1.665270 0.000000 
#    z 0.000000 0.000000 1.636410 
# 
# From -- ./inp_files/21759.got.cif
#   From: 2010.05.17/outbox.cif.g08.bks.cpg/sg44_11_cif.got.tgz:21759.got - 2010.06.03 19:37:08.
