data_PCOD9375295
_publ_section_title
;
Structure prediction by ZEFSAII (Michael W. Deem and Ramdas Pophale) SiO2 
 PCOD9375295
Probable space group: I M M 2
;
_chemical_formula_sum "Si O2"
_cell_formula_units_Z 64
_cell_length_a 8.539551
_cell_length_b 20.540153
_cell_length_c 20.815412
_cell_angle_alpha 90.000000
_cell_angle_beta 90.000000
_cell_angle_gamma 90.000000
_cell_volume 3651.099951
_symmetry_space_group_name_H-M "I M M 2"
_symmetry_group_IT_number 44
_symmetry_cell_setting 'orthorhombic'
loop_
_space_group_symop_operation_xyz
x,y,z
-x,-y,z
-x,y,z
x,-y,z
1/2+x,1/2+y,1/2+z
1/2-x,1/2-y,1/2+z
1/2-x,1/2+y,1/2+z
1/2+x,1/2-y,1/2+z
loop_
_atom_site_type_symbol
_atom_site_label
_atom_site_fract_x
_atom_site_fract_y
_atom_site_fract_z
Si Si1 0.308952 0.574315 0.371300
Si Si2 0.188863 0.925574 0.017684
Si Si3 0.310799 0.325616 0.119609
Si Si4 0.190883 0.177370 0.766280
Si Si5 0.812650 0.425130 0.014100
Si Si6 0.312669 0.574878 0.873310
Si Si7 0.811327 0.676399 0.620334
Si Si8 0.689189 0.173466 0.267055
O O1 0.500000 0.575179 0.370501
O O2 0.261605 0.500000 0.356691
O O3 0.261313 0.589811 0.444447
O O4 0.253435 0.626066 0.319019
O O5 0.250386 0.874477 0.068820
O O6 0.000000 0.924513 0.018641
O O7 0.238352 0.000000 0.031959
O O8 0.500000 0.327787 0.117497
O O9 0.262251 0.339598 0.193324
O O10 0.246027 0.376475 0.068689
O O11 0.262245 0.250864 0.105918
O O12 0.237348 0.251776 0.780830
O O13 0.000000 0.176690 0.766792
O O14 0.760369 0.500000 0.026145
O O15 0.000000 0.424362 0.012711
O O16 0.750677 0.406147 0.943590
O O17 0.500000 0.575819 0.875193
O O18 0.261001 0.500000 0.861217
O O19 0.254465 0.622969 0.818179
O O20 0.762131 0.659652 0.693368
O O21 0.000000 0.675840 0.619782
O O22 0.500000 0.171178 0.269281
#
# Coordination Sequence:
#
# PCOD9375295 Si02
#       8
#     8   8   8   8   8   8   8   8
#     4   8  14  26  45  70  97 122 153 195 238 280
#     4   9  18  31  47  70  99 128 163 209 250 286
#     4   9  18  33  52  75 102 129 162 206 249 291
#     4   8  15  29  49  73 100 129 161 197 240 292
#     4  10  21  36  53  74 101 133 168 205 248 301
#     4  10  21  36  53  74 100 129 164 208 253 297
#     4   9  19  34  50  71 101 134 166 203 248 298
#     4   9  18  33  51  72 100 130 161 201 246 293
#
# _framework density 17.528963999999998
#
# number of rings (size 3 to 8) (size 9 to 14) (size 15 to 20)
#    0.000    3.000    0.000    3.000    0.000    4.750 
#    0.000    6.875    0.000    0.750    0.000    0.000 
#    0.000    0.000    0.000    0.000    0.000    0.000 
#
# Total GULP energy -178374.410703 kJ/mol
# GULP energy per Si atom -5574.200334 kJ/mol
# Density = 1.748907 g / cm^3
# Si number density = 17.528964 Si / 1000 Ang^3
#
#
#
# Elastic Constant Matrix: (Units=GPa)
#
#
# Indices 1 2 3 4 5 6 
#
# 1 13.8187 26.6165 29.8058 0.0000 0.0000 0.0000
# 2 26.6165 139.9012 141.6898 0.0000 0.0000 0.0000
# 3 29.8058 141.6898 174.3266 0.0000 0.0000 0.0000
# 4 0.0000 0.0000 0.0000 43.8031 0.0000 0.0000
# 5 0.0000 0.0000 0.0000 0.0000 28.4156 0.0000
# 6 0.0000 0.0000 0.0000 0.0000 0.0000 26.1810
#
#
#
# Elastic Compliance Matrix: (Units=1/GPa)
#
#
# Indices 1 2 3 4 5 6 
#
# 1 0.117765 -0.011382 -0.010884 0.000000 0.000000 0.000000
# 2 -0.011382 0.041523 -0.031804 0.000000 0.000000 0.000000
# 3 -0.010884 -0.031804 0.033447 0.000000 0.000000 0.000000
# 4 0.000000 0.000000 0.000000 0.022829 0.000000 0.000000
# 5 0.000000 0.000000 0.000000 0.000000 0.035192 0.000000
# 6 0.000000 0.000000 0.000000 0.000000 0.000000 0.038196
#
#
# Mechanical properties :
#
#
# Convention : Reuss Voigt Hill
#
# Bulk Modulus (GPa) = 11.82089 80.47452 46.14770
# Shear Modulus (GPa) = 11.75670 28.34222 20.04946
#
# Velocity S-wave (km/s) = 2.59260 4.02541 3.38567
# Velocity P-wave (km/s) = 3.96489 8.22279 6.45502
#
# Compressibility (1/GPa) = 0.08459599
#
# Stress axis : x y z
#
# Youngs Moduli (GPa) = 8.49151 24.08277 29.89826
#
# Poissons Ratio (x) = 0.27410 0.32542
# Poissons Ratio (y) = 0.09665 0.95087
# Poissons Ratio (z) = 0.09242 0.76592
#
# Static dielectric constant tensor:
#      x y z
#    x 1.606490 0.000000 0.000000 
#    y 0.000000 1.587280 0.000000 
#    z 0.000000 0.000000 1.575790 
# 
# From -- ./inp_files/20789.got.cif
#   From: 2010.05.17/outbox.cif.g08.bks.cpg/sg44_11_cif.got.tgz:20789.got - 2010.06.03 19:37:08.
