data_PCOD9375448
_publ_section_title
;
Structure prediction by ZEFSAII (Michael W. Deem and Ramdas Pophale) SiO2 
 PCOD9375448
Probable space group: I M M 2
;
_chemical_formula_sum "Si O2"
_cell_formula_units_Z 40
_cell_length_a 8.099885
_cell_length_b 29.425507
_cell_length_c 8.911042
_cell_angle_alpha 90.000000
_cell_angle_beta 90.000000
_cell_angle_gamma 90.000000
_cell_volume 2123.886468
_symmetry_space_group_name_H-M "I M M 2"
_symmetry_group_IT_number 44
_symmetry_cell_setting 'orthorhombic'
loop_
_space_group_symop_operation_xyz
x,y,z
-x,-y,z
-x,y,z
x,-y,z
1/2+x,1/2+y,1/2+z
1/2-x,1/2-y,1/2+z
1/2-x,1/2+y,1/2+z
1/2+x,1/2-y,1/2+z
loop_
_atom_site_type_symbol
_atom_site_label
_atom_site_fract_x
_atom_site_fract_y
_atom_site_fract_z
Si Si1 0.500000 0.553731 0.340650
Si Si2 0.305969 0.203662 0.840877
Si Si3 0.196980 0.705533 0.682261
Si Si4 0.500000 0.446088 0.697093
Si Si5 0.687291 0.106909 0.327283
Si Si6 0.682792 0.379540 0.144414
O O1 0.500000 0.500000 0.313072
O O2 0.500000 0.562236 0.517899
O O3 0.345824 0.578972 0.260342
O O4 0.500000 0.193593 0.847398
O O5 0.278319 0.253103 0.770563
O O6 0.226890 0.165232 0.736787
O O7 0.240882 0.202813 0.011166
O O8 0.219409 0.657440 0.763233
O O9 0.000000 0.714890 0.678105
O O10 0.500000 0.500000 0.722967
O O11 0.666291 0.424776 0.766778
O O12 0.500000 0.093560 0.282425
O O13 0.698627 0.109717 0.507491
O O14 0.500000 0.372524 0.075036
#
# Coordination Sequence:
#
# PCOD9375448 Si02
#       6
#     4   8   8   4   8   8
#     4   9  21  41  67  93 121 167 213 263 322 385
#     4  11  22  36  56  84 121 166 213 262 314 375
#     4  10  23  38  55  84 122 164 217 261 312 378
#     4  11  23  43  69  95 127 165 215 265 326 385
#     4  11  23  41  65  94 129 168 211 264 320 384
#     4  10  21  37  61  90 123 160 208 260 313 377
#
# _framework density 18.833397999999999
#
# number of rings (size 3 to 8) (size 9 to 14) (size 15 to 20)
#    0.600    1.000    1.000    3.600    1.400    6.800 
#    0.000    1.000    0.000    4.200    0.000    0.000 
#    0.000    0.000    0.000    0.000    0.000    0.000 
#
# Total GULP energy -111626.092918 kJ/mol
# GULP energy per Si atom -5581.304646 kJ/mol
# Density = 1.879053 g / cm^3
# Si number density = 18.833398 Si / 1000 Ang^3
#
#
#
# Elastic Constant Matrix: (Units=GPa)
#
#
# Indices 1 2 3 4 5 6 
#
# 1 79.9858 47.9632 33.7505 0.0001 -0.0001 0.0000
# 2 47.9632 103.1452 62.2563 0.0004 -0.0001 0.0000
# 3 33.7505 62.2563 121.6175 0.0004 -0.0007 0.0000
# 4 0.0001 0.0004 0.0004 32.0041 -0.0001 0.0000
# 5 -0.0001 -0.0001 -0.0007 -0.0001 56.8426 0.0001
# 6 0.0000 0.0000 0.0000 0.0000 0.0001 29.9198
#
#
#
# Elastic Compliance Matrix: (Units=1/GPa)
#
#
# Indices 1 2 3 4 5 6 
#
# 1 0.017419 -0.007499 -0.000995 0.000000 0.000000 0.000000
# 2 -0.007499 0.017259 -0.006754 0.000000 0.000000 0.000000
# 3 -0.000995 -0.006754 0.011956 0.000000 0.000000 0.000000
# 4 0.000000 0.000000 0.000000 0.031246 0.000000 0.000000
# 5 0.000000 0.000000 0.000000 0.000000 0.017592 0.000000
# 6 0.000000 0.000000 0.000000 0.000000 0.000000 0.033423
#
#
# Mechanical properties :
#
#
# Convention : Reuss Voigt Hill
#
# Bulk Modulus (GPa) = 61.96748 65.85427 63.91088
# Shear Modulus (GPa) = 30.34536 34.47186 32.40861
#
# Velocity S-wave (km/s) = 4.01840 4.28291 4.15276
# Velocity P-wave (km/s) = 7.38271 7.71365 7.54999
#
# Compressibility (1/GPa) = 0.01613750
#
# Stress axis : x y z
#
# Youngs Moduli (GPa) = 57.40833 57.94202 83.64133
#
# Poissons Ratio (x) = 0.43453 0.08323
# Poissons Ratio (y) = 0.43053 0.56488
# Poissons Ratio (z) = 0.05713 0.39131
#
# Static dielectric constant tensor:
#      x y z
#    x 1.523950 0.000000 0.000000 
#    y 0.000000 1.603100 0.000000 
#    z 0.000000 0.000000 1.654570 
# 
# From -- ./inp_files/4667.got.cif
#   From: 2010.05.17/outbox.cif.g08.bks.cpg/sg44_3_cif.got.tgz:4667.got - 2010.06.03 19:37:08.
