data_PCOD9375626
_publ_section_title
;
Structure prediction by ZEFSAII (Michael W. Deem and Ramdas Pophale) SiO2 
 PCOD9375626
Probable space group: I M M 2
;
_chemical_formula_sum "Si O2"
_cell_formula_units_Z 54
_cell_length_a 20.552184
_cell_length_b 23.732025
_cell_length_c 5.152517
_cell_angle_alpha 90.000000
_cell_angle_beta 90.000000
_cell_angle_gamma 90.000000
_cell_volume 2513.114118
_symmetry_space_group_name_H-M "I M M 2"
_symmetry_group_IT_number 44
_symmetry_cell_setting 'orthorhombic'
loop_
_space_group_symop_operation_xyz
x,y,z
-x,-y,z
-x,y,z
x,-y,z
1/2+x,1/2+y,1/2+z
1/2-x,1/2-y,1/2+z
1/2-x,1/2+y,1/2+z
1/2+x,1/2-y,1/2+z
loop_
_atom_site_type_symbol
_atom_site_label
_atom_site_fract_x
_atom_site_fract_y
_atom_site_fract_z
Si Si1 0.500000 0.085861 0.556830
Si Si2 0.500000 0.000000 0.055175
Si Si3 0.899505 0.659368 0.796593
Si Si4 0.311129 0.238999 0.565614
Si Si5 0.340963 0.938361 0.006730
Si Si6 0.247905 0.562522 0.011656
Si Si7 0.818439 0.825561 0.685488
Si Si8 0.572274 0.258876 0.950692
O O1 0.500000 0.048221 0.294673
O O2 0.438427 0.127341 0.519785
O O3 0.500000 0.049371 0.817034
O O4 0.885198 0.613167 0.579547
O O5 0.934709 0.712878 0.676312
O O6 0.831908 0.687587 0.878319
O O7 0.236328 0.221800 0.608880
O O8 0.318323 0.305000 0.484790
O O9 0.371210 0.234111 0.766224
O O10 0.283514 0.935587 0.224313
O O11 0.375548 0.000000 0.038851
O O12 0.310735 0.935973 0.722127
O O13 0.278312 0.500000 0.039428
O O14 0.293311 0.614118 0.096765
O O15 0.889508 0.811843 0.575065
O O16 0.500000 0.269840 0.841625
#
# Coordination Sequence:
#
# PCOD9375626 Si02
#       8
#     4   2   8   8   8   8   8   8
#     4  11  26  46  62  86 126 186 233 290 324 400
#     4  10  28  46  60  90 124 182 256 274 328 378
#     4  11  24  39  61  86 128 174 228 272 335 392
#     4  11  23  37  64  96 126 174 220 276 335 404
#     4  10  22  37  59  91 127 165 216 271 324 380
#     4  10  22  40  63  96 130 166 212 272 333 392
#     4  11  22  39  65  95 130 167 224 268 336 402
#     4  11  25  42  62  95 133 170 217 277 346 403
#
# _framework density 21.487286999999998
#
# number of rings (size 3 to 8) (size 9 to 14) (size 15 to 20)
#    0.000    1.333    3.704    0.889    9.333    0.593 
#    2.667    0.000    0.000    0.444    0.000    0.000 
#    0.000    0.000    0.000    0.000    0.000    0.000 
#
# Total GULP energy -150324.937261 kJ/mol
# GULP energy per Si atom -5567.590269 kJ/mol
# Density = 2.143838 g / cm^3
# Si number density = 21.487287 Si / 1000 Ang^3
#
#
#
# Elastic Constant Matrix: (Units=GPa)
#
#
# Indices 1 2 3 4 5 6 
#
# 1 100.7154 33.7961 22.8081 0.0000 0.0000 0.0000
# 2 33.7961 125.2155 16.8812 0.0000 0.0000 0.0000
# 3 22.8081 16.8812 73.2490 0.0000 0.0000 0.0000
# 4 0.0000 0.0000 0.0000 25.4198 0.0000 0.0000
# 5 0.0000 0.0000 0.0000 0.0000 20.4094 0.0000
# 6 0.0000 0.0000 0.0000 0.0000 0.0000 -22.2461
#
#
#
# Elastic Compliance Matrix: (Units=1/GPa)
#
#
# Indices 1 2 3 4 5 6 
#
# 1 0.011507 -0.002707 -0.002959 0.000000 0.000000 0.000000
# 2 -0.002707 0.008879 -0.001203 0.000000 0.000000 0.000000
# 3 -0.002959 -0.001203 0.014851 0.000000 0.000000 0.000000
# 4 0.000000 0.000000 0.000000 0.039339 0.000000 0.000000
# 5 0.000000 0.000000 0.000000 0.000000 0.048997 0.000000
# 6 0.000000 0.000000 0.000000 0.000000 0.000000 -0.044952
#
#
# Mechanical properties :
#
#
# Convention : Reuss Voigt Hill
#
# Bulk Modulus (GPa) = 46.51580 49.57230 48.04405
# Shear Modulus (GPa) = 50.23723 19.76289 35.00006
#
# Velocity S-wave (km/s) = 4.84053 3.03603 4.04031
# Velocity P-wave (km/s) = 7.27572 5.95068 6.64630
#
# Compressibility (1/GPa) = 0.02149807
#
# Stress axis : x y z
#
# Youngs Moduli (GPa) = 86.89995 112.62416 67.33604
#
# Poissons Ratio (x) = 0.30487 0.19927
# Poissons Ratio (y) = 0.23523 0.08103
# Poissons Ratio (z) = 0.25717 0.13553
#
# Static dielectric constant tensor:
#      x y z
#    x 1.828020 0.000000 0.000000 
#    y 0.000000 1.808700 0.000000 
#    z 0.000000 0.000000 2.025310 
# 
# From -- ./inp_files/2477.got.cif
#   From: 2010.05.17/outbox.cif.g08.bks.cpg/sg44_2_cif.got.tgz:2477.got - 2010.06.03 19:37:08.
