data_PCOD9375496
_publ_section_title
;
Structure prediction by ZEFSAII (Michael W. Deem and Ramdas Pophale) SiO2 
 PCOD9375496
Probable space group: I M M 2
;
_chemical_formula_sum "Si O2"
_cell_formula_units_Z 56
_cell_length_a 20.434459
_cell_length_b 25.159323
_cell_length_c 5.292587
_cell_angle_alpha 90.000000
_cell_angle_beta 90.000000
_cell_angle_gamma 90.000000
_cell_volume 2721.009767
_symmetry_space_group_name_H-M "I M M 2"
_symmetry_group_IT_number 44
_symmetry_cell_setting 'orthorhombic'
loop_
_space_group_symop_operation_xyz
x,y,z
-x,-y,z
-x,y,z
x,-y,z
1/2+x,1/2+y,1/2+z
1/2-x,1/2-y,1/2+z
1/2-x,1/2+y,1/2+z
1/2+x,1/2-y,1/2+z
loop_
_atom_site_type_symbol
_atom_site_label
_atom_site_fract_x
_atom_site_fract_y
_atom_site_fract_z
Si Si1 0.073271 0.876678 0.522530
Si Si2 0.886459 0.562537 0.567243
Si Si3 0.250004 0.113421 0.036852
Si Si4 0.426730 0.876673 0.551146
Si Si5 0.113548 0.937463 0.006427
Si Si6 0.815407 0.801449 0.412049
Si Si7 0.184593 0.301443 0.161654
O O1 0.090356 0.906922 0.260122
O O2 0.128980 0.832000 0.567715
O O3 0.000000 0.854583 0.502299
O O4 0.076753 0.916242 0.759396
O O5 0.895007 0.500000 0.531953
O O6 0.810178 0.576741 0.620960
O O7 0.909648 0.593078 0.313543
O O8 0.923250 0.583765 0.814270
O O9 0.189827 0.076747 0.952707
O O10 0.216890 0.152837 0.238525
O O11 0.283119 0.152844 0.835215
O O12 0.500000 0.854577 0.571382
O O13 0.371018 0.831997 0.505980
O O14 0.105009 0.000000 0.041735
O O15 0.847831 0.750005 0.286831
O O16 0.750003 0.778150 0.536861
#
# Coordination Sequence:
#
# PCOD9375496 Si02
#       7
#     8   8   8   8   8   8   8
#     4  11  25  42  62  94 131 165 207 258 310 371
#     4  11  23  40  65  92 127 169 211 257 309 367
#     4  10  21  38  60  94 128 156 209 268 310 362
#     4  11  25  42  62  94 131 165 207 258 310 371
#     4  11  23  40  65  92 127 169 211 257 309 367
#     4  11  21  39  66  91 122 162 210 257 314 374
#     4  11  21  39  66  91 122 162 210 257 314 374
#
# _framework density 20.580594000000001
#
# number of rings (size 3 to 8) (size 9 to 14) (size 15 to 20)
#    0.000    1.143    4.286    2.143    0.000    4.000 
#    0.000    4.286    0.000    6.000    0.000    0.000 
#    0.000    0.000    0.000    0.000    0.000    0.000 
#
# Total GULP energy -156186.660656 kJ/mol
# GULP energy per Si atom -5578.095023 kJ/mol
# Density = 2.053375 g / cm^3
# Si number density = 20.580594 Si / 1000 Ang^3
#
#
#
# Elastic Constant Matrix: (Units=GPa)
#
#
# Indices 1 2 3 4 5 6 
#
# 1 128.0504 11.8416 11.6072 0.0000 0.0000 0.0000
# 2 11.8416 60.1903 5.1874 0.0000 0.0000 0.0000
# 3 11.6072 5.1874 80.2417 0.0000 0.0000 0.0000
# 4 0.0000 0.0000 0.0000 13.0420 0.0000 0.0000
# 5 0.0000 0.0000 0.0000 0.0000 -17.9641 0.0000
# 6 0.0000 0.0000 0.0000 0.0000 0.0000 12.0712
#
#
#
# Elastic Compliance Matrix: (Units=1/GPa)
#
#
# Indices 1 2 3 4 5 6 
#
# 1 0.008044 -0.001491 -0.001067 0.000000 0.000000 0.000000
# 2 -0.001491 0.016983 -0.000882 0.000000 0.000000 0.000000
# 3 -0.001067 -0.000882 0.012674 0.000000 0.000000 0.000000
# 4 0.000000 0.000000 0.000000 0.076675 0.000000 0.000000
# 5 0.000000 0.000000 0.000000 0.000000 -0.055667 0.000000
# 6 0.000000 0.000000 0.000000 0.000000 0.000000 0.082842
#
#
# Mechanical properties :
#
#
# Convention : Reuss Voigt Hill
#
# Bulk Modulus (GPa) = 32.44559 36.19498 34.32028
# Shear Modulus (GPa) = 31.50498 17.41959 24.46228
#
# Velocity S-wave (km/s) = 3.91680 2.91247 3.45136
# Velocity P-wave (km/s) = 6.02117 5.37913 5.70918
#
# Compressibility (1/GPa) = 0.03082083
#
# Stress axis : x y z
#
# Youngs Moduli (GPa) = 124.31619 58.88151 78.90319
#
# Poissons Ratio (x) = 0.08777 0.08421
# Poissons Ratio (y) = 0.18530 0.06962
# Poissons Ratio (z) = 0.13267 0.05195
#
# Static dielectric constant tensor:
#      x y z
#    x 1.817720 0.000000 0.000000 
#    y 0.000000 1.692950 0.000000 
#    z 0.000000 0.000000 1.704950 
# 
# From -- ./inp_files/2461.got.cif
#   From: 2010.05.17/outbox.cif.g08.bks.cpg/sg44_2_cif.got.tgz:2461.got - 2010.06.03 19:37:08.
