data_PCOD9375952
_publ_section_title
;
Structure prediction by ZEFSAII (Michael W. Deem and Ramdas Pophale) SiO2 
 PCOD9375952
Probable space group: I M M 2
;
_chemical_formula_sum "Si O2"
_cell_formula_units_Z 32
_cell_length_a 9.000000
_cell_length_b 24.000000
_cell_length_c 18.000000
_cell_angle_alpha 90.000000
_cell_angle_beta 90.000000
_cell_angle_gamma 90.000000
_cell_volume 3888.000000
_symmetry_space_group_name_H-M "I M M 2"
_symmetry_group_IT_number 44
_symmetry_cell_setting 'orthorhombic'
loop_
_space_group_symop_operation_xyz
x,y,z
-x,-y,z
-x,y,z
x,-y,z
1/2+x,1/2+y,1/2+z
1/2-x,1/2-y,1/2+z
1/2-x,1/2+y,1/2+z
1/2+x,1/2-y,1/2+z
loop_
_atom_site_type_symbol
_atom_site_label
_atom_site_fract_x
_atom_site_fract_y
_atom_site_fract_z
Si Si1 0.321437 0.323492 0.524410
Si Si2 0.820872 0.396960 0.316153
Si Si3 0.674712 0.786695 0.432499
Si Si4 0.826002 0.143705 0.548055
Si Si5 0.820409 0.060550 0.961067
Si Si6 0.330026 0.933939 0.653166
Si Si7 0.830583 0.731004 0.313660
Si Si8 0.829052 0.260318 0.138654
O O1 0.500000 0.327163 0.515917
O O2 0.274062 0.270997 0.473419
O O3 0.263366 0.384229 0.503437
O O4 0.289124 0.300093 0.606186
O O5 0.740309 0.433248 0.377681
O O6 0.775064 0.411542 0.232501
O O7 0.785274 0.332405 0.331063
O O8 0.000000 0.404218 0.320364
O O9 0.500000 0.790891 0.439652
O O10 0.750673 0.838583 0.471474
O O11 0.725410 0.776189 0.349644
O O12 0.764453 0.088293 0.585248
O O13 0.774503 0.192702 0.604161
O O14 0.000000 0.142528 0.540371
O O15 0.000000 0.061939 0.959911
O O16 0.775277 0.000000 0.991450
O O17 0.500000 0.913352 0.644498
O O18 0.331519 0.000000 0.656766
O O19 0.827870 0.736518 0.225870
O O20 0.000000 0.738785 0.340236
O O21 0.000000 0.271955 0.113895
#
# Coordination Sequence:
#
# PCOD9375952 Si02
#       8
#     8   8   8   8   8   8   8   8
#     4   8  15  28  45  64  85 119 157 190 232 278
#     4  10  19  31  46  66  96 128 164 199 229 277
#     4  10  19  32  50  67  93 126 159 195 242 298
#     4  11  21  32  48  71  98 124 160 206 249 286
#     4  10  19  30  44  65  94 126 164 202 233 272
#     4  10  20  35  52  68  93 134 175 201 235 290
#     4  10  18  29  48  72  95 122 158 200 242 284
#     4   9  17  32  50  66  92 126 161 198 242 295
#
# _framework density 8.2304530000000007
#
# number of rings (size 3 to 8) (size 9 to 14) (size 15 to 20)
#    0.000    2.250    2.500    2.625    0.000    2.000 
#    0.000    0.000    0.000    0.000    0.000    0.875 
#    0.000    3.000    0.000    0.000    0.000    0.000 
#
# Total GULP energy -178167.524346 kJ/mol
# GULP energy per Si atom -5567.735136 kJ/mol
# Density = 0.821172 g / cm^3
# Si number density = 8.230453 Si / 1000 Ang^3
#
#
#
# Elastic Constant Matrix: (Units=GPa)
#
#
# Indices 1 2 3 4 5 6 
#
# 1 28.6182 4.8117 10.3785 0.0000 0.0000 0.0000
# 2 4.8117 37.1338 12.0192 0.0000 0.0000 0.0000
# 3 10.3785 12.0192 15.2800 0.0000 0.0000 0.0000
# 4 0.0000 0.0000 0.0000 17.1364 0.0000 0.0000
# 5 0.0000 0.0000 0.0000 0.0000 18.0016 0.0000
# 6 0.0000 0.0000 0.0000 0.0000 0.0000 19.1014
#
#
#
# Elastic Compliance Matrix: (Units=1/GPa)
#
#
# Indices 1 2 3 4 5 6 
#
# 1 0.047252 0.005722 -0.036596 0.000000 0.000000 0.000000
# 2 0.005722 0.036821 -0.032850 0.000000 0.000000 0.000000
# 3 -0.036596 -0.032850 0.116141 0.000000 0.000000 0.000000
# 4 0.000000 0.000000 0.000000 0.058355 0.000000 0.000000
# 5 0.000000 0.000000 0.000000 0.000000 0.055551 0.000000
# 6 0.000000 0.000000 0.000000 0.000000 0.000000 0.052352
#
#
# Mechanical properties :
#
#
# Convention : Reuss Voigt Hill
#
# Bulk Modulus (GPa) = 13.74239 15.05008 14.39624
# Shear Modulus (GPa) = 9.64928 14.43607 12.04268
#
# Velocity S-wave (km/s) = 2.42377 2.96462 2.70773
# Velocity P-wave (km/s) = 4.02486 4.56961 4.30586
#
# Compressibility (1/GPa) = 0.07276757
#
# Stress axis : x y z
#
# Youngs Moduli (GPa) = 21.16307 27.15865 8.61024
#
# Poissons Ratio (x) = -0.15541 0.31510
# Poissons Ratio (y) = -0.12110 0.28284
# Poissons Ratio (z) = 0.77447 0.89215
#
# Static dielectric constant tensor:
#      x y z
#    x 1.564580 0.000000 0.000000 
#    y 0.000000 1.573070 0.000000 
#    z 0.000000 0.000000 1.587560 
# 
# From -- ./inp_files/20860.got.cif
#   From: 2010.05.17/outbox.ucp.g08.bks.cvg/sg44_11_cif.got.tgz:20860.got - 2010.06.11 16:32:36.
