data_PCOD9375397
_publ_section_title
;
Structure prediction by ZEFSAII (Michael W. Deem and Ramdas Pophale) SiO2 
 PCOD9375397
Probable space group: I M M 2
;
_chemical_formula_sum "Si O2"
_cell_formula_units_Z 58
_cell_length_a 9.114420
_cell_length_b 22.283425
_cell_length_c 15.199436
_cell_angle_alpha 90.000000
_cell_angle_beta 90.000000
_cell_angle_gamma 90.000000
_cell_volume 3087.012968
_symmetry_space_group_name_H-M "I M M 2"
_symmetry_group_IT_number 44
_symmetry_cell_setting 'orthorhombic'
loop_
_space_group_symop_operation_xyz
x,y,z
-x,-y,z
-x,y,z
x,-y,z
1/2+x,1/2+y,1/2+z
1/2-x,1/2-y,1/2+z
1/2-x,1/2+y,1/2+z
1/2+x,1/2-y,1/2+z
loop_
_atom_site_type_symbol
_atom_site_label
_atom_site_fract_x
_atom_site_fract_y
_atom_site_fract_z
Si Si1 0.671112 0.818505 0.946050
Si Si2 0.823579 0.264643 0.798371
Si Si3 0.826045 0.616968 0.021573
Si Si4 0.327499 0.429132 0.382139
Si Si5 0.336604 0.929255 0.710325
Si Si6 0.837262 0.885972 0.344797
Si Si7 0.671228 0.270024 0.099442
Si Si8 0.000000 0.000000 0.281246
O O1 0.500000 0.819854 0.921860
O O2 0.754834 0.776310 0.875433
O O3 0.737973 0.884803 0.943684
O O4 0.683298 0.790461 0.042992
O O5 0.758158 0.331952 0.805163
O O6 0.788828 0.238507 0.701386
O O7 0.000000 0.266331 0.807893
O O8 0.791683 0.580802 0.110320
O O9 0.772894 0.683079 0.048569
O O10 0.000000 0.614747 0.005624
O O11 0.738865 0.595990 0.936374
O O12 0.500000 0.420302 0.392494
O O13 0.296438 0.500000 0.394825
O O14 0.277712 0.409603 0.283822
O O15 0.500000 0.902189 0.723167
O O16 0.349653 0.000000 0.723257
O O17 0.000000 0.859921 0.365432
O O18 0.873900 0.945715 0.289329
O O19 0.500000 0.289665 0.095428
#
# Coordination Sequence:
#
# PCOD9375397 Si02
#       8
#     8   8   8   8   8   8   8   2
#     4  11  22  38  61  88 118 159 198 241 300 368
#     4  11  22  39  64  92 122 157 201 260 315 363
#     4  11  21  33  54  86 120 152 196 245 299 362
#     4  10  21  37  56  81 115 154 197 247 301 354
#     4   9  19  33  50  77 113 152 192 234 284 355
#     4  10  21  39  59  83 116 161 204 249 306 369
#     4  10  23  39  57  86 121 156 194 244 310 373
#     4   8  24  40  62  84 116 168 218 248 312 384
#
# _framework density 18.788388000000001
#
# number of rings (size 3 to 8) (size 9 to 14) (size 15 to 20)
#    0.414    1.379    1.379    2.897    0.966    5.793 
#    0.000    1.034    1.517    0.000    0.000    0.000 
#    0.000    0.000    0.000    0.000    0.000    0.000 
#
# Total GULP energy -161441.720040 kJ/mol
# GULP energy per Si atom -5566.955863 kJ/mol
# Density = 1.874562 g / cm^3
# Si number density = 18.788388 Si / 1000 Ang^3
#
#
#
# Elastic Constant Matrix: (Units=GPa)
#
#
# Indices 1 2 3 4 5 6 
#
# 1 60.3173 29.5429 8.6374 0.0000 0.0000 0.0000
# 2 29.5429 57.8784 -0.1776 0.0000 0.0000 0.0000
# 3 8.6374 -0.1776 37.1403 0.0000 0.0000 0.0000
# 4 0.0000 0.0000 0.0000 25.2704 0.0000 0.0000
# 5 0.0000 0.0000 0.0000 0.0000 15.3073 0.0000
# 6 0.0000 0.0000 0.0000 0.0000 0.0000 25.9794
#
#
#
# Elastic Compliance Matrix: (Units=1/GPa)
#
#
# Indices 1 2 3 4 5 6 
#
# 1 0.023155 -0.011836 -0.005442 0.000000 0.000000 0.000000
# 2 -0.011836 0.023328 0.002864 0.000000 0.000000 0.000000
# 3 -0.005442 0.002864 0.028204 0.000000 0.000000 0.000000
# 4 0.000000 0.000000 0.000000 0.039572 0.000000 0.000000
# 5 0.000000 0.000000 0.000000 0.000000 0.065328 0.000000
# 6 0.000000 0.000000 0.000000 0.000000 0.000000 0.038492
#
#
# Mechanical properties :
#
#
# Convention : Reuss Voigt Hill
#
# Bulk Modulus (GPa) = 21.80527 25.70461 23.75494
# Shear Modulus (GPa) = 19.06989 21.13363 20.10176
#
# Velocity S-wave (km/s) = 3.18934 3.35748 3.27449
# Velocity P-wave (km/s) = 5.01930 5.36107 5.19300
#
# Compressibility (1/GPa) = 0.04586047
#
# Stress axis : x y z
#
# Youngs Moduli (GPa) = 43.18647 42.86722 35.45579
#
# Poissons Ratio (x) = 0.50737 0.19294
# Poissons Ratio (y) = 0.51115 -0.10155
# Poissons Ratio (z) = 0.23501 -0.12278
#
# Static dielectric constant tensor:
#      x y z
#    x 1.657040 0.000000 0.000000 
#    y 0.000000 1.717620 0.000000 
#    z 0.000000 0.000000 1.652210 
# 
# From -- ./inp_files/16695.got.cif
#   From: 2010.05.17/outbox.cif.g08.bks.cpg/sg44_9_cif.got.tgz:16695.got - 2010.06.03 19:37:08.
