data_PCOD9375195
_publ_section_title
;
Structure prediction by ZEFSAII (Michael W. Deem and Ramdas Pophale) SiO2 
 PCOD9375195
Probable space group: I M M 2
;
_chemical_formula_sum "Si O2"
_cell_formula_units_Z 34
_cell_length_a 10.630388
_cell_length_b 7.822596
_cell_length_c 20.098324
_cell_angle_alpha 90.000000
_cell_angle_beta 90.000000
_cell_angle_gamma 90.000000
_cell_volume 1671.320964
_symmetry_space_group_name_H-M "I M M 2"
_symmetry_group_IT_number 44
_symmetry_cell_setting 'orthorhombic'
loop_
_space_group_symop_operation_xyz
x,y,z
-x,-y,z
-x,y,z
x,-y,z
1/2+x,1/2+y,1/2+z
1/2-x,1/2-y,1/2+z
1/2-x,1/2+y,1/2+z
1/2+x,1/2-y,1/2+z
loop_
_atom_site_type_symbol
_atom_site_label
_atom_site_fract_x
_atom_site_fract_y
_atom_site_fract_z
Si Si1 0.143494 0.699874 0.876260
Si Si2 0.361070 0.703223 0.126069
Si Si3 0.000000 0.000000 0.241567
Si Si4 0.706531 0.804395 0.753722
Si Si5 0.358588 0.297953 0.525614
O O1 0.146828 0.500000 0.858507
O O2 0.239577 0.793948 0.828291
O O3 0.000000 0.763444 0.867849
O O4 0.172888 0.716370 0.954471
O O5 0.500000 0.775285 0.112030
O O6 0.366939 0.500000 0.115223
O O7 0.320437 0.729248 0.202238
O O8 0.247937 0.766310 0.079804
O O9 0.108068 0.152870 0.242820
O O10 0.661357 0.000000 0.740875
O O11 0.500000 0.239868 0.546447
O O12 0.365468 0.500000 0.514746
#
# Coordination Sequence:
#
# PCOD9375195 Si02
#       5
#     8   8   2   8   8
#     4  10  20  39  66  95 125 167 218 271 326 388
#     4  10  23  42  63  92 126 168 214 270 330 388
#     4  12  26  44  62 102 128 176 216 274 328 398
#     4  11  24  43  68  94 131 171 220 271 329 390
#     4  10  22  38  62  92 127 168 216 268 324 389
#
# _framework density 20.343191000000001
#
# number of rings (size 3 to 8) (size 9 to 14) (size 15 to 20)
#    0.000    1.647    1.176    2.471    3.294    4.235 
#    2.118    0.000    0.000    0.000    0.000    0.000 
#    0.000    0.000    0.000    0.000    0.000    0.000 
#
# Total GULP energy -94649.129783 kJ/mol
# GULP energy per Si atom -5567.595870 kJ/mol
# Density = 2.029689 g / cm^3
# Si number density = 20.343191 Si / 1000 Ang^3
#
#
#
# Elastic Constant Matrix: (Units=GPa)
#
#
# Indices 1 2 3 4 5 6 
#
# 1 111.0726 38.4089 48.0761 0.0000 0.0000 0.0000
# 2 38.4089 103.4347 11.1773 0.0000 0.0000 0.0000
# 3 48.0761 11.1773 61.8712 0.0000 0.0000 0.0000
# 4 0.0000 0.0000 0.0000 26.8887 0.0000 0.0000
# 5 0.0000 0.0000 0.0000 0.0000 -27.0495 0.0000
# 6 0.0000 0.0000 0.0000 0.0000 0.0000 29.0043
#
#
#
# Elastic Compliance Matrix: (Units=1/GPa)
#
#
# Indices 1 2 3 4 5 6 
#
# 1 0.015384 -0.004509 -0.011139 0.000000 0.000000 0.000000
# 2 -0.004509 0.011182 0.001483 0.000000 0.000000 0.000000
# 3 -0.011139 0.001483 0.024550 0.000000 0.000000 0.000000
# 4 0.000000 0.000000 0.000000 0.037190 0.000000 0.000000
# 5 0.000000 0.000000 0.000000 0.000000 -0.036969 0.000000
# 6 0.000000 0.000000 0.000000 0.000000 0.000000 0.034478
#
#
# Mechanical properties :
#
#
# Convention : Reuss Voigt Hill
#
# Bulk Modulus (GPa) = 43.88522 52.41145 48.14833
# Shear Modulus (GPa) = 41.07157 17.68313 29.37735
#
# Velocity S-wave (km/s) = 4.49813 2.95149 3.80424
# Velocity P-wave (km/s) = 6.97114 6.11838 6.55864
#
# Compressibility (1/GPa) = 0.02278672
#
# Stress axis : x y z
#
# Youngs Moduli (GPa) = 65.00415 89.43028 40.73308
#
# Poissons Ratio (x) = 0.40322 0.45373
# Poissons Ratio (y) = 0.29309 -0.06042
# Poissons Ratio (z) = 0.72409 -0.13266
#
# Static dielectric constant tensor:
#      x y z
#    x 1.959250 0.000000 0.000000 
#    y 0.000000 1.723940 0.000000 
#    z 0.000000 0.000000 1.709860 
# 
# From -- ./inp_files/19995.got.cif
#   From: 2010.05.17/outbox.cif.g08.bks.cpg/sg44_10_cif.got.tgz:19995.got - 2010.06.03 19:37:08.
