data_PCOD9375154
_publ_section_title
;
Structure prediction by ZEFSAII (Michael W. Deem and Ramdas Pophale) SiO2 
 PCOD9375154
Probable space group: I M M 2
;
_chemical_formula_sum "Si O2"
_cell_formula_units_Z 56
_cell_length_a 20.544862
_cell_length_b 15.552209
_cell_length_c 9.416091
_cell_angle_alpha 90.000000
_cell_angle_beta 90.000000
_cell_angle_gamma 90.000000
_cell_volume 3008.610448
_symmetry_space_group_name_H-M "I M M 2"
_symmetry_group_IT_number 44
_symmetry_cell_setting 'orthorhombic'
loop_
_space_group_symop_operation_xyz
x,y,z
-x,-y,z
-x,y,z
x,-y,z
1/2+x,1/2+y,1/2+z
1/2-x,1/2-y,1/2+z
1/2-x,1/2+y,1/2+z
1/2+x,1/2-y,1/2+z
loop_
_atom_site_type_symbol
_atom_site_label
_atom_site_fract_x
_atom_site_fract_y
_atom_site_fract_z
Si Si1 0.076138 0.186178 0.047460
Si Si2 0.869585 0.162874 0.560028
Si Si3 0.682270 0.733002 0.777227
Si Si4 0.203861 0.599741 0.807904
Si Si5 0.576820 0.500000 0.889930
Si Si6 0.734463 0.097406 0.645449
Si Si7 0.425825 0.200545 0.269017
Si Si8 0.578709 0.500000 0.563714
O O1 0.121546 0.208239 0.178918
O O2 0.096753 0.090749 0.995508
O O3 0.000000 0.182992 0.090629
O O4 0.081882 0.254761 0.922810
O O5 0.837079 0.222910 0.440479
O O6 0.902183 0.084800 0.474317
O O7 0.810923 0.119601 0.646453
O O8 0.914372 0.222397 0.656820
O O9 0.741800 0.666341 0.750740
O O10 0.701373 0.829195 0.737335
O O11 0.215831 0.500000 0.768647
O O12 0.132613 0.631982 0.760088
O O13 0.211108 0.604022 0.980356
O O14 0.500000 0.500000 0.878152
O O15 0.602713 0.500000 0.727916
O O16 0.722531 0.000000 0.692321
O O17 0.500000 0.167592 0.255807
O O18 0.500000 0.500000 0.564478
#
# Coordination Sequence:
#
# PCOD9375154 Si02
#       8
#     8   8   8   8   4   8   8   4
#     4  10  21  36  58  87 119 157 198 244 300 354
#     4  11  22  36  58  89 121 159 196 243 301 366
#     4  11  21  37  65  86 120 152 198 251 296 349
#     4  10  22  38  63  92 116 155 206 245 292 353
#     4  11  20  33  57  89 121 159 199 234 296 373
#     4  10  20  38  62  87 118 152 197 253 298 346
#     4  11  23  40  59  85 123 161 197 247 304 353
#     4   9  18  33  53  85 121 151 197 242 282 351
#
# _framework density 18.613244000000002
#
# number of rings (size 3 to 8) (size 9 to 14) (size 15 to 20)
#    0.000    1.571    5.000    0.429    2.000    1.429 
#    0.000    2.143    0.000    0.429    0.000    0.000 
#    0.000    0.000    0.000    0.000    0.000    0.000 
#
# Total GULP energy -156254.737790 kJ/mol
# GULP energy per Si atom -5580.526350 kJ/mol
# Density = 1.857088 g / cm^3
# Si number density = 18.613244 Si / 1000 Ang^3
#
#
#
# Elastic Constant Matrix: (Units=GPa)
#
#
# Indices 1 2 3 4 5 6 
#
# 1 90.0337 36.8673 18.9283 0.0000 0.0000 0.0000
# 2 36.8673 126.9146 25.2801 0.0000 0.0000 0.0000
# 3 18.9283 25.2801 27.8364 0.0000 0.0000 0.0000
# 4 0.0000 0.0000 0.0000 132.9586 0.0000 0.0000
# 5 0.0000 0.0000 0.0000 0.0000 24.2492 0.0000
# 6 0.0000 0.0000 0.0000 0.0000 0.0000 11.3475
#
#
#
# Elastic Compliance Matrix: (Units=1/GPa)
#
#
# Indices 1 2 3 4 5 6 
#
# 1 0.013617 -0.002577 -0.006918 0.000000 0.000000 0.000000
# 2 -0.002577 0.010107 -0.007427 0.000000 0.000000 0.000000
# 3 -0.006918 -0.007427 0.047373 0.000000 0.000000 0.000000
# 4 0.000000 0.000000 0.000000 0.007521 0.000000 0.000000
# 5 0.000000 0.000000 0.000000 0.000000 0.041238 0.000000
# 6 0.000000 0.000000 0.000000 0.000000 0.000000 0.088125
#
#
# Mechanical properties :
#
#
# Convention : Reuss Voigt Hill
#
# Bulk Modulus (GPa) = 26.84390 45.21515 36.02952
# Shear Modulus (GPa) = 19.66613 44.62500 32.14557
#
# Velocity S-wave (km/s) = 3.25401 4.90173 4.16026
# Velocity P-wave (km/s) = 5.34522 7.50870 6.51736
#
# Compressibility (1/GPa) = 0.03725241
#
# Stress axis : x y z
#
# Youngs Moduli (GPa) = 73.43820 98.93808 21.10901
#
# Poissons Ratio (x) = 0.25501 0.14604
# Poissons Ratio (y) = 0.18928 0.15677
# Poissons Ratio (z) = 0.50808 0.73477
#
# Static dielectric constant tensor:
#      x y z
#    x 1.649900 0.000000 0.000000 
#    y 0.000000 -0.013040 0.000000 
#    z 0.000000 0.000000 1.640570 
# 
# From -- ./inp_files/7425.got.cif
#   From: 2010.05.17/outbox.cif.g08.bks.cpg/sg44_4_cif.got.tgz:7425.got - 2010.06.03 19:37:08.
