data_PCOD9375125
_publ_section_title
;
Structure prediction by ZEFSAII (Michael W. Deem and Ramdas Pophale) SiO2 
 PCOD9375125
Probable space group: I M M 2
;
_chemical_formula_sum "Si O2"
_cell_formula_units_Z 48
_cell_length_a 7.822157
_cell_length_b 9.161656
_cell_length_c 34.847140
_cell_angle_alpha 90.000000
_cell_angle_beta 90.000000
_cell_angle_gamma 90.000000
_cell_volume 2497.282361
_symmetry_space_group_name_H-M "I M M 2"
_symmetry_group_IT_number 44
_symmetry_cell_setting 'orthorhombic'
loop_
_space_group_symop_operation_xyz
x,y,z
-x,-y,z
-x,y,z
x,-y,z
1/2+x,1/2+y,1/2+z
1/2-x,1/2-y,1/2+z
1/2-x,1/2+y,1/2+z
1/2+x,1/2-y,1/2+z
loop_
_atom_site_type_symbol
_atom_site_label
_atom_site_fract_x
_atom_site_fract_y
_atom_site_fract_z
Si Si1 0.193891 0.324709 0.195180
Si Si2 0.796729 0.176245 0.016735
Si Si3 0.202143 0.836588 0.353244
Si Si4 0.500000 0.323765 0.065831
Si Si5 0.205914 0.834364 0.929165
Si Si6 0.500000 0.175915 0.149291
Si Si7 0.800366 0.834238 0.778108
O O1 0.231726 0.500000 0.193512
O O2 0.333348 0.234953 0.171757
O O3 0.205035 0.280969 0.240080
O O4 0.000000 0.303028 0.181297
O O5 0.668368 0.263418 0.043881
O O6 0.000000 0.206398 0.022752
O O7 0.774886 0.000000 0.021119
O O8 0.751037 0.213063 0.972409
O O9 0.500000 0.663944 0.267603
O O10 0.232717 0.761437 0.394024
O O11 0.279282 0.753137 0.317114
O O12 0.271160 0.000000 0.354622
O O13 0.500000 0.500000 0.067524
O O14 0.500000 0.251399 0.107752
O O15 0.000000 0.837719 0.927759
O O16 0.268759 0.000000 0.924014
O O17 0.500000 0.000000 0.146786
O O18 0.500000 0.659669 0.846597
O O19 0.742992 0.000000 0.785672
#
# Coordination Sequence:
#
# PCOD9375125 Si02
#       7
#     8   8   8   4   8   4   8
#     4  10  21  41  69  96 125 162 206 258 314 374
#     4   9  20  41  67  94 125 162 208 260 314 375
#     4  11  24  36  48  77 121 161 202 252 303 358
#     4  12  26  42  66  96 130 166 208 258 312 380
#     4   9  19  37  60  84 111 150 201 251 303 363
#     4  12  26  44  66  94 130 168 208 256 312 378
#     4  10  20  37  62  87 115 154 204 254 303 365
#
# _framework density 19.220894000000001
#
# number of rings (size 3 to 8) (size 9 to 14) (size 15 to 20)
#    0.000    1.833    0.833    4.000    1.167    7.333 
#    0.000    1.667    0.000    0.000    0.000    0.000 
#    0.000    0.000    0.000    0.000    0.000    0.000 
#
# Total GULP energy -134020.871421 kJ/mol
# GULP energy per Si atom -5584.202976 kJ/mol
# Density = 1.917715 g / cm^3
# Si number density = 19.220894 Si / 1000 Ang^3
#
#
#
# Elastic Constant Matrix: (Units=GPa)
#
#
# Indices 1 2 3 4 5 6 
#
# 1 95.5344 52.6468 59.9657 0.0000 0.0000 0.0000
# 2 52.6468 104.2357 85.8977 0.0000 0.0000 0.0000
# 3 59.9657 85.8977 140.9756 0.0000 0.0000 0.0000
# 4 0.0000 0.0000 0.0000 30.2124 0.0000 0.0000
# 5 0.0000 0.0000 0.0000 0.0000 -79.2616 0.0000
# 6 0.0000 0.0000 0.0000 0.0000 0.0000 6.4910
#
#
#
# Elastic Compliance Matrix: (Units=1/GPa)
#
#
# Indices 1 2 3 4 5 6 
#
# 1 0.015378 -0.004773 -0.003633 0.000000 0.000000 0.000000
# 2 -0.004773 0.020750 -0.010613 0.000000 0.000000 0.000000
# 3 -0.003633 -0.010613 0.015105 0.000000 0.000000 0.000000
# 4 0.000000 0.000000 0.000000 0.033099 0.000000 0.000000
# 5 0.000000 0.000000 0.000000 0.000000 -0.012616 0.000000
# 6 0.000000 0.000000 0.000000 0.000000 0.000000 0.154058
#
#
# Mechanical properties :
#
#
# Convention : Reuss Voigt Hill
#
# Bulk Modulus (GPa) = 75.78369 81.97401 78.87885
# Shear Modulus (GPa) = 18.64198 0.97075 9.80636
#
# Velocity S-wave (km/s) = 3.11767 0.71144 2.26120
# Velocity P-wave (km/s) = 7.24384 6.58907 6.92420
#
# Compressibility (1/GPa) = 0.01319545
#
# Stress axis : x y z
#
# Youngs Moduli (GPa) = 65.02692 48.19170 66.20202
#
# Poissons Ratio (x) = 0.23004 0.24050
# Poissons Ratio (y) = 0.31040 0.70260
# Poissons Ratio (z) = 0.23623 0.51146
#
# Static dielectric constant tensor:
#      x y z
#    x 1.737420 0.000000 0.000000 
#    y 0.000000 1.664510 0.000000 
#    z 0.000000 0.000000 1.654670 
# 
# From -- ./inp_files/26967.got.cif
#   From: 2010.05.17/outbox.cif.g08.bks.cpg/sg44_14_cif.got.tgz:26967.got - 2010.06.03 19:37:08.
