data_PCOD9375472
_publ_section_title
;
Structure prediction by ZEFSAII (Michael W. Deem and Ramdas Pophale) SiO2 
 PCOD9375472
Probable space group: I M M 2
;
_chemical_formula_sum "Si O2"
_cell_formula_units_Z 64
_cell_length_a 8.899989
_cell_length_b 14.055656
_cell_length_c 24.452000
_cell_angle_alpha 90.000000
_cell_angle_beta 90.000000
_cell_angle_gamma 90.000000
_cell_volume 3058.827434
_symmetry_space_group_name_H-M "I M M 2"
_symmetry_group_IT_number 44
_symmetry_cell_setting 'orthorhombic'
loop_
_space_group_symop_operation_xyz
x,y,z
-x,-y,z
-x,y,z
x,-y,z
1/2+x,1/2+y,1/2+z
1/2-x,1/2-y,1/2+z
1/2-x,1/2+y,1/2+z
1/2+x,1/2-y,1/2+z
loop_
_atom_site_type_symbol
_atom_site_label
_atom_site_fract_x
_atom_site_fract_y
_atom_site_fract_z
Si Si1 0.328847 0.384219 0.895900
Si Si2 0.176630 0.112054 0.723031
Si Si3 0.676595 0.887279 0.510865
Si Si4 0.822492 0.209524 0.177370
Si Si5 0.817160 0.609251 0.456002
Si Si6 0.674632 0.884960 0.283095
Si Si7 0.679138 0.781602 0.065094
Si Si8 0.327197 0.115830 0.836623
O O1 0.500000 0.350003 0.902679
O O2 0.332835 0.500000 0.893574
O O3 0.259208 0.352847 0.838294
O O4 0.233627 0.361819 0.949817
O O5 0.274353 0.180635 0.685574
O O6 0.222480 0.137332 0.785399
O O7 0.000000 0.128920 0.714189
O O8 0.207333 0.000000 0.715104
O O9 0.500000 0.866841 0.516064
O O10 0.769828 0.826217 0.553963
O O11 0.699702 0.000000 0.518012
O O12 0.750430 0.154934 0.228620
O O13 0.754335 0.178248 0.119542
O O14 0.000000 0.198914 0.178047
O O15 0.767140 0.500000 0.460104
O O16 0.770563 0.664284 0.510048
O O17 0.773421 0.649002 0.396383
O O18 0.000000 0.609348 0.454830
O O19 0.500000 0.857044 0.285279
O O20 0.681181 0.000000 0.281805
O O21 0.500000 0.787941 0.069931
O O22 0.500000 0.146785 0.826116
O O23 0.332030 0.000000 0.840686
#
# Coordination Sequence:
#
# PCOD9375472 Si02
#       8
#     8   8   8   8   8   8   8   8
#     4   9  17  32  57  89 121 151 187 232 284 344
#     4  10  21  38  60  86 116 149 187 234 287 341
#     4  10  21  38  59  83 115 155 195 237 288 344
#     4  12  26  42  59  81 113 152 197 243 287 346
#     4   8  16  33  58  86 114 145 180 219 268 329
#     4  10  21  39  63  89 118 152 190 236 290 345
#     4  11  23  39  59  83 112 147 193 244 289 338
#     4   8  14  29  55  85 115 146 181 221 271 335
#
# _framework density 20.923051000000001
#
# number of rings (size 3 to 8) (size 9 to 14) (size 15 to 20)
#    0.000    2.250    0.000    3.750    0.000    5.750 
#    0.000    6.250    0.000    2.625    0.000    0.000 
#    0.000    0.000    0.000    0.000    0.000    0.000 
#
# Total GULP energy -178883.969532 kJ/mol
# GULP energy per Si atom -5590.124048 kJ/mol
# Density = 2.087543 g / cm^3
# Si number density = 20.923051 Si / 1000 Ang^3
#
#
#
# Elastic Constant Matrix: (Units=GPa)
#
#
# Indices 1 2 3 4 5 6 
#
# 1 75.2567 8.4912 16.5381 0.0000 0.0000 0.0000
# 2 8.4912 39.9559 6.5461 0.0000 0.0000 0.0000
# 3 16.5381 6.5461 92.0562 0.0000 0.0000 0.0000
# 4 0.0000 0.0000 0.0000 24.5445 0.0000 0.0000
# 5 0.0000 0.0000 0.0000 0.0000 38.1350 0.0000
# 6 0.0000 0.0000 0.0000 0.0000 0.0000 21.3885
#
#
#
# Elastic Compliance Matrix: (Units=1/GPa)
#
#
# Indices 1 2 3 4 5 6 
#
# 1 0.014098 -0.002612 -0.002347 0.000000 0.000000 0.000000
# 2 -0.002612 0.025806 -0.001366 0.000000 0.000000 0.000000
# 3 -0.002347 -0.001366 0.011382 0.000000 0.000000 0.000000
# 4 0.000000 0.000000 0.000000 0.040742 0.000000 0.000000
# 5 0.000000 0.000000 0.000000 0.000000 0.026223 0.000000
# 6 0.000000 0.000000 0.000000 0.000000 0.000000 0.046754
#
#
# Mechanical properties :
#
#
# Convention : Reuss Voigt Hill
#
# Bulk Modulus (GPa) = 25.88174 30.04663 27.96418
# Shear Modulus (GPa) = 26.24210 28.52650 27.38430
#
# Velocity S-wave (km/s) = 3.54534 3.69643 3.62167
# Velocity P-wave (km/s) = 5.39963 5.71050 5.55724
#
# Compressibility (1/GPa) = 0.03863727
#
# Stress axis : x y z
#
# Youngs Moduli (GPa) = 70.93046 38.75009 87.86018
#
# Poissons Ratio (x) = 0.10120 0.20622
# Poissons Ratio (y) = 0.18524 0.12001
# Poissons Ratio (z) = 0.16648 0.05293
#
# Static dielectric constant tensor:
#      x y z
#    x 1.695420 0.000000 0.000000 
#    y 0.000000 1.809080 0.000000 
#    z 0.000000 0.000000 1.735960 
# 
# From -- ./inp_files/25083.got.cif
#   From: 2010.05.17/outbox.cif.g08.bks.cpg/sg44_13_cif.got.tgz:25083.got - 2010.06.03 19:37:08.
