data_PCOD9375623
_publ_section_title
;
Structure prediction by ZEFSAII (Michael W. Deem and Ramdas Pophale) SiO2 
 PCOD9375623
Probable space group: I M M 2
;
_chemical_formula_sum "Si O2"
_cell_formula_units_Z 48
_cell_length_a 23.480171
_cell_length_b 7.493277
_cell_length_c 11.997346
_cell_angle_alpha 90.000000
_cell_angle_beta 90.000000
_cell_angle_gamma 90.000000
_cell_volume 2110.854150
_symmetry_space_group_name_H-M "I M M 2"
_symmetry_group_IT_number 44
_symmetry_cell_setting 'orthorhombic'
loop_
_space_group_symop_operation_xyz
x,y,z
-x,-y,z
-x,y,z
x,-y,z
1/2+x,1/2+y,1/2+z
1/2-x,1/2-y,1/2+z
1/2-x,1/2+y,1/2+z
1/2+x,1/2-y,1/2+z
loop_
_atom_site_type_symbol
_atom_site_label
_atom_site_fract_x
_atom_site_fract_y
_atom_site_fract_z
Si Si1 0.736196 0.713906 0.339350
Si Si2 0.064223 0.209812 0.198766
Si Si3 0.140620 0.283842 0.393820
Si Si4 0.151718 0.798441 0.023265
Si Si5 0.647551 0.212995 0.145907
Si Si6 0.065037 0.716695 0.833488
O O1 0.736421 0.500000 0.352405
O O2 0.800953 0.775842 0.334125
O O3 0.704025 0.782995 0.451719
O O4 0.700873 0.749749 0.227163
O O5 0.085426 0.225363 0.325469
O O6 0.116516 0.287754 0.125008
O O7 0.000000 0.281815 0.181150
O O8 0.061829 0.000000 0.169404
O O9 0.139556 0.500000 0.394104
O O10 0.146263 0.218303 0.520677
O O11 0.169023 0.000000 0.056476
O O12 0.103208 0.801888 0.928491
O O13 0.592498 0.269839 0.216236
O O14 0.645627 0.000000 0.136254
O O15 0.069608 0.500000 0.843761
O O16 0.000000 0.766865 0.844245
#
# Coordination Sequence:
#
# PCOD9375623 Si02
#       6
#     8   8   8   8   8   8
#     4   9  19  35  55  81 109 136 177 228 276 326
#     4  10  22  38  56  81 112 149 190 225 268 328
#     4  10  22  37  55  80 109 144 184 224 271 329
#     4   9  18  34  56  79 106 139 177 224 270 317
#     4   9  19  35  54  77 105 138 178 219 267 325
#     4   9  17  30  50  77 106 135 172 219 266 313
#
# _framework density 22.739611
#
# number of rings (size 3 to 8) (size 9 to 14) (size 15 to 20)
#    0.000    2.667    0.000    0.500    2.333    4.000 
#    0.000    1.667    0.000    0.000    0.000    0.000 
#    0.000    0.000    0.000    0.000    0.000    0.000 
#
# Total GULP energy -133899.148647 kJ/mol
# GULP energy per Si atom -5579.131194 kJ/mol
# Density = 2.268785 g / cm^3
# Si number density = 22.739611 Si / 1000 Ang^3
#
#
#
# Elastic Constant Matrix: (Units=GPa)
#
#
# Indices 1 2 3 4 5 6 
#
# 1 72.2126 -0.5493 12.0461 0.0000 0.0000 0.0000
# 2 -0.5493 60.8017 -2.1441 0.0000 0.0000 0.0000
# 3 12.0461 -2.1441 96.6358 0.0000 0.0000 0.0000
# 4 0.0000 0.0000 0.0000 13.6144 0.0000 0.0000
# 5 0.0000 0.0000 0.0000 0.0000 16.0964 0.0000
# 6 0.0000 0.0000 0.0000 0.0000 0.0000 39.9130
#
#
#
# Elastic Compliance Matrix: (Units=1/GPa)
#
#
# Indices 1 2 3 4 5 6 
#
# 1 0.014142 0.000066 -0.001761 0.000000 0.000000 0.000000
# 2 0.000066 0.016460 0.000357 0.000000 0.000000 0.000000
# 3 -0.001761 0.000357 0.010576 0.000000 0.000000 0.000000
# 4 0.000000 0.000000 0.000000 0.073452 0.000000 0.000000
# 5 0.000000 0.000000 0.000000 0.000000 0.062126 0.000000
# 6 0.000000 0.000000 0.000000 0.000000 0.000000 0.025054
#
#
# Mechanical properties :
#
#
# Convention : Reuss Voigt Hill
#
# Bulk Modulus (GPa) = 25.97368 27.59505 26.78437
# Shear Modulus (GPa) = 23.00745 28.61125 25.80935
#
# Velocity S-wave (km/s) = 3.18430 3.55098 3.37262
# Velocity P-wave (km/s) = 4.99667 5.38277 5.19331
#
# Compressibility (1/GPa) = 0.03850051
#
# Stress axis : x y z
#
# Youngs Moduli (GPa) = 70.70964 60.75297 94.55707
#
# Poissons Ratio (x) = -0.00399 0.16656
# Poissons Ratio (y) = -0.00464 -0.03376
# Poissons Ratio (z) = 0.12455 -0.02169
#
# Static dielectric constant tensor:
#      x y z
#    x 1.833230 0.000000 0.000000 
#    y 0.000000 1.867470 0.000000 
#    z 0.000000 0.000000 1.869060 
# 
# From -- ./inp_files/11142.got.cif
#   From: 2010.05.17/outbox.cif.g08.bks.cpg/sg44_6_cif.got.tgz:11142.got - 2010.06.03 19:37:08.
