data_PCOD9375375
_publ_section_title
;
Structure prediction by ZEFSAII (Michael W. Deem and Ramdas Pophale) SiO2 
 PCOD9375375
Probable space group: I M M 2
;
_chemical_formula_sum "Si O2"
_cell_formula_units_Z 64
_cell_length_a 15.049015
_cell_length_b 8.540346
_cell_length_c 28.670350
_cell_angle_alpha 90.000000
_cell_angle_beta 90.000000
_cell_angle_gamma 90.000000
_cell_volume 3684.822188
_symmetry_space_group_name_H-M "I M M 2"
_symmetry_group_IT_number 44
_symmetry_cell_setting 'orthorhombic'
loop_
_space_group_symop_operation_xyz
x,y,z
-x,-y,z
-x,y,z
x,-y,z
1/2+x,1/2+y,1/2+z
1/2-x,1/2-y,1/2+z
1/2-x,1/2+y,1/2+z
1/2+x,1/2-y,1/2+z
loop_
_atom_site_type_symbol
_atom_site_label
_atom_site_fract_x
_atom_site_fract_y
_atom_site_fract_z
Si Si1 0.899615 0.190993 0.468400
Si Si2 0.604743 0.312303 0.512152
Si Si3 0.775505 0.187313 0.659215
Si Si4 0.898438 0.186709 0.843638
Si Si5 0.101296 0.188836 0.119105
Si Si6 0.281578 0.186486 0.427229
Si Si7 0.601523 0.187103 0.240538
Si Si8 0.101247 0.190461 0.575015
O O1 0.819672 0.242007 0.435324
O O2 0.880222 0.240266 0.521898
O O3 0.000000 0.240985 0.456421
O O4 0.899709 0.000000 0.468504
O O5 0.500000 0.283577 0.503236
O O6 0.618408 0.500000 0.508688
O O7 0.622867 0.263020 0.565589
O O8 0.664603 0.227890 0.474197
O O9 0.675505 0.247372 0.653587
O O10 0.828328 0.243574 0.704480
O O11 0.830273 0.246176 0.613782
O O12 0.775349 0.000000 0.658485
O O13 0.831279 0.238074 0.883648
O O14 0.879076 0.262345 0.793523
O O15 0.000000 0.232036 0.856777
O O16 0.896130 0.000000 0.838628
O O17 0.000000 0.238795 0.129262
O O18 0.102561 0.000000 0.119703
O O19 0.281142 0.000000 0.421023
O O20 0.500000 0.241058 0.229800
O O21 0.603134 0.000000 0.237384
O O22 0.000000 0.236745 0.586706
O O23 0.103443 0.000000 0.575061
#
# Coordination Sequence:
#
# PCOD9375375 Si02
#       8
#     8   8   8   8   8   8   8   8
#     4   8  15  28  44  65  97 134 168 201 237 279
#     4   9  18  32  48  68  99 138 173 205 247 298
#     4  11  20  30  50  78 105 133 167 207 252 303
#     4  10  21  37  55  74  99 130 161 197 248 307
#     4   9  19  35  51  68  97 138 179 216 253 294
#     4  11  20  29  48  76 101 128 166 210 252 297
#     4  10  21  37  56  78 104 131 161 201 248 299
#     4   8  14  25  42  67 100 134 165 197 235 283
#
# _framework density 17.368545000000001
#
# number of rings (size 3 to 8) (size 9 to 14) (size 15 to 20)
#    0.000    2.500    0.000    4.500    0.000    5.500 
#    0.000    1.250    0.000    2.250    0.000    8.750 
#    0.000    0.000    0.000    0.000    0.000    0.000 
#
# Total GULP energy -178541.136679 kJ/mol
# GULP energy per Si atom -5579.410521 kJ/mol
# Density = 1.732901 g / cm^3
# Si number density = 17.368545 Si / 1000 Ang^3
#
#
#
# Elastic Constant Matrix: (Units=GPa)
#
#
# Indices 1 2 3 4 5 6 
#
# 1 120.7914 23.3445 85.6753 0.0000 0.0000 0.0000
# 2 23.3445 22.6980 19.9391 0.0000 0.0000 0.0000
# 3 85.6753 19.9391 87.4973 0.0000 0.0000 0.0000
# 4 0.0000 0.0000 0.0000 25.3362 0.0000 0.0000
# 5 0.0000 0.0000 0.0000 0.0000 31.9613 0.0000
# 6 0.0000 0.0000 0.0000 0.0000 0.0000 17.9059
#
#
#
# Elastic Compliance Matrix: (Units=1/GPa)
#
#
# Indices 1 2 3 4 5 6 
#
# 1 0.027704 -0.005830 -0.025798 0.000000 0.000000 0.000000
# 2 -0.005830 0.056311 -0.007123 0.000000 0.000000 0.000000
# 3 -0.025798 -0.007123 0.038313 0.000000 0.000000 0.000000
# 4 0.000000 0.000000 0.000000 0.039469 0.000000 0.000000
# 5 0.000000 0.000000 0.000000 0.000000 0.031288 0.000000
# 6 0.000000 0.000000 0.000000 0.000000 0.000000 0.055848
#
#
# Mechanical properties :
#
#
# Convention : Reuss Voigt Hill
#
# Bulk Modulus (GPa) = 22.30951 54.32272 38.31612
# Shear Modulus (GPa) = 14.64654 21.84253 18.24454
#
# Velocity S-wave (km/s) = 2.90708 3.55010 3.24456
# Velocity P-wave (km/s) = 4.91333 6.93892 6.01205
#
# Compressibility (1/GPa) = 0.04482393
#
# Stress axis : x y z
#
# Youngs Moduli (GPa) = 36.09612 17.75862 26.10062
#
# Poissons Ratio (x) = 0.10354 0.67335
# Poissons Ratio (y) = 0.21045 0.18592
# Poissons Ratio (z) = 0.93122 0.12650
#
# Static dielectric constant tensor:
#      x y z
#    x 1.602490 0.000000 0.000000 
#    y 0.000000 1.593140 0.000000 
#    z 0.000000 0.000000 1.563290 
# 
# From -- ./inp_files/25782.got.cif
#   From: 2010.05.17/outbox.cif.g08.bks.cpg/sg44_13_cif.got.tgz:25782.got - 2010.06.03 19:37:08.
