data_PCOD9375220
_publ_section_title
;
Structure prediction by ZEFSAII (Michael W. Deem and Ramdas Pophale) SiO2 
 PCOD9375220
Probable space group: I M M 2
;
_chemical_formula_sum "Si O2"
_cell_formula_units_Z 64
_cell_length_a 32.575826
_cell_length_b 9.673004
_cell_length_c 12.011531
_cell_angle_alpha 90.000000
_cell_angle_beta 90.000000
_cell_angle_gamma 90.000000
_cell_volume 3784.906631
_symmetry_space_group_name_H-M "I M M 2"
_symmetry_group_IT_number 44
_symmetry_cell_setting 'orthorhombic'
loop_
_space_group_symop_operation_xyz
x,y,z
-x,-y,z
-x,y,z
x,-y,z
1/2+x,1/2+y,1/2+z
1/2-x,1/2-y,1/2+z
1/2-x,1/2+y,1/2+z
1/2+x,1/2-y,1/2+z
loop_
_atom_site_type_symbol
_atom_site_label
_atom_site_fract_x
_atom_site_fract_y
_atom_site_fract_z
Si Si1 0.127151 0.165285 0.269690
Si Si2 0.950838 0.340662 0.621757
Si Si3 0.722410 0.663092 0.373941
Si Si4 0.858678 0.834583 0.012604
Si Si5 0.047698 0.164380 0.405846
Si Si6 0.316393 0.835380 0.937715
Si Si7 0.900121 0.658436 0.830376
Si Si8 0.815881 0.342572 0.690784
O O1 0.135956 0.202725 0.141665
O O2 0.080283 0.192948 0.308397
O O3 0.156719 0.248644 0.351996
O O4 0.134105 0.000000 0.281167
O O5 0.936481 0.500000 0.606151
O O6 0.939165 0.247918 0.516211
O O7 0.933343 0.292298 0.740191
O O8 0.000000 0.341028 0.626169
O O9 0.718171 0.500000 0.351356
O O10 0.686731 0.698934 0.463530
O O11 0.768022 0.688368 0.417605
O O12 0.714300 0.747411 0.261419
O O13 0.864189 0.000000 0.002389
O O14 0.891167 0.754820 0.935220
O O15 0.000000 0.199755 0.379987
O O16 0.049043 0.000000 0.428740
O O17 0.324540 0.000000 0.924834
O O18 0.324808 0.795918 0.065627
O O19 0.909627 0.500000 0.863607
O O20 0.857968 0.656167 0.759769
O O21 0.700190 0.000000 0.183986
#
# Coordination Sequence:
#
# PCOD9375220 Si02
#       8
#     8   8   8   8   8   8   8   8
#     4  10  21  35  53  76 100 135 175 211 254 303
#     4   9  17  30  51  78 105 132 164 205 254 306
#     4   9  19  34  50  70  97 129 164 204 250 296
#     4   9  19  35  52  70  98 135 171 206 248 300
#     4   9  18  33  52  76 106 135 167 210 257 303
#     4  10  21  34  51  75 101 129 163 209 256 299
#     4   9  17  31  50  72  97 128 164 202 246 295
#     4   9  18  32  50  70  94 126 161 198 245 295
#
# _framework density 16.909267
#
# number of rings (size 3 to 8) (size 9 to 14) (size 15 to 20)
#    0.000    2.750    0.000    0.750    1.750    3.500 
#    0.000    3.125    0.000    0.750    0.000    0.000 
#    0.000    0.000    0.000    0.000    0.000    0.000 
#
# Total GULP energy -178336.173235 kJ/mol
# GULP energy per Si atom -5573.005414 kJ/mol
# Density = 1.687078 g / cm^3
# Si number density = 16.909267 Si / 1000 Ang^3
#
#
#
# Elastic Constant Matrix: (Units=GPa)
#
#
# Indices 1 2 3 4 5 6 
#
# 1 53.2818 32.8528 49.5257 0.0000 0.0000 0.0000
# 2 32.8528 34.7061 59.3834 0.0000 0.0000 0.0000
# 3 49.5257 59.3834 157.0367 0.0000 0.0000 0.0000
# 4 0.0000 0.0000 0.0000 30.1767 0.0000 0.0000
# 5 0.0000 0.0000 0.0000 0.0000 16.6140 0.0000
# 6 0.0000 0.0000 0.0000 0.0000 0.0000 21.4518
#
#
#
# Elastic Compliance Matrix: (Units=1/GPa)
#
#
# Indices 1 2 3 4 5 6 
#
# 1 0.046780 -0.053938 0.005643 0.000000 0.000000 0.000000
# 2 -0.053938 0.143822 -0.037375 0.000000 0.000000 0.000000
# 3 0.005643 -0.037375 0.018722 0.000000 0.000000 0.000000
# 4 0.000000 0.000000 0.000000 0.033138 0.000000 0.000000
# 5 0.000000 0.000000 0.000000 0.000000 0.060190 0.000000
# 6 0.000000 0.000000 0.000000 0.000000 0.000000 0.046616
#
#
# Mechanical properties :
#
#
# Convention : Reuss Voigt Hill
#
# Bulk Modulus (GPa) = 26.32723 58.72759 42.52741
# Shear Modulus (GPa) = 9.37613 20.53268 14.95440
#
# Velocity S-wave (km/s) = 2.35733 3.48844 2.97710
# Velocity P-wave (km/s) = 4.79717 7.14367 6.08461
#
# Compressibility (1/GPa) = 0.03798348
#
# Stress axis : x y z
#
# Youngs Moduli (GPa) = 21.37667 6.95304 53.41394
#
# Poissons Ratio (x) = 0.37503 -0.30143
# Poissons Ratio (y) = 1.15301 1.99637
# Poissons Ratio (z) = -0.12063 0.25987
#
# Static dielectric constant tensor:
#      x y z
#    x 1.583360 0.000000 0.000000 
#    y 0.000000 1.574570 0.000000 
#    z 0.000000 0.000000 1.549110 
# 
# From -- ./inp_files/15111.got.cif
#   From: 2010.05.17/outbox.cif.g08.bks.cpg/sg44_8_cif.got.tgz:15111.got - 2010.06.03 19:37:08.
