data_PCOD9375205
_publ_section_title
;
Structure prediction by ZEFSAII (Michael W. Deem and Ramdas Pophale) SiO2 
 PCOD9375205
Probable space group: I M M 2
;
_chemical_formula_sum "Si O2"
_cell_formula_units_Z 58
_cell_length_a 7.387876
_cell_length_b 19.919507
_cell_length_c 16.757857
_cell_angle_alpha 90.000000
_cell_angle_beta 90.000000
_cell_angle_gamma 90.000000
_cell_volume 2466.133957
_symmetry_space_group_name_H-M "I M M 2"
_symmetry_group_IT_number 44
_symmetry_cell_setting 'orthorhombic'
loop_
_space_group_symop_operation_xyz
x,y,z
-x,-y,z
-x,y,z
x,-y,z
1/2+x,1/2+y,1/2+z
1/2-x,1/2-y,1/2+z
1/2-x,1/2+y,1/2+z
1/2+x,1/2-y,1/2+z
loop_
_atom_site_type_symbol
_atom_site_label
_atom_site_fract_x
_atom_site_fract_y
_atom_site_fract_z
Si Si1 0.209367 0.301092 0.528000
Si Si2 0.789683 0.117890 0.877456
Si Si3 0.781170 0.175661 0.267799
Si Si4 0.217575 0.318638 0.206381
Si Si5 0.000000 0.500000 0.397936
Si Si6 0.284075 0.925002 0.578510
Si Si7 0.783560 0.826748 0.450659
Si Si8 0.288176 0.923545 0.133636
O O1 0.224129 0.324667 0.437000
O O2 0.291023 0.227055 0.516192
O O3 0.289805 0.363155 0.578615
O O4 0.000000 0.294811 0.553248
O O5 0.763346 0.144378 0.788573
O O6 0.000000 0.102575 0.891607
O O7 0.657781 0.057288 0.894979
O O8 0.720053 0.241354 0.217043
O O9 0.717492 0.179472 0.359635
O O10 0.725483 0.107994 0.221843
O O11 0.000000 0.176728 0.269104
O O12 0.289790 0.368288 0.138368
O O13 0.000000 0.314790 0.198698
O O14 0.500000 0.927648 0.591463
O O15 0.251142 0.898972 0.489221
O O16 0.213905 0.000000 0.592797
O O17 0.000000 0.816048 0.447892
O O18 0.500000 0.928769 0.110647
O O19 0.216059 0.000000 0.126671
#
# Coordination Sequence:
#
# PCOD9375205 Si02
#       8
#     8   8   8   8   2   8   8   8
#     4  10  20  41  66  90 129 170 211 276 337 386
#     4  12  25  39  67 100 128 184 229 259 336 401
#     4  10  21  39  64  91 123 167 216 271 340 391
#     4  10  20  41  66  90 129 170 211 276 337 386
#     4  12  26  44  60  90 156 176 210 292 320 382
#     4  10  23  39  61  91 126 172 214 263 338 397
#     4  10  21  39  64  91 123 167 216 271 340 391
#     4  10  23  39  61  91 126 172 214 263 338 397
#
# _framework density 23.518592000000002
#
# number of rings (size 3 to 8) (size 9 to 14) (size 15 to 20)
#    0.000    1.655    2.759    1.034    1.931    3.862 
#    0.000    2.759    0.000    0.000    0.000    0.000 
#    0.000    0.000    0.000    0.000    0.000    0.000 
#
# Total GULP energy -161723.290442 kJ/mol
# GULP energy per Si atom -5576.665188 kJ/mol
# Density = 2.346506 g / cm^3
# Si number density = 23.518592 Si / 1000 Ang^3
#
#
#
# Elastic Constant Matrix: (Units=GPa)
#
#
# Indices 1 2 3 4 5 6 
#
# 1 103.6735 -11.9934 -5.7453 0.0000 0.0000 0.0000
# 2 -11.9934 77.3019 58.6190 0.0000 0.0000 0.0000
# 3 -5.7453 58.6190 112.5728 0.0000 0.0000 0.0000
# 4 0.0000 0.0000 0.0000 22.7757 0.0000 0.0000
# 5 0.0000 0.0000 0.0000 0.0000 18.5356 0.0000
# 6 0.0000 0.0000 0.0000 0.0000 0.0000 19.9816
#
#
#
# Elastic Compliance Matrix: (Units=1/GPa)
#
#
# Indices 1 2 3 4 5 6 
#
# 1 0.009838 0.001893 -0.000484 0.000000 0.000000 0.000000
# 2 0.001893 0.021742 -0.011225 0.000000 0.000000 0.000000
# 3 -0.000484 -0.011225 0.014703 0.000000 0.000000 0.000000
# 4 0.000000 0.000000 0.000000 0.043906 0.000000 0.000000
# 5 0.000000 0.000000 0.000000 0.000000 0.053950 0.000000
# 6 0.000000 0.000000 0.000000 0.000000 0.000000 0.050046
#
#
# Mechanical properties :
#
#
# Convention : Reuss Voigt Hill
#
# Bulk Modulus (GPa) = 37.52002 41.70099 39.61051
# Shear Modulus (GPa) = 22.45163 29.10311 25.77737
#
# Velocity S-wave (km/s) = 3.09307 3.52156 3.31424
# Velocity P-wave (km/s) = 5.36135 5.85702 5.61466
#
# Compressibility (1/GPa) = 0.02665244
#
# Stress axis : x y z
#
# Youngs Moduli (GPa) = 101.64807 45.99399 68.01113
#
# Poissons Ratio (x) = -0.08707 0.03290
# Poissons Ratio (y) = -0.19244 0.76342
# Poissons Ratio (z) = 0.04917 0.51628
#
# Static dielectric constant tensor:
#      x y z
#    x 1.899630 0.000000 0.000000 
#    y 0.000000 1.894570 0.000000 
#    z 0.000000 0.000000 1.899010 
# 
# From -- ./inp_files/20555.got.cif
#   From: 2010.05.17/outbox.cif.g08.bks.cpg/sg44_11_cif.got.tgz:20555.got - 2010.06.03 19:37:08.
