data_PCOD9375723
_publ_section_title
;
Structure prediction by ZEFSAII (Michael W. Deem and Ramdas Pophale) SiO2 
 PCOD9375723
Probable space group: I M M 2
;
_chemical_formula_sum "Si O2"
_cell_formula_units_Z 64
_cell_length_a 31.442995
_cell_length_b 8.654537
_cell_length_c 12.081444
_cell_angle_alpha 90.000000
_cell_angle_beta 90.000000
_cell_angle_gamma 90.000000
_cell_volume 3287.657676
_symmetry_space_group_name_H-M "I M M 2"
_symmetry_group_IT_number 44
_symmetry_cell_setting 'orthorhombic'
loop_
_space_group_symop_operation_xyz
x,y,z
-x,-y,z
-x,y,z
x,-y,z
1/2+x,1/2+y,1/2+z
1/2-x,1/2-y,1/2+z
1/2-x,1/2+y,1/2+z
1/2+x,1/2-y,1/2+z
loop_
_atom_site_type_symbol
_atom_site_label
_atom_site_fract_x
_atom_site_fract_y
_atom_site_fract_z
Si Si1 0.372051 0.183131 0.792340
Si Si2 0.125546 0.817627 0.047572
Si Si3 0.299089 0.183491 0.402701
Si Si4 0.660848 0.817888 0.164061
Si Si5 0.431916 0.317838 0.174012
Si Si6 0.547456 0.183647 0.408691
Si Si7 0.701283 0.685120 0.944401
Si Si8 0.547327 0.313631 0.923484
O O1 0.375387 0.231835 0.664858
O O2 0.331440 0.263383 0.849412
O O3 0.414434 0.236822 0.856938
O O4 0.367467 0.000000 0.802601
O O5 0.124376 0.000000 0.066504
O O6 0.168117 0.771985 0.981191
O O7 0.085065 0.767558 0.974026
O O8 0.312878 0.207570 0.275979
O O9 0.250011 0.226482 0.418684
O O10 0.303470 0.000000 0.426182
O O11 0.618145 0.718063 0.169655
O O12 0.649695 0.000000 0.157677
O O13 0.686675 0.767514 0.056640
O O14 0.439883 0.500000 0.189782
O O15 0.449638 0.227853 0.279439
O O16 0.449516 0.272819 0.053644
O O17 0.500000 0.224707 0.449024
O O18 0.553388 0.000000 0.420221
O O19 0.698470 0.500000 0.957471
O O20 0.500000 0.272821 0.882674
O O21 0.552161 0.500000 0.916544
#
# Coordination Sequence:
#
# PCOD9375723 Si02
#       8
#     8   8   8   8   8   8   8   8
#     4  12  26  44  66  92 127 169 212 261 318 380
#     4  12  26  44  68  93 125 166 212 265 318 378
#     4  10  24  44  66  94 131 168 210 262 315 375
#     4  11  22  39  65  96 131 170 209 259 317 374
#     4  11  21  37  64  97 131 168 209 259 314 373
#     4  11  24  42  65  94 130 169 211 261 315 375
#     4  11  24  43  66  96 130 168 214 263 315 373
#     4  10  22  41  65  93 127 167 212 262 315 374
#
# _framework density 19.466747000000002
#
# number of rings (size 3 to 8) (size 9 to 14) (size 15 to 20)
#    0.000    1.000    2.500    4.125    1.750    4.250 
#    0.000    0.000    0.000    0.000    0.000    0.000 
#    0.000    0.000    0.000    0.000    0.000    0.000 
#
# Total GULP energy -179012.023827 kJ/mol
# GULP energy per Si atom -5594.125745 kJ/mol
# Density = 1.942244 g / cm^3
# Si number density = 19.466747 Si / 1000 Ang^3
#
#
#
# Elastic Constant Matrix: (Units=GPa)
#
#
# Indices 1 2 3 4 5 6 
#
# 1 120.8505 15.7264 24.3151 0.0000 0.0000 0.0000
# 2 15.7264 30.9397 10.0597 0.0000 0.0000 0.0000
# 3 24.3151 10.0597 83.9551 0.0000 0.0000 0.0000
# 4 0.0000 0.0000 0.0000 36.4133 0.0000 0.0000
# 5 0.0000 0.0000 0.0000 0.0000 31.5155 0.0000
# 6 0.0000 0.0000 0.0000 0.0000 0.0000 -18.3903
#
#
#
# Elastic Compliance Matrix: (Units=1/GPa)
#
#
# Indices 1 2 3 4 5 6 
#
# 1 0.009235 -0.003979 -0.002198 0.000000 0.000000 0.000000
# 2 -0.003979 0.035346 -0.003083 0.000000 0.000000 0.000000
# 3 -0.002198 -0.003083 0.012917 0.000000 0.000000 0.000000
# 4 0.000000 0.000000 0.000000 0.027462 0.000000 0.000000
# 5 0.000000 0.000000 0.000000 0.000000 0.031730 0.000000
# 6 0.000000 0.000000 0.000000 0.000000 0.000000 -0.054377
#
#
# Mechanical properties :
#
#
# Convention : Reuss Voigt Hill
#
# Bulk Modulus (GPa) = 25.65550 37.32754 31.49152
# Shear Modulus (GPa) = 53.28984 22.28396 37.78690
#
# Velocity S-wave (km/s) = 5.23777 3.38704 4.41057
# Velocity P-wave (km/s) = 7.05597 5.87475 6.49228
#
# Compressibility (1/GPa) = 0.03897799
#
# Stress axis : x y z
#
# Youngs Moduli (GPa) = 108.28707 28.29176 77.41716
#
# Poissons Ratio (x) = 0.11258 0.17014
# Poissons Ratio (y) = 0.43091 0.23866
# Poissons Ratio (z) = 0.23799 0.08722
#
# Static dielectric constant tensor:
#      x y z
#    x 1.664740 0.000000 0.000000 
#    y 0.000000 1.653480 0.000000 
#    z 0.000000 0.000000 1.649080 
# 
# From -- ./inp_files/15071.got.cif
#   From: 2010.05.17/outbox.cif.g08.bks.cpg/sg44_8_cif.got.tgz:15071.got - 2010.06.03 19:37:08.
