data_PCOD9375284
_publ_section_title
;
Structure prediction by ZEFSAII (Michael W. Deem and Ramdas Pophale) SiO2 
 PCOD9375284
Probable space group: I M M 2
;
_chemical_formula_sum "Si O2"
_cell_formula_units_Z 48
_cell_length_a 24.606236
_cell_length_b 7.460335
_cell_length_c 11.986826
_cell_angle_alpha 90.000000
_cell_angle_beta 90.000000
_cell_angle_gamma 90.000000
_cell_volume 2200.430803
_symmetry_space_group_name_H-M "I M M 2"
_symmetry_group_IT_number 44
_symmetry_cell_setting 'orthorhombic'
loop_
_space_group_symop_operation_xyz
x,y,z
-x,-y,z
-x,y,z
x,-y,z
1/2+x,1/2+y,1/2+z
1/2-x,1/2-y,1/2+z
1/2-x,1/2+y,1/2+z
1/2+x,1/2-y,1/2+z
loop_
_atom_site_type_symbol
_atom_site_label
_atom_site_fract_x
_atom_site_fract_y
_atom_site_fract_z
Si Si1 0.560594 0.781645 0.928610
Si Si2 0.845748 0.207875 0.013453
Si Si3 0.937642 0.211543 0.857729
Si Si4 0.867154 0.715676 0.637894
Si Si5 0.847452 0.716204 0.270362
Si Si6 0.273354 0.780476 0.978735
O O1 0.500000 0.715344 0.928180
O O2 0.594749 0.729237 0.821285
O O3 0.560004 0.000000 0.930781
O O4 0.592406 0.726850 0.039043
O O5 0.842228 0.214578 0.146496
O O6 0.844876 0.000000 0.978277
O O7 0.901157 0.284596 0.960710
O O8 0.788179 0.286401 0.974294
O O9 0.896817 0.231054 0.751997
O O10 0.000000 0.283580 0.843187
O O11 0.944852 0.000000 0.874963
O O12 0.864677 0.500000 0.641190
O O13 0.808102 0.775160 0.589252
O O14 0.844803 0.500000 0.264885
O O15 0.804480 0.771920 0.365392
O O16 0.273122 0.000000 0.981407
#
# Coordination Sequence:
#
# PCOD9375284 Si02
#       6
#     8   8   8   8   8   8
#     4   8  14  27  49  75 101 128 157 201 261 305
#     4  10  21  36  52  70 102 144 173 204 257 313
#     4  10  22  37  51  73 109 149 180 206 250 313
#     4   9  17  32  56  81 101 127 171 222 262 302
#     4   9  18  33  52  75  99 125 167 214 252 302
#     4   8  17  34  54  76 103 132 165 213 272 315
#
# _framework density 21.813908999999999
#
# number of rings (size 3 to 8) (size 9 to 14) (size 15 to 20)
#    0.000    3.000    0.000    2.500    2.333    2.333 
#    0.000    4.167    0.000    1.000    0.000    0.000 
#    0.000    0.000    0.000    0.000    0.000    0.000 
#
# Total GULP energy -133759.035343 kJ/mol
# GULP energy per Si atom -5573.293139 kJ/mol
# Density = 2.176426 g / cm^3
# Si number density = 21.813909 Si / 1000 Ang^3
#
#
#
# Elastic Constant Matrix: (Units=GPa)
#
#
# Indices 1 2 3 4 5 6 
#
# 1 129.7866 18.3769 54.8428 0.0000 0.0000 0.0000
# 2 18.3769 63.6372 -3.1067 0.0000 0.0000 0.0000
# 3 54.8428 -3.1067 97.9074 0.0000 0.0000 0.0000
# 4 0.0000 0.0000 0.0000 29.0992 0.0000 0.0000
# 5 0.0000 0.0000 0.0000 0.0000 14.5278 0.0000
# 6 0.0000 0.0000 0.0000 0.0000 0.0000 3.3214
#
#
#
# Elastic Compliance Matrix: (Units=1/GPa)
#
#
# Indices 1 2 3 4 5 6 
#
# 1 0.010788 -0.003416 -0.006151 0.000000 0.000000 0.000000
# 2 -0.003416 0.016820 0.002447 0.000000 0.000000 0.000000
# 3 -0.006151 0.002447 0.013737 0.000000 0.000000 0.000000
# 4 0.000000 0.000000 0.000000 0.034365 0.000000 0.000000
# 5 0.000000 0.000000 0.000000 0.000000 0.068834 0.000000
# 6 0.000000 0.000000 0.000000 0.000000 0.000000 0.301076
#
#
# Mechanical properties :
#
#
# Convention : Reuss Voigt Hill
#
# Bulk Modulus (GPa) = 36.89349 47.95080 42.42214
# Shear Modulus (GPa) = 10.66338 24.13755 17.40047
#
# Velocity S-wave (km/s) = 2.21336 3.33005 2.82738
# Velocity P-wave (km/s) = 4.84577 6.06755 5.49075
#
# Compressibility (1/GPa) = 0.02710506
#
# Stress axis : x y z
#
# Youngs Moduli (GPa) = 92.69709 59.45347 72.79634
#
# Poissons Ratio (x) = 0.20307 0.44778
# Poissons Ratio (y) = 0.31661 -0.17813
# Poissons Ratio (z) = 0.57020 -0.14548
#
# Static dielectric constant tensor:
#      x y z
#    x 1.827810 0.000000 0.000000 
#    y 0.000000 1.822910 0.000000 
#    z 0.000000 0.000000 1.768720 
# 
# From -- ./inp_files/6107.got.cif
#   From: 2010.05.17/outbox.cif.g08.bks.cpg/sg44_4_cif.got.tgz:6107.got - 2010.06.03 19:37:08.
