data_PCOD9375494
_publ_section_title
;
Structure prediction by ZEFSAII (Michael W. Deem and Ramdas Pophale) SiO2 
 PCOD9375494
Probable space group: I M M 2
;
_chemical_formula_sum "Si O2"
_cell_formula_units_Z 64
_cell_length_a 27.714980
_cell_length_b 7.965052
_cell_length_c 13.386680
_cell_angle_alpha 90.000000
_cell_angle_beta 90.000000
_cell_angle_gamma 90.000000
_cell_volume 2955.126435
_symmetry_space_group_name_H-M "I M M 2"
_symmetry_group_IT_number 44
_symmetry_cell_setting 'orthorhombic'
loop_
_space_group_symop_operation_xyz
x,y,z
-x,-y,z
-x,y,z
x,-y,z
1/2+x,1/2+y,1/2+z
1/2-x,1/2-y,1/2+z
1/2-x,1/2+y,1/2+z
1/2+x,1/2-y,1/2+z
loop_
_atom_site_type_symbol
_atom_site_label
_atom_site_fract_x
_atom_site_fract_y
_atom_site_fract_z
Si Si1 0.054809 0.300210 0.724250
Si Si2 0.764872 0.809176 0.335392
Si Si3 0.620443 0.700950 0.039135
Si Si4 0.875030 0.203972 0.314443
Si Si5 0.716626 0.692271 0.149583
Si Si6 0.945465 0.205220 0.138547
Si Si7 0.206116 0.810485 0.008841
Si Si8 0.102213 0.202673 0.933331
O O1 0.052442 0.500000 0.717984
O O2 0.081437 0.239832 0.624029
O O3 0.084020 0.257821 0.825102
O O4 0.000000 0.232829 0.731438
O O5 0.731592 0.500000 0.875289
O O6 0.818354 0.759040 0.301322
O O7 0.726535 0.801074 0.246591
O O8 0.744249 0.689422 0.419317
O O9 0.623717 0.500000 0.030052
O O10 0.672553 0.756437 0.082011
O O11 0.611035 0.763793 0.926418
O O12 0.908025 0.264488 0.223174
O O13 0.879288 0.000000 0.313344
O O14 0.705934 0.500000 0.178648
O O15 0.766935 0.701502 0.090688
O O16 0.000000 0.256245 0.162131
O O17 0.943959 0.000000 0.138337
O O18 0.931097 0.257349 0.026304
O O19 0.156170 0.744227 0.964325
O O20 0.198075 0.000000 0.048400
O O21 0.102738 0.000000 0.930673
#
# Coordination Sequence:
#
# PCOD9375494 Si02
#       8
#     8   8   8   8   8   8   8   8
#     4  11  25  42  60  86 119 156 200 253 312 367
#     4  11  21  36  56  81 117 157 192 241 297 348
#     4  10  21  39  61  85 117 157 201 247 293 355
#     4   9  18  35  56  83 119 153 188 237 294 349
#     4  11  22  37  56  85 120 156 199 244 289 354
#     4   9  17  31  56  87 113 141 185 240 293 345
#     4  11  22  36  56  85 116 153 196 238 292 357
#     4  10  21  38  60  88 120 153 196 248 299 359
#
# _framework density 21.657281000000001
#
# number of rings (size 3 to 8) (size 9 to 14) (size 15 to 20)
#    0.000    1.750    1.250    3.375    0.000    9.000 
#    0.000    1.250    0.000    0.750    0.000    1.750 
#    0.000    0.000    0.000    0.000    0.000    0.000 
#
# Total GULP energy -178722.648771 kJ/mol
# GULP energy per Si atom -5585.082774 kJ/mol
# Density = 2.160799 g / cm^3
# Si number density = 21.657281 Si / 1000 Ang^3
#
#
#
# Elastic Constant Matrix: (Units=GPa)
#
#
# Indices 1 2 3 4 5 6 
#
# 1 82.9426 -0.3301 9.0569 0.0000 0.0000 0.0000
# 2 -0.3301 23.5213 0.7798 0.0000 0.0000 0.0000
# 3 9.0569 0.7798 93.2568 0.0000 0.0000 0.0000
# 4 0.0000 0.0000 0.0000 16.7642 0.0000 0.0000
# 5 0.0000 0.0000 0.0000 0.0000 37.4060 0.0000
# 6 0.0000 0.0000 0.0000 0.0000 0.0000 20.4633
#
#
#
# Elastic Compliance Matrix: (Units=1/GPa)
#
#
# Indices 1 2 3 4 5 6 
#
# 1 0.012187 0.000210 -0.001185 0.000000 0.000000 0.000000
# 2 0.000210 0.042530 -0.000376 0.000000 0.000000 0.000000
# 3 -0.001185 -0.000376 0.010841 0.000000 0.000000 0.000000
# 4 0.000000 0.000000 0.000000 0.059651 0.000000 0.000000
# 5 0.000000 0.000000 0.000000 0.000000 0.026734 0.000000
# 6 0.000000 0.000000 0.000000 0.000000 0.000000 0.048868
#
#
# Mechanical properties :
#
#
# Convention : Reuss Voigt Hill
#
# Bulk Modulus (GPa) = 15.90933 24.30376 20.10654
# Shear Modulus (GPa) = 22.27522 27.60766 24.94144
#
# Velocity S-wave (km/s) = 3.21055 3.57424 3.39727
# Velocity P-wave (km/s) = 4.59407 5.31789 4.96917
#
# Compressibility (1/GPa) = 0.06285618
#
# Stress axis : x y z
#
# Youngs Moduli (GPa) = 82.05598 23.51277 92.23951
#
# Poissons Ratio (x) = -0.00495 0.10933
# Poissons Ratio (y) = -0.01726 0.03469
# Poissons Ratio (z) = 0.09726 0.00884
#
# Static dielectric constant tensor:
#      x y z
#    x 1.786840 0.000000 0.000000 
#    y 0.000000 1.760940 0.000000 
#    z 0.000000 0.000000 1.801120 
# 
# From -- ./inp_files/15074.got.cif
#   From: 2010.05.17/outbox.cif.g08.bks.cpg/sg44_8_cif.got.tgz:15074.got - 2010.06.03 19:37:08.
