data_PCOD9375485
_publ_section_title
;
Structure prediction by ZEFSAII (Michael W. Deem and Ramdas Pophale) SiO2 
 PCOD9375485
Probable space group: I M M 2
;
_chemical_formula_sum "Si O2"
_cell_formula_units_Z 64
_cell_length_a 9.140672
_cell_length_b 14.064940
_cell_length_c 24.476384
_cell_angle_alpha 90.000000
_cell_angle_beta 90.000000
_cell_angle_gamma 90.000000
_cell_volume 3146.757435
_symmetry_space_group_name_H-M "I M M 2"
_symmetry_group_IT_number 44
_symmetry_cell_setting 'orthorhombic'
loop_
_space_group_symop_operation_xyz
x,y,z
-x,-y,z
-x,y,z
x,-y,z
1/2+x,1/2+y,1/2+z
1/2-x,1/2-y,1/2+z
1/2-x,1/2+y,1/2+z
1/2+x,1/2-y,1/2+z
loop_
_atom_site_type_symbol
_atom_site_label
_atom_site_fract_x
_atom_site_fract_y
_atom_site_fract_z
Si Si1 0.668119 0.884240 0.668850
Si Si2 0.832767 0.383938 0.712940
Si Si3 0.326192 0.203447 0.884095
Si Si4 0.326287 0.388332 0.603903
Si Si5 0.326604 0.391743 0.824248
Si Si6 0.824861 0.773757 0.994509
Si Si7 0.672363 0.386647 0.054913
Si Si8 0.169200 0.114936 0.779629
O O1 0.500000 0.850149 0.667954
O O2 0.751469 0.861682 0.612719
O O3 0.753580 0.853413 0.723264
O O4 0.663469 0.000000 0.670966
O O5 0.828687 0.500000 0.711661
O O6 0.752597 0.351339 0.658151
O O7 0.754622 0.359046 0.769423
O O8 0.000000 0.353323 0.712894
O O9 0.500000 0.186296 0.887547
O O10 0.301204 0.315244 0.871144
O O11 0.245171 0.181769 0.940425
O O12 0.257743 0.149375 0.832433
O O13 0.500000 0.379896 0.612243
O O14 0.291371 0.500000 0.597937
O O15 0.288451 0.335632 0.548131
O O16 0.500000 0.392173 0.812668
O O17 0.282482 0.500000 0.837662
O O18 0.000000 0.767360 0.989363
O O19 0.753050 0.672078 0.007918
O O20 0.500000 0.363605 0.056427
O O21 0.686732 0.500000 0.047228
O O22 0.000000 0.146190 0.781973
O O23 0.169600 0.000000 0.779277
#
# Coordination Sequence:
#
# PCOD9375485 Si02
#       8
#     8   8   8   8   8   8   8   8
#     4   9  17  32  57  88 118 146 182 230 283 341
#     4   9  17  30  53  86 116 140 174 222 273 325
#     4  11  24  40  58  82 112 148 193 239 282 334
#     4   9  19  37  59  81 109 146 183 221 271 331
#     4   9  19  37  59  81 109 146 183 221 271 331
#     4  11  24  40  58  82 112 148 193 239 282 334
#     4  10  21  38  60  85 115 151 189 232 284 340
#     4  10  21  38  60  85 115 151 189 232 284 340
#
# _framework density 20.338395999999999
#
# number of rings (size 3 to 8) (size 9 to 14) (size 15 to 20)
#    0.000    2.250    0.000    2.250    0.000    8.500 
#    0.000    3.750    0.000    0.000    0.000    0.000 
#    0.000    0.000    0.000    0.000    0.000    0.000 
#
# Total GULP energy -178868.431803 kJ/mol
# GULP energy per Si atom -5589.638494 kJ/mol
# Density = 2.029210 g / cm^3
# Si number density = 20.338396 Si / 1000 Ang^3
#
#
#
# Elastic Constant Matrix: (Units=GPa)
#
#
# Indices 1 2 3 4 5 6 
#
# 1 75.7085 15.5647 42.1607 0.0000 0.0000 0.0000
# 2 15.5647 43.7472 8.0409 0.0000 0.0000 0.0000
# 3 42.1607 8.0409 101.1189 0.0000 0.0000 0.0000
# 4 0.0000 0.0000 0.0000 22.4754 0.0000 0.0000
# 5 0.0000 0.0000 0.0000 0.0000 38.6904 0.0000
# 6 0.0000 0.0000 0.0000 0.0000 0.0000 21.1280
#
#
#
# Elastic Compliance Matrix: (Units=1/GPa)
#
#
# Indices 1 2 3 4 5 6 
#
# 1 0.018291 -0.005182 -0.007214 0.000000 0.000000 0.000000
# 2 -0.005182 0.024666 0.000199 0.000000 0.000000 0.000000
# 3 -0.007214 0.000199 0.012882 0.000000 0.000000 0.000000
# 4 0.000000 0.000000 0.000000 0.044493 0.000000 0.000000
# 5 0.000000 0.000000 0.000000 0.000000 0.025846 0.000000
# 6 0.000000 0.000000 0.000000 0.000000 0.000000 0.047331
#
#
# Mechanical properties :
#
#
# Convention : Reuss Voigt Hill
#
# Bulk Modulus (GPa) = 31.80220 39.12302 35.46261
# Shear Modulus (GPa) = 23.99413 26.77929 25.38671
#
# Velocity S-wave (km/s) = 3.43847 3.63255 3.53684
# Velocity P-wave (km/s) = 5.60665 6.07221 5.84407
#
# Compressibility (1/GPa) = 0.03144437
#
# Stress axis : x y z
#
# Youngs Moduli (GPa) = 54.67032 40.54221 77.63069
#
# Poissons Ratio (x) = 0.21008 0.56006
# Poissons Ratio (y) = 0.28329 -0.01546
# Poissons Ratio (z) = 0.39441 -0.00807
#
# Static dielectric constant tensor:
#      x y z
#    x 1.681800 0.000000 0.000000 
#    y 0.000000 1.780840 0.000000 
#    z 0.000000 0.000000 1.668200 
# 
# From -- ./inp_files/25126.got.cif
#   From: 2010.05.17/outbox.cif.g08.bks.cpg/sg44_13_cif.got.tgz:25126.got - 2010.06.03 19:37:08.
