data_PCOD9375199
_publ_section_title
;
Structure prediction by ZEFSAII (Michael W. Deem and Ramdas Pophale) SiO2 
 PCOD9375199
Probable space group: I M M 2
;
_chemical_formula_sum "Si O2"
_cell_formula_units_Z 64
_cell_length_a 22.480266
_cell_length_b 18.632629
_cell_length_c 7.688614
_cell_angle_alpha 90.000000
_cell_angle_beta 90.000000
_cell_angle_gamma 90.000000
_cell_volume 3220.502499
_symmetry_space_group_name_H-M "I M M 2"
_symmetry_group_IT_number 44
_symmetry_cell_setting 'orthorhombic'
loop_
_space_group_symop_operation_xyz
x,y,z
-x,-y,z
-x,y,z
x,-y,z
1/2+x,1/2+y,1/2+z
1/2-x,1/2-y,1/2+z
1/2-x,1/2+y,1/2+z
1/2+x,1/2-y,1/2+z
loop_
_atom_site_type_symbol
_atom_site_label
_atom_site_fract_x
_atom_site_fract_y
_atom_site_fract_z
Si Si1 0.817161 0.813773 0.702690
Si Si2 0.933381 0.918286 0.177344
Si Si3 0.711877 0.156295 0.183682
Si Si4 0.716105 0.083421 0.543392
Si Si5 0.661252 0.695899 0.595372
Si Si6 0.140863 0.419300 0.391281
Si Si7 0.932154 0.713568 0.299767
Si Si8 0.065020 0.145660 0.542203
O O1 0.815414 0.733132 0.628661
O O2 0.767870 0.865254 0.620261
O O3 0.880389 0.850792 0.670743
O O4 0.810420 0.796811 0.906194
O O5 0.883633 0.870355 0.092803
O O6 0.926223 0.910938 0.386235
O O7 0.000000 0.890766 0.140077
O O8 0.929184 0.000000 0.123723
O O9 0.692968 0.119641 0.365214
O O10 0.781939 0.174255 0.209983
O O11 0.692336 0.103773 0.027869
O O12 0.668169 0.080826 0.697612
O O13 0.735030 0.000000 0.510589
O O14 0.620027 0.760428 0.666240
O O15 0.120794 0.500000 0.432665
O O16 0.089311 0.359752 0.388382
O O17 0.934492 0.778655 0.438124
O O18 0.000000 0.707129 0.228534
O O19 0.000000 0.134993 0.622405
#
# Coordination Sequence:
#
# PCOD9375199 Si02
#       8
#     8   8   8   8   8   8   8   8
#     4  12  22  37  59  88 124 159 208 260 312 383
#     4   9  19  37  57  79 113 159 206 247 298 364
#     4  12  23  40  63  90 127 164 206 258 329 381
#     4  11  25  41  60  91 129 167 207 261 321 386
#     4  11  23  34  60  91 121 161 209 256 310 378
#     4  11  23  41  64  93 124 162 215 264 318 387
#     4  10  20  40  62  88 123 163 213 264 320 382
#     4   9  19  34  56  82 112 151 199 252 301 361
#
# _framework density 19.872674
#
# number of rings (size 3 to 8) (size 9 to 14) (size 15 to 20)
#    0.000    1.375    2.500    5.250    0.000    4.250 
#    0.000    0.000    0.000    1.500    0.000    1.750 
#    0.000    0.000    0.000    0.000    0.000    0.000 
#
# Total GULP energy -178482.875601 kJ/mol
# GULP energy per Si atom -5577.589863 kJ/mol
# Density = 1.982744 g / cm^3
# Si number density = 19.872674 Si / 1000 Ang^3
#
#
#
# Elastic Constant Matrix: (Units=GPa)
#
#
# Indices 1 2 3 4 5 6 
#
# 1 54.9276 17.4030 8.6778 0.0000 0.0000 0.0000
# 2 17.4030 107.6082 1.2773 0.0000 0.0000 0.0000
# 3 8.6778 1.2773 46.9676 0.0000 0.0000 0.0000
# 4 0.0000 0.0000 0.0000 19.4712 0.0000 0.0000
# 5 0.0000 0.0000 0.0000 0.0000 25.0491 0.0000
# 6 0.0000 0.0000 0.0000 0.0000 0.0000 60.0894
#
#
#
# Elastic Compliance Matrix: (Units=1/GPa)
#
#
# Indices 1 2 3 4 5 6 
#
# 1 0.019769 -0.003155 -0.003567 0.000000 0.000000 0.000000
# 2 -0.003155 0.009799 0.000316 0.000000 0.000000 0.000000
# 3 -0.003567 0.000316 0.021942 0.000000 0.000000 0.000000
# 4 0.000000 0.000000 0.000000 0.051358 0.000000 0.000000
# 5 0.000000 0.000000 0.000000 0.000000 0.039922 0.000000
# 6 0.000000 0.000000 0.000000 0.000000 0.000000 0.016642
#
#
# Mechanical properties :
#
#
# Convention : Reuss Voigt Hill
#
# Bulk Modulus (GPa) = 25.84000 29.35773 27.59886
# Shear Modulus (GPa) = 27.00638 33.06495 30.03566
#
# Velocity S-wave (km/s) = 3.69042 4.08344 3.89190
# Velocity P-wave (km/s) = 5.58480 6.08586 5.84070
#
# Compressibility (1/GPa) = 0.03869969
#
# Stress axis : x y z
#
# Youngs Moduli (GPa) = 50.58473 102.04678 45.57537
#
# Poissons Ratio (x) = 0.32194 0.16255
# Poissons Ratio (y) = 0.15958 -0.01442
# Poissons Ratio (z) = 0.18042 -0.03228
#
# Static dielectric constant tensor:
#      x y z
#    x 1.714290 0.000000 0.000000 
#    y 0.000000 1.712510 0.000000 
#    z 0.000000 0.000000 1.729960 
# 
# From -- ./inp_files/9019.got.cif
#   From: 2010.05.17/outbox.cif.g08.bks.cpg/sg44_5_cif.got.tgz:9019.got - 2010.06.03 19:37:08.
