data_PCOD9375348
_publ_section_title
;
Structure prediction by ZEFSAII (Michael W. Deem and Ramdas Pophale) SiO2 
 PCOD9375348
Probable space group: I M M 2
;
_chemical_formula_sum "Si O2"
_cell_formula_units_Z 56
_cell_length_a 8.661390
_cell_length_b 21.197157
_cell_length_c 14.164773
_cell_angle_alpha 90.000000
_cell_angle_beta 90.000000
_cell_angle_gamma 90.000000
_cell_volume 2600.607614
_symmetry_space_group_name_H-M "I M M 2"
_symmetry_group_IT_number 44
_symmetry_cell_setting 'orthorhombic'
loop_
_space_group_symop_operation_xyz
x,y,z
-x,-y,z
-x,y,z
x,-y,z
1/2+x,1/2+y,1/2+z
1/2-x,1/2-y,1/2+z
1/2-x,1/2+y,1/2+z
1/2+x,1/2-y,1/2+z
loop_
_atom_site_type_symbol
_atom_site_label
_atom_site_fract_x
_atom_site_fract_y
_atom_site_fract_z
Si Si1 0.670416 0.572825 0.996100
Si Si2 0.681398 0.102228 0.006094
Si Si3 0.176221 0.830592 0.666323
Si Si4 0.314954 0.258668 0.512553
Si Si5 0.185511 0.069102 0.808579
Si Si6 0.676878 0.157216 0.356523
Si Si7 0.182321 0.930086 0.204983
O O1 0.500000 0.582409 0.949192
O O2 0.687915 0.500000 0.015573
O O3 0.803079 0.600218 0.930911
O O4 0.667125 0.612373 0.091259
O O5 0.500000 0.094133 0.991802
O O6 0.728150 0.175596 0.009843
O O7 0.732181 0.073365 0.105427
O O8 0.771066 0.073210 0.917721
O O9 0.269809 0.777855 0.609199
O O10 0.243365 0.866960 0.757078
O O11 0.000000 0.807930 0.685012
O O12 0.500000 0.266990 0.508911
O O13 0.269144 0.216465 0.420392
O O14 0.000000 0.070925 0.797081
O O15 0.238589 0.000000 0.771994
O O16 0.500000 0.168022 0.330219
O O17 0.767186 0.129912 0.267306
O O18 0.000000 0.926480 0.188906
O O19 0.214457 0.000000 0.249047
#
# Coordination Sequence:
#
# PCOD9375348 Si02
#       7
#     8   8   8   8   8   8   8
#     4   9  16  28  49  79 115 154 194 235 284 344
#     4  12  26  42  62  86 115 155 201 251 299 345
#     4   9  18  34  58  87 119 154 194 240 287 342
#     4  10  22  41  62  87 121 159 198 240 292 352
#     4  10  21  39  63  90 121 158 197 238 290 350
#     4  10  21  36  57  86 119 154 193 240 292 346
#     4  11  24  42  64  89 118 155 197 242 296 355
#
# _framework density 21.533431
#
# number of rings (size 3 to 8) (size 9 to 14) (size 15 to 20)
#    0.000    1.857    0.000    3.857    0.000   10.286 
#    0.000    1.429    0.000    2.571    0.000    0.000 
#    0.000    0.000    0.000    0.000    0.000    0.000 
#
# Total GULP energy -156329.825143 kJ/mol
# GULP energy per Si atom -5583.208041 kJ/mol
# Density = 2.148442 g / cm^3
# Si number density = 21.533431 Si / 1000 Ang^3
#
#
#
# Elastic Constant Matrix: (Units=GPa)
#
#
# Indices 1 2 3 4 5 6 
#
# 1 27.1331 9.2838 0.4610 0.0000 0.0000 0.0000
# 2 9.2838 84.3487 3.8080 0.0000 0.0000 0.0000
# 3 0.4610 3.8080 61.6695 0.0000 0.0000 0.0000
# 4 0.0000 0.0000 0.0000 25.5441 0.0000 0.0000
# 5 0.0000 0.0000 0.0000 0.0000 31.3812 0.0000
# 6 0.0000 0.0000 0.0000 0.0000 0.0000 21.5697
#
#
#
# Elastic Compliance Matrix: (Units=1/GPa)
#
#
# Indices 1 2 3 4 5 6 
#
# 1 0.038298 -0.004214 -0.000026 0.000000 0.000000 0.000000
# 2 -0.004214 0.012352 -0.000731 0.000000 0.000000 0.000000
# 3 -0.000026 -0.000731 0.016261 0.000000 0.000000 0.000000
# 4 0.000000 0.000000 0.000000 0.039148 0.000000 0.000000
# 5 0.000000 0.000000 0.000000 0.000000 0.031866 0.000000
# 6 0.000000 0.000000 0.000000 0.000000 0.000000 0.046361
#
#
# Mechanical properties :
#
#
# Convention : Reuss Voigt Hill
#
# Bulk Modulus (GPa) = 17.55367 22.25074 19.90221
# Shear Modulus (GPa) = 23.45013 26.33890 24.89451
#
# Velocity S-wave (km/s) = 3.30360 3.50117 3.40382
# Velocity P-wave (km/s) = 4.76667 5.16718 4.97096
#
# Compressibility (1/GPa) = 0.05696816
#
# Stress axis : x y z
#
# Youngs Moduli (GPa) = 26.11128 80.95609 61.49748
#
# Poissons Ratio (x) = 0.34115 0.00160
# Poissons Ratio (y) = 0.11003 0.04497
# Poissons Ratio (z) = 0.00068 0.05920
#
# Static dielectric constant tensor:
#      x y z
#    x 1.749780 0.000000 0.000000 
#    y 0.000000 1.808530 0.000000 
#    z 0.000000 0.000000 1.812030 
# 
# From -- ./inp_files/16461.got.cif
#   From: 2010.05.17/outbox.cif.g08.bks.cpg/sg44_9_cif.got.tgz:16461.got - 2010.06.03 19:37:08.
