data_PCOD9375720
_publ_section_title
;
Structure prediction by ZEFSAII (Michael W. Deem and Ramdas Pophale) SiO2 
 PCOD9375720
Probable space group: I M M 2
;
_chemical_formula_sum "Si O2"
_cell_formula_units_Z 56
_cell_length_a 10.982535
_cell_length_b 19.612447
_cell_length_c 13.475463
_cell_angle_alpha 90.000000
_cell_angle_beta 90.000000
_cell_angle_gamma 90.000000
_cell_volume 2902.539074
_symmetry_space_group_name_H-M "I M M 2"
_symmetry_group_IT_number 44
_symmetry_cell_setting 'orthorhombic'
loop_
_space_group_symop_operation_xyz
x,y,z
-x,-y,z
-x,y,z
x,-y,z
1/2+x,1/2+y,1/2+z
1/2-x,1/2-y,1/2+z
1/2-x,1/2+y,1/2+z
1/2+x,1/2-y,1/2+z
loop_
_atom_site_type_symbol
_atom_site_label
_atom_site_fract_x
_atom_site_fract_y
_atom_site_fract_z
Si Si1 0.642364 0.214792 0.316460
Si Si2 0.500000 0.582062 0.935795
Si Si3 0.000000 0.918356 0.205715
Si Si4 0.361434 0.624326 0.305335
Si Si5 0.355226 0.205732 0.542768
Si Si6 0.360443 0.081479 0.949796
Si Si7 0.761918 0.153424 0.131851
Si Si8 0.290428 0.578904 0.092161
O O1 0.500000 0.199055 0.315105
O O2 0.654718 0.294553 0.289169
O O3 0.685840 0.206062 0.428435
O O4 0.705223 0.165499 0.239267
O O5 0.500000 0.500000 0.929235
O O6 0.500000 0.606821 0.821694
O O7 0.383632 0.599062 0.004090
O O8 0.882546 0.890744 0.148187
O O9 0.000000 0.000000 0.206809
O O10 0.500000 0.614396 0.346629
O O11 0.249574 0.600904 0.374684
O O12 0.352769 0.587173 0.199514
O O13 0.500000 0.214447 0.546406
O O14 0.296161 0.271428 0.593103
O O15 0.316667 0.134093 0.589728
O O16 0.500000 0.100006 0.918600
O O17 0.357735 0.000000 0.962031
O O18 0.327061 0.118220 0.053021
O O19 0.254087 0.500000 0.078499
#
# Coordination Sequence:
#
# PCOD9375720 Si02
#       8
#     8   4   4   8   8   8   8   8
#     4  10  22  41  64  93 126 167 217 270 327 390
#     4   9  20  40  61  91 131 162 214 277 324 383
#     4  11  24  40  65  99 130 170 222 279 335 393
#     4  11  22  40  68  99 131 173 222 270 325 395
#     4  11  23  41  61  90 131 166 214 271 318 390
#     4  11  26  45  65  96 136 174 218 274 331 396
#     4  12  22  42  65  94 127 173 216 271 331 392
#     4  11  22  39  64  93 127 170 214 268 331 390
#
# _framework density 19.293451999999998
#
# number of rings (size 3 to 8) (size 9 to 14) (size 15 to 20)
#    0.000    1.143    4.286    2.143    1.000    1.714 
#    2.571    0.714    0.000    1.714    0.000    0.000 
#    0.000    0.000    0.000    0.000    0.000    0.000 
#
# Total GULP energy -156318.499577 kJ/mol
# GULP energy per Si atom -5582.803556 kJ/mol
# Density = 1.924954 g / cm^3
# Si number density = 19.293452 Si / 1000 Ang^3
#
#
#
# Elastic Constant Matrix: (Units=GPa)
#
#
# Indices 1 2 3 4 5 6 
#
# 1 86.3146 31.7718 34.7429 0.0000 0.0000 0.0000
# 2 31.7718 73.7157 12.3681 -0.0001 0.0000 0.0000
# 3 34.7429 12.3681 68.8553 -0.0001 0.0000 0.0000
# 4 0.0000 -0.0001 -0.0001 31.2360 0.0000 0.0000
# 5 0.0000 0.0000 0.0000 0.0000 26.6688 0.0000
# 6 0.0000 0.0000 0.0000 0.0000 0.0000 28.6535
#
#
#
# Elastic Compliance Matrix: (Units=1/GPa)
#
#
# Indices 1 2 3 4 5 6 
#
# 1 0.016760 -0.005985 -0.007382 0.000000 0.000000 0.000000
# 2 -0.005985 0.016124 0.000124 0.000000 0.000000 0.000000
# 3 -0.007382 0.000124 0.018226 0.000000 0.000000 0.000000
# 4 0.000000 0.000000 0.000000 0.032014 0.000000 0.000000
# 5 0.000000 0.000000 0.000000 0.000000 0.037497 0.000000
# 6 0.000000 0.000000 0.000000 0.000000 0.000000 0.034900
#
#
# Mechanical properties :
#
#
# Convention : Reuss Voigt Hill
#
# Bulk Modulus (GPa) = 40.61113 42.96123 41.78618
# Shear Modulus (GPa) = 26.28604 27.31184 26.79894
#
# Velocity S-wave (km/s) = 3.69512 3.76653 3.73100
# Velocity P-wave (km/s) = 6.26898 6.42116 6.34552
#
# Compressibility (1/GPa) = 0.02462379
#
# Stress axis : x y z
#
# Youngs Moduli (GPa) = 59.66667 62.01746 54.86787
#
# Poissons Ratio (x) = 0.37118 0.40501
# Poissons Ratio (y) = 0.35711 -0.00678
# Poissons Ratio (z) = 0.44043 -0.00766
#
# Static dielectric constant tensor:
#      x y z
#    x 1.690260 0.000000 0.000000 
#    y 0.000000 1.650920 0.000000 
#    z 0.000000 0.000000 1.677390 
# 
# From -- ./inp_files/16535.got.cif
#   From: 2010.05.17/outbox.cif.g08.bks.cpg/sg44_9_cif.got.tgz:16535.got - 2010.06.03 19:37:08.
