data_PCOD9375512
_publ_section_title
;
Structure prediction by ZEFSAII (Michael W. Deem and Ramdas Pophale) SiO2 
 PCOD9375512
Probable space group: I M M 2
;
_chemical_formula_sum "Si O2"
_cell_formula_units_Z 32
_cell_length_a 23.467431
_cell_length_b 11.550843
_cell_length_c 5.141293
_cell_angle_alpha 90.000000
_cell_angle_beta 90.000000
_cell_angle_gamma 90.000000
_cell_volume 1393.643153
_symmetry_space_group_name_H-M "I M M 2"
_symmetry_group_IT_number 44
_symmetry_cell_setting 'orthorhombic'
loop_
_space_group_symop_operation_xyz
x,y,z
-x,-y,z
-x,y,z
x,-y,z
1/2+x,1/2+y,1/2+z
1/2-x,1/2-y,1/2+z
1/2-x,1/2+y,1/2+z
1/2+x,1/2-y,1/2+z
loop_
_atom_site_type_symbol
_atom_site_label
_atom_site_fract_x
_atom_site_fract_y
_atom_site_fract_z
Si Si1 0.820104 0.123838 0.247530
Si Si2 0.404163 0.130386 0.262837
Si Si3 0.064126 0.227127 0.253355
Si Si4 0.205715 0.625177 0.479327
O O1 0.886838 0.134545 0.189418
O O2 0.806793 0.249849 0.363292
O O3 0.811254 0.000000 0.391725
O O4 0.772939 0.119597 0.023278
O O5 0.425122 0.173248 0.540016
O O6 0.423956 0.000000 0.210917
O O7 0.425943 0.216640 0.037635
O O8 0.334965 0.128722 0.235949
O O9 0.000000 0.183296 0.233694
O O10 0.189041 0.500000 0.353290
#
# Coordination Sequence:
#
# PCOD9375512 Si02
#       4
#     8   8   8   8
#     4  10  21  38  61  90 126 166 206 254 312 372
#     4  10  21  38  62  91 123 161 207 261 316 367
#     4  11  23  38  58  88 125 166 211 254 301 366
#     4   9  19  36  60  92 124 157 205 262 316 369
#
# _framework density 22.961404000000002
#
# number of rings (size 3 to 8) (size 9 to 14) (size 15 to 20)
#    0.000    2.000    0.000    3.000    0.000    5.500 
#    0.000    7.500    0.000    6.000    0.000    0.000 
#    0.000    0.000    0.000    0.000    0.000    0.000 
#
# Total GULP energy -89122.050847 kJ/mol
# GULP energy per Si atom -5570.128178 kJ/mol
# Density = 2.290914 g / cm^3
# Si number density = 22.961404 Si / 1000 Ang^3
#
#
#
# Elastic Constant Matrix: (Units=GPa)
#
#
# Indices 1 2 3 4 5 6 
#
# 1 155.0198 56.1421 9.2328 0.0000 0.0000 0.0000
# 2 56.1421 177.2115 11.6363 0.0000 0.0000 0.0000
# 3 9.2328 11.6363 40.9380 0.0000 0.0000 0.0000
# 4 0.0000 0.0000 0.0000 20.9777 0.0000 0.0000
# 5 0.0000 0.0000 0.0000 0.0000 19.9300 0.0000
# 6 0.0000 0.0000 0.0000 0.0000 0.0000 -5.4990
#
#
#
# Elastic Compliance Matrix: (Units=1/GPa)
#
#
# Indices 1 2 3 4 5 6 
#
# 1 0.007328 -0.002255 -0.001012 0.000000 0.000000 0.000000
# 2 -0.002255 0.006444 -0.001323 0.000000 0.000000 0.000000
# 3 -0.001012 -0.001323 0.025031 0.000000 0.000000 0.000000
# 4 0.000000 0.000000 0.000000 0.047670 0.000000 0.000000
# 5 0.000000 0.000000 0.000000 0.000000 0.050176 0.000000
# 6 0.000000 0.000000 0.000000 0.000000 0.000000 -0.181850
#
#
# Mechanical properties :
#
#
# Convention : Reuss Voigt Hill
#
# Bulk Modulus (GPa) = 33.75669 58.57685 46.16677
# Shear Modulus (GPa) = -191.22423 26.82560 -82.19931
#
# Velocity S-wave (km/s) = -9.13573 3.42174 -5.98971
# Velocity P-wave (km/s) = 9.82592 6.41696 5.26171
#
# Compressibility (1/GPa) = 0.02962376
#
# Stress axis : x y z
#
# Youngs Moduli (GPa) = 136.46784 155.17641 39.94973
#
# Poissons Ratio (x) = 0.34993 0.04041
# Poissons Ratio (y) = 0.30774 0.05286
# Poissons Ratio (z) = 0.13806 0.20532
#
# Static dielectric constant tensor:
#      x y z
#    x 1.930050 0.000000 0.000000 
#    y 0.000000 1.883860 0.000000 
#    z 0.000000 0.000000 1.877190 
# 
# From -- ./inp_files/849.got.cif
#   From: 2010.05.17/outbox.cif.g08.bks.cpg/sg44_1_cif.got.tgz:849.got - 2010.06.03 19:37:08.
