data_PCOD9375912
_publ_section_title
;
Structure prediction by ZEFSAII (Michael W. Deem and Ramdas Pophale) SiO2 
 PCOD9375912
Probable space group: I M M 2
;
_chemical_formula_sum "Si O2"
_cell_formula_units_Z 42
_cell_length_a 7.346456
_cell_length_b 22.598790
_cell_length_c 9.677346
_cell_angle_alpha 90.000000
_cell_angle_beta 90.000000
_cell_angle_gamma 90.000000
_cell_volume 1606.642819
_symmetry_space_group_name_H-M "I M M 2"
_symmetry_group_IT_number 44
_symmetry_cell_setting 'orthorhombic'
loop_
_space_group_symop_operation_xyz
x,y,z
-x,-y,z
-x,y,z
x,-y,z
1/2+x,1/2+y,1/2+z
1/2-x,1/2-y,1/2+z
1/2-x,1/2+y,1/2+z
1/2+x,1/2-y,1/2+z
loop_
_atom_site_type_symbol
_atom_site_label
_atom_site_fract_x
_atom_site_fract_y
_atom_site_fract_z
Si Si1 0.500000 0.500000 0.734150
Si Si2 0.215725 0.256638 0.326712
Si Si3 0.291566 0.934187 0.390869
Si Si4 0.782648 0.680189 0.588332
Si Si5 0.278746 0.064129 0.932815
Si Si6 0.720772 0.128950 0.659878
O O1 0.659225 0.448843 0.765561
O O2 0.285258 0.268931 0.480871
O O3 0.285502 0.309458 0.226665
O O4 0.000000 0.264366 0.333443
O O5 0.245094 0.196242 0.245667
O O6 0.500000 0.920772 0.348168
O O7 0.221553 0.889117 0.506845
O O8 0.297441 0.000000 0.462760
O O9 0.715862 0.619644 0.521658
O O10 0.000000 0.678293 0.579610
O O11 0.500000 0.062259 0.941425
O O12 0.232621 0.079521 0.774437
O O13 0.205773 0.000000 0.976066
O O14 0.500000 0.130763 0.653328
#
# Coordination Sequence:
#
# PCOD9375912 Si02
#       6
#     2   8   8   8   8   8
#     4   8  14  20  28  50  80 112 146 190 234 302
#     4   9  18  32  50  69 102 137 169 211 259 310
#     4   8  13  21  33  49  77 113 149 189 239 292
#     4   9  18  32  49  77 103 131 173 212 253 315
#     4   8  13  23  44  69  94 122 159 207 257 304
#     4   8  13  23  40  62  85 121 161 193 240 301
#
# _framework density 26.141466999999999
#
# number of rings (size 3 to 8) (size 9 to 14) (size 15 to 20)
#    0.571    3.048    0.000    2.857    0.000    3.048 
#    1.714    0.000    2.095    0.571    0.000    6.667 
#    0.000   38.095    0.000    0.000    0.000    0.000 
#
# Total GULP energy -117034.553685 kJ/mol
# GULP energy per Si atom -5573.073985 kJ/mol
# Density = 2.608197 g / cm^3
# Si number density = 26.141467 Si / 1000 Ang^3
#
#
#
# Elastic Constant Matrix: (Units=GPa)
#
#
# Indices 1 2 3 4 5 6 
#
# 1 107.7893 -8.6608 2.5271 -0.0003 0.0004 -0.0006
# 2 -8.6608 80.2652 65.4254 0.0003 -0.0002 0.0054
# 3 2.5271 65.4254 146.1472 -0.0016 0.0014 -0.0121
# 4 -0.0003 0.0003 -0.0016 54.4899 0.0005 -0.0027
# 5 0.0004 -0.0002 0.0014 0.0005 12.5299 0.0032
# 6 -0.0006 0.0054 -0.0121 -0.0027 0.0032 268.8257
#
#
#
# Elastic Compliance Matrix: (Units=1/GPa)
#
#
# Indices 1 2 3 4 5 6 
#
# 1 0.009446 0.001815 -0.000976 0.000000 0.000000 0.000000
# 2 0.001815 0.019966 -0.008969 0.000000 0.000001 -0.000001
# 3 -0.000976 -0.008969 0.010875 0.000000 -0.000001 0.000001
# 4 0.000000 0.000000 0.000000 0.018352 -0.000001 0.000000
# 5 0.000000 0.000001 -0.000001 -0.000001 0.079809 -0.000001
# 6 0.000000 -0.000001 0.000001 0.000000 -0.000001 0.003720
#
#
# Mechanical properties :
#
#
# Convention : Reuss Voigt Hill
#
# Bulk Modulus (GPa) = 41.62289 50.30945 45.96617
# Shear Modulus (GPa) = 30.04152 85.49643 57.76897
#
# Velocity S-wave (km/s) = 3.39365 5.72506 4.70601
# Velocity P-wave (km/s) = 5.59576 7.93653 6.86663
#
# Compressibility (1/GPa) = 0.02402524
#
# Stress axis : x y z
#
# Youngs Moduli (GPa) = 105.86460 50.08639 91.95781
#
# Poissons Ratio (x) = -0.09088 0.08972
# Poissons Ratio (y) = -0.19209 0.82480
# Poissons Ratio (z) = 0.10328 0.44924
#
# Static dielectric constant tensor:
#      x y z
#    x 2.026080 0.000000 0.000000 
#    y 0.000000 2.135950 0.000000 
#    z 0.000000 0.000000 2.085590 
# 
# From -- ./inp_files/11099.got.cif
#   From: 2010.05.17/outbox.cif.g08.bks.cpg/sg44_6_cif.got.tgz:11099.got - 2010.06.03 19:37:08.
