data_PCOD9375238
_publ_section_title
;
Structure prediction by ZEFSAII (Michael W. Deem and Ramdas Pophale) SiO2 
 PCOD9375238
Probable space group: I M M 2
;
_chemical_formula_sum "Si O2"
_cell_formula_units_Z 64
_cell_length_a 7.529987
_cell_length_b 9.879414
_cell_length_c 42.103464
_cell_angle_alpha 90.000000
_cell_angle_beta 90.000000
_cell_angle_gamma 90.000000
_cell_volume 3132.154957
_symmetry_space_group_name_H-M "I M M 2"
_symmetry_group_IT_number 44
_symmetry_cell_setting 'orthorhombic'
loop_
_space_group_symop_operation_xyz
x,y,z
-x,-y,z
-x,y,z
x,-y,z
1/2+x,1/2+y,1/2+z
1/2-x,1/2-y,1/2+z
1/2-x,1/2+y,1/2+z
1/2+x,1/2-y,1/2+z
loop_
_atom_site_type_symbol
_atom_site_label
_atom_site_fract_x
_atom_site_fract_y
_atom_site_fract_z
Si Si1 0.717746 0.155806 0.540270
Si Si2 0.787139 0.153672 0.097195
Si Si3 0.287199 0.846826 0.170049
Si Si4 0.286533 0.846236 0.911399
Si Si5 0.212010 0.154492 0.983092
Si Si6 0.711058 0.347460 0.225023
Si Si7 0.286069 0.654046 0.783477
Si Si8 0.216757 0.155249 0.355088
O O1 0.500000 0.154061 0.540202
O O2 0.776262 0.238370 0.571468
O O3 0.777081 0.241495 0.509584
O O4 0.775488 0.000000 0.539927
O O5 0.748006 0.191030 0.133566
O O6 0.000000 0.147652 0.093902
O O7 0.719560 0.000000 0.091701
O O8 0.500000 0.853099 0.173885
O O9 0.216453 0.740579 0.195625
O O10 0.218216 0.000000 0.175172
O O11 0.500000 0.850519 0.908779
O O12 0.245797 0.798939 0.947081
O O13 0.219904 0.752356 0.883030
O O14 0.219258 0.000000 0.908567
O O15 0.000000 0.146153 0.987232
O O16 0.281819 0.000000 0.986548
O O17 0.500000 0.359004 0.219917
O O18 0.783046 0.500000 0.227165
O O19 0.734757 0.261194 0.256972
O O20 0.500000 0.649464 0.784065
O O21 0.224458 0.500000 0.776278
O O22 0.226979 0.691091 0.819210
O O23 0.000000 0.158884 0.355196
O O24 0.268545 0.000000 0.360934
#
# Coordination Sequence:
#
# PCOD9375238 Si02
#       8
#     8   8   8   8   8   8   8   8
#     4   9  17  29  46  68  92 118 149 186 228 272
#     4   9  17  30  49  71  92 116 150 190 229 272
#     4   9  18  33  51  69  92 125 160 191 229 279
#     4   9  17  29  46  68  92 119 152 188 226 270
#     4   9  17  30  47  65  88 120 154 186 223 268
#     4  10  21  35  50  71 100 132 163 196 239 289
#     4   9  18  33  53  75  97 124 162 204 242 284
#     4   8  15  29  48  69  93 121 152 188 232 279
#
# _framework density 20.433218
#
# number of rings (size 3 to 8) (size 9 to 14) (size 15 to 20)
#    0.000    3.000    0.000    1.500    0.000    4.500 
#    0.000    3.750    0.000    6.000    0.000    0.000 
#    0.000    0.000    0.000    0.000    0.000    0.000 
#
# Total GULP energy -178545.545106 kJ/mol
# GULP energy per Si atom -5579.548285 kJ/mol
# Density = 2.038671 g / cm^3
# Si number density = 20.433218 Si / 1000 Ang^3
#
#
#
# Elastic Constant Matrix: (Units=GPa)
#
#
# Indices 1 2 3 4 5 6 
#
# 1 50.6620 6.5232 -0.6410 0.0000 0.0000 0.0000
# 2 6.5232 164.0917 158.5524 0.0000 0.0000 0.0000
# 3 -0.6410 158.5524 205.9500 0.0000 0.0000 0.0000
# 4 0.0000 0.0000 0.0000 34.2330 0.0000 0.0000
# 5 0.0000 0.0000 0.0000 0.0000 17.8289 0.0000
# 6 0.0000 0.0000 0.0000 0.0000 0.0000 8.7283
#
#
#
# Elastic Compliance Matrix: (Units=1/GPa)
#
#
# Indices 1 2 3 4 5 6 
#
# 1 0.020207 -0.003373 0.002660 0.000000 0.000000 0.000000
# 2 -0.003373 0.024356 -0.018762 0.000000 0.000000 0.000000
# 3 0.002660 -0.018762 0.019308 0.000000 0.000000 0.000000
# 4 0.000000 0.000000 0.000000 0.029212 0.000000 0.000000
# 5 0.000000 0.000000 0.000000 0.000000 0.056089 0.000000
# 6 0.000000 0.000000 0.000000 0.000000 0.000000 0.114569
#
#
# Mechanical properties :
#
#
# Convention : Reuss Voigt Hill
#
# Bulk Modulus (GPa) = 40.12736 83.28586 61.70661
# Shear Modulus (GPa) = 16.07731 29.24266 22.65999
#
# Velocity S-wave (km/s) = 2.80808 3.78714 3.33374
# Velocity P-wave (km/s) = 5.49497 7.74414 6.71440
#
# Compressibility (1/GPa) = 0.02492065
#
# Stress axis : x y z
#
# Youngs Moduli (GPa) = 49.48861 41.05692 51.79323
#
# Poissons Ratio (x) = 0.13850 -0.13777
# Poissons Ratio (y) = 0.16695 0.97172
# Poissons Ratio (z) = -0.13164 0.77029
#
# Static dielectric constant tensor:
#      x y z
#    x 1.787410 0.000000 0.000000 
#    y 0.000000 1.716390 0.000000 
#    z 0.000000 0.000000 1.697330 
# 
# From -- ./inp_files/27454.got.cif
#   From: 2010.05.17/outbox.cif.g08.bks.cpg/sg44_14_cif.got.tgz:27454.got - 2010.06.03 19:37:08.
