data_PCOD9375883
_publ_section_title
;
Structure prediction by ZEFSAII (Michael W. Deem and Ramdas Pophale) SiO2 
 PCOD9375883
Probable space group: I M M 2
;
_chemical_formula_sum "Si O2"
_cell_formula_units_Z 44
_cell_length_a 13.574642
_cell_length_b 17.542141
_cell_length_c 8.480750
_cell_angle_alpha 90.000000
_cell_angle_beta 90.000000
_cell_angle_gamma 90.000000
_cell_volume 2019.506444
_symmetry_space_group_name_H-M "I M M 2"
_symmetry_group_IT_number 44
_symmetry_cell_setting 'orthorhombic'
loop_
_space_group_symop_operation_xyz
x,y,z
-x,-y,z
-x,y,z
x,-y,z
1/2+x,1/2+y,1/2+z
1/2-x,1/2-y,1/2+z
1/2-x,1/2+y,1/2+z
1/2+x,1/2-y,1/2+z
loop_
_atom_site_type_symbol
_atom_site_label
_atom_site_fract_x
_atom_site_fract_y
_atom_site_fract_z
Si Si1 0.796115 0.415883 0.681520
Si Si2 0.000000 0.277835 0.148577
Si Si3 0.000000 0.745143 0.488893
Si Si4 0.691942 0.651154 0.953984
Si Si5 0.318685 0.704770 0.502208
Si Si6 0.886261 0.084954 0.751679
Si Si7 0.000000 0.642505 0.803185
O O1 0.793049 0.500000 0.610091
O O2 0.709483 0.405237 0.809894
O O3 0.771568 0.346669 0.564019
O O4 0.900667 0.404082 0.766615
O O5 0.099124 0.227662 0.129725
O O6 0.000000 0.327737 0.985263
O O7 0.000000 0.308173 0.329487
O O8 0.093651 0.799763 0.470651
O O9 0.000000 0.706118 0.661523
O O10 0.776273 0.715625 0.940288
O O11 0.690816 0.602074 0.113241
O O12 0.372172 0.652602 0.374844
O O13 0.000000 0.086212 0.695299
O O14 0.870453 0.000000 0.818062
#
# Coordination Sequence:
#
# PCOD9375883 Si02
#       7
#     8   4   4   8   8   8   4
#     4  12  26  44  66  99 139 182 227 283 356 416
#     4  12  24  41  68 109 130 170 242 288 340 401
#     4  12  24  41  68 109 130 170 242 288 340 401
#     4  12  23  41  67  96 135 176 229 284 332 411
#     4  12  23  41  67  96 135 176 229 284 332 411
#     4  11  24  42  65  97 139 180 220 280 355 416
#     4  12  25  46  72  96 141 186 228 296 339 414
#
# _framework density 21.787503000000001
#
# number of rings (size 3 to 8) (size 9 to 14) (size 15 to 20)
#    0.000    0.182    7.273    3.545    0.000    0.000 
#    0.000    0.909    0.000    1.091    0.000    0.000 
#    0.000    0.000    0.000    0.000    0.000    0.000 
#
# Total GULP energy -122797.667712 kJ/mol
# GULP energy per Si atom -5581.712169 kJ/mol
# Density = 2.173791 g / cm^3
# Si number density = 21.787503 Si / 1000 Ang^3
#
#
#
# Elastic Constant Matrix: (Units=GPa)
#
#
# Indices 1 2 3 4 5 6 
#
# 1 57.2225 32.1668 -18.3982 0.0000 0.0000 0.0000
# 2 32.1668 94.4100 11.6755 0.0000 0.0000 0.0000
# 3 -18.3982 11.6755 65.7507 0.0000 0.0000 0.0000
# 4 0.0000 0.0000 0.0000 14.4654 0.0000 0.0000
# 5 0.0000 0.0000 0.0000 0.0000 27.9962 0.0000
# 6 0.0000 0.0000 0.0000 0.0000 0.0000 18.8650
#
#
#
# Elastic Compliance Matrix: (Units=1/GPa)
#
#
# Indices 1 2 3 4 5 6 
#
# 1 0.025990 -0.009973 0.009043 0.000000 0.000000 0.000000
# 2 -0.009973 0.014657 -0.005393 0.000000 0.000000 0.000000
# 3 0.009043 -0.005393 0.018697 0.000000 0.000000 0.000000
# 4 0.000000 0.000000 0.000000 0.069130 0.000000 0.000000
# 5 0.000000 0.000000 0.000000 0.000000 0.035719 0.000000
# 6 0.000000 0.000000 0.000000 0.000000 0.000000 0.053008
#
#
# Mechanical properties :
#
#
# Convention : Reuss Voigt Hill
#
# Bulk Modulus (GPa) = 21.41464 29.80793 25.61128
# Shear Modulus (GPa) = 20.37371 25.06126 22.71749
#
# Velocity S-wave (km/s) = 3.06127 3.39523 3.23257
# Velocity P-wave (km/s) = 4.72709 5.39268 5.07082
#
# Compressibility (1/GPa) = 0.04669703
#
# Stress axis : x y z
#
# Youngs Moduli (GPa) = 38.47686 68.22605 53.48402
#
# Poissons Ratio (x) = 0.68045 -0.48367
# Poissons Ratio (y) = 0.38374 0.28846
# Poissons Ratio (z) = -0.34796 0.36797
#
# Static dielectric constant tensor:
#      x y z
#    x 1.798460 0.000000 0.000000 
#    y 0.000000 1.782220 0.000000 
#    z 0.000000 0.000000 1.847090 
# 
# From -- ./inp_files/7071.got.cif
#   From: 2010.05.17/outbox.cif.g08.bks.cpg/sg44_4_cif.got.tgz:7071.got - 2010.06.03 19:37:08.
