data_PCOD9375279
_publ_section_title
;
Structure prediction by ZEFSAII (Michael W. Deem and Ramdas Pophale) SiO2 
 PCOD9375279
Probable space group: I M M 2
;
_chemical_formula_sum "Si O2"
_cell_formula_units_Z 36
_cell_length_a 15.519890
_cell_length_b 16.308798
_cell_length_c 7.523508
_cell_angle_alpha 90.000000
_cell_angle_beta 90.000000
_cell_angle_gamma 90.000000
_cell_volume 1904.280760
_symmetry_space_group_name_H-M "I M M 2"
_symmetry_group_IT_number 44
_symmetry_cell_setting 'orthorhombic'
loop_
_space_group_symop_operation_xyz
x,y,z
-x,-y,z
-x,y,z
x,-y,z
1/2+x,1/2+y,1/2+z
1/2-x,1/2-y,1/2+z
1/2-x,1/2+y,1/2+z
1/2+x,1/2-y,1/2+z
loop_
_atom_site_type_symbol
_atom_site_label
_atom_site_fract_x
_atom_site_fract_y
_atom_site_fract_z
Si Si1 0.000000 0.154947 0.328190
Si Si2 0.500000 0.814616 0.625596
Si Si3 0.183418 0.098928 0.921085
Si Si4 0.816582 0.901072 0.330107
Si Si5 0.317544 0.099034 0.625596
Si Si6 0.000000 0.845053 0.923001
O O1 0.090861 0.127308 0.405171
O O2 0.000000 0.251978 0.292428
O O3 0.000000 0.117604 0.125596
O O4 0.587015 0.865794 0.625596
O O5 0.500000 0.751978 0.458763
O O6 0.262134 0.125463 0.797360
O O7 0.090861 0.127309 0.846021
O O8 0.182960 0.000000 0.923178
O O9 0.191564 0.128331 0.125596
O O10 0.737867 0.874537 0.453832
O O11 0.817041 0.000000 0.328014
O O12 0.321487 0.000000 0.625596
#
# Coordination Sequence:
#
# PCOD9375279 Si02
#       6
#     4   4   8   8   8   4
#     4   8  17  32  50  79 104 136 159 202 272 304
#     4  10  21  36  51  72 112 142 172 206 253 312
#     4   9  17  33  56  80 104 130 170 216 258 305
#     4   9  17  33  56  80 104 130 170 216 258 305
#     4  10  21  35  56  76  98 141 180 213 249 293
#     4   8  17  32  50  79 104 136 159 202 272 304
#
# _framework density 18.904776999999999
#
# number of rings (size 3 to 8) (size 9 to 14) (size 15 to 20)
#    0.667    2.222    0.000    1.000    0.000    5.333 
#    0.000    4.444    4.889    5.333    0.000    0.000 
#    0.000    0.000    0.000    0.000    0.000    0.000 
#
# Total GULP energy -100273.853811 kJ/mol
# GULP energy per Si atom -5570.769656 kJ/mol
# Density = 1.886175 g / cm^3
# Si number density = 18.904777 Si / 1000 Ang^3
#
#
#
# Elastic Constant Matrix: (Units=GPa)
#
#
# Indices 1 2 3 4 5 6 
#
# 1 214.1824 35.2867 71.7925 0.0000 0.0000 0.0000
# 2 35.2867 14.1058 20.5266 0.0000 0.0000 0.0000
# 3 71.7925 20.5266 88.3686 0.0000 0.0000 0.0000
# 4 0.0000 0.0000 0.0000 8.5463 0.0000 0.0000
# 5 0.0000 0.0000 0.0000 0.0000 36.9256 0.0000
# 6 0.0000 0.0000 0.0000 0.0000 0.0000 -35.6496
#
#
#
# Elastic Compliance Matrix: (Units=1/GPa)
#
#
# Indices 1 2 3 4 5 6 
#
# 1 0.008420 -0.016781 -0.002943 0.000000 0.000000 0.000000
# 2 -0.016781 0.140537 -0.019011 0.000000 0.000000 0.000000
# 3 -0.002943 -0.019011 0.018123 0.000000 0.000000 0.000000
# 4 0.000000 0.000000 0.000000 0.117009 0.000000 0.000000
# 5 0.000000 0.000000 0.000000 0.000000 0.027081 0.000000
# 6 0.000000 0.000000 0.000000 0.000000 0.000000 -0.028051
#
#
# Mechanical properties :
#
#
# Convention : Reuss Voigt Hill
#
# Bulk Modulus (GPa) = 11.15948 63.54095 37.35022
# Shear Modulus (GPa) = 12.80544 14.56786 13.68665
#
# Velocity S-wave (km/s) = 2.60545 2.77896 2.69360
# Velocity P-wave (km/s) = 3.86871 6.63181 5.42899
#
# Compressibility (1/GPa) = 0.08960987
#
# Stress axis : x y z
#
# Youngs Moduli (GPa) = 118.76552 7.11558 55.17912
#
# Poissons Ratio (x) = 0.11941 0.16237
# Poissons Ratio (y) = 1.99302 1.04902
# Poissons Ratio (z) = 0.34947 0.13527
#
# Static dielectric constant tensor:
#      x y z
#    x 1.637030 0.000000 0.000000 
#    y 0.000000 1.641450 0.000000 
#    z 0.000000 0.000000 1.707600 
# 
# From -- ./inp_files/5799.got.cif
#   From: 2010.05.17/outbox.cif.g08.bks.cpg/sg44_3_cif.got.tgz:5799.got - 2010.06.03 19:37:08.
