data_PCOD9375323
_publ_section_title
;
Structure prediction by ZEFSAII (Michael W. Deem and Ramdas Pophale) SiO2 
 PCOD9375323
Probable space group: I M M 2
;
_chemical_formula_sum "Si O2"
_cell_formula_units_Z 56
_cell_length_a 8.934710
_cell_length_b 21.273252
_cell_length_c 14.218138
_cell_angle_alpha 90.000000
_cell_angle_beta 90.000000
_cell_angle_gamma 90.000000
_cell_volume 2702.446287
_symmetry_space_group_name_H-M "I M M 2"
_symmetry_group_IT_number 44
_symmetry_cell_setting 'orthorhombic'
loop_
_space_group_symop_operation_xyz
x,y,z
-x,-y,z
-x,y,z
x,-y,z
1/2+x,1/2+y,1/2+z
1/2-x,1/2-y,1/2+z
1/2-x,1/2+y,1/2+z
1/2+x,1/2-y,1/2+z
loop_
_atom_site_type_symbol
_atom_site_label
_atom_site_fract_x
_atom_site_fract_y
_atom_site_fract_z
Si Si1 0.677789 0.899482 0.002840
Si Si2 0.821045 0.749056 0.515661
Si Si3 0.334256 0.426616 0.028013
Si Si4 0.321770 0.429685 0.308160
Si Si5 0.179798 0.569142 0.713990
Si Si6 0.330663 0.661327 0.851557
Si Si7 0.326515 0.839529 0.662290
O O1 0.500000 0.910265 0.987562
O O2 0.703203 0.824688 0.009636
O O3 0.718628 0.927259 0.103957
O O4 0.767398 0.926224 0.915298
O O5 0.768873 0.782675 0.418122
O O6 0.748335 0.780554 0.608212
O O7 0.000000 0.761309 0.520462
O O8 0.500000 0.413021 0.071628
O O9 0.316628 0.500000 0.022699
O O10 0.337134 0.395551 0.926382
O O11 0.203902 0.394453 0.086311
O O12 0.500000 0.424988 0.302744
O O13 0.279801 0.500000 0.270120
O O14 0.249223 0.370631 0.253607
O O15 0.229793 0.500000 0.750587
O O16 0.242082 0.630705 0.766068
O O17 0.000000 0.571140 0.721640
O O18 0.500000 0.678227 0.822214
O O19 0.500000 0.827493 0.679690
#
# Coordination Sequence:
#
# PCOD9375323 Si02
#       7
#     8   8   8   8   8   8   8
#     4  10  22  41  63  84 111 150 195 244 291 338
#     4   9  20  40  61  84 116 152 190 234 289 344
#     4   9  17  31  51  76 109 148 188 233 287 342
#     4  11  24  41  61  86 117 154 195 242 298 354
#     4  10  21  36  55  82 114 145 179 225 281 334
#     4   9  18  33  54  79 109 145 184 225 271 332
#     4  11  22  35  56  85 116 151 191 236 285 343
#
# _framework density 20.721965999999998
#
# number of rings (size 3 to 8) (size 9 to 14) (size 15 to 20)
#    0.000    2.143    0.000    3.857    0.000    9.143 
#    0.000    2.857    0.000    0.000    0.000    0.000 
#    0.000    0.000    0.000    0.000    0.000    0.000 
#
# Total GULP energy -156235.832872 kJ/mol
# GULP energy per Si atom -5579.851174 kJ/mol
# Density = 2.067480 g / cm^3
# Si number density = 20.721966 Si / 1000 Ang^3
#
#
#
# Elastic Constant Matrix: (Units=GPa)
#
#
# Indices 1 2 3 4 5 6 
#
# 1 52.0195 21.0013 30.6279 0.0000 0.0000 0.0000
# 2 21.0013 87.6748 13.0546 0.0000 0.0000 0.0000
# 3 30.6279 13.0546 80.6451 0.0000 0.0000 0.0000
# 4 0.0000 0.0000 0.0000 24.2180 0.0000 0.0000
# 5 0.0000 0.0000 0.0000 0.0000 34.2121 0.0000
# 6 0.0000 0.0000 0.0000 0.0000 0.0000 14.6641
#
#
#
# Elastic Compliance Matrix: (Units=1/GPa)
#
#
# Indices 1 2 3 4 5 6 
#
# 1 0.026753 -0.005016 -0.009348 0.000000 0.000000 0.000000
# 2 -0.005016 0.012628 -0.000139 0.000000 0.000000 0.000000
# 3 -0.009348 -0.000139 0.015973 0.000000 0.000000 0.000000
# 4 0.000000 0.000000 0.000000 0.041292 0.000000 0.000000
# 5 0.000000 0.000000 0.000000 0.000000 0.029229 0.000000
# 6 0.000000 0.000000 0.000000 0.000000 0.000000 0.068194
#
#
# Mechanical properties :
#
#
# Convention : Reuss Voigt Hill
#
# Bulk Modulus (GPa) = 37.95591 38.85635 38.40613
# Shear Modulus (GPa) = 21.56493 24.99589 23.28041
#
# Velocity S-wave (km/s) = 3.22946 3.47688 3.35545
# Velocity P-wave (km/s) = 5.68000 5.90849 5.79537
#
# Compressibility (1/GPa) = 0.02634636
#
# Stress axis : x y z
#
# Youngs Moduli (GPa) = 37.37918 79.18860 62.60607
#
# Poissons Ratio (x) = 0.39724 0.58526
# Poissons Ratio (y) = 0.18751 0.00871
# Poissons Ratio (z) = 0.34943 0.01101
#
# Static dielectric constant tensor:
#      x y z
#    x 1.720580 0.000000 0.000000 
#    y 0.000000 1.750120 0.000000 
#    z 0.000000 0.000000 1.761770 
# 
# From -- ./inp_files/16489.got.cif
#   From: 2010.05.17/outbox.cif.g08.bks.cpg/sg44_9_cif.got.tgz:16489.got - 2010.06.03 19:37:08.
