data_PCOD9375455
_publ_section_title
;
Structure prediction by ZEFSAII (Michael W. Deem and Ramdas Pophale) SiO2 
 PCOD9375455
Probable space group: I M M 2
;
_chemical_formula_sum "Si O2"
_cell_formula_units_Z 48
_cell_length_a 10.199708
_cell_length_b 8.755521
_cell_length_c 28.414427
_cell_angle_alpha 90.000000
_cell_angle_beta 90.000000
_cell_angle_gamma 90.000000
_cell_volume 2537.515101
_symmetry_space_group_name_H-M "I M M 2"
_symmetry_group_IT_number 44
_symmetry_cell_setting 'orthorhombic'
loop_
_space_group_symop_operation_xyz
x,y,z
-x,-y,z
-x,y,z
x,-y,z
1/2+x,1/2+y,1/2+z
1/2-x,1/2-y,1/2+z
1/2-x,1/2+y,1/2+z
1/2+x,1/2-y,1/2+z
loop_
_atom_site_type_symbol
_atom_site_label
_atom_site_fract_x
_atom_site_fract_y
_atom_site_fract_z
Si Si1 0.245208 0.178044 0.623870
Si Si2 0.744594 0.183163 0.838616
Si Si3 0.000000 0.316715 0.789189
Si Si4 0.000000 0.316886 0.679189
Si Si5 0.652045 0.185970 0.942864
Si Si6 0.000000 0.327860 0.189101
Si Si7 0.653081 0.315187 0.526492
Si Si8 0.500000 0.321881 0.785314
O O1 0.372682 0.186724 0.656904
O O2 0.284163 0.255539 0.574779
O O3 0.126397 0.256598 0.651322
O O4 0.213888 0.000000 0.615875
O O5 0.874438 0.254991 0.816884
O O6 0.709879 0.230266 0.892057
O O7 0.625699 0.239734 0.806732
O O8 0.754786 0.000000 0.837680
O O9 0.000000 0.266587 0.734142
O O10 0.000000 0.500000 0.789339
O O11 0.000000 0.500000 0.678847
O O12 0.500000 0.236882 0.948358
O O13 0.648607 0.000000 0.943716
O O14 0.752198 0.234766 0.983758
O O15 0.000000 0.204145 0.229738
O O16 0.000000 0.500000 0.210111
O O17 0.500000 0.266053 0.521954
O O18 0.652537 0.500000 0.527080
O O19 0.500000 0.500000 0.797216
#
# Coordination Sequence:
#
# PCOD9375455 Si02
#       8
#     8   8   4   4   8   4   8   4
#     4  11  23  41  63  90 124 159 202 256 309 366
#     4  11  22  40  66  92 123 166 212 255 303 369
#     4  11  25  43  62  93 130 164 205 260 318 369
#     4  11  25  43  62  87 122 165 209 251 306 371
#     4   9  19  37  62  92 122 157 208 257 295 355
#     4  10  22  40  63  88 119 161 207 249 301 372
#     4  10  21  37  62  93 124 160 205 253 304 364
#     4  12  24  38  61  92 127 160 201 260 315 366
#
# _framework density 18.916143999999999
#
# number of rings (size 3 to 8) (size 9 to 14) (size 15 to 20)
#    0.000    1.500    1.667    3.250    2.333    5.333 
#    0.000    1.667    0.000    0.000    0.000    0.000 
#    0.000    0.000    0.000    0.000    0.000    0.000 
#
# Total GULP energy -134090.079991 kJ/mol
# GULP energy per Si atom -5587.086666 kJ/mol
# Density = 1.887309 g / cm^3
# Si number density = 18.916144 Si / 1000 Ang^3
#
#
#
# Elastic Constant Matrix: (Units=GPa)
#
#
# Indices 1 2 3 4 5 6 
#
# 1 189.9367 45.2658 86.5708 0.0000 0.0000 0.0000
# 2 45.2658 48.5028 39.7338 0.0000 0.0000 0.0000
# 3 86.5708 39.7338 146.0424 0.0000 0.0000 0.0000
# 4 0.0000 0.0000 0.0000 27.7368 0.0000 0.0000
# 5 0.0000 0.0000 0.0000 0.0000 36.4579 0.0000
# 6 0.0000 0.0000 0.0000 0.0000 0.0000 27.5354
#
#
#
# Elastic Compliance Matrix: (Units=1/GPa)
#
#
# Indices 1 2 3 4 5 6 
#
# 1 0.007929 -0.004568 -0.003458 0.000000 0.000000 0.000000
# 2 -0.004568 0.029162 -0.005226 0.000000 0.000000 0.000000
# 3 -0.003458 -0.005226 0.010319 0.000000 0.000000 0.000000
# 4 0.000000 0.000000 0.000000 0.036053 0.000000 0.000000
# 5 0.000000 0.000000 0.000000 0.000000 0.027429 0.000000
# 6 0.000000 0.000000 0.000000 0.000000 0.000000 0.036317
#
#
# Mechanical properties :
#
#
# Convention : Reuss Voigt Hill
#
# Bulk Modulus (GPa) = 47.83196 80.84694 64.33945
# Shear Modulus (GPa) = 27.67303 32.54013 30.10658
#
# Velocity S-wave (km/s) = 3.82898 4.15207 3.99379
# Velocity P-wave (km/s) = 6.69995 8.11287 7.44002
#
# Compressibility (1/GPa) = 0.02090652
#
# Stress axis : x y z
#
# Youngs Moduli (GPa) = 126.11213 34.29157 96.90949
#
# Poissons Ratio (x) = 0.15663 0.33508
# Poissons Ratio (y) = 0.57604 0.50649
# Poissons Ratio (z) = 0.43605 0.17922
#
# Static dielectric constant tensor:
#      x y z
#    x 1.648130 0.000000 0.000000 
#    y 0.000000 1.643770 0.000000 
#    z 0.000000 0.000000 1.634930 
# 
# From -- ./inp_files/27031.got.cif
#   From: 2010.05.17/outbox.cif.g08.bks.cpg/sg44_14_cif.got.tgz:27031.got - 2010.06.03 19:37:08.
