data_PCOD9375481
_publ_section_title
;
Structure prediction by ZEFSAII (Michael W. Deem and Ramdas Pophale) SiO2 
 PCOD9375481
Probable space group: I M M 2
;
_chemical_formula_sum "Si O2"
_cell_formula_units_Z 58
_cell_length_a 15.430078
_cell_length_b 7.840216
_cell_length_c 24.312430
_cell_angle_alpha 90.000000
_cell_angle_beta 90.000000
_cell_angle_gamma 90.000000
_cell_volume 2941.199730
_symmetry_space_group_name_H-M "I M M 2"
_symmetry_group_IT_number 44
_symmetry_cell_setting 'orthorhombic'
loop_
_space_group_symop_operation_xyz
x,y,z
-x,-y,z
-x,y,z
x,-y,z
1/2+x,1/2+y,1/2+z
1/2-x,1/2-y,1/2+z
1/2-x,1/2+y,1/2+z
1/2+x,1/2-y,1/2+z
loop_
_atom_site_type_symbol
_atom_site_label
_atom_site_fract_x
_atom_site_fract_y
_atom_site_fract_z
Si Si1 0.402951 0.204490 0.391040
Si Si2 0.901314 0.294032 0.420983
Si Si3 0.145082 0.697166 0.215754
Si Si4 0.000000 0.000000 0.207355
Si Si5 0.600566 0.793649 0.515613
Si Si6 0.733955 0.694030 0.609950
Si Si7 0.766890 0.703730 0.330174
Si Si8 0.098111 0.203069 0.546049
O O1 0.500000 0.267557 0.378001
O O2 0.379683 0.263903 0.453095
O O3 0.329495 0.246889 0.347578
O O4 0.407591 0.000000 0.394725
O O5 0.902344 0.500000 0.418579
O O6 0.834348 0.227419 0.375834
O O7 0.877270 0.244099 0.482964
O O8 0.000000 0.234285 0.410444
O O9 0.112067 0.500000 0.224006
O O10 0.204215 0.695234 0.161410
O O11 0.200944 0.746796 0.269485
O O12 0.074451 0.845661 0.207926
O O13 0.500000 0.748355 0.527534
O O14 0.666354 0.722276 0.560092
O O15 0.606462 0.000000 0.517498
O O16 0.728983 0.500000 0.628116
O O17 0.829271 0.729003 0.586681
O O18 0.770733 0.500000 0.333873
O O19 0.000000 0.269616 0.554682
O O20 0.096077 0.000000 0.551568
#
# Coordination Sequence:
#
# PCOD9375481 Si02
#       8
#     8   8   8   2   8   8   8   8
#     4   9  19  36  58  85 118 157 202 253 309 368
#     4   9  18  34  56  86 121 156 196 242 304 376
#     4  11  26  46  66  93 130 165 206 261 306 365
#     4  12  26  48  68  98 122 164 222 244 312 372
#     4   9  19  35  57  87 121 160 200 246 313 371
#     4  12  24  39  59  88 121 160 212 255 306 376
#     4  10  22  38  59  86 119 160 202 249 311 365
#     4  10  21  38  59  87 118 157 203 254 317 373
#
# _framework density 19.719843999999998
#
# number of rings (size 3 to 8) (size 9 to 14) (size 15 to 20)
#    0.000    1.931    0.690    3.517    2.897    4.690 
#    0.000    2.069    0.000    0.828    0.000    0.000 
#    0.000    0.000    0.000    0.000    0.000    0.000 
#
# Total GULP energy -161649.853330 kJ/mol
# GULP energy per Si atom -5574.132873 kJ/mol
# Density = 1.967496 g / cm^3
# Si number density = 19.719844 Si / 1000 Ang^3
#
#
#
# Elastic Constant Matrix: (Units=GPa)
#
#
# Indices 1 2 3 4 5 6 
#
# 1 116.7999 24.1203 88.8356 0.0000 0.0000 0.0000
# 2 24.1203 66.9892 21.6340 0.0000 0.0000 0.0000
# 3 88.8356 21.6340 106.6330 0.0000 0.0000 0.0000
# 4 0.0000 0.0000 0.0000 15.8031 0.0000 0.0000
# 5 0.0000 0.0000 0.0000 0.0000 -28.4226 0.0000
# 6 0.0000 0.0000 0.0000 0.0000 0.0000 16.4539
#
#
#
# Elastic Compliance Matrix: (Units=1/GPa)
#
#
# Indices 1 2 3 4 5 6 
#
# 1 0.023698 -0.002308 -0.019275 0.000000 0.000000 0.000000
# 2 -0.002308 0.016199 -0.001364 0.000000 0.000000 0.000000
# 3 -0.019275 -0.001364 0.025712 0.000000 0.000000 0.000000
# 4 0.000000 0.000000 0.000000 0.063279 0.000000 0.000000
# 5 0.000000 0.000000 0.000000 0.000000 -0.035183 0.000000
# 6 0.000000 0.000000 0.000000 0.000000 0.000000 0.060776
#
#
# Mechanical properties :
#
#
# Convention : Reuss Voigt Hill
#
# Bulk Modulus (GPa) = 50.71795 62.17800 56.44797
# Shear Modulus (GPa) = 24.16089 11.15568 17.65828
#
# Velocity S-wave (km/s) = 3.50409 2.38104 2.99567
# Velocity P-wave (km/s) = 6.49204 6.25766 6.37593
#
# Compressibility (1/GPa) = 0.01971689
#
# Stress axis : x y z
#
# Youngs Moduli (GPa) = 42.19743 61.73129 38.89209
#
# Poissons Ratio (x) = 0.14249 0.74963
# Poissons Ratio (y) = 0.09740 0.05303
# Poissons Ratio (z) = 0.81334 0.08418
#
# Static dielectric constant tensor:
#      x y z
#    x 1.721290 0.000000 0.000000 
#    y 0.000000 1.712130 0.000000 
#    z 0.000000 0.000000 1.672030 
# 
# From -- ./inp_files/25042.got.cif
#   From: 2010.05.17/outbox.cif.g08.bks.cpg/sg44_13_cif.got.tgz:25042.got - 2010.06.03 19:37:08.
