data_PCOD9375745
_publ_section_title
;
Structure prediction by ZEFSAII (Michael W. Deem and Ramdas Pophale) SiO2 
 PCOD9375745
Probable space group: I M M 2
;
_chemical_formula_sum "Si O2"
_cell_formula_units_Z 56
_cell_length_a 13.410137
_cell_length_b 17.664891
_cell_length_c 11.453116
_cell_angle_alpha 90.000000
_cell_angle_beta 90.000000
_cell_angle_gamma 90.000000
_cell_volume 2713.112711
_symmetry_space_group_name_H-M "I M M 2"
_symmetry_group_IT_number 44
_symmetry_cell_setting 'orthorhombic'
loop_
_space_group_symop_operation_xyz
x,y,z
-x,-y,z
-x,y,z
x,-y,z
1/2+x,1/2+y,1/2+z
1/2-x,1/2-y,1/2+z
1/2-x,1/2+y,1/2+z
1/2+x,1/2-y,1/2+z
loop_
_atom_site_type_symbol
_atom_site_label
_atom_site_fract_x
_atom_site_fract_y
_atom_site_fract_z
Si Si1 0.119889 0.275695 0.588610
Si Si2 0.250000 0.655587 0.966518
Si Si3 0.119992 0.087735 0.003772
Si Si4 0.119992 0.587735 0.429264
Si Si5 0.380111 0.275695 0.344427
Si Si6 0.114605 0.090825 0.265958
Si Si7 0.114605 0.409175 0.167078
O O1 0.161424 0.210101 0.507318
O O2 0.152295 0.355889 0.532514
O O3 0.155369 0.250000 0.716518
O O4 0.000000 0.276515 0.590853
O O5 0.161424 0.710101 0.925719
O O6 0.301172 0.610354 0.860576
O O7 0.198828 0.610354 0.072460
O O8 0.142417 0.117022 0.134839
O O9 0.000000 0.087209 0.000207
O O10 0.149695 0.000000 0.989235
O O11 0.152295 0.144110 0.900523
O O12 0.149695 0.500000 0.443801
O O13 0.142417 0.617022 0.298198
O O14 0.000000 0.587209 0.432829
O O15 0.500000 0.276515 0.342185
O O16 0.000000 0.116997 0.293647
O O17 0.109164 0.000000 0.258154
O O18 0.109164 0.500000 0.174883
O O19 0.000000 0.383003 0.139390
#
# Coordination Sequence:
#
# PCOD9375745 Si02
#       7
#     8   8   8   8   8   8   8
#     4  10  23  40  57  85 124 157 196 249 302 357
#     4  12  23  34  59  84 122 160 200 242 301 364
#     4   8  16  36  64  86 109 148 198 248 297 350
#     4   8  16  36  64  86 109 148 198 248 297 350
#     4  10  23  40  57  85 124 157 196 249 302 357
#     4   9  19  37  61  89 119 154 201 252 298 353
#     4   9  19  37  61  89 119 154 201 252 298 353
#
# _framework density 20.640498999999998
#
# number of rings (size 3 to 8) (size 9 to 14) (size 15 to 20)
#    0.000    2.571    0.000    3.000    4.000    0.000 
#    0.000    7.857    0.000    6.857    0.000    0.000 
#    0.000    0.000    0.000    0.000    0.000    0.000 
#
# Total GULP energy -156094.217493 kJ/mol
# GULP energy per Si atom -5574.793482 kJ/mol
# Density = 2.059352 g / cm^3
# Si number density = 20.640499 Si / 1000 Ang^3
#
#
#
# Elastic Constant Matrix: (Units=GPa)
#
#
# Indices 1 2 3 4 5 6 
#
# 1 89.1483 17.6184 45.6690 0.0000 0.0000 0.0000
# 2 17.6184 68.2919 73.3238 0.0000 0.0000 0.0000
# 3 45.6690 73.3238 142.0615 0.0000 0.0000 0.0000
# 4 0.0000 0.0000 0.0000 40.3920 0.0000 0.0000
# 5 0.0000 0.0000 0.0000 0.0000 38.4320 0.0000
# 6 0.0000 0.0000 0.0000 0.0000 0.0000 63.0498
#
#
#
# Elastic Compliance Matrix: (Units=1/GPa)
#
#
# Indices 1 2 3 4 5 6 
#
# 1 0.013642 0.002667 -0.005762 0.000000 0.000000 0.000000
# 2 0.002667 0.033366 -0.018079 0.000000 0.000000 0.000000
# 3 -0.005762 -0.018079 0.018223 0.000000 0.000000 0.000000
# 4 0.000000 0.000000 0.000000 0.024757 0.000000 0.000000
# 5 0.000000 0.000000 0.000000 0.000000 0.026020 0.000000
# 6 0.000000 0.000000 0.000000 0.000000 0.000000 0.015860
#
#
# Mechanical properties :
#
#
# Convention : Reuss Voigt Hill
#
# Bulk Modulus (GPa) = 43.70028 63.63601 53.66814
# Shear Modulus (GPa) = 27.49594 39.23411 33.36503
#
# Velocity S-wave (km/s) = 3.65380 4.36458 4.02491
# Velocity P-wave (km/s) = 6.24647 7.50313 6.90346
#
# Compressibility (1/GPa) = 0.02288315
#
# Stress axis : x y z
#
# Youngs Moduli (GPa) = 73.30283 29.97047 54.87550
#
# Poissons Ratio (x) = -0.07995 0.31621
# Poissons Ratio (y) = -0.19553 0.99210
# Poissons Ratio (z) = 0.42240 0.54184
#
# Static dielectric constant tensor:
#      x y z
#    x 1.772870 0.000000 0.000000 
#    y 0.000000 1.720910 0.000000 
#    z 0.000000 0.000000 1.830440 
# 
# From -- ./inp_files/13248.got.cif
#   From: 2010.05.17/outbox.cif.g08.bks.cpg/sg44_7_cif.got.tgz:13248.got - 2010.06.03 19:37:08.
