data_PCOD9375432
_publ_section_title
;
Structure prediction by ZEFSAII (Michael W. Deem and Ramdas Pophale) SiO2 
 PCOD9375432
Probable space group: I M M 2
;
_chemical_formula_sum "Si O2"
_cell_formula_units_Z 48
_cell_length_a 9.117875
_cell_length_b 7.597372
_cell_length_c 35.672582
_cell_angle_alpha 90.000000
_cell_angle_beta 90.000000
_cell_angle_gamma 90.000000
_cell_volume 2471.107113
_symmetry_space_group_name_H-M "I M M 2"
_symmetry_group_IT_number 44
_symmetry_cell_setting 'orthorhombic'
loop_
_space_group_symop_operation_xyz
x,y,z
-x,-y,z
-x,y,z
x,-y,z
1/2+x,1/2+y,1/2+z
1/2-x,1/2-y,1/2+z
1/2-x,1/2+y,1/2+z
1/2+x,1/2-y,1/2+z
loop_
_atom_site_type_symbol
_atom_site_label
_atom_site_fract_x
_atom_site_fract_y
_atom_site_fract_z
Si Si1 0.329250 0.215011 0.278330
Si Si2 0.674304 0.789770 0.429921
Si Si3 0.676006 0.000000 0.981058
Si Si4 0.173034 0.303652 0.119122
Si Si5 0.172225 0.711854 0.695714
Si Si6 0.678140 0.500000 0.562201
Si Si7 0.167293 0.214252 0.352961
O O1 0.500000 0.265851 0.282540
O O2 0.275640 0.270661 0.237009
O O3 0.235471 0.275389 0.313675
O O4 0.327196 0.000000 0.278289
O O5 0.500000 0.758583 0.432593
O O6 0.760677 0.670616 0.459419
O O7 0.733282 0.740276 0.388583
O O8 0.699541 0.000000 0.435200
O O9 0.500000 0.000000 0.980722
O O10 0.740768 0.000000 0.022858
O O11 0.196528 0.500000 0.104942
O O12 0.248388 0.283203 0.159297
O O13 0.220752 0.165700 0.087929
O O14 0.000000 0.274536 0.125078
O O15 0.186160 0.500000 0.694420
O O16 0.000000 0.754698 0.693739
O O17 0.500000 0.500000 0.556661
O O18 0.000000 0.273622 0.358019
O O19 0.165479 0.000000 0.351521
#
# Coordination Sequence:
#
# PCOD9375432 Si02
#       7
#     8   8   4   8   8   4   8
#     4   8  14  25  43  71 107 149 195 240 284 340
#     4  10  21  39  64  90 119 160 203 242 291 357
#     4  12  26  42  64  94 126 154 190 248 306 360
#     4  10  21  37  59  85 112 147 190 235 286 345
#     4   9  17  30  51  79 112 150 194 240 289 344
#     4  10  22  42  62  84 116 152 192 238 290 356
#     4   9  16  27  47  79 116 152 194 244 295 344
#
# _framework density 19.424491
#
# number of rings (size 3 to 8) (size 9 to 14) (size 15 to 20)
#    0.000    2.500    0.833    2.750    0.000    5.333 
#    0.000    3.333    1.833    0.000    0.000    0.000 
#    0.000    0.000    0.000    0.000    0.000    0.000 
#
# Total GULP energy -133979.514763 kJ/mol
# GULP energy per Si atom -5582.479782 kJ/mol
# Density = 1.938028 g / cm^3
# Si number density = 19.424491 Si / 1000 Ang^3
#
#
#
# Elastic Constant Matrix: (Units=GPa)
#
#
# Indices 1 2 3 4 5 6 
#
# 1 90.4863 50.6320 76.9714 0.0000 0.0000 0.0000
# 2 50.6320 45.4015 56.5093 0.0000 0.0000 0.0000
# 3 76.9714 56.5093 176.9167 0.0000 0.0000 0.0000
# 4 0.0000 0.0000 0.0000 -61.3676 0.0000 0.0000
# 5 0.0000 0.0000 0.0000 0.0000 36.4480 0.0000
# 6 0.0000 0.0000 0.0000 0.0000 0.0000 14.1071
#
#
#
# Elastic Compliance Matrix: (Units=1/GPa)
#
#
# Indices 1 2 3 4 5 6 
#
# 1 0.031061 -0.029579 -0.004066 0.000000 0.000000 0.000000
# 2 -0.029579 0.064728 -0.007806 0.000000 0.000000 0.000000
# 3 -0.004066 -0.007806 0.009915 0.000000 0.000000 0.000000
# 4 0.000000 0.000000 0.000000 -0.016295 0.000000 0.000000
# 5 0.000000 0.000000 0.000000 0.000000 0.027436 0.000000
# 6 0.000000 0.000000 0.000000 0.000000 0.000000 0.070886
#
#
# Mechanical properties :
#
#
# Convention : Reuss Voigt Hill
#
# Bulk Modulus (GPa) = 43.85544 75.66998 59.76271
# Shear Modulus (GPa) = 17.97058 6.41695 12.19377
#
# Velocity S-wave (km/s) = 3.04493 1.81953 2.50822
# Velocity P-wave (km/s) = 5.91511 6.59203 6.26272
#
# Compressibility (1/GPa) = 0.02280219
#
# Stress axis : x y z
#
# Youngs Moduli (GPa) = 32.19479 15.44937 100.86048
#
# Poissons Ratio (x) = 0.45697 0.41010
# Poissons Ratio (y) = 0.95228 0.78731
# Poissons Ratio (z) = 0.13090 0.12060
#
# Static dielectric constant tensor:
#      x y z
#    x 1.651330 0.000000 0.000000 
#    y 0.000000 1.724550 0.000000 
#    z 0.000000 0.000000 1.647270 
# 
# From -- ./inp_files/26983.got.cif
#   From: 2010.05.17/outbox.cif.g08.bks.cpg/sg44_14_cif.got.tgz:26983.got - 2010.06.03 19:37:08.
