data_PCOD9375054
_publ_section_title
;
Structure prediction by ZEFSAII (Michael W. Deem and Ramdas Pophale) SiO2 
 PCOD9375054
Probable space group: I M M 2
;
_chemical_formula_sum "Si O2"
_cell_formula_units_Z 64
_cell_length_a 31.971347
_cell_length_b 7.753486
_cell_length_c 12.160170
_cell_angle_alpha 90.000000
_cell_angle_beta 90.000000
_cell_angle_gamma 90.000000
_cell_volume 3014.377140
_symmetry_space_group_name_H-M "I M M 2"
_symmetry_group_IT_number 44
_symmetry_cell_setting 'orthorhombic'
loop_
_space_group_symop_operation_xyz
x,y,z
-x,-y,z
-x,y,z
x,-y,z
1/2+x,1/2+y,1/2+z
1/2-x,1/2-y,1/2+z
1/2-x,1/2+y,1/2+z
1/2+x,1/2-y,1/2+z
loop_
_atom_site_type_symbol
_atom_site_label
_atom_site_fract_x
_atom_site_fract_y
_atom_site_fract_z
Si Si1 0.128885 0.801596 0.318440
Si Si2 0.333347 0.289975 0.175640
Si Si3 0.804144 0.797977 0.912323
Si Si4 0.375883 0.195124 0.574749
Si Si5 0.708711 0.290583 0.949541
Si Si6 0.570050 0.709925 0.176131
Si Si7 0.953755 0.791412 0.920297
Si Si8 0.545204 0.711346 0.934969
O O1 0.126229 0.800340 0.187292
O O2 0.172892 0.730342 0.363852
O O3 0.086478 0.726426 0.371185
O O4 0.129435 0.000000 0.357877
O O5 0.332488 0.500000 0.175876
O O6 0.315497 0.229054 0.291580
O O7 0.381554 0.239078 0.166761
O O8 0.307335 0.236319 0.069768
O O9 0.755018 0.777289 0.929808
O O10 0.815321 0.000000 0.914547
O O11 0.833679 0.714976 0.003993
O O12 0.415244 0.237828 0.496843
O O13 0.380124 0.000000 0.612294
O O14 0.711701 0.500000 0.945544
O O15 0.567965 0.500000 0.178336
O O16 0.552841 0.768184 0.294054
O O17 0.548318 0.762745 0.063095
O O18 0.000000 0.735903 0.958475
O O19 0.953291 0.000000 0.918655
O O20 0.500000 0.766426 0.889816
O O21 0.545564 0.500000 0.931315
#
# Coordination Sequence:
#
# PCOD9375054 Si02
#       8
#     8   8   8   8   8   8   8   8
#     4  10  21  38  59  84 119 157 197 244 291 345
#     4   9  17  33  59  85 116 151 183 233 295 350
#     4  11  23  40  62  88 118 153 195 242 293 351
#     4  12  26  42  59  81 116 160 203 247 296 344
#     4  10  21  38  60  89 121 154 191 238 298 356
#     4   9  14  28  55  89 121 146 178 229 290 346
#     4  10  20  36  62  92 119 151 193 240 292 354
#     4   9  16  28  53  89 121 149 186 233 286 343
#
# _framework density 21.231584999999999
#
# number of rings (size 3 to 8) (size 9 to 14) (size 15 to 20)
#    0.000    2.000    2.500    1.875    1.750    2.750 
#    0.000    1.875    0.000    0.750    0.000    0.000 
#    0.000    0.000    0.000    0.000    0.000    0.000 
#
# Total GULP energy -178694.655284 kJ/mol
# GULP energy per Si atom -5584.207978 kJ/mol
# Density = 2.118326 g / cm^3
# Si number density = 21.231585 Si / 1000 Ang^3
#
#
#
# Elastic Constant Matrix: (Units=GPa)
#
#
# Indices 1 2 3 4 5 6 
#
# 1 168.0795 -9.2661 53.5131 0.0000 0.0000 0.0000
# 2 -9.2661 32.1018 -13.9857 0.0000 0.0000 0.0000
# 3 53.5131 -13.9857 101.2922 0.0000 0.0000 0.0000
# 4 0.0000 0.0000 0.0000 -10.5114 0.0000 0.0000
# 5 0.0000 0.0000 0.0000 0.0000 2987.4621 0.0000
# 6 0.0000 0.0000 0.0000 0.0000 0.0000 17.7548
#
#
#
# Elastic Compliance Matrix: (Units=1/GPa)
#
#
# Indices 1 2 3 4 5 6 
#
# 1 0.007159 0.000445 -0.003720 0.000000 0.000000 0.000000
# 2 0.000445 0.033172 0.004345 0.000000 0.000000 0.000000
# 3 -0.003720 0.004345 0.012438 0.000000 0.000000 0.000000
# 4 0.000000 0.000000 0.000000 -0.095134 0.000000 0.000000
# 5 0.000000 0.000000 0.000000 0.000000 0.000335 0.000000
# 6 0.000000 0.000000 0.000000 0.000000 0.000000 0.056323
#
#
# Mechanical properties :
#
#
# Convention : Reuss Voigt Hill
#
# Bulk Modulus (GPa) = 18.21207 40.22178 29.21693
# Shear Modulus (GPa) = 164.17619 617.02192 390.59905
#
# Velocity S-wave (km/s) = 8.80308 17.06593 13.57830
# Velocity P-wave (km/s) = 10.57933 20.18201 16.11266
#
# Compressibility (1/GPa) = 0.05490864
#
# Stress axis : x y z
#
# Youngs Moduli (GPa) = 139.69156 30.14558 80.39976
#
# Poissons Ratio (x) = -0.01343 0.29912
# Poissons Ratio (y) = -0.06223 -0.34933
# Poissons Ratio (z) = 0.51971 -0.13098
#
# Static dielectric constant tensor:
#      x y z
#    x 1.643940 0.000000 0.000000 
#    y 0.000000 1.808560 0.000000 
#    z 0.000000 0.000000 1.735870 
# 
# From -- ./inp_files/15066.got.cif
#   From: 2010.05.17/outbox.cif.g08.bks.cpg/sg44_8_cif.got.tgz:15066.got - 2010.06.03 19:37:08.
