data_PCOD9375680
_publ_section_title
;
Structure prediction by ZEFSAII (Michael W. Deem and Ramdas Pophale) SiO2 
 PCOD9375680
Probable space group: I M M 2
;
_chemical_formula_sum "Si O2"
_cell_formula_units_Z 48
_cell_length_a 8.494895
_cell_length_b 14.235517
_cell_length_c 19.093581
_cell_angle_alpha 90.000000
_cell_angle_beta 90.000000
_cell_angle_gamma 90.000000
_cell_volume 2308.971899
_symmetry_space_group_name_H-M "I M M 2"
_symmetry_group_IT_number 44
_symmetry_cell_setting 'orthorhombic'
loop_
_space_group_symop_operation_xyz
x,y,z
-x,-y,z
-x,y,z
x,-y,z
1/2+x,1/2+y,1/2+z
1/2-x,1/2-y,1/2+z
1/2-x,1/2+y,1/2+z
1/2+x,1/2-y,1/2+z
loop_
_atom_site_type_symbol
_atom_site_label
_atom_site_fract_x
_atom_site_fract_y
_atom_site_fract_z
Si Si1 0.309204 0.608833 0.714090
Si Si2 0.820376 0.744687 0.322370
Si Si3 0.811495 0.694224 0.569102
Si Si4 0.683639 0.601845 0.055310
Si Si5 0.176319 0.893097 0.723737
Si Si6 0.187225 0.896083 0.935078
O O1 0.500000 0.612383 0.713600
O O2 0.260286 0.500000 0.710936
O O3 0.257070 0.660478 0.785988
O O4 0.250107 0.663894 0.645259
O O5 0.806069 0.671627 0.257822
O O6 0.735751 0.688724 0.384143
O O7 0.000000 0.760315 0.344148
O O8 0.748105 0.795319 0.540409
O O9 0.763072 0.619800 0.510830
O O10 0.000000 0.702207 0.574070
O O11 0.500000 0.601296 0.032452
O O12 0.752161 0.500000 0.033422
O O13 0.683593 0.603545 0.140090
O O14 0.000000 0.858362 0.743210
O O15 0.189199 0.000000 0.748342
O O16 0.000000 0.895591 0.941970
O O17 0.235552 0.000000 0.908771
#
# Coordination Sequence:
#
# PCOD9375680 Si02
#       6
#     8   8   8   8   8   8
#     4  10  22  40  60  84 118 158 195 235 293 358
#     4  11  22  36  57  85 114 146 192 246 289 334
#     4  11  21  36  62  92 120 152 197 247 287 335
#     4   8  15  29  51  81 115 149 184 223 275 339
#     4   9  16  29  51  78 111 148 181 218 275 342
#     4  11  25  43  61  82 116 161 197 233 295 364
#
# _framework density 20.788473
#
# number of rings (size 3 to 8) (size 9 to 14) (size 15 to 20)
#    0.000    2.000    1.667    3.500    0.000    6.667 
#    0.000    0.833    0.000    7.000    0.000    0.000 
#    0.000    0.000    0.000    0.000    0.000    0.000 
#
# Total GULP energy -133794.242681 kJ/mol
# GULP energy per Si atom -5574.760112 kJ/mol
# Density = 2.074116 g / cm^3
# Si number density = 20.788473 Si / 1000 Ang^3
#
#
#
# Elastic Constant Matrix: (Units=GPa)
#
#
# Indices 1 2 3 4 5 6 
#
# 1 25.0347 23.0590 13.6946 0.0000 0.0000 0.0000
# 2 23.0590 137.8537 31.5231 0.0000 0.0000 0.0000
# 3 13.6946 31.5231 65.0723 0.0000 0.0000 0.0000
# 4 0.0000 0.0000 0.0000 20.2755 0.0000 0.0000
# 5 0.0000 0.0000 0.0000 0.0000 24.5507 0.0000
# 6 0.0000 0.0000 0.0000 0.0000 0.0000 14.7275
#
#
#
# Elastic Compliance Matrix: (Units=1/GPa)
#
#
# Indices 1 2 3 4 5 6 
#
# 1 0.050121 -0.006716 -0.007295 0.000000 0.000000 0.000000
# 2 -0.006716 0.009058 -0.002974 0.000000 0.000000 0.000000
# 3 -0.007295 -0.002974 0.018344 0.000000 0.000000 0.000000
# 4 0.000000 0.000000 0.000000 0.049321 0.000000 0.000000
# 5 0.000000 0.000000 0.000000 0.000000 0.040732 0.000000
# 6 0.000000 0.000000 0.000000 0.000000 0.000000 0.067900
#
#
# Mechanical properties :
#
#
# Convention : Reuss Voigt Hill
#
# Bulk Modulus (GPa) = 22.96094 40.50155 31.73125
# Shear Modulus (GPa) = 17.60801 22.55635 20.08218
#
# Velocity S-wave (km/s) = 2.91350 3.29757 3.11147
# Velocity P-wave (km/s) = 4.73149 5.83298 5.31087
#
# Compressibility (1/GPa) = 0.04355222
#
# Stress axis : x y z
#
# Youngs Moduli (GPa) = 19.95185 110.40476 54.51493
#
# Poissons Ratio (x) = 0.74144 0.39767
# Poissons Ratio (y) = 0.13399 0.16215
# Poissons Ratio (z) = 0.14554 0.32839
#
# Static dielectric constant tensor:
#      x y z
#    x 1.721620 0.000000 0.000000 
#    y 0.000000 1.819490 0.000000 
#    z 0.000000 0.000000 1.735820 
# 
# From -- ./inp_files/20316.got.cif
#   From: 2010.05.17/outbox.cif.g08.bks.cpg/sg44_11_cif.got.tgz:20316.got - 2010.06.03 19:37:08.
