data_PCOD9375960
_publ_section_title
;
Structure prediction by ZEFSAII (Michael W. Deem and Ramdas Pophale) SiO2 
 PCOD9375960
Probable space group: I M M 2
;
_chemical_formula_sum "Si O2"
_cell_formula_units_Z 32
_cell_length_a 30.000000
_cell_length_b 9.000000
_cell_length_c 15.000000
_cell_angle_alpha 90.000000
_cell_angle_beta 90.000000
_cell_angle_gamma 90.000000
_cell_volume 4050.000000
_symmetry_space_group_name_H-M "I M M 2"
_symmetry_group_IT_number 44
_symmetry_cell_setting 'orthorhombic'
loop_
_space_group_symop_operation_xyz
x,y,z
-x,-y,z
-x,y,z
x,-y,z
1/2+x,1/2+y,1/2+z
1/2-x,1/2-y,1/2+z
1/2-x,1/2+y,1/2+z
1/2+x,1/2-y,1/2+z
loop_
_atom_site_type_symbol
_atom_site_label
_atom_site_fract_x
_atom_site_fract_y
_atom_site_fract_z
Si Si1 0.225015 0.324941 0.745250
Si Si2 0.947455 0.824910 0.352855
Si Si3 0.949949 0.821666 0.148239
Si Si4 0.184398 0.668135 0.253237
Si Si5 0.710314 0.818723 0.446081
Si Si6 0.630698 0.172274 0.569200
Si Si7 0.868269 0.672646 0.438794
Si Si8 0.297205 0.677592 0.060367
O O1 0.216539 0.500000 0.737373
O O2 0.277531 0.289867 0.746110
O O3 0.209626 0.272445 0.843204
O O4 0.205884 0.242145 0.659493
O O5 0.939418 0.775212 0.250340
O O6 0.917253 0.733978 0.419987
O O7 0.000000 0.809562 0.369166
O O8 0.936085 0.000000 0.358225
O O9 0.914471 0.761082 0.079525
O O10 0.000000 0.771409 0.128217
O O11 0.949427 0.000000 0.149091
O O12 0.204111 0.500000 0.253599
O O13 0.154177 0.677627 0.165901
O O14 0.157145 0.687259 0.343852
O O15 0.666518 0.769680 0.498716
O O16 0.754413 0.771512 0.500765
O O17 0.711118 0.000000 0.447375
O O18 0.621377 0.000000 0.549017
O O19 0.868514 0.500000 0.463355
O O20 0.840896 0.765580 0.510388
O O21 0.295924 0.500000 0.063655
#
# Coordination Sequence:
#
# PCOD9375960 Si02
#       8
#     8   8   8   8   8   8   8   8
#     4  11  21  34  50  71  96 130 171 209 246 291
#     4   9  18  32  49  70  99 135 169 201 247 304
#     4   9  18  31  46  69 101 131 161 201 247 295
#     4  10  19  30  46  70 102 133 164 205 244 284
#     4   9  19  33  49  68  96 130 164 201 246 291
#     4  10  18  32  49  69  96 132 170 202 241 290
#     4  11  21  32  48  75 103 132 171 210 245 290
#     4  11  21  36  52  70  99 135 167 203 251 298
#
# _framework density 7.9012349999999998
#
# number of rings (size 3 to 8) (size 9 to 14) (size 15 to 20)
#    0.000    2.000    3.750    1.875    0.000    1.500 
#    0.000    2.500    0.000    0.000    0.000    0.875 
#    0.000    5.000    0.000    0.000    0.000    0.000 
#
# Total GULP energy -178403.111331 kJ/mol
# GULP energy per Si atom -5575.097229 kJ/mol
# Density = 0.788325 g / cm^3
# Si number density = 7.901235 Si / 1000 Ang^3
#
#
#
# Elastic Constant Matrix: (Units=GPa)
#
#
# Indices 1 2 3 4 5 6 
#
# 1 64.3368 25.5818 31.7149 0.0000 0.0000 0.0000
# 2 25.5818 33.6601 31.3412 0.0000 0.0000 0.0000
# 3 31.7149 31.3412 83.2020 0.0000 0.0000 0.0000
# 4 0.0000 0.0000 0.0000 22.3253 0.0000 0.0000
# 5 0.0000 0.0000 0.0000 0.0000 16.9392 0.0000
# 6 0.0000 0.0000 0.0000 0.0000 0.0000 25.5256
#
#
#
# Elastic Compliance Matrix: (Units=1/GPa)
#
#
# Indices 1 2 3 4 5 6 
#
# 1 0.022862 -0.014264 -0.003341 0.000000 0.000000 0.000000
# 2 -0.014264 0.054657 -0.015152 0.000000 0.000000 0.000000
# 3 -0.003341 -0.015152 0.019000 0.000000 0.000000 0.000000
# 4 0.000000 0.000000 0.000000 0.044792 0.000000 0.000000
# 5 0.000000 0.000000 0.000000 0.000000 0.059035 0.000000
# 6 0.000000 0.000000 0.000000 0.000000 0.000000 0.039176
#
#
# Mechanical properties :
#
#
# Convention : Reuss Voigt Hill
#
# Bulk Modulus (GPa) = 32.25259 39.83050 36.04154
# Shear Modulus (GPa) = 15.85431 19.12875 17.49153
#
# Velocity S-wave (km/s) = 3.17090 3.48299 3.33060
# Velocity P-wave (km/s) = 5.81896 6.43699 6.13576
#
# Compressibility (1/GPa) = 0.03100527
#
# Stress axis : x y z
#
# Youngs Moduli (GPa) = 43.74052 18.29588 52.63147
#
# Poissons Ratio (x) = 0.26097 0.17587
# Poissons Ratio (y) = 0.62391 0.79745
# Poissons Ratio (z) = 0.14616 0.27721
#
# Static dielectric constant tensor:
#      x y z
#    x 1.526580 0.000000 0.000000 
#    y 0.000000 1.543820 0.000000 
#    z 0.000000 0.000000 1.555720 
# 
# From -- ./inp_files/17093.got.cif
#   From: 2010.05.17/outbox.ucp.g08.bks.cvg/sg44_9_cif.got.tgz:17093.got - 2010.06.11 16:32:36.
