data_PCOD9375061
_publ_section_title
;
Structure prediction by ZEFSAII (Michael W. Deem and Ramdas Pophale) SiO2 
 PCOD9375061
Probable space group: I M M 2
;
_chemical_formula_sum "Si O2"
_cell_formula_units_Z 40
_cell_length_a 26.679442
_cell_length_b 13.387639
_cell_length_c 5.306734
_cell_angle_alpha 90.000000
_cell_angle_beta 90.000000
_cell_angle_gamma 90.000000
_cell_volume 1895.431327
_symmetry_space_group_name_H-M "I M M 2"
_symmetry_group_IT_number 44
_symmetry_cell_setting 'orthorhombic'
loop_
_space_group_symop_operation_xyz
x,y,z
-x,-y,z
-x,y,z
x,-y,z
1/2+x,1/2+y,1/2+z
1/2-x,1/2-y,1/2+z
1/2-x,1/2+y,1/2+z
1/2+x,1/2-y,1/2+z
loop_
_atom_site_type_symbol
_atom_site_label
_atom_site_fract_x
_atom_site_fract_y
_atom_site_fract_z
Si Si1 0.218614 0.766005 0.882940
Si Si2 0.371579 0.777017 0.079413
Si Si3 0.555804 0.110179 0.768677
Si Si4 0.443306 0.687279 0.444741
Si Si5 0.152278 0.108683 0.196955
O O1 0.252592 0.773795 0.631651
O O2 0.169483 0.702731 0.794777
O O3 0.192760 0.868580 0.978461
O O4 0.397902 0.871497 0.955074
O O5 0.345072 0.702654 0.883322
O O6 0.418352 0.711244 0.178107
O O7 0.500000 0.114928 0.891568
O O8 0.557519 0.204032 0.580900
O O9 0.559543 0.000000 0.650865
O O10 0.500000 0.651116 0.435409
O O11 0.403568 0.616991 0.583026
O O12 0.160538 0.000000 0.310931
#
# Coordination Sequence:
#
# PCOD9375061 Si02
#       5
#     8   8   8   8   8
#     4  11  22  43  68  89 121 165 204 258 316 367
#     4  10  20  36  63  88 124 165 208 259 313 371
#     4   9  18  34  57  88 126 168 211 256 311 372
#     4   9  19  35  56  86 127 170 207 253 310 369
#     4  10  22  40  64  92 125 164 209 255 309 374
#
# _framework density 21.103376000000001
#
# number of rings (size 3 to 8) (size 9 to 14) (size 15 to 20)
#    0.000    2.200    2.000    0.600    0.000    5.200 
#    0.000    4.000    0.000    4.800    0.000    0.000 
#    0.000    0.000    0.000    0.000    0.000    0.000 
#
# Total GULP energy -111353.931881 kJ/mol
# GULP energy per Si atom -5567.696594 kJ/mol
# Density = 2.105534 g / cm^3
# Si number density = 21.103376 Si / 1000 Ang^3
#
#
#
# Elastic Constant Matrix: (Units=GPa)
#
#
# Indices 1 2 3 4 5 6 
#
# 1 136.8973 26.8128 47.4450 0.0000 0.0000 0.0000
# 2 26.8128 80.5884 15.1090 0.0000 0.0000 0.0000
# 3 47.4450 15.1090 78.5433 0.0000 0.0000 0.0000
# 4 0.0000 0.0000 0.0000 6.3879 0.0000 0.0000
# 5 0.0000 0.0000 0.0000 0.0000 46.4269 0.0000
# 6 0.0000 0.0000 0.0000 0.0000 0.0000 1.6360
#
#
#
# Elastic Compliance Matrix: (Units=1/GPa)
#
#
# Indices 1 2 3 4 5 6 
#
# 1 0.009596 -0.002185 -0.005376 0.000000 0.000000 0.000000
# 2 -0.002185 0.013370 -0.001252 0.000000 0.000000 0.000000
# 3 -0.005376 -0.001252 0.016220 0.000000 0.000000 0.000000
# 4 0.000000 0.000000 0.000000 0.156546 0.000000 0.000000
# 5 0.000000 0.000000 0.000000 0.000000 0.021539 0.000000
# 6 0.000000 0.000000 0.000000 0.000000 0.000000 0.611242
#
#
# Mechanical properties :
#
#
# Convention : Reuss Voigt Hill
#
# Bulk Modulus (GPa) = 46.38201 52.75141 49.56671
# Shear Modulus (GPa) = 5.85941 24.66764 15.26353
#
# Velocity S-wave (km/s) = 1.66810 3.42262 2.69229
# Velocity P-wave (km/s) = 5.07309 6.37731 5.76222
#
# Compressibility (1/GPa) = 0.02156008
#
# Stress axis : x y z
#
# Youngs Moduli (GPa) = 104.21097 74.79212 61.65099
#
# Poissons Ratio (x) = 0.16340 0.33145
# Poissons Ratio (y) = 0.22767 0.07721
# Poissons Ratio (z) = 0.56027 0.09366
#
# Static dielectric constant tensor:
#      x y z
#    x 1.820690 0.000000 0.000000 
#    y 0.000000 1.746170 0.000000 
#    z 0.000000 0.000000 1.859520 
# 
# From -- ./inp_files/2954.got.cif
#   From: 2010.05.17/outbox.cif.g08.bks.cpg/sg44_2_cif.got.tgz:2954.got - 2010.06.03 19:37:08.
