data_PCOD9375493
_publ_section_title
;
Structure prediction by ZEFSAII (Michael W. Deem and Ramdas Pophale) SiO2 
 PCOD9375493
Probable space group: I M M 2
;
_chemical_formula_sum "Si O2"
_cell_formula_units_Z 64
_cell_length_a 8.016332
_cell_length_b 27.440300
_cell_length_c 13.168718
_cell_angle_alpha 90.000000
_cell_angle_beta 90.000000
_cell_angle_gamma 90.000000
_cell_volume 2896.730207
_symmetry_space_group_name_H-M "I M M 2"
_symmetry_group_IT_number 44
_symmetry_cell_setting 'orthorhombic'
loop_
_space_group_symop_operation_xyz
x,y,z
-x,-y,z
-x,y,z
x,-y,z
1/2+x,1/2+y,1/2+z
1/2-x,1/2-y,1/2+z
1/2-x,1/2+y,1/2+z
1/2+x,1/2-y,1/2+z
loop_
_atom_site_type_symbol
_atom_site_label
_atom_site_fract_x
_atom_site_fract_y
_atom_site_fract_z
Si Si1 0.303435 0.633478 0.253250
Si Si2 0.796079 0.556310 0.834932
Si Si3 0.810363 0.284869 0.907029
Si Si4 0.201559 0.054210 0.916775
Si Si5 0.311408 0.204448 0.041161
Si Si6 0.798621 0.619134 0.028427
Si Si7 0.200492 0.601418 0.622801
Si Si8 0.316945 0.759254 0.717427
O O1 0.500000 0.641219 0.269614
O O2 0.239935 0.596401 0.339638
O O3 0.276425 0.612341 0.139785
O O4 0.215946 0.685966 0.253455
O O5 0.744903 0.500000 0.830681
O O6 0.738557 0.584357 0.733209
O O7 0.000000 0.557521 0.833801
O O8 0.745138 0.581980 0.939927
O O9 0.697085 0.278745 0.809124
O O10 0.000000 0.295812 0.875236
O O11 0.798622 0.232314 0.959631
O O12 0.758144 0.327169 0.984136
O O13 0.000000 0.055059 0.914186
O O14 0.256985 0.000000 0.885809
O O15 0.256929 0.064812 0.031766
O O16 0.500000 0.197243 0.002004
O O17 0.240046 0.154054 0.083504
O O18 0.314110 0.241552 0.135264
O O19 0.000000 0.616584 0.038689
O O20 0.000000 0.605419 0.630953
O O21 0.500000 0.757759 0.669841
#
# Coordination Sequence:
#
# PCOD9375493 Si02
#       8
#     8   8   8   8   8   8   8   8
#     4  11  23  40  62  86 120 163 206 254 308 367
#     4   9  18  35  60  88 118 154 196 246 307 364
#     4  11  22  37  57  83 119 160 198 245 299 357
#     4  10  23  42  62  87 121 162 205 255 316 372
#     4  11  22  37  58  87 120 155 198 244 297 362
#     4  10  21  38  60  87 121 158 200 250 302 361
#     4  10  21  38  62  92 122 155 200 255 307 367
#     4  12  24  38  58  86 120 159 202 249 299 362
#
# _framework density 22.093878
#
# number of rings (size 3 to 8) (size 9 to 14) (size 15 to 20)
#    0.000    1.500    1.250    4.125    0.000    7.750 
#    0.000    0.625    0.000    0.750    0.000    0.000 
#    0.000    0.000    0.000    0.000    0.000    0.000 
#
# Total GULP energy -178860.496937 kJ/mol
# GULP energy per Si atom -5589.390529 kJ/mol
# Density = 2.204359 g / cm^3
# Si number density = 22.093878 Si / 1000 Ang^3
#
#
#
# Elastic Constant Matrix: (Units=GPa)
#
#
# Indices 1 2 3 4 5 6 
#
# 1 34.5342 -3.1549 -4.8691 0.0000 0.0000 0.0000
# 2 -3.1549 79.9514 4.6401 0.0000 0.0000 0.0000
# 3 -4.8691 4.6401 87.6489 -0.0001 0.0000 0.0000
# 4 0.0000 0.0000 -0.0001 36.3592 0.0000 0.0000
# 5 0.0000 0.0000 0.0000 0.0000 25.4844 0.0000
# 6 0.0000 0.0000 0.0000 0.0000 0.0000 19.3932
#
#
#
# Elastic Compliance Matrix: (Units=1/GPa)
#
#
# Indices 1 2 3 4 5 6 
#
# 1 0.029275 0.001064 0.001570 0.000000 0.000000 0.000000
# 2 0.001064 0.012585 -0.000607 0.000000 0.000000 0.000000
# 3 0.001570 -0.000607 0.011529 0.000000 0.000000 0.000000
# 4 0.000000 0.000000 0.000000 0.027503 0.000000 0.000000
# 5 0.000000 0.000000 0.000000 0.000000 0.039240 0.000000
# 6 0.000000 0.000000 0.000000 0.000000 0.000000 0.051565
#
#
# Mechanical properties :
#
#
# Convention : Reuss Voigt Hill
#
# Bulk Modulus (GPa) = 17.40869 21.70742 19.55806
# Shear Modulus (GPa) = 26.76803 29.94857 28.35830
#
# Velocity S-wave (km/s) = 3.48452 3.68573 3.58653
# Velocity P-wave (km/s) = 4.90772 5.28764 5.10122
#
# Compressibility (1/GPa) = 0.05744257
#
# Stress axis : x y z
#
# Youngs Moduli (GPa) = 34.15844 79.46080 86.74146
#
# Poissons Ratio (x) = -0.08455 -0.13618
# Poissons Ratio (y) = -0.03635 0.05266
# Poissons Ratio (z) = -0.05363 0.04824
#
# Static dielectric constant tensor:
#      x y z
#    x 1.777750 0.000000 0.000000 
#    y 0.000000 1.807090 0.000000 
#    z 0.000000 0.000000 1.813190 
# 
# From -- ./inp_files/11497.got.cif
#   From: 2010.05.17/outbox.cif.g08.bks.cpg/sg44_6_cif.got.tgz:11497.got - 2010.06.03 19:37:08.
