data_PCOD9375377
_publ_section_title
;
Structure prediction by ZEFSAII (Michael W. Deem and Ramdas Pophale) SiO2 
 PCOD9375377
Probable space group: I M M 2
;
_chemical_formula_sum "Si O2"
_cell_formula_units_Z 64
_cell_length_a 16.303342
_cell_length_b 22.368484
_cell_length_c 10.010004
_cell_angle_alpha 90.000000
_cell_angle_beta 90.000000
_cell_angle_gamma 90.000000
_cell_volume 3650.458716
_symmetry_space_group_name_H-M "I M M 2"
_symmetry_group_IT_number 44
_symmetry_cell_setting 'orthorhombic'
loop_
_space_group_symop_operation_xyz
x,y,z
-x,-y,z
-x,y,z
x,-y,z
1/2+x,1/2+y,1/2+z
1/2-x,1/2-y,1/2+z
1/2-x,1/2+y,1/2+z
1/2+x,1/2-y,1/2+z
loop_
_atom_site_type_symbol
_atom_site_label
_atom_site_fract_x
_atom_site_fract_y
_atom_site_fract_z
Si Si1 0.195588 0.162834 0.996000
Si Si2 0.904396 0.218931 0.768246
Si Si3 0.903975 0.223254 0.220048
Si Si4 0.319732 0.070606 0.086806
Si Si5 0.342571 0.152146 0.599529
Si Si6 0.906918 0.570745 0.314386
Si Si7 0.595098 0.858230 0.320398
Si Si8 0.187292 0.777521 0.500312
O O1 0.152909 0.175087 0.853996
O O2 0.128553 0.177640 0.108715
O O3 0.237692 0.100122 0.026841
O O4 0.266827 0.213445 0.009139
O O5 0.886427 0.287089 0.814772
O O6 0.882246 0.218209 0.612755
O O7 0.000000 0.206974 0.792478
O O8 0.886504 0.288373 0.156064
O O9 0.850218 0.216331 0.353631
O O10 0.000000 0.216767 0.247638
O O11 0.348233 0.105666 0.218598
O O12 0.312148 0.000000 0.111083
O O13 0.386644 0.080339 0.969739
O O14 0.344126 0.106445 0.721713
O O15 0.390628 0.124640 0.473987
O O16 0.255455 0.173702 0.541611
O O17 0.901217 0.500000 0.289500
O O18 0.000000 0.590777 0.285150
O O19 0.500000 0.866373 0.282914
#
# Coordination Sequence:
#
# PCOD9375377 Si02
#       8
#     8   8   8   8   8   8   8   8
#     4  11  20  36  55  79 111 145 185 231 280 334
#     4  11  21  34  53  81 114 147 182 232 291 341
#     4  11  21  34  54  80 109 142 180 227 287 341
#     4  11  23  39  58  81 114 157 197 234 277 335
#     4  11  22  34  56  80 111 149 186 232 283 336
#     4  10  21  37  55  78 110 150 194 231 267 326
#     4  11  21  34  52  81 116 150 189 228 278 339
#     4  11  20  33  53  80 113 142 180 230 281 338
#
# _framework density 17.532043999999999
#
# number of rings (size 3 to 8) (size 9 to 14) (size 15 to 20)
#    0.000    1.125    3.750    6.000    0.000    1.250 
#    0.000    0.000    0.000    1.500    0.000    0.000 
#    0.000    5.000    0.000    0.000    0.000    0.000 
#
# Total GULP energy -178738.523215 kJ/mol
# GULP energy per Si atom -5585.578850 kJ/mol
# Density = 1.749214 g / cm^3
# Si number density = 17.532044 Si / 1000 Ang^3
#
#
#
# Elastic Constant Matrix: (Units=GPa)
#
#
# Indices 1 2 3 4 5 6 
#
# 1 72.9143 24.3313 16.7703 0.0000 0.0000 0.0000
# 2 24.3313 42.5478 19.1815 0.0000 0.0000 0.0000
# 3 16.7703 19.1815 89.7255 0.0000 0.0000 0.0000
# 4 0.0000 0.0000 0.0000 17.1650 0.0000 0.0000
# 5 0.0000 0.0000 0.0000 0.0000 33.4149 0.0000
# 6 0.0000 0.0000 0.0000 0.0000 0.0000 18.0319
#
#
#
# Elastic Compliance Matrix: (Units=1/GPa)
#
#
# Indices 1 2 3 4 5 6 
#
# 1 0.017069 -0.009211 -0.001221 0.000000 0.000000 0.000000
# 2 -0.009211 0.030980 -0.004901 0.000000 0.000000 0.000000
# 3 -0.001221 -0.004901 0.012421 0.000000 0.000000 0.000000
# 4 0.000000 0.000000 0.000000 0.058258 0.000000 0.000000
# 5 0.000000 0.000000 0.000000 0.000000 0.029927 0.000000
# 6 0.000000 0.000000 0.000000 0.000000 0.000000 0.055457
#
#
# Mechanical properties :
#
#
# Convention : Reuss Voigt Hill
#
# Bulk Modulus (GPa) = 33.55288 36.19486 34.87387
# Shear Modulus (GPa) = 20.43207 23.38265 21.90736
#
# Velocity S-wave (km/s) = 3.41752 3.65596 3.53875
# Velocity P-wave (km/s) = 5.89510 6.20574 6.05241
#
# Compressibility (1/GPa) = 0.02980370
#
# Stress axis : x y z
#
# Youngs Moduli (GPa) = 58.58515 32.27918 80.50769
#
# Poissons Ratio (x) = 0.29731 0.09832
# Poissons Ratio (y) = 0.53960 0.39459
# Poissons Ratio (z) = 0.07155 0.15821
#
# Static dielectric constant tensor:
#      x y z
#    x 1.607380 0.000000 0.000000 
#    y 0.000000 1.587380 0.000000 
#    z 0.000000 0.000000 1.617400 
# 
# From -- ./inp_files/7539.got.cif
#   From: 2010.05.17/outbox.cif.g08.bks.cpg/sg44_4_cif.got.tgz:7539.got - 2010.06.03 19:37:08.
