data_PCOD9375090
_publ_section_title
;
Structure prediction by ZEFSAII (Michael W. Deem and Ramdas Pophale) SiO2 
 PCOD9375090
Probable space group: I M M 2
;
_chemical_formula_sum "Si O2"
_cell_formula_units_Z 64
_cell_length_a 33.618495
_cell_length_b 8.787945
_cell_length_c 13.193513
_cell_angle_alpha 90.000000
_cell_angle_beta 90.000000
_cell_angle_gamma 90.000000
_cell_volume 3897.858300
_symmetry_space_group_name_H-M "I M M 2"
_symmetry_group_IT_number 44
_symmetry_cell_setting 'orthorhombic'
loop_
_space_group_symop_operation_xyz
x,y,z
-x,-y,z
-x,y,z
x,-y,z
1/2+x,1/2+y,1/2+z
1/2-x,1/2-y,1/2+z
1/2-x,1/2+y,1/2+z
1/2+x,1/2-y,1/2+z
loop_
_atom_site_type_symbol
_atom_site_label
_atom_site_fract_x
_atom_site_fract_y
_atom_site_fract_z
Si Si1 0.454533 0.183221 0.081110
Si Si2 0.329696 0.819010 0.813999
Si Si3 0.171593 0.181582 0.710832
Si Si4 0.127106 0.682738 0.904330
Si Si5 0.758119 0.820565 0.211457
Si Si6 0.544184 0.815138 0.317704
Si Si7 0.875170 0.818319 0.504635
Si Si8 0.163708 0.820245 0.106555
O O1 0.500000 0.220932 0.052253
O O2 0.449520 0.227463 0.199771
O O3 0.450260 0.000000 0.075428
O O4 0.420309 0.261576 0.016659
O O5 0.285724 0.744651 0.802227
O O6 0.352879 0.758601 0.910866
O O7 0.350527 0.762668 0.709526
O O8 0.326557 0.000000 0.815117
O O9 0.152098 0.262672 0.807354
O O10 0.217120 0.233671 0.700788
O O11 0.147551 0.222481 0.609039
O O12 0.169372 0.000000 0.724356
O O13 0.128031 0.500000 0.909766
O O14 0.081545 0.734030 0.884322
O O15 0.145353 0.751599 0.006071
O O16 0.748821 0.500000 0.725419
O O17 0.788215 0.800339 0.115891
O O18 0.500000 0.763111 0.348803
O O19 0.543742 0.000000 0.319268
O O20 0.873918 0.000000 0.493056
O O21 0.155868 0.000000 0.113350
#
# Coordination Sequence:
#
# PCOD9375090 Si02
#       8
#     8   8   8   8   8   8   8   8
#     4   9  17  32  54  79 108 142 180 219 265 322
#     4  10  20  37  59  79 102 138 185 226 270 321
#     4  11  23  35  51  78 112 144 178 222 268 320
#     4  11  20  32  56  82 109 142 180 221 265 318
#     4   9  20  38  56  76 103 139 181 225 272 318
#     4   8  15  29  50  78 110 141 174 213 258 310
#     4  11  22  35  53  80 114 146 179 221 271 323
#     4   9  20  38  56  76 106 140 180 224 269 319
#
# _framework density 16.419271999999999
#
# number of rings (size 3 to 8) (size 9 to 14) (size 15 to 20)
#    0.750    1.500    1.250    3.375    0.000    2.750 
#    0.000    2.500    0.000    2.250    0.000    1.750 
#    0.000    0.000    0.000    0.000    0.000    0.000 
#
# Total GULP energy -178290.228125 kJ/mol
# GULP energy per Si atom -5571.569629 kJ/mol
# Density = 1.638190 g / cm^3
# Si number density = 16.419272 Si / 1000 Ang^3
#
#
#
# Elastic Constant Matrix: (Units=GPa)
#
#
# Indices 1 2 3 4 5 6 
#
# 1 101.3675 23.0541 36.4853 0.0000 0.0000 0.0000
# 2 23.0541 47.0983 26.6565 0.0000 0.0000 0.0000
# 3 36.4853 26.6565 79.2696 0.0000 0.0000 0.0000
# 4 0.0000 0.0000 0.0000 20.3283 0.0000 0.0000
# 5 0.0000 0.0000 0.0000 0.0000 -123.6032 0.0000
# 6 0.0000 0.0000 0.0000 0.0000 0.0000 18.4900
#
#
#
# Elastic Compliance Matrix: (Units=1/GPa)
#
#
# Indices 1 2 3 4 5 6 
#
# 1 0.012266 -0.003469 -0.004479 0.000000 0.000000 0.000000
# 2 -0.003469 0.027204 -0.007551 0.000000 0.000000 0.000000
# 3 -0.004479 -0.007551 0.017216 0.000000 0.000000 0.000000
# 4 0.000000 0.000000 0.000000 0.049192 0.000000 0.000000
# 5 0.000000 0.000000 0.000000 0.000000 -0.008090 0.000000
# 6 0.000000 0.000000 0.000000 0.000000 0.000000 0.054083
#
#
# Mechanical properties :
#
#
# Convention : Reuss Voigt Hill
#
# Bulk Modulus (GPa) = 38.92986 44.45858 41.69422
# Shear Modulus (GPa) = 26.11873 -7.52099 9.29887
#
# Velocity S-wave (km/s) = 3.99273 -2.14255 2.38237
# Velocity P-wave (km/s) = 6.70948 4.58423 5.74597
#
# Compressibility (1/GPa) = 0.02568723
#
# Stress axis : x y z
#
# Youngs Moduli (GPa) = 81.52432 36.75910 58.08492
#
# Poissons Ratio (x) = 0.12752 0.26018
# Poissons Ratio (y) = 0.28281 0.43862
# Poissons Ratio (z) = 0.36517 0.27758
#
# Static dielectric constant tensor:
#      x y z
#    x 1.555690 0.000000 0.000000 
#    y 0.000000 1.546070 0.000000 
#    z 0.000000 0.000000 1.528180 
# 
# From -- ./inp_files/15120.got.cif
#   From: 2010.05.17/outbox.cif.g08.bks.cpg/sg44_8_cif.got.tgz:15120.got - 2010.06.03 19:37:08.
