data_PCOD9375345
_publ_section_title
;
Structure prediction by ZEFSAII (Michael W. Deem and Ramdas Pophale) SiO2 
 PCOD9375345
Probable space group: I M M 2
;
_chemical_formula_sum "Si O2"
_cell_formula_units_Z 40
_cell_length_a 13.678852
_cell_length_b 15.134808
_cell_length_c 10.263133
_cell_angle_alpha 90.000000
_cell_angle_beta 90.000000
_cell_angle_gamma 90.000000
_cell_volume 2124.743569
_symmetry_space_group_name_H-M "I M M 2"
_symmetry_group_IT_number 44
_symmetry_cell_setting 'orthorhombic'
loop_
_space_group_symop_operation_xyz
x,y,z
-x,-y,z
-x,y,z
x,-y,z
1/2+x,1/2+y,1/2+z
1/2-x,1/2-y,1/2+z
1/2-x,1/2+y,1/2+z
1/2+x,1/2-y,1/2+z
loop_
_atom_site_type_symbol
_atom_site_label
_atom_site_fract_x
_atom_site_fract_y
_atom_site_fract_z
Si Si1 0.807058 0.226983 0.293560
Si Si2 0.309156 0.600469 0.029483
Si Si3 0.116234 0.900981 0.075870
Si Si4 0.112237 0.398803 0.180731
Si Si5 0.111824 0.176541 0.792985
O O1 0.835719 0.170132 0.418754
O O2 0.833355 0.171828 0.165003
O O3 0.860028 0.322032 0.282417
O O4 0.691817 0.246583 0.295367
O O5 0.327135 0.500000 0.986921
O O6 0.194391 0.609791 0.068696
O O7 0.366321 0.620704 0.163027
O O8 0.000000 0.896669 0.101916
O O9 0.150730 0.000000 0.105784
O O10 0.129129 0.880360 0.923337
O O11 0.121388 0.500000 0.230622
O O12 0.000000 0.386309 0.137578
O O13 0.000000 0.206688 0.794135
#
# Coordination Sequence:
#
# PCOD9375345 Si02
#       5
#     8   8   8   8   8
#     4  11  21  35  56  85 115 141 178 229 278 321
#     4  10  21  36  57  85 112 140 178 229 281 320
#     4  10  21  38  60  83 109 145 185 224 271 328
#     4   9  19  37  58  79 107 146 188 223 263 326
#     4  10  21  37  56  78 109 150 188 220 264 325
#
# _framework density 18.825801999999999
#
# number of rings (size 3 to 8) (size 9 to 14) (size 15 to 20)
#    0.000    2.000    0.000    4.200    0.000    6.000 
#    0.000    0.000    0.000    1.800    0.000    0.000 
#    0.000    0.000    0.000    0.000    0.000    0.000 
#
# Total GULP energy -111624.111842 kJ/mol
# GULP energy per Si atom -5581.205592 kJ/mol
# Density = 1.878295 g / cm^3
# Si number density = 18.825802 Si / 1000 Ang^3
#
#
#
# Elastic Constant Matrix: (Units=GPa)
#
#
# Indices 1 2 3 4 5 6 
#
# 1 56.2577 19.7088 14.7390 0.0000 0.0000 0.0000
# 2 19.7088 124.1638 51.7354 0.0000 0.0000 0.0000
# 3 14.7390 51.7354 71.6494 0.0000 0.0000 0.0000
# 4 0.0000 0.0000 0.0000 20.3194 0.0000 0.0000
# 5 0.0000 0.0000 0.0000 0.0000 11.2750 0.0000
# 6 0.0000 0.0000 0.0000 0.0000 0.0000 21.8178
#
#
#
# Elastic Compliance Matrix: (Units=1/GPa)
#
#
# Indices 1 2 3 4 5 6 
#
# 1 0.019128 -0.001998 -0.002492 0.000000 0.000000 0.000000
# 2 -0.001998 0.011728 -0.008058 0.000000 0.000000 0.000000
# 3 -0.002492 -0.008058 0.020288 0.000000 0.000000 0.000000
# 4 0.000000 0.000000 0.000000 0.049214 0.000000 0.000000
# 5 0.000000 0.000000 0.000000 0.000000 0.088692 0.000000
# 6 0.000000 0.000000 0.000000 0.000000 0.000000 0.045834
#
#
# Mechanical properties :
#
#
# Convention : Reuss Voigt Hill
#
# Bulk Modulus (GPa) = 38.38964 47.15970 42.77467
# Shear Modulus (GPa) = 18.61068 21.74161 20.17615
#
# Velocity S-wave (km/s) = 3.14757 3.40204 3.27728
# Velocity P-wave (km/s) = 5.80051 6.36685 6.09027
#
# Compressibility (1/GPa) = 0.02604870
#
# Stress axis : x y z
#
# Youngs Moduli (GPa) = 52.27886 85.26319 49.29096
#
# Poissons Ratio (x) = 0.17034 0.12285
# Poissons Ratio (y) = 0.10444 0.39717
# Poissons Ratio (z) = 0.13030 0.68702
#
# Static dielectric constant tensor:
#      x y z
#    x 1.662630 0.000000 0.000000 
#    y 0.000000 1.663390 0.000000 
#    z 0.000000 0.000000 1.634910 
# 
# From -- ./inp_files/6809.got.cif
#   From: 2010.05.17/outbox.cif.g08.bks.cpg/sg44_4_cif.got.tgz:6809.got - 2010.06.03 19:37:08.
