data_PCOD9375690
_publ_section_title
;
Structure prediction by ZEFSAII (Michael W. Deem and Ramdas Pophale) SiO2 
 PCOD9375690
Probable space group: I M M 2
;
_chemical_formula_sum "Si O2"
_cell_formula_units_Z 48
_cell_length_a 14.207260
_cell_length_b 8.263925
_cell_length_c 19.188063
_cell_angle_alpha 90.000000
_cell_angle_beta 90.000000
_cell_angle_gamma 90.000000
_cell_volume 2252.826941
_symmetry_space_group_name_H-M "I M M 2"
_symmetry_group_IT_number 44
_symmetry_cell_setting 'orthorhombic'
loop_
_space_group_symop_operation_xyz
x,y,z
-x,-y,z
-x,y,z
x,-y,z
1/2+x,1/2+y,1/2+z
1/2-x,1/2-y,1/2+z
1/2-x,1/2+y,1/2+z
1/2+x,1/2-y,1/2+z
loop_
_atom_site_type_symbol
_atom_site_label
_atom_site_fract_x
_atom_site_fract_y
_atom_site_fract_z
Si Si1 0.608086 0.305485 0.783530
Si Si2 0.808919 0.807225 0.136064
Si Si3 0.746155 0.806688 0.890406
Si Si4 0.103259 0.194183 0.623487
Si Si5 0.400917 0.304470 0.287610
Si Si6 0.395946 0.808360 0.500047
O O1 0.500000 0.252339 0.774577
O O2 0.610393 0.500000 0.781816
O O3 0.668477 0.248234 0.715287
O O4 0.647395 0.253823 0.859517
O O5 0.704387 0.767537 0.106280
O O6 0.820033 0.000000 0.135938
O O7 0.880311 0.730254 0.081193
O O8 0.815202 0.738360 0.830201
O O9 0.805102 0.759362 0.958756
O O10 0.741206 0.000000 0.890038
O O11 0.100673 0.228461 0.706205
O O12 0.000000 0.248254 0.595193
O O13 0.107843 0.000000 0.613280
O O14 0.500000 0.243922 0.316174
O O15 0.398924 0.500000 0.294317
O O16 0.500000 0.743020 0.479236
O O17 0.396115 0.000000 0.489259
#
# Coordination Sequence:
#
# PCOD9375690 Si02
#       6
#     8   8   8   8   8   8
#     4  10  22  40  61  87 122 163 205 251 305 364
#     4  11  22  38  62  91 125 163 205 254 305 359
#     4  11  21  36  61  90 120 154 197 250 303 359
#     4   9  17  32  55  84 119 157 197 241 294 354
#     4   8  14  26  48  79 113 147 182 225 280 341
#     4  11  25  43  63  89 123 163 204 248 303 367
#
# _framework density 21.306563000000001
#
# number of rings (size 3 to 8) (size 9 to 14) (size 15 to 20)
#    0.000    2.000    1.667    3.500    0.000    4.000 
#    0.000    0.833    0.000    5.000    0.000    0.000 
#    0.000    0.000    0.000    0.000    0.000    0.000 
#
# Total GULP energy -133657.319312 kJ/mol
# GULP energy per Si atom -5569.054971 kJ/mol
# Density = 2.125807 g / cm^3
# Si number density = 21.306563 Si / 1000 Ang^3
#
#
#
# Elastic Constant Matrix: (Units=GPa)
#
#
# Indices 1 2 3 4 5 6 
#
# 1 120.1588 22.6345 33.7870 0.0000 0.0000 0.0000
# 2 22.6345 24.1049 13.2855 0.0000 0.0000 0.0000
# 3 33.7870 13.2855 74.3023 0.0000 0.0000 0.0000
# 4 0.0000 0.0000 0.0000 23.7012 0.0000 0.0000
# 5 0.0000 0.0000 0.0000 0.0000 27.5105 0.0000
# 6 0.0000 0.0000 0.0000 0.0000 0.0000 16.2319
#
#
#
# Elastic Compliance Matrix: (Units=1/GPa)
#
#
# Indices 1 2 3 4 5 6 
#
# 1 0.010855 -0.008289 -0.003454 0.000000 0.000000 0.000000
# 2 -0.008289 0.052350 -0.005591 0.000000 0.000000 0.000000
# 3 -0.003454 -0.005591 0.016029 0.000000 0.000000 0.000000
# 4 0.000000 0.000000 0.000000 0.042192 0.000000 0.000000
# 5 0.000000 0.000000 0.000000 0.000000 0.036350 0.000000
# 6 0.000000 0.000000 0.000000 0.000000 0.000000 0.061607
#
#
# Mechanical properties :
#
#
# Convention : Reuss Voigt Hill
#
# Bulk Modulus (GPa) = 22.43873 39.77556 31.10714
# Shear Modulus (GPa) = 18.59381 23.41265 21.00323
#
# Velocity S-wave (km/s) = 2.95732 3.31848 3.14309
# Velocity P-wave (km/s) = 4.71330 5.77857 5.27291
#
# Compressibility (1/GPa) = 0.04456581
#
# Stress axis : x y z
#
# Youngs Moduli (GPa) = 92.12386 19.10202 62.38763
#
# Poissons Ratio (x) = 0.15834 0.21548
# Poissons Ratio (y) = 0.76363 0.34882
# Poissons Ratio (z) = 0.31818 0.10680
#
# Static dielectric constant tensor:
#      x y z
#    x 1.882010 0.000000 0.000000 
#    y 0.000000 1.735910 0.000000 
#    z 0.000000 0.000000 1.787340 
# 
# From -- ./inp_files/21720.got.cif
#   From: 2010.05.17/outbox.cif.g08.bks.cpg/sg44_11_cif.got.tgz:21720.got - 2010.06.03 19:37:08.
