data_PCOD9375401
_publ_section_title
;
Structure prediction by ZEFSAII (Michael W. Deem and Ramdas Pophale) SiO2 
 PCOD9375401
Probable space group: I M M 2
;
_chemical_formula_sum "Si O2"
_cell_formula_units_Z 40
_cell_length_a 11.524329
_cell_length_b 22.711529
_cell_length_c 7.119862
_cell_angle_alpha 90.000000
_cell_angle_beta 90.000000
_cell_angle_gamma 90.000000
_cell_volume 1863.518022
_symmetry_space_group_name_H-M "I M M 2"
_symmetry_group_IT_number 44
_symmetry_cell_setting 'orthorhombic'
loop_
_space_group_symop_operation_xyz
x,y,z
-x,-y,z
-x,y,z
x,-y,z
1/2+x,1/2+y,1/2+z
1/2-x,1/2-y,1/2+z
1/2-x,1/2+y,1/2+z
1/2+x,1/2-y,1/2+z
loop_
_atom_site_type_symbol
_atom_site_label
_atom_site_fract_x
_atom_site_fract_y
_atom_site_fract_z
Si Si1 0.624734 0.259981 0.910260
Si Si2 0.132044 0.433601 0.616986
Si Si3 0.627316 0.372677 0.169836
Si Si4 0.872189 0.568148 0.162330
Si Si5 0.299678 0.665767 0.561045
O O1 0.500000 0.229573 0.916319
O O2 0.636480 0.295634 0.716702
O O3 0.630019 0.308527 0.074027
O O4 0.719845 0.211147 0.945559
O O5 0.168078 0.500000 0.669213
O O6 0.128487 0.431616 0.389703
O O7 0.220022 0.382058 0.668005
O O8 0.000000 0.424181 0.682477
O O9 0.500000 0.398855 0.116624
O O10 0.748465 0.403334 0.110490
O O11 0.630207 0.366526 0.396435
O O12 0.871467 0.500000 0.102658
O O13 0.000000 0.593614 0.107646
#
# Coordination Sequence:
#
# PCOD9375401 Si02
#       5
#     8   8   8   8   8
#     4  11  23  38  56  84 119 153 197 244 292 356
#     4   8  15  30  55  84 112 145 191 244 293 344
#     4  10  21  37  56  84 119 152 192 243 297 352
#     4   8  15  31  56  84 113 150 197 243 289 347
#     4  11  20  38  59  83 114 159 193 240 296 350
#
# _framework density 21.464777999999999
#
# number of rings (size 3 to 8) (size 9 to 14) (size 15 to 20)
#    0.000    2.400    2.000    2.400    0.000    1.200 
#    0.000    3.000    0.000    5.400    0.000    0.000 
#    0.000    0.000    0.000    0.000    0.000    0.000 
#
# Total GULP energy -111518.216070 kJ/mol
# GULP energy per Si atom -5575.910803 kJ/mol
# Density = 2.141592 g / cm^3
# Si number density = 21.464778 Si / 1000 Ang^3
#
#
#
# Elastic Constant Matrix: (Units=GPa)
#
#
# Indices 1 2 3 4 5 6 
#
# 1 172.8539 46.5947 7.0481 -0.0003 -0.0002 0.0005
# 2 46.5947 54.6566 -2.1603 0.0015 -0.0002 -0.0009
# 3 7.0481 -2.1603 85.2829 0.0033 0.0000 -0.0054
# 4 -0.0003 0.0015 0.0033 -17.0529 0.0000 -0.0051
# 5 -0.0002 -0.0002 0.0000 0.0000 7.6795 0.0006
# 6 0.0005 -0.0009 -0.0054 -0.0051 0.0006 -36.6872
#
#
#
# Elastic Compliance Matrix: (Units=1/GPa)
#
#
# Indices 1 2 3 4 5 6 
#
# 1 0.007564 -0.006480 -0.000789 -0.000001 0.000000 0.000000
# 2 -0.006480 0.023865 0.001140 0.000002 0.000000 -0.000001
# 3 -0.000789 0.001140 0.011820 0.000002 0.000000 -0.000002
# 4 -0.000001 0.000002 0.000002 -0.058641 0.000000 0.000008
# 5 0.000000 0.000000 0.000000 0.000000 0.130217 0.000002
# 6 0.000000 -0.000001 -0.000002 0.000008 0.000002 -0.027257
#
#
# Mechanical properties :
#
#
# Convention : Reuss Voigt Hill
#
# Bulk Modulus (GPa) = 32.26721 46.19537 39.23129
# Shear Modulus (GPa) = 45.39059 8.20860 26.79960
#
# Velocity S-wave (km/s) = 4.60353 1.95768 3.53730
# Velocity P-wave (km/s) = 6.58194 5.16510 5.91608
#
# Compressibility (1/GPa) = 0.03099121
#
# Stress axis : x y z
#
# Youngs Moduli (GPa) = 132.20445 41.90255 84.60389
#
# Poissons Ratio (x) = 0.27151 0.06677
# Poissons Ratio (y) = 0.85662 -0.09645
# Poissons Ratio (z) = 0.10434 -0.04777
#
# Static dielectric constant tensor:
#      x y z
#    x 1.825880 0.000000 0.000000 
#    y 0.000000 1.748870 0.000000 
#    z 0.000000 0.000000 1.799950 
# 
# From -- ./inp_files/4427.got.cif
#   From: 2010.05.17/outbox.cif.g08.bks.cpg/sg44_3_cif.got.tgz:4427.got - 2010.06.03 19:37:08.
