data_PCOD9375767
_publ_section_title
;
Structure prediction by ZEFSAII (Michael W. Deem and Ramdas Pophale) SiO2 
 PCOD9375767
Probable space group: I M M 2
;
_chemical_formula_sum "Si O2"
_cell_formula_units_Z 40
_cell_length_a 18.731757
_cell_length_b 18.731765
_cell_length_c 3.401401
_cell_angle_alpha 90.000000
_cell_angle_beta 90.000000
_cell_angle_gamma 90.000000
_cell_volume 1193.479740
_symmetry_space_group_name_H-M "I M M 2"
_symmetry_group_IT_number 44
_symmetry_cell_setting 'orthorhombic'
loop_
_space_group_symop_operation_xyz
x,y,z
-x,-y,z
-x,y,z
x,-y,z
1/2+x,1/2+y,1/2+z
1/2-x,1/2-y,1/2+z
1/2-x,1/2+y,1/2+z
1/2+x,1/2-y,1/2+z
loop_
_atom_site_type_symbol
_atom_site_label
_atom_site_fract_x
_atom_site_fract_y
_atom_site_fract_z
Si Si1 0.163464 0.336536 0.025910
Si Si2 0.088216 0.088216 0.775909
Si Si3 0.294448 0.584208 0.777515
Si Si4 0.584209 0.294448 0.774303
Si Si5 0.578420 0.078420 0.025910
O O1 0.148686 0.263722 0.248108
O O2 0.149268 0.410263 0.269921
O O3 0.236278 0.351314 0.803710
O O4 0.089737 0.350732 0.781899
O O5 0.186083 0.089971 0.780810
O O6 0.000000 0.091837 0.778647
O O7 0.091837 0.000000 0.773170
O O8 0.089971 0.186083 0.771008
O O9 0.274490 0.500000 0.778750
O O10 0.392902 0.607098 0.775909
O O11 0.500000 0.274490 0.773068
O O12 0.500000 0.081179 0.841346
O O13 0.581179 0.000000 0.210474
#
# Coordination Sequence:
#
# PCOD9375767 Si02
#       5
#     8   8   8   8   8
#     4  12  24  39  65  96 131 176 223 271 335 400
#     4  10  24  42  68  97 132 176 220 275 340 398
#     4  11  23  43  69  98 134 174 222 278 336 402
#     4  11  23  43  69  98 134 174 222 278 336 402
#     4  11  22  36  55  86 131 180 231 278 319 379
#
# _framework density 33.515438000000003
#
# number of rings (size 3 to 8) (size 9 to 14) (size 15 to 20)
#    0.000    1.000    0.000    7.200    0.000    4.800 
#    0.000    0.000    0.000   42.000    0.000    0.000 
#    0.000    0.000    0.000    0.000    0.000    0.000 
#
# Total GULP energy -111454.926060 kJ/mol
# GULP energy per Si atom -5572.746303 kJ/mol
# Density = 3.343916 g / cm^3
# Si number density = 33.515438 Si / 1000 Ang^3
#
#
#
# Elastic Constant Matrix: (Units=GPa)
#
#
# Indices 1 2 3 4 5 6 
#
# 1 269.0000 184.5210 128.3115 0.0000 0.0000 0.0000
# 2 184.5210 269.0002 128.3118 0.0000 0.0000 0.0000
# 3 128.3115 128.3118 271.2845 0.0000 0.0000 0.0000
# 4 0.0000 0.0000 0.0000 117.4542 0.0000 0.0000
# 5 0.0000 0.0000 0.0000 0.0000 117.4542 0.0000
# 6 0.0000 0.0000 0.0000 0.0000 0.0000 106.8035
#
#
#
# Elastic Compliance Matrix: (Units=1/GPa)
#
#
# Indices 1 2 3 4 5 6 
#
# 1 0.007424 -0.004413 -0.001424 0.000000 0.000000 0.000000
# 2 -0.004413 0.007424 -0.001424 0.000000 0.000000 0.000000
# 3 -0.001424 -0.001424 0.005033 0.000000 0.000000 0.000000
# 4 0.000000 0.000000 0.000000 0.008514 0.000000 0.000000
# 5 0.000000 0.000000 0.000000 0.000000 0.008514 0.000000
# 6 0.000000 0.000000 0.000000 0.000000 0.000000 0.009363
#
#
# Mechanical properties :
#
#
# Convention : Reuss Voigt Hill
#
# Bulk Modulus (GPa) = 186.61424 187.95257 187.28340
# Shear Modulus (GPa) = 79.89657 92.88507 86.39082
#
# Velocity S-wave (km/s) = 4.88779 5.27013 5.08256
# Velocity P-wave (km/s) = 9.36242 9.65575 9.51022
#
# Compressibility (1/GPa) = 0.00535865
#
# Stress axis : x y z
#
# Youngs Moduli (GPa) = 134.69836 134.69826 198.67981
#
# Poissons Ratio (x) = 0.59446 0.28292
# Poissons Ratio (y) = 0.59446 0.28292
# Poissons Ratio (z) = 0.19181 0.19181
#
# Static dielectric constant tensor:
#      x y z
#    x 2.427800 0.000000 0.000000 
#    y 0.000000 2.427800 0.000000 
#    z 0.000000 0.000000 3.840360 
# 
# From -- ./inp_files/1900.got.cif
#   From: 2010.05.17/outbox.cif.g08.bks.cpg/sg44_1_cif.got.tgz:1900.got - 2010.06.03 19:37:08.
