data_PCOD9375340
_publ_section_title
;
Structure prediction by ZEFSAII (Michael W. Deem and Ramdas Pophale) SiO2 
 PCOD9375340
Probable space group: I M M 2
;
_chemical_formula_sum "Si O2"
_cell_formula_units_Z 64
_cell_length_a 9.815548
_cell_length_b 19.083549
_cell_length_c 16.838775
_cell_angle_alpha 90.000000
_cell_angle_beta 90.000000
_cell_angle_gamma 90.000000
_cell_volume 3154.163411
_symmetry_space_group_name_H-M "I M M 2"
_symmetry_group_IT_number 44
_symmetry_cell_setting 'orthorhombic'
loop_
_space_group_symop_operation_xyz
x,y,z
-x,-y,z
-x,y,z
x,-y,z
1/2+x,1/2+y,1/2+z
1/2-x,1/2-y,1/2+z
1/2-x,1/2+y,1/2+z
1/2+x,1/2-y,1/2+z
loop_
_atom_site_type_symbol
_atom_site_label
_atom_site_fract_x
_atom_site_fract_y
_atom_site_fract_z
Si Si1 0.347632 0.422991 0.590790
Si Si2 0.846303 0.708575 0.596718
Si Si3 0.841660 0.419242 0.160950
Si Si4 0.339198 0.583918 0.847630
Si Si5 0.840994 0.323989 0.317193
Si Si6 0.852976 0.921471 0.901429
Si Si7 0.343593 0.801686 0.279683
Si Si8 0.337285 0.645341 0.024059
O O1 0.500000 0.409807 0.623249
O O2 0.302482 0.500000 0.620125
O O3 0.248461 0.358660 0.600145
O O4 0.360072 0.427524 0.495704
O O5 0.850689 0.727841 0.689843
O O6 0.798629 0.773507 0.542553
O O7 0.000000 0.690210 0.571374
O O8 0.819530 0.500000 0.186286
O O9 0.823215 0.365063 0.233472
O O10 0.743807 0.399912 0.088547
O O11 0.000000 0.413254 0.135768
O O12 0.500000 0.596497 0.829392
O O13 0.318071 0.500000 0.848086
O O14 0.237558 0.625090 0.788897
O O15 0.312712 0.616410 0.935595
O O16 0.777192 0.376875 0.379978
O O17 0.750994 0.254615 0.323154
O O18 0.000000 0.308978 0.328435
O O19 0.000000 0.891480 0.873338
O O20 0.841593 0.000000 0.868399
O O21 0.500000 0.808002 0.308041
O O22 0.500000 0.640972 0.038416
#
# Coordination Sequence:
#
# PCOD9375340 Si02
#       8
#     8   8   8   8   8   8   8   8
#     4   9  20  38  59  85 117 153 195 242 294 354
#     4  10  22  39  60  88 121 155 198 251 303 361
#     4  10  21  36  56  86 122 157 196 243 297 359
#     4  10  23  43  66  93 124 161 206 255 309 367
#     4  11  22  36  56  84 120 159 200 246 296 352
#     4   9  19  36  56  82 118 156 194 236 285 347
#     4  11  24  42  62  87 120 158 202 248 300 359
#     4  10  21  40  63  89 122 157 199 249 304 363
#
# _framework density 20.290642999999999
#
# number of rings (size 3 to 8) (size 9 to 14) (size 15 to 20)
#    0.000    2.000    1.250    2.250    1.750    5.500 
#    0.000    3.750    0.000    0.000    0.000    0.000 
#    0.000    0.000    0.000    0.000    0.000    0.000 
#
# Total GULP energy -178507.094490 kJ/mol
# GULP energy per Si atom -5578.346703 kJ/mol
# Density = 2.024446 g / cm^3
# Si number density = 20.290643 Si / 1000 Ang^3
#
#
#
# Elastic Constant Matrix: (Units=GPa)
#
#
# Indices 1 2 3 4 5 6 
#
# 1 93.4118 69.4667 16.9696 0.0000 0.0000 0.0000
# 2 69.4667 124.8308 8.3799 0.0000 0.0000 0.0000
# 3 16.9696 8.3799 41.2409 0.0000 0.0000 0.0000
# 4 0.0000 0.0000 0.0000 22.7069 0.0000 0.0000
# 5 0.0000 0.0000 0.0000 0.0000 30.0239 0.0000
# 6 0.0000 0.0000 0.0000 0.0000 0.0000 36.1759
#
#
#
# Elastic Compliance Matrix: (Units=1/GPa)
#
#
# Indices 1 2 3 4 5 6 
#
# 1 0.019596 -0.010507 -0.005928 0.000000 0.000000 0.000000
# 2 -0.010507 0.013755 0.001528 0.000000 0.000000 0.000000
# 3 -0.005928 0.001528 0.026377 0.000000 0.000000 0.000000
# 4 0.000000 0.000000 0.000000 0.044039 0.000000 0.000000
# 5 0.000000 0.000000 0.000000 0.000000 0.033307 0.000000
# 6 0.000000 0.000000 0.000000 0.000000 0.000000 0.027643
#
#
# Mechanical properties :
#
#
# Convention : Reuss Voigt Hill
#
# Bulk Modulus (GPa) = 33.42916 49.90176 41.66546
# Shear Modulus (GPa) = 24.44974 28.75917 26.60445
#
# Velocity S-wave (km/s) = 3.47504 3.76887 3.62493
# Velocity P-wave (km/s) = 5.71071 6.60197 6.17245
#
# Compressibility (1/GPa) = 0.02991400
#
# Stress axis : x y z
#
# Youngs Moduli (GPa) = 51.03156 72.70011 37.91248
#
# Poissons Ratio (x) = 0.76385 0.22475
# Poissons Ratio (y) = 0.53618 -0.05794
# Poissons Ratio (z) = 0.30253 -0.11111
#
# Static dielectric constant tensor:
#      x y z
#    x 1.718220 0.000000 0.000000 
#    y 0.000000 1.741900 0.000000 
#    z 0.000000 0.000000 1.744460 
# 
# From -- ./inp_files/22281.got.cif
#   From: 2010.05.17/outbox.cif.g08.bks.cpg/sg44_12_cif.got.tgz:22281.got - 2010.06.03 19:37:08.
