data_PCOD9375597
_publ_section_title
;
Structure prediction by ZEFSAII (Michael W. Deem and Ramdas Pophale) SiO2 
 PCOD9375597
Probable space group: I M M 2
;
_chemical_formula_sum "Si O2"
_cell_formula_units_Z 58
_cell_length_a 9.600495
_cell_length_b 18.326423
_cell_length_c 16.142963
_cell_angle_alpha 90.000000
_cell_angle_beta 90.000000
_cell_angle_gamma 90.000000
_cell_volume 2840.237019
_symmetry_space_group_name_H-M "I M M 2"
_symmetry_group_IT_number 44
_symmetry_cell_setting 'orthorhombic'
loop_
_space_group_symop_operation_xyz
x,y,z
-x,-y,z
-x,y,z
x,-y,z
1/2+x,1/2+y,1/2+z
1/2-x,1/2-y,1/2+z
1/2-x,1/2+y,1/2+z
1/2+x,1/2-y,1/2+z
loop_
_atom_site_type_symbol
_atom_site_label
_atom_site_fract_x
_atom_site_fract_y
_atom_site_fract_z
Si Si1 0.500000 0.500000 0.742831
Si Si2 0.850732 0.415348 0.562489
Si Si3 0.835583 0.842047 0.935006
Si Si4 0.834075 0.231943 0.682430
Si Si5 0.155853 0.586051 0.927276
Si Si6 0.168173 0.081387 0.763872
Si Si7 0.256541 0.116233 0.242121
Si Si8 0.338291 0.711608 0.986971
O O1 0.621156 0.564831 0.742773
O O2 0.849287 0.500000 0.540974
O O3 0.719462 0.379680 0.518323
O O4 0.841316 0.407890 0.660771
O O5 0.000000 0.383344 0.533838
O O6 0.750241 0.767196 0.931066
O O7 0.000000 0.828355 0.936205
O O8 0.803241 0.895335 0.858560
O O9 0.787608 0.151075 0.709928
O O10 0.747204 0.296513 0.725643
O O11 0.825205 0.235416 0.582989
O O12 0.000000 0.240686 0.704696
O O13 0.175882 0.500000 0.939059
O O14 0.170188 0.602927 0.829665
O O15 0.000000 0.606362 0.954832
O O16 0.270944 0.632685 0.974418
O O17 0.000000 0.078141 0.755211
O O18 0.222365 0.000000 0.744961
O O19 0.500000 0.710609 0.964309
#
# Coordination Sequence:
#
# PCOD9375597 Si02
#       8
#     2   8   8   8   8   8   8   8
#     4  12  28  40  62 108 138 168 220 280 344 400
#     4  11  22  36  58  87 126 170 210 255 319 392
#     4  11  22  37  61  91 126 165 211 266 325 390
#     4  10  21  40  66  94 126 174 223 268 328 398
#     4  11  24  43  67  92 125 172 220 268 330 402
#     4   9  19  38  63  93 124 161 217 274 321 380
#     4  12  23  41  64  92 134 169 218 269 329 403
#     4  11  24  40  63  95 129 166 215 273 332 394
#
# _framework density 20.420829999999999
#
# number of rings (size 3 to 8) (size 9 to 14) (size 15 to 20)
#    0.000    1.241    2.759    3.310    1.931    3.862 
#    1.241    1.379    0.000    0.000    0.000    0.000 
#    0.000    0.000    0.000    0.000    0.000    0.000 
#
# Total GULP energy -161660.746394 kJ/mol
# GULP energy per Si atom -5574.508496 kJ/mol
# Density = 2.037435 g / cm^3
# Si number density = 20.420830 Si / 1000 Ang^3
#
#
#
# Elastic Constant Matrix: (Units=GPa)
#
#
# Indices 1 2 3 4 5 6 
#
# 1 97.1439 60.4886 18.0895 0.0000 0.0001 0.0000
# 2 60.4886 163.6728 22.5508 0.0000 0.0000 0.0000
# 3 18.0895 22.5508 27.6357 0.0000 -0.0002 0.0000
# 4 0.0000 0.0000 0.0000 21.1803 -0.0001 0.0000
# 5 0.0001 0.0000 -0.0002 -0.0001 108.9165 0.0000
# 6 0.0000 0.0000 0.0000 0.0000 0.0000 39.7558
#
#
#
# Elastic Compliance Matrix: (Units=1/GPa)
#
#
# Indices 1 2 3 4 5 6 
#
# 1 0.014103 -0.004439 -0.005609 0.000000 0.000000 0.000000
# 2 -0.004439 0.008281 -0.003852 0.000000 0.000000 0.000000
# 3 -0.005609 -0.003852 0.042999 0.000000 0.000000 0.000000
# 4 0.000000 0.000000 0.000000 0.047214 0.000000 0.000000
# 5 0.000000 0.000000 0.000000 0.000000 0.009181 0.000000
# 6 0.000000 0.000000 0.000000 0.000000 0.000000 0.025154
#
#
# Mechanical properties :
#
#
# Convention : Reuss Voigt Hill
#
# Bulk Modulus (GPa) = 26.60719 54.52336 40.56527
# Shear Modulus (GPa) = 26.70111 46.45876 36.57994
#
# Velocity S-wave (km/s) = 3.61992 4.77494 4.23697
# Velocity P-wave (km/s) = 5.52535 7.56029 6.62146
#
# Compressibility (1/GPa) = 0.03758383
#
# Stress axis : x y z
#
# Youngs Moduli (GPa) = 70.90925 120.75864 23.25621
#
# Poissons Ratio (x) = 0.53606 0.13044
# Poissons Ratio (y) = 0.31477 0.08957
# Poissons Ratio (z) = 0.39771 0.46511
#
# Static dielectric constant tensor:
#      x y z
#    x 1.687460 0.000000 0.000000 
#    y 0.000000 1.785190 0.000000 
#    z 0.000000 0.000000 1.718340 
# 
# From -- ./inp_files/20587.got.cif
#   From: 2010.05.17/outbox.cif.g08.bks.cpg/sg44_11_cif.got.tgz:20587.got - 2010.06.03 19:37:08.
