data_PCOD9375086
_publ_section_title
;
Structure prediction by ZEFSAII (Michael W. Deem and Ramdas Pophale) SiO2 
 PCOD9375086
Probable space group: I M M 2
;
_chemical_formula_sum "Si O2"
_cell_formula_units_Z 48
_cell_length_a 10.535300
_cell_length_b 8.661728
_cell_length_c 29.154857
_cell_angle_alpha 90.000000
_cell_angle_beta 90.000000
_cell_angle_gamma 90.000000
_cell_volume 2660.494493
_symmetry_space_group_name_H-M "I M M 2"
_symmetry_group_IT_number 44
_symmetry_cell_setting 'orthorhombic'
loop_
_space_group_symop_operation_xyz
x,y,z
-x,-y,z
-x,y,z
x,-y,z
1/2+x,1/2+y,1/2+z
1/2-x,1/2-y,1/2+z
1/2-x,1/2+y,1/2+z
1/2+x,1/2-y,1/2+z
loop_
_atom_site_type_symbol
_atom_site_label
_atom_site_fract_x
_atom_site_fract_y
_atom_site_fract_z
Si Si1 0.000000 0.314531 0.278780
Si Si2 0.000000 0.684948 0.385815
Si Si3 0.740801 0.686621 0.940418
Si Si4 0.500000 0.315510 0.287215
Si Si5 0.648342 0.685693 0.038538
Si Si6 0.852409 0.314365 0.635784
Si Si7 0.244606 0.313996 0.733998
Si Si8 0.000000 0.686922 0.889878
O O1 0.000000 0.268946 0.332414
O O2 0.874295 0.249839 0.254737
O O3 0.000000 0.500000 0.276412
O O4 0.124252 0.748681 0.411089
O O5 0.000000 0.500000 0.388207
O O6 0.732679 0.500000 0.939742
O O7 0.873918 0.731210 0.917806
O O8 0.723642 0.736158 0.993308
O O9 0.500000 0.500000 0.284310
O O10 0.375287 0.248904 0.262396
O O11 0.500000 0.262084 0.339922
O O12 0.500000 0.731898 0.032783
O O13 0.651819 0.500000 0.040674
O O14 0.693787 0.750546 0.087143
O O15 0.851688 0.500000 0.633795
O O16 0.775553 0.267095 0.680870
O O17 0.000000 0.264760 0.641545
O O18 0.243825 0.500000 0.736309
O O19 0.000000 0.500000 0.884690
#
# Coordination Sequence:
#
# PCOD9375086 Si02
#       8
#     4   4   8   4   8   8   8   4
#     4  11  25  41  56  85 122 152 189 238 292 341
#     4  11  23  37  56  81 110 147 189 231 278 331
#     4  10  20  37  58  83 113 146 188 232 274 331
#     4  12  24  38  59  86 117 150 191 246 293 334
#     4   9  17  31  53  81 111 143 182 229 280 331
#     4   9  18  34  56  83 112 142 184 234 277 329
#     4  11  22  40  62  85 114 153 197 235 280 345
#     4  10  22  38  59  82 111 153 193 229 279 342
#
# _framework density 18.041758000000002
#
# number of rings (size 3 to 8) (size 9 to 14) (size 15 to 20)
#    0.000    1.833    1.667    2.750    0.000    6.667 
#    0.000    0.833    0.000    1.000    0.000    0.000 
#    0.000    0.000    0.000    0.000    0.000    0.000 
#
# Total GULP energy -134037.771790 kJ/mol
# GULP energy per Si atom -5584.907158 kJ/mol
# Density = 1.800069 g / cm^3
# Si number density = 18.041758 Si / 1000 Ang^3
#
#
#
# Elastic Constant Matrix: (Units=GPa)
#
#
# Indices 1 2 3 4 5 6 
#
# 1 152.6192 39.3411 105.6408 0.0000 0.0000 0.0000
# 2 39.3411 33.2565 50.0876 0.0000 0.0000 0.0000
# 3 105.6408 50.0876 219.7322 0.0000 0.0000 0.0000
# 4 0.0000 0.0000 0.0000 33.0088 0.0000 0.0000
# 5 0.0000 0.0000 0.0000 0.0000 -9.4068 0.0000
# 6 0.0000 0.0000 0.0000 0.0000 0.0000 13.9839
#
#
#
# Elastic Compliance Matrix: (Units=1/GPa)
#
#
# Indices 1 2 3 4 5 6 
#
# 1 0.010969 -0.007665 -0.003526 0.000000 0.000000 0.000000
# 2 -0.007665 0.051145 -0.007974 0.000000 0.000000 0.000000
# 3 -0.003526 -0.007974 0.008064 0.000000 0.000000 0.000000
# 4 0.000000 0.000000 0.000000 0.030295 0.000000 0.000000
# 5 0.000000 0.000000 0.000000 0.000000 -0.106306 0.000000
# 6 0.000000 0.000000 0.000000 0.000000 0.000000 0.071511
#
#
# Mechanical properties :
#
#
# Convention : Reuss Voigt Hill
#
# Bulk Modulus (GPa) = 31.39828 88.41632 59.90730
# Shear Modulus (GPa) = 43.62137 21.55309 32.58723
#
# Velocity S-wave (km/s) = 4.92245 3.46008 4.25457
# Velocity P-wave (km/s) = 7.05324 8.06695 7.57707
#
# Compressibility (1/GPa) = 0.03184888
#
# Stress axis : x y z
#
# Youngs Moduli (GPa) = 91.16679 19.55218 124.00912
#
# Poissons Ratio (x) = 0.14986 0.43730
# Poissons Ratio (y) = 0.69876 0.98879
# Poissons Ratio (z) = 0.32149 0.15590
#
# Static dielectric constant tensor:
#      x y z
#    x 1.583040 0.000000 0.000000 
#    y 0.000000 1.612470 0.000000 
#    z 0.000000 0.000000 1.615330 
# 
# From -- ./inp_files/26996.got.cif
#   From: 2010.05.17/outbox.cif.g08.bks.cpg/sg44_14_cif.got.tgz:26996.got - 2010.06.03 19:37:08.
