data_PCOD9375462
_publ_section_title
;
Structure prediction by ZEFSAII (Michael W. Deem and Ramdas Pophale) SiO2 
 PCOD9375462
Probable space group: I M M 2
;
_chemical_formula_sum "Si O2"
_cell_formula_units_Z 64
_cell_length_a 14.506624
_cell_length_b 18.283650
_cell_length_c 11.783183
_cell_angle_alpha 90.000000
_cell_angle_beta 90.000000
_cell_angle_gamma 90.000000
_cell_volume 3125.301183
_symmetry_space_group_name_H-M "I M M 2"
_symmetry_group_IT_number 44
_symmetry_cell_setting 'orthorhombic'
loop_
_space_group_symop_operation_xyz
x,y,z
-x,-y,z
-x,y,z
x,-y,z
1/2+x,1/2+y,1/2+z
1/2-x,1/2-y,1/2+z
1/2-x,1/2+y,1/2+z
1/2+x,1/2-y,1/2+z
loop_
_atom_site_type_symbol
_atom_site_label
_atom_site_fract_x
_atom_site_fract_y
_atom_site_fract_z
Si Si1 0.889440 0.918743 0.103830
Si Si2 0.397581 0.193276 0.054737
Si Si3 0.109480 0.420312 0.377819
Si Si4 0.612551 0.584441 0.094598
Si Si5 0.801477 0.226136 0.002982
Si Si6 0.110862 0.864208 0.344942
Si Si7 0.105611 0.214951 0.766181
Si Si8 0.388819 0.788125 0.721217
O O1 0.833209 0.855220 0.042452
O O2 0.866208 0.915729 0.237825
O O3 0.000000 0.903444 0.093608
O O4 0.872224 0.000000 0.058691
O O5 0.500000 0.218666 0.013510
O O6 0.307749 0.233138 0.009700
O O7 0.395573 0.213473 0.185887
O O8 0.385957 0.112370 0.005051
O O9 0.151829 0.500000 0.366785
O O10 0.143891 0.358944 0.290766
O O11 0.000000 0.425678 0.354526
O O12 0.500000 0.585281 0.093153
O O13 0.640495 0.500000 0.117604
O O14 0.637390 0.645673 0.189204
O O15 0.644635 0.608970 0.968024
O O16 0.846483 0.279010 0.096714
O O17 0.837156 0.232729 0.876531
O O18 0.134459 0.784511 0.293455
O O19 0.000000 0.865188 0.355021
O O20 0.000000 0.198982 0.800226
O O21 0.500000 0.790122 0.711416
#
# Coordination Sequence:
#
# PCOD9375462 Si02
#       8
#     8   8   8   8   8   8   8   8
#     4   9  17  30  51  86 129 165 199 245 302 363
#     4  10  23  41  61  85 116 156 205 256 302 352
#     4   9  18  35  61  89 117 152 199 258 312 351
#     4   9  16  27  48  79 116 158 195 229 283 357
#     4  11  22  35  60  84 120 160 205 240 298 365
#     4   8  13  24  45  77 119 162 200 237 282 342
#     4  10  21  38  57  83 120 157 193 241 301 364
#     4   9  17  31  56  91 121 152 198 251 301 360
#
# _framework density 20.478027999999998
#
# number of rings (size 3 to 8) (size 9 to 14) (size 15 to 20)
#    0.000    2.625    0.000    3.000    1.750    5.500 
#    0.000    1.250    0.000    0.750    0.000    3.500 
#    0.000    0.000    0.000    0.000    0.000    0.000 
#
# Total GULP energy -178460.158604 kJ/mol
# GULP energy per Si atom -5576.879956 kJ/mol
# Density = 2.043142 g / cm^3
# Si number density = 20.478028 Si / 1000 Ang^3
#
#
#
# Elastic Constant Matrix: (Units=GPa)
#
#
# Indices 1 2 3 4 5 6 
#
# 1 76.2407 15.9103 44.7667 0.0000 0.0000 0.0000
# 2 15.9103 133.5783 51.3460 0.0000 0.0000 0.0000
# 3 44.7667 51.3460 130.0965 0.0000 0.0000 0.0000
# 4 0.0000 0.0000 0.0000 15.1267 0.0000 0.0000
# 5 0.0000 0.0000 0.0000 0.0000 18.3716 0.0000
# 6 0.0000 0.0000 0.0000 0.0000 0.0000 8.0995
#
#
#
# Elastic Compliance Matrix: (Units=1/GPa)
#
#
# Indices 1 2 3 4 5 6 
#
# 1 0.016445 0.000255 -0.005759 0.000000 0.000000 0.000000
# 2 0.000255 0.008829 -0.003572 0.000000 0.000000 0.000000
# 3 -0.005759 -0.003572 0.011078 0.000000 0.000000 0.000000
# 4 0.000000 0.000000 0.000000 0.066108 0.000000 0.000000
# 5 0.000000 0.000000 0.000000 0.000000 0.054432 0.000000
# 6 0.000000 0.000000 0.000000 0.000000 0.000000 0.123464
#
#
# Mechanical properties :
#
#
# Convention : Reuss Voigt Hill
#
# Bulk Modulus (GPa) = 54.94835 62.66240 58.80538
# Shear Modulus (GPa) = 16.41622 23.51238 19.96430
#
# Velocity S-wave (km/s) = 2.83441 3.39215 3.12575
# Velocity P-wave (km/s) = 6.13213 6.78296 6.46574
#
# Compressibility (1/GPa) = 0.01819891
#
# Stress axis : x y z
#
# Youngs Moduli (GPa) = 60.80904 113.26244 90.26566
#
# Poissons Ratio (x) = -0.02890 0.51988
# Poissons Ratio (y) = -0.01552 0.32247
# Poissons Ratio (z) = 0.35023 0.40462
#
# Static dielectric constant tensor:
#      x y z
#    x 1.752610 0.000000 0.000000 
#    y 0.000000 1.755350 0.000000 
#    z 0.000000 0.000000 1.740420 
# 
# From -- ./inp_files/13444.got.cif
#   From: 2010.05.17/outbox.cif.g08.bks.cpg/sg44_7_cif.got.tgz:13444.got - 2010.06.03 19:37:08.
