data_PCOD9375420
_publ_section_title
;
Structure prediction by ZEFSAII (Michael W. Deem and Ramdas Pophale) SiO2 
 PCOD9375420
Probable space group: I M M 2
;
_chemical_formula_sum "Si O2"
_cell_formula_units_Z 64
_cell_length_a 24.681672
_cell_length_b 9.174789
_cell_length_c 13.937683
_cell_angle_alpha 90.000000
_cell_angle_beta 90.000000
_cell_angle_gamma 90.000000
_cell_volume 3156.176228
_symmetry_space_group_name_H-M "I M M 2"
_symmetry_group_IT_number 44
_symmetry_cell_setting 'orthorhombic'
loop_
_space_group_symop_operation_xyz
x,y,z
-x,-y,z
-x,y,z
x,-y,z
1/2+x,1/2+y,1/2+z
1/2-x,1/2-y,1/2+z
1/2-x,1/2+y,1/2+z
1/2+x,1/2-y,1/2+z
loop_
_atom_site_type_symbol
_atom_site_label
_atom_site_fract_x
_atom_site_fract_y
_atom_site_fract_z
Si Si1 0.393997 0.826188 0.044660
Si Si2 0.726630 0.327671 0.244079
Si Si3 0.656953 0.165970 0.768650
Si Si4 0.559926 0.673025 0.866775
Si Si5 0.559881 0.324807 0.448258
Si Si6 0.662628 0.167602 0.536652
Si Si7 0.395281 0.671115 0.247884
Si Si8 0.229168 0.672464 0.541079
O O1 0.401376 0.762545 0.151190
O O2 0.332207 0.791789 0.009762
O O3 0.399908 0.000000 0.045927
O O4 0.433234 0.750627 0.969256
O O5 0.730659 0.500000 0.213548
O O6 0.781545 0.300238 0.302924
O O7 0.666706 0.311963 0.286403
O O8 0.727520 0.220677 0.153173
O O9 0.609243 0.268903 0.802929
O O10 0.661337 0.170227 0.653020
O O11 0.644128 0.000000 0.798821
O O12 0.500000 0.706581 0.826759
O O13 0.564254 0.500000 0.878384
O O14 0.500000 0.282385 0.482843
O O15 0.565180 0.500000 0.456979
O O16 0.609216 0.248977 0.501487
O O17 0.565971 0.289822 0.335282
O O18 0.718367 0.243228 0.503006
O O19 0.662140 0.000000 0.505374
O O20 0.402429 0.500000 0.224270
O O21 0.237397 0.500000 0.530125
#
# Coordination Sequence:
#
# PCOD9375420 Si02
#       8
#     8   8   8   8   8   8   8   8
#     4  10  21  37  59  86 114 145 181 224 276 331
#     4   8  15  30  53  81 111 142 177 219 272 331
#     4   9  19  36  57  81 109 140 177 226 281 332
#     4  11  25  41  56  78 108 145 191 235 274 324
#     4  10  22  38  55  79 112 151 194 234 273 322
#     4  10  21  37  58  84 113 146 184 227 277 330
#     4   9  18  35  58  82 113 150 184 223 272 326
#     4   9  17  31  54  84 114 142 176 219 271 332
#
# _framework density 20.277702000000001
#
# number of rings (size 3 to 8) (size 9 to 14) (size 15 to 20)
#    0.000    2.500    0.000    2.250    0.000    7.750 
#    0.000    6.250    0.000    0.000    0.000    0.000 
#    0.000    0.000    0.000    0.000    0.000    0.000 
#
# Total GULP energy -178587.554893 kJ/mol
# GULP energy per Si atom -5580.861090 kJ/mol
# Density = 2.023155 g / cm^3
# Si number density = 20.277702 Si / 1000 Ang^3
#
#
#
# Elastic Constant Matrix: (Units=GPa)
#
#
# Indices 1 2 3 4 5 6 
#
# 1 107.4299 46.0279 7.9825 0.0000 0.0000 0.0000
# 2 46.0279 53.3364 10.3587 0.0000 0.0000 0.0000
# 3 7.9825 10.3587 29.3230 0.0000 0.0000 0.0000
# 4 0.0000 0.0000 0.0000 26.2895 0.0000 0.0000
# 5 0.0000 0.0000 0.0000 0.0000 25.4675 0.0000
# 6 0.0000 0.0000 0.0000 0.0000 0.0000 26.2247
#
#
#
# Elastic Compliance Matrix: (Units=1/GPa)
#
#
# Indices 1 2 3 4 5 6 
#
# 1 0.014776 -0.012852 0.000518 0.000000 0.000000 0.000000
# 2 -0.012852 0.031309 -0.007561 0.000000 0.000000 0.000000
# 3 0.000518 -0.007561 0.036633 0.000000 0.000000 0.000000
# 4 0.000000 0.000000 0.000000 0.038038 0.000000 0.000000
# 5 0.000000 0.000000 0.000000 0.000000 0.039266 0.000000
# 6 0.000000 0.000000 0.000000 0.000000 0.000000 0.038132
#
#
# Mechanical properties :
#
#
# Convention : Reuss Voigt Hill
#
# Bulk Modulus (GPa) = 23.29580 35.42530 29.36055
# Shear Modulus (GPa) = 19.82126 23.97768 21.89947
#
# Velocity S-wave (km/s) = 3.12988 3.44243 3.28987
# Velocity P-wave (km/s) = 4.95730 5.77135 5.37974
#
# Compressibility (1/GPa) = 0.04292618
#
# Stress axis : x y z
#
# Youngs Moduli (GPa) = 67.67551 31.94016 27.29769
#
# Poissons Ratio (x) = 0.41050 -0.01413
# Poissons Ratio (y) = 0.86978 0.20641
# Poissons Ratio (z) = -0.03503 0.24151
#
# Static dielectric constant tensor:
#      x y z
#    x 1.736290 0.000000 0.000000 
#    y 0.000000 1.674140 0.000000 
#    z 0.000000 0.000000 1.741120 
# 
# From -- ./inp_files/19488.got.cif
#   From: 2010.05.17/outbox.cif.g08.bks.cpg/sg44_10_cif.got.tgz:19488.got - 2010.06.03 19:37:08.
