data_PCOD9375632
_publ_section_title
;
Structure prediction by ZEFSAII (Michael W. Deem and Ramdas Pophale) SiO2 
 PCOD9375632
Probable space group: I M M 2
;
_chemical_formula_sum "Si O2"
_cell_formula_units_Z 48
_cell_length_a 32.562047
_cell_length_b 8.781064
_cell_length_c 9.237394
_cell_angle_alpha 90.000000
_cell_angle_beta 90.000000
_cell_angle_gamma 90.000000
_cell_volume 2641.242697
_symmetry_space_group_name_H-M "I M M 2"
_symmetry_group_IT_number 44
_symmetry_cell_setting 'orthorhombic'
loop_
_space_group_symop_operation_xyz
x,y,z
-x,-y,z
-x,y,z
x,-y,z
1/2+x,1/2+y,1/2+z
1/2-x,1/2-y,1/2+z
1/2-x,1/2+y,1/2+z
1/2+x,1/2-y,1/2+z
loop_
_atom_site_type_symbol
_atom_site_label
_atom_site_fract_x
_atom_site_fract_y
_atom_site_fract_z
Si Si1 0.545172 0.178821 0.185880
Si Si2 0.869456 0.180679 0.681805
Si Si3 0.133021 0.684933 0.359288
Si Si4 0.544142 0.820550 0.834359
Si Si5 0.293027 0.182088 0.348828
Si Si6 0.214856 0.683406 0.185630
O O1 0.500000 0.230904 0.236518
O O2 0.585285 0.268421 0.234316
O O3 0.549574 0.000000 0.221726
O O4 0.544521 0.188145 0.010037
O O5 0.863271 0.250639 0.521252
O O6 0.833897 0.244568 0.783466
O O7 0.867189 0.000000 0.672424
O O8 0.131223 0.500000 0.369031
O O9 0.089213 0.738831 0.292607
O O10 0.172563 0.726633 0.265652
O O11 0.500000 0.754050 0.785798
O O12 0.543359 0.000000 0.796305
O O13 0.253642 0.239306 0.260593
O O14 0.287510 0.223160 0.516899
O O15 0.296265 0.000000 0.337731
O O16 0.219257 0.500000 0.197268
#
# Coordination Sequence:
#
# PCOD9375632 Si02
#       6
#     8   8   8   8   8   8
#     4   8  14  27  48  73 102 137 175 213 254 298
#     4  11  21  32  50  78 109 139 174 212 253 304
#     4   9  17  32  53  76 105 138 171 212 259 304
#     4   7  10  19  40  70  99 128 163 200 239 284
#     4  11  23  38  55  74 100 133 169 211 260 314
#     4  10  22  38  56  78 101 129 170 216 261 311
#
# _framework density 18.173264
#
# number of rings (size 3 to 8) (size 9 to 14) (size 15 to 20)
#    0.000    2.667    0.000    5.000    0.000    5.000 
#    0.000    0.000    0.000    1.000    0.000    4.667 
#    0.000    2.667    0.000    0.000    0.000    0.000 
#
# Total GULP energy -133755.394196 kJ/mol
# GULP energy per Si atom -5573.141425 kJ/mol
# Density = 1.813190 g / cm^3
# Si number density = 18.173264 Si / 1000 Ang^3
#
#
#
# Elastic Constant Matrix: (Units=GPa)
#
#
# Indices 1 2 3 4 5 6 
#
# 1 209.3508 59.7102 74.8238 0.0000 0.0000 0.0000
# 2 59.7102 36.2428 35.8216 0.0000 0.0000 0.0000
# 3 74.8238 35.8216 69.1952 0.0000 0.0000 0.0000
# 4 0.0000 0.0000 0.0000 15.8584 0.0000 0.0000
# 5 0.0000 0.0000 0.0000 0.0000 22.7618 0.0000
# 6 0.0000 0.0000 0.0000 0.0000 0.0000 27.2757
#
#
#
# Elastic Compliance Matrix: (Units=1/GPa)
#
#
# Indices 1 2 3 4 5 6 
#
# 1 0.009654 -0.011441 -0.004516 0.000000 0.000000 0.000000
# 2 -0.011441 0.070062 -0.023898 0.000000 0.000000 0.000000
# 3 -0.004516 -0.023898 0.031707 0.000000 0.000000 0.000000
# 4 0.000000 0.000000 0.000000 0.063058 0.000000 0.000000
# 5 0.000000 0.000000 0.000000 0.000000 0.043933 0.000000
# 6 0.000000 0.000000 0.000000 0.000000 0.000000 0.036663
#
#
# Mechanical properties :
#
#
# Convention : Reuss Voigt Hill
#
# Bulk Modulus (GPa) = 31.53425 72.83332 52.18378
# Shear Modulus (GPa) = 14.47767 22.80807 18.64287
#
# Velocity S-wave (km/s) = 2.82556 3.54649 3.20635
# Velocity P-wave (km/s) = 5.29478 7.54548 6.51801
#
# Compressibility (1/GPa) = 0.03171155
#
# Stress axis : x y z
#
# Youngs Moduli (GPa) = 103.58288 14.27312 31.53834
#
# Poissons Ratio (x) = 0.16330 0.14244
# Poissons Ratio (y) = 1.18512 0.75371
# Poissons Ratio (z) = 0.46782 0.34110
#
# Static dielectric constant tensor:
#      x y z
#    x 1.665370 0.000000 0.000000 
#    y 0.000000 1.613180 0.000000 
#    z 0.000000 0.000000 1.598870 
# 
# From -- ./inp_files/4932.got.cif
#   From: 2010.05.17/outbox.cif.g08.bks.cpg/sg44_3_cif.got.tgz:4932.got - 2010.06.03 19:37:08.
