data_PCOD9375908
_publ_section_title
;
Structure prediction by ZEFSAII (Michael W. Deem and Ramdas Pophale) SiO2 
 PCOD9375908
Probable space group: I M M 2
;
_chemical_formula_sum "Si O2"
_cell_formula_units_Z 40
_cell_length_a 7.894507
_cell_length_b 7.342435
_cell_length_c 30.835138
_cell_angle_alpha 90.000000
_cell_angle_beta 90.000000
_cell_angle_gamma 90.000000
_cell_volume 1787.355830
_symmetry_space_group_name_H-M "I M M 2"
_symmetry_group_IT_number 44
_symmetry_cell_setting 'orthorhombic'
loop_
_space_group_symop_operation_xyz
x,y,z
-x,-y,z
-x,y,z
x,-y,z
1/2+x,1/2+y,1/2+z
1/2-x,1/2-y,1/2+z
1/2-x,1/2+y,1/2+z
1/2+x,1/2-y,1/2+z
loop_
_atom_site_type_symbol
_atom_site_label
_atom_site_fract_x
_atom_site_fract_y
_atom_site_fract_z
Si Si1 0.314515 0.777826 0.160860
Si Si2 0.500000 0.722260 0.718866
Si Si3 0.193057 0.287212 0.877179
Si Si4 0.500000 0.723672 0.818766
Si Si5 0.801095 0.218666 0.973376
Si Si6 0.300160 0.278767 0.566986
O O1 0.500000 0.723096 0.176036
O O2 0.285739 0.717482 0.111225
O O3 0.164725 0.718498 0.192183
O O4 0.309166 0.000000 0.160069
O O5 0.500000 0.500000 0.718665
O O6 0.500000 0.778599 0.768709
O O7 0.176662 0.500000 0.867076
O O8 0.331704 0.213353 0.844035
O O9 0.263420 0.275803 0.926449
O O10 0.000000 0.210768 0.876019
O O11 0.500000 0.500000 0.820038
O O12 0.000000 0.271682 0.973538
O O13 0.792695 0.000000 0.973633
O O14 0.731498 0.281849 0.019954
O O15 0.500000 0.233402 0.569480
O O16 0.290336 0.500000 0.566829
#
# Coordination Sequence:
#
# PCOD9375908 Si02
#       6
#     8   4   8   4   8   8
#     4   9  15  22  34  53  78 107 137 170 209 255
#     4   9  16  26  38  53  77 109 143 175 210 257
#     4   9  17  30  46  62  85 117 149 181 217 258
#     4   9  18  30  43  59  81 113 151 187 222 257
#     4   8  14  25  43  65  89 118 147 177 215 257
#     4   8  12  21  36  53  80 114 139 164 207 255
#
# _framework density 22.379427
#
# number of rings (size 3 to 8) (size 9 to 14) (size 15 to 20)
#    0.000    3.400    1.000    1.200    0.000    0.800 
#    1.800    4.500    0.000    0.000    0.000    0.000 
#    0.000    3.200    0.000    1.000    0.000    0.400 
#
# Total GULP energy -111549.995964 kJ/mol
# GULP energy per Si atom -5577.499798 kJ/mol
# Density = 2.232849 g / cm^3
# Si number density = 22.379427 Si / 1000 Ang^3
#
#
#
# Elastic Constant Matrix: (Units=GPa)
#
#
# Indices 1 2 3 4 5 6 
#
# 1 143.9083 4.8147 118.1400 0.0000 0.0000 0.0000
# 2 4.8147 80.2715 4.3069 0.0000 0.0000 0.0000
# 3 118.1400 4.3069 215.0691 0.0000 0.0000 0.0000
# 4 0.0000 0.0000 0.0000 8.5139 0.0000 0.0000
# 5 0.0000 0.0000 0.0000 0.0000 -15.7004 0.0000
# 6 0.0000 0.0000 0.0000 0.0000 0.0000 -12.0063
#
#
#
# Elastic Compliance Matrix: (Units=1/GPa)
#
#
# Indices 1 2 3 4 5 6 
#
# 1 0.012668 -0.000387 -0.006951 0.000000 0.000000 0.000000
# 2 -0.000387 0.012483 -0.000037 0.000000 0.000000 0.000000
# 3 -0.006951 -0.000037 0.008469 0.000000 0.000000 0.000000
# 4 0.000000 0.000000 0.000000 0.117454 0.000000 0.000000
# 5 0.000000 0.000000 0.000000 0.000000 -0.063693 0.000000
# 6 0.000000 0.000000 0.000000 0.000000 0.000000 -0.083289
#
#
# Mechanical properties :
#
#
# Convention : Reuss Voigt Hill
#
# Bulk Modulus (GPa) = 52.99679 77.08580 65.04129
# Shear Modulus (GPa) = 198.94581 16.96060 107.95320
#
# Velocity S-wave (km/s) = 9.43874 2.75592 6.95287
# Velocity P-wave (km/s) = 11.93812 6.68181 9.67381
#
# Compressibility (1/GPa) = 0.01886907
#
# Stress axis : x y z
#
# Youngs Moduli (GPa) = 78.93775 80.10934 118.08168
#
# Poissons Ratio (x) = 0.03099 0.82079
# Poissons Ratio (y) = 0.03054 0.00442
# Poissons Ratio (z) = 0.54870 0.00300
#
# Static dielectric constant tensor:
#      x y z
#    x 1.814790 0.000000 0.000000 
#    y 0.000000 1.955290 0.000000 
#    z 0.000000 0.000000 1.801290 
# 
# From -- ./inp_files/25953.got.cif
#   From: 2010.05.17/outbox.cif.g08.bks.cpg/sg44_13_cif.got.tgz:25953.got - 2010.06.03 19:37:08.
