data_PCOD9375216
_publ_section_title
;
Structure prediction by ZEFSAII (Michael W. Deem and Ramdas Pophale) SiO2 
 PCOD9375216
Probable space group: I M M 2
;
_chemical_formula_sum "Si O2"
_cell_formula_units_Z 48
_cell_length_a 18.235417
_cell_length_b 22.848260
_cell_length_c 5.190275
_cell_angle_alpha 90.000000
_cell_angle_beta 90.000000
_cell_angle_gamma 90.000000
_cell_volume 2162.515356
_symmetry_space_group_name_H-M "I M M 2"
_symmetry_group_IT_number 44
_symmetry_cell_setting 'orthorhombic'
loop_
_space_group_symop_operation_xyz
x,y,z
-x,-y,z
-x,y,z
x,-y,z
1/2+x,1/2+y,1/2+z
1/2-x,1/2-y,1/2+z
1/2-x,1/2+y,1/2+z
1/2+x,1/2-y,1/2+z
loop_
_atom_site_type_symbol
_atom_site_label
_atom_site_fract_x
_atom_site_fract_y
_atom_site_fract_z
Si Si1 0.823786 0.929341 0.526390
Si Si2 0.782476 0.276953 0.380810
Si Si3 0.691651 0.124366 0.241023
Si Si4 0.416594 0.429063 0.519893
Si Si5 0.416448 0.182928 0.602426
Si Si6 0.919487 0.563239 0.422062
O O1 0.747854 0.898336 0.452561
O O2 0.879136 0.915864 0.291586
O O3 0.812080 0.000000 0.534887
O O4 0.864054 0.910764 0.786951
O O5 0.736873 0.265662 0.118907
O O6 0.866626 0.275870 0.282142
O O7 0.769440 0.339980 0.512376
O O8 0.646006 0.071489 0.120658
O O9 0.631079 0.169776 0.349378
O O10 0.500000 0.406998 0.499034
O O11 0.420316 0.500000 0.503712
O O12 0.500000 0.201651 0.561021
O O13 0.417342 0.118817 0.736238
O O14 0.913598 0.500000 0.290933
O O15 0.000000 0.565573 0.552014
#
# Coordination Sequence:
#
# PCOD9375216 Si02
#       6
#     8   8   8   8   8   8
#     4  10  21  33  55  90 124 161 204 251 307 370
#     4  11  23  44  68  93 118 159 208 270 330 382
#     4  11  22  36  62  92 128 166 209 266 313 390
#     4   9  18  34  54  77 110 157 209 253 296 353
#     4  10  22  40  66  97 129 172 221 264 315 391
#     4   9  19  34  53  86 135 184 220 253 301 363
#
# _framework density 22.196373999999999
#
# number of rings (size 3 to 8) (size 9 to 14) (size 15 to 20)
#    0.000    2.000    1.667    1.500    4.667    4.000 
#    0.000    1.667    0.000    6.000    0.000    0.000 
#    0.000    0.000    0.000    0.000    0.000    0.000 
#
# Total GULP energy -134002.334045 kJ/mol
# GULP energy per Si atom -5583.430585 kJ/mol
# Density = 2.214585 g / cm^3
# Si number density = 22.196374 Si / 1000 Ang^3
#
#
#
# Elastic Constant Matrix: (Units=GPa)
#
#
# Indices 1 2 3 4 5 6 
#
# 1 133.4531 40.0725 47.3474 0.0000 0.0000 0.0000
# 2 40.0725 44.4307 24.9335 0.0000 0.0000 0.0000
# 3 47.3474 24.9335 113.5217 0.0000 0.0000 0.0000
# 4 0.0000 0.0000 0.0000 23.3703 0.0000 0.0000
# 5 0.0000 0.0000 0.0000 0.0000 30.7180 0.0000
# 6 0.0000 0.0000 0.0000 0.0000 0.0000 24.2007
#
#
#
# Elastic Compliance Matrix: (Units=1/GPa)
#
#
# Indices 1 2 3 4 5 6 
#
# 1 0.010977 -0.008361 -0.002742 0.000000 0.000000 0.000000
# 2 -0.008361 0.032040 -0.003550 0.000000 0.000000 0.000000
# 3 -0.002742 -0.003550 0.010732 0.000000 0.000000 0.000000
# 4 0.000000 0.000000 0.000000 0.042789 0.000000 0.000000
# 5 0.000000 0.000000 0.000000 0.000000 0.032554 0.000000
# 6 0.000000 0.000000 0.000000 0.000000 0.000000 0.041321
#
#
# Mechanical properties :
#
#
# Convention : Reuss Voigt Hill
#
# Bulk Modulus (GPa) = 40.91120 57.34580 49.12850
# Shear Modulus (GPa) = 24.05378 27.59460 25.82419
#
# Velocity S-wave (km/s) = 3.29550 3.52973 3.41463
# Velocity P-wave (km/s) = 5.74038 6.51949 6.14230
#
# Compressibility (1/GPa) = 0.02444318
#
# Stress axis : x y z
#
# Youngs Moduli (GPa) = 91.10202 31.21064 93.17886
#
# Poissons Ratio (x) = 0.26097 0.25546
# Poissons Ratio (y) = 0.76175 0.33077
# Poissons Ratio (z) = 0.24977 0.11079
#
# Static dielectric constant tensor:
#      x y z
#    x 1.835000 0.000000 0.000000 
#    y 0.000000 1.861560 0.000000 
#    z 0.000000 0.000000 1.837290 
# 
# From -- ./inp_files/1577.got.cif
#   From: 2010.05.17/outbox.cif.g08.bks.cpg/sg44_1_cif.got.tgz:1577.got - 2010.06.03 19:37:08.
