data_PCOD9375813
_publ_section_title
;
Structure prediction by ZEFSAII (Michael W. Deem and Ramdas Pophale) SiO2 
 PCOD9375813
Probable space group: I M M 2
;
_chemical_formula_sum "Si O2"
_cell_formula_units_Z 40
_cell_length_a 8.882914
_cell_length_b 12.973478
_cell_length_c 21.291200
_cell_angle_alpha 90.000000
_cell_angle_beta 90.000000
_cell_angle_gamma 90.000000
_cell_volume 2453.646631
_symmetry_space_group_name_H-M "I M M 2"
_symmetry_group_IT_number 44
_symmetry_cell_setting 'orthorhombic'
loop_
_space_group_symop_operation_xyz
x,y,z
-x,-y,z
-x,y,z
x,-y,z
1/2+x,1/2+y,1/2+z
1/2-x,1/2-y,1/2+z
1/2-x,1/2+y,1/2+z
1/2+x,1/2-y,1/2+z
loop_
_atom_site_type_symbol
_atom_site_label
_atom_site_fract_x
_atom_site_fract_y
_atom_site_fract_z
Si Si1 0.680648 0.616386 0.819060
Si Si2 0.820521 0.173279 0.785583
Si Si3 0.320612 0.331576 0.964541
Si Si4 0.679274 0.000000 0.552737
Si Si5 0.681205 0.000000 0.698519
Si Si6 0.819647 0.385248 0.419190
O O1 0.500000 0.628970 0.812404
O O2 0.721216 0.500000 0.800129
O O3 0.763354 0.708744 0.783477
O O4 0.713754 0.629671 0.893619
O O5 0.746532 0.100159 0.733604
O O6 0.764017 0.131433 0.853251
O O7 0.000000 0.168162 0.781988
O O8 0.500000 0.342553 0.973055
O O9 0.280757 0.210426 0.963911
O O10 0.239655 0.400675 0.015583
O O11 0.725308 0.000000 0.625473
O O12 0.500000 0.000000 0.550478
O O13 0.500000 0.000000 0.703842
O O14 0.788544 0.500000 0.443359
O O15 0.000000 0.377281 0.406849
#
# Coordination Sequence:
#
# PCOD9375813 Si02
#       6
#     8   8   8   4   4   8
#     4   9  17  32  53  75 103 140 170 196 244 312
#     4  11  21  31  48  78 105 128 167 216 265 298
#     4   9  17  31  50  74 101 132 170 204 246 304
#     4  11  23  35  51  73  99 135 176 217 256 291
#     4  11  23  39  53  67  97 141 182 213 252 315
#     4   9  17  31  52  74 102 138 166 198 248 312
#
# _framework density 16.302267000000001
#
# number of rings (size 3 to 8) (size 9 to 14) (size 15 to 20)
#    0.000    2.200    2.000    3.600    0.000    5.200 
#    0.000    0.000    0.000    1.200    0.000    5.600 
#    0.000    0.000    0.000    0.000    0.000    0.000 
#
# Total GULP energy -111541.773784 kJ/mol
# GULP energy per Si atom -5577.088689 kJ/mol
# Density = 1.626516 g / cm^3
# Si number density = 16.302267 Si / 1000 Ang^3
#
#
#
# Elastic Constant Matrix: (Units=GPa)
#
#
# Indices 1 2 3 4 5 6 
#
# 1 53.4449 57.5557 45.2682 0.0000 0.0000 0.0000
# 2 57.5557 180.8047 69.8664 0.0000 0.0000 0.0000
# 3 45.2682 69.8664 92.7518 0.0000 0.0000 0.0000
# 4 0.0000 0.0000 0.0000 14.9142 0.0000 0.0000
# 5 0.0000 0.0000 0.0000 0.0000 20.5571 0.0000
# 6 0.0000 0.0000 0.0000 0.0000 0.0000 17.8724
#
#
#
# Elastic Compliance Matrix: (Units=1/GPa)
#
#
# Indices 1 2 3 4 5 6 
#
# 1 0.036957 -0.006763 -0.012942 0.000000 0.000000 0.000000
# 2 -0.006763 0.009039 -0.003508 0.000000 0.000000 0.000000
# 3 -0.012942 -0.003508 0.019741 0.000000 0.000000 0.000000
# 4 0.000000 0.000000 0.000000 0.067050 0.000000 0.000000
# 5 0.000000 0.000000 0.000000 0.000000 0.048645 0.000000
# 6 0.000000 0.000000 0.000000 0.000000 0.000000 0.055952
#
#
# Mechanical properties :
#
#
# Convention : Reuss Voigt Hill
#
# Bulk Modulus (GPa) = 51.78935 74.70911 63.24923
# Shear Modulus (GPa) = 17.22664 20.95615 19.09140
#
# Velocity S-wave (km/s) = 3.25422 3.58924 3.42583
# Velocity P-wave (km/s) = 6.77917 7.94379 7.38447
#
# Compressibility (1/GPa) = 0.01930899
#
# Stress axis : x y z
#
# Youngs Moduli (GPa) = 27.05871 110.62661 50.65671
#
# Poissons Ratio (x) = 0.74819 0.65562
# Poissons Ratio (y) = 0.18300 0.17771
# Poissons Ratio (z) = 0.35021 0.38810
#
# Static dielectric constant tensor:
#      x y z
#    x 1.543660 0.000000 0.000000 
#    y 0.000000 1.581390 0.000000 
#    z 0.000000 0.000000 1.506480 
# 
# From -- ./inp_files/22787.got.cif
#   From: 2010.05.17/outbox.cif.g08.bks.cpg/sg44_12_cif.got.tgz:22787.got - 2010.06.03 19:37:08.
