data_PCOD9375506
_publ_section_title
;
Structure prediction by ZEFSAII (Michael W. Deem and Ramdas Pophale) SiO2 
 PCOD9375506
Probable space group: I M M 2
;
_chemical_formula_sum "Si O2"
_cell_formula_units_Z 64
_cell_length_a 15.902656
_cell_length_b 8.646018
_cell_length_c 24.376866
_cell_angle_alpha 90.000000
_cell_angle_beta 90.000000
_cell_angle_gamma 90.000000
_cell_volume 3351.688659
_symmetry_space_group_name_H-M "I M M 2"
_symmetry_group_IT_number 44
_symmetry_cell_setting 'orthorhombic'
loop_
_space_group_symop_operation_xyz
x,y,z
-x,-y,z
-x,y,z
x,-y,z
1/2+x,1/2+y,1/2+z
1/2-x,1/2-y,1/2+z
1/2-x,1/2+y,1/2+z
1/2+x,1/2-y,1/2+z
loop_
_atom_site_type_symbol
_atom_site_label
_atom_site_fract_x
_atom_site_fract_y
_atom_site_fract_z
Si Si1 0.906040 0.184846 0.746660
Si Si2 0.245426 0.187281 0.552775
Si Si3 0.336896 0.184499 0.859859
Si Si4 0.753340 0.683697 0.674984
Si Si5 0.649426 0.184842 0.361465
Si Si6 0.093425 0.688356 0.983043
Si Si7 0.094733 0.686381 0.240016
Si Si8 0.094838 0.814132 0.471801
O O1 0.831938 0.257418 0.710866
O O2 0.893591 0.236181 0.809510
O O3 0.000000 0.230500 0.728354
O O4 0.898961 0.000000 0.743323
O O5 0.239938 0.252740 0.613514
O O6 0.330886 0.238973 0.522222
O O7 0.165892 0.232750 0.515315
O O8 0.246306 0.000000 0.555651
O O9 0.247428 0.270023 0.860616
O O10 0.384772 0.223241 0.803522
O O11 0.387173 0.235127 0.913635
O O12 0.322766 0.000000 0.860448
O O13 0.753403 0.500000 0.674827
O O14 0.667436 0.743258 0.702723
O O15 0.612068 0.233619 0.420194
O O16 0.640284 0.000000 0.356654
O O17 0.094428 0.500000 0.983743
O O18 0.000000 0.739157 0.999608
O O19 0.098283 0.500000 0.234698
O O20 0.000000 0.736838 0.226125
O O21 0.000000 0.779746 0.490383
O O22 0.102064 0.000000 0.464402
#
# Coordination Sequence:
#
# PCOD9375506 Si02
#       8
#     8   8   8   8   8   8   8   8
#     4  11  24  42  64  91 123 161 203 246 300 364
#     4  10  21  40  61  83 116 158 207 251 296 355
#     4  11  21  35  60  91 125 161 198 240 296 361
#     4  12  26  42  62  89 121 158 204 256 310 360
#     4  11  20  35  61  93 126 159 197 243 297 355
#     4   9  18  34  59  89 119 153 194 238 287 348
#     4  10  22  41  64  89 120 162 206 246 296 360
#     4  10  21  38  61  89 120 156 199 246 298 356
#
# _framework density 19.094853000000001
#
# number of rings (size 3 to 8) (size 9 to 14) (size 15 to 20)
#    0.000    1.500    2.500    3.000    0.000    4.500 
#    0.000    2.500    0.000    1.500    0.000    0.000 
#    0.000    0.000    0.000    0.000    0.000    0.000 
#
# Total GULP energy -178852.337235 kJ/mol
# GULP energy per Si atom -5589.135539 kJ/mol
# Density = 1.905139 g / cm^3
# Si number density = 19.094853 Si / 1000 Ang^3
#
#
#
# Elastic Constant Matrix: (Units=GPa)
#
#
# Indices 1 2 3 4 5 6 
#
# 1 143.0135 30.2512 48.1716 0.0000 0.0000 0.0000
# 2 30.2512 28.0874 26.6402 0.0000 0.0000 0.0000
# 3 48.1716 26.6402 116.2045 0.0000 0.0000 0.0000
# 4 0.0000 0.0000 0.0000 34.0423 0.0000 0.0000
# 5 0.0000 0.0000 0.0000 0.0000 -1.2617 0.0000
# 6 0.0000 0.0000 0.0000 0.0000 0.0000 14.9070
#
#
#
# Elastic Compliance Matrix: (Units=1/GPa)
#
#
# Indices 1 2 3 4 5 6 
#
# 1 0.009411 -0.008224 -0.002016 0.000000 0.000000 0.000000
# 2 -0.008224 0.052682 -0.008668 0.000000 0.000000 0.000000
# 3 -0.002016 -0.008668 0.011428 0.000000 0.000000 0.000000
# 4 0.000000 0.000000 0.000000 0.029375 0.000000 0.000000
# 5 0.000000 0.000000 0.000000 0.000000 -0.792588 0.000000
# 6 0.000000 0.000000 0.000000 0.000000 0.000000 0.067082
#
#
# Mechanical properties :
#
#
# Convention : Reuss Voigt Hill
#
# Bulk Modulus (GPa) = 28.00703 55.27015 41.63859
# Shear Modulus (GPa) = -8.72767 21.68702 6.47968
#
# Velocity S-wave (km/s) = -2.14024 3.37375 1.84412
# Velocity P-wave (km/s) = 2.93116 6.64711 5.13692
#
# Compressibility (1/GPa) = 0.03570532
#
# Stress axis : x y z
#
# Youngs Moduli (GPa) = 106.25921 18.98169 87.50114
#
# Poissons Ratio (x) = 0.15610 0.17639
# Poissons Ratio (y) = 0.87387 0.75849
# Poissons Ratio (z) = 0.21420 0.16454
#
# Static dielectric constant tensor:
#      x y z
#    x 1.670050 0.000000 0.000000 
#    y 0.000000 1.645800 0.000000 
#    z 0.000000 0.000000 1.628780 
# 
# From -- ./inp_files/25085.got.cif
#   From: 2010.05.17/outbox.cif.g08.bks.cpg/sg44_13_cif.got.tgz:25085.got - 2010.06.03 19:37:08.
