data_PCOD9375523
_publ_section_title
;
Structure prediction by ZEFSAII (Michael W. Deem and Ramdas Pophale) SiO2 
 PCOD9375523
Probable space group: I M M 2
;
_chemical_formula_sum "Si O2"
_cell_formula_units_Z 64
_cell_length_a 16.882164
_cell_length_b 15.662272
_cell_length_c 10.799430
_cell_angle_alpha 90.000000
_cell_angle_beta 90.000000
_cell_angle_gamma 90.000000
_cell_volume 2855.510165
_symmetry_space_group_name_H-M "I M M 2"
_symmetry_group_IT_number 44
_symmetry_cell_setting 'orthorhombic'
loop_
_space_group_symop_operation_xyz
x,y,z
-x,-y,z
-x,y,z
x,-y,z
1/2+x,1/2+y,1/2+z
1/2-x,1/2-y,1/2+z
1/2-x,1/2+y,1/2+z
1/2+x,1/2-y,1/2+z
loop_
_atom_site_type_symbol
_atom_site_label
_atom_site_fract_x
_atom_site_fract_y
_atom_site_fract_z
Si Si1 0.191385 0.594698 0.346490
Si Si2 0.588950 0.102433 0.331913
Si Si3 0.414043 0.347366 0.622047
Si Si4 0.759403 0.099409 0.259441
Si Si5 0.412487 0.406678 0.086835
Si Si6 0.354335 0.823686 0.596787
Si Si7 0.880742 0.906036 0.869320
Si Si8 0.195716 0.768335 0.473942
O O1 0.167400 0.500000 0.389675
O O2 0.165185 0.609129 0.204538
O O3 0.286855 0.599261 0.350506
O O4 0.169043 0.675105 0.431407
O O5 0.500000 0.133616 0.297260
O O6 0.664923 0.119231 0.240892
O O7 0.611674 0.137080 0.469621
O O8 0.584452 0.000000 0.340467
O O9 0.500000 0.383298 0.660514
O O10 0.332997 0.394472 0.663246
O O11 0.408264 0.248591 0.659360
O O12 0.410321 0.342793 0.472743
O O13 0.782367 0.172608 0.356564
O O14 0.760440 0.000000 0.302933
O O15 0.500000 0.409554 0.033429
O O16 0.373551 0.500000 0.060637
O O17 0.416086 0.399178 0.234397
O O18 0.369647 0.323943 0.040335
O O19 0.273432 0.773428 0.560130
O O20 0.900528 0.000000 0.919553
#
# Coordination Sequence:
#
# PCOD9375523 Si02
#       8
#     8   8   8   8   8   8   8   8
#     4  11  22  39  65  95 130 175 228 285 341 402
#     4   9  19  38  65  95 125 163 222 289 342 393
#     4  12  24  38  60  94 140 185 225 275 334 406
#     4  10  22  38  61  95 136 178 218 269 343 416
#     4  10  21  38  64  98 135 174 220 279 345 414
#     4  11  21  38  61  91 129 172 223 278 330 401
#     4  10  21  38  62  94 129 173 226 276 337 406
#     4  11  21  39  65  91 131 173 224 273 335 408
#
# _framework density 22.412808999999999
#
# number of rings (size 3 to 8) (size 9 to 14) (size 15 to 20)
#    0.000    1.500    3.750    1.875    0.000    3.000 
#    0.000    0.000    0.000    1.875    0.000    0.000 
#    0.000    0.000    0.000    0.000    0.000    0.000 
#
# Total GULP energy -178471.072717 kJ/mol
# GULP energy per Si atom -5577.221022 kJ/mol
# Density = 2.236180 g / cm^3
# Si number density = 22.412809 Si / 1000 Ang^3
#
#
#
# Elastic Constant Matrix: (Units=GPa)
#
#
# Indices 1 2 3 4 5 6 
#
# 1 143.5806 35.8649 41.0012 0.0000 0.0000 0.0000
# 2 35.8649 130.4417 32.9316 0.0000 0.0000 0.0000
# 3 41.0012 32.9316 46.5141 0.0000 0.0000 0.0000
# 4 0.0000 0.0000 0.0000 23.5342 0.0000 0.0000
# 5 0.0000 0.0000 0.0000 0.0000 245.8439 0.0000
# 6 0.0000 0.0000 0.0000 0.0000 0.0000 16.6647
#
#
#
# Elastic Compliance Matrix: (Units=1/GPa)
#
#
# Indices 1 2 3 4 5 6 
#
# 1 0.009346 -0.000596 -0.007816 0.000000 0.000000 0.000000
# 2 -0.000596 0.009373 -0.006110 0.000000 0.000000 0.000000
# 3 -0.007816 -0.006110 0.032714 0.000000 0.000000 0.000000
# 4 0.000000 0.000000 0.000000 0.042491 0.000000 0.000000
# 5 0.000000 0.000000 0.000000 0.000000 0.004068 0.000000
# 6 0.000000 0.000000 0.000000 0.000000 0.000000 0.060007
#
#
# Mechanical properties :
#
#
# Convention : Reuss Voigt Hill
#
# Bulk Modulus (GPa) = 44.66664 60.01465 52.34065
# Shear Modulus (GPa) = 25.70620 71.25782 48.48201
#
# Velocity S-wave (km/s) = 3.39033 5.64468 4.65600
# Velocity P-wave (km/s) = 5.94122 8.32576 7.23244
#
# Compressibility (1/GPa) = 0.02238807
#
# Stress axis : x y z
#
# Youngs Moduli (GPa) = 107.00266 106.69139 30.56778
#
# Poissons Ratio (x) = 0.06363 0.23891
# Poissons Ratio (y) = 0.06382 0.18677
# Poissons Ratio (z) = 0.83630 0.65190
#
# Static dielectric constant tensor:
#      x y z
#    x 1.880850 0.000000 0.000000 
#    y 0.000000 1.900310 0.000000 
#    z 0.000000 0.000000 1.830620 
# 
# From -- ./inp_files/13999.got.cif
#   From: 2010.05.17/outbox.cif.g08.bks.cpg/sg44_7_cif.got.tgz:13999.got - 2010.06.03 19:37:08.
