data_PCOD9375351
_publ_section_title
;
Structure prediction by ZEFSAII (Michael W. Deem and Ramdas Pophale) SiO2 
 PCOD9375351
Probable space group: I M M 2
;
_chemical_formula_sum "Si O2"
_cell_formula_units_Z 64
_cell_length_a 12.948659
_cell_length_b 29.456786
_cell_length_c 7.449394
_cell_angle_alpha 90.000000
_cell_angle_beta 90.000000
_cell_angle_gamma 90.000000
_cell_volume 2841.391641
_symmetry_space_group_name_H-M "I M M 2"
_symmetry_group_IT_number 44
_symmetry_cell_setting 'orthorhombic'
loop_
_space_group_symop_operation_xyz
x,y,z
-x,-y,z
-x,y,z
x,-y,z
1/2+x,1/2+y,1/2+z
1/2-x,1/2-y,1/2+z
1/2-x,1/2+y,1/2+z
1/2+x,1/2-y,1/2+z
loop_
_atom_site_type_symbol
_atom_site_label
_atom_site_fract_x
_atom_site_fract_y
_atom_site_fract_z
Si Si1 0.616751 0.359323 0.587540
Si Si2 0.383404 0.551513 0.349571
Si Si3 0.814183 0.549770 0.105429
Si Si4 0.206863 0.202893 0.779198
Si Si5 0.114300 0.737972 0.484444
Si Si6 0.378210 0.049164 0.202243
Si Si7 0.389493 0.854870 0.611231
Si Si8 0.834414 0.647033 0.700044
O O1 0.500000 0.353906 0.653788
O O2 0.627389 0.409294 0.497848
O O3 0.643071 0.323109 0.431290
O O4 0.710574 0.351977 0.723359
O O5 0.500000 0.556200 0.275837
O O6 0.374428 0.500000 0.423209
O O7 0.297247 0.556047 0.196360
O O8 0.854087 0.500000 0.157181
O O9 0.882407 0.592266 0.159268
O O10 0.814114 0.550551 0.888272
O O11 0.131260 0.225449 0.638999
O O12 0.289112 0.168843 0.690454
O O13 0.285401 0.240918 0.857484
O O14 0.126986 0.688092 0.576543
O O15 0.000000 0.743623 0.406698
O O16 0.500000 0.048967 0.249489
O O17 0.358347 0.097733 0.112113
O O18 0.356559 0.000000 0.113139
O O19 0.500000 0.836309 0.672398
O O20 0.384230 0.850716 0.395589
#
# Coordination Sequence:
#
# PCOD9375351 Si02
#       8
#     8   8   8   8   8   8   8   8
#     4  10  21  39  58  82 116 154 194 238 284 336
#     4   9  17  31  53  80 113 155 196 236 285 334
#     4   9  16  29  52  83 115 150 190 233 281 338
#     4  11  23  41  62  90 113 148 190 237 289 353
#     4  11  23  41  63  87 117 150 188 240 291 344
#     4   9  17  31  53  80 114 154 191 230 282 340
#     4  11  21  37  60  87 118 154 191 235 289 344
#     4  10  21  36  58  85 117 153 193 233 283 341
#
# _framework density 22.524173000000001
#
# number of rings (size 3 to 8) (size 9 to 14) (size 15 to 20)
#    0.000    2.000    1.250    3.750    0.000    1.250 
#    0.000   11.875    0.000    0.750    0.000    0.000 
#    0.000    0.000    0.000    0.000    0.000    0.000 
#
# Total GULP energy -178714.027714 kJ/mol
# GULP energy per Si atom -5584.813366 kJ/mol
# Density = 2.247291 g / cm^3
# Si number density = 22.524173 Si / 1000 Ang^3
#
#
#
# Elastic Constant Matrix: (Units=GPa)
#
#
# Indices 1 2 3 4 5 6 
#
# 1 134.5306 12.2815 12.2805 0.0017 0.0157 0.0003
# 2 12.2815 89.2252 3.0084 -0.0006 0.0040 -0.0002
# 3 12.2805 3.0084 28.9830 -0.0045 0.0643 0.0000
# 4 0.0017 -0.0006 -0.0045 18.8116 0.0011 -0.0008
# 5 0.0157 0.0040 0.0643 0.0011 12.4585 -0.0013
# 6 0.0003 -0.0002 0.0000 -0.0008 -0.0013 22.8256
#
#
#
# Elastic Compliance Matrix: (Units=1/GPa)
#
#
# Indices 1 2 3 4 5 6 
#
# 1 0.007815 -0.000967 -0.003211 -0.000002 0.000007 0.000000
# 2 -0.000967 0.011367 -0.000770 0.000000 0.000002 0.000000
# 3 -0.003211 -0.000770 0.035944 0.000009 -0.000181 0.000000
# 4 -0.000002 0.000000 0.000009 0.053159 -0.000005 0.000002
# 5 0.000007 0.000002 -0.000181 -0.000005 0.080267 0.000005
# 6 0.000000 0.000000 0.000000 0.000002 0.000005 0.043811
#
#
# Mechanical properties :
#
#
# Convention : Reuss Voigt Hill
#
# Bulk Modulus (GPa) = 22.10976 34.20884 28.15930
# Shear Modulus (GPa) = 19.42999 25.83037 22.63018
#
# Velocity S-wave (km/s) = 2.94024 3.39009 3.17315
# Velocity P-wave (km/s) = 4.62212 5.52668 5.09452
#
# Compressibility (1/GPa) = 0.04522890
#
# Stress axis : x y z
#
# Youngs Moduli (GPa) = 127.96461 87.97612 27.82122
#
# Poissons Ratio (x) = 0.08511 0.08933
# Poissons Ratio (y) = 0.12379 0.02142
# Poissons Ratio (z) = 0.41087 0.06774
#
# Static dielectric constant tensor:
#      x y z
#    x 1.807020 0.000000 0.000000 
#    y 0.000000 1.880470 0.000000 
#    z 0.000000 0.000000 1.831720 
# 
# From -- ./inp_files/6385.got.cif
#   From: 2010.05.17/outbox.cif.g08.bks.cpg/sg44_4_cif.got.tgz:6385.got - 2010.06.03 19:37:08.
