data_PCOD9375808
_publ_section_title
;
Structure prediction by ZEFSAII (Michael W. Deem and Ramdas Pophale) SiO2 
 PCOD9375808
Probable space group: I M M 2
;
_chemical_formula_sum "Si O2"
_cell_formula_units_Z 64
_cell_length_a 23.545618
_cell_length_b 9.165939
_cell_length_c 13.884242
_cell_angle_alpha 90.000000
_cell_angle_beta 90.000000
_cell_angle_gamma 90.000000
_cell_volume 2996.465151
_symmetry_space_group_name_H-M "I M M 2"
_symmetry_group_IT_number 44
_symmetry_cell_setting 'orthorhombic'
loop_
_space_group_symop_operation_xyz
x,y,z
-x,-y,z
-x,y,z
x,-y,z
1/2+x,1/2+y,1/2+z
1/2-x,1/2-y,1/2+z
1/2-x,1/2+y,1/2+z
1/2+x,1/2-y,1/2+z
loop_
_atom_site_type_symbol
_atom_site_label
_atom_site_fract_x
_atom_site_fract_y
_atom_site_fract_z
Si Si1 0.587993 0.170957 0.671890
Si Si2 0.083947 0.167435 0.360725
Si Si3 0.937599 0.824290 0.970126
Si Si4 0.300164 0.666730 0.646385
Si Si5 0.182540 0.165372 0.914188
Si Si6 0.209292 0.166728 0.422401
Si Si7 0.436541 0.324816 0.084353
Si Si8 0.675069 0.827092 0.116890
O O1 0.564420 0.235636 0.771661
O O2 0.566303 0.252209 0.575877
O O3 0.655037 0.210347 0.674170
O O4 0.577862 0.000000 0.664416
O O5 0.152762 0.167111 0.359068
O O6 0.067104 0.213240 0.469453
O O7 0.065447 0.000000 0.348158
O O8 0.000000 0.791953 0.929014
O O9 0.932770 0.000000 0.981877
O O10 0.882505 0.780565 0.907509
O O11 0.313273 0.500000 0.679217
O O12 0.307142 0.658872 0.529983
O O13 0.234756 0.700855 0.670313
O O14 0.233003 0.268877 0.879814
O O15 0.187531 0.000000 0.876106
O O16 0.190397 0.266604 0.511271
O O17 0.219033 0.000000 0.454547
O O18 0.500000 0.287410 0.118356
O O19 0.429494 0.500000 0.088585
O O20 0.384148 0.251612 0.140204
O O21 0.666595 0.000000 0.115800
#
# Coordination Sequence:
#
# PCOD9375808 Si02
#       8
#     8   8   8   8   8   8   8   8
#     4  11  21  29  41  62  84 107 140 181 216 240
#     4   9  18  31  43  56  80 115 148 171 198 245
#     4   9  18  32  46  58  79 115 149 170 197 244
#     4   8  15  28  43  58  79 107 135 163 204 256
#     4   8  14  25  42  62  80 100 130 169 208 243
#     4   9  16  26  42  61  79 103 133 166 208 253
#     4   9  18  31  45  61  82 111 145 175 204 242
#     4   9  16  26  42  62  81 103 132 168 209 248
#
# _framework density 21.358498999999998
#
# number of rings (size 3 to 8) (size 9 to 14) (size 15 to 20)
#    0.000    3.000    0.000    4.125    0.000    8.500 
#    0.000    1.250    0.000    0.000    0.000    0.000 
#    0.000    1.000    0.000    7.500    0.000    4.375 
#
# Total GULP energy -178341.513984 kJ/mol
# GULP energy per Si atom -5573.172312 kJ/mol
# Density = 2.130989 g / cm^3
# Si number density = 21.358499 Si / 1000 Ang^3
#
#
#
# Elastic Constant Matrix: (Units=GPa)
#
#
# Indices 1 2 3 4 5 6 
#
# 1 198.8588 42.6592 -3.6049 0.0000 0.0000 0.0000
# 2 42.6592 27.5468 -1.9016 0.0000 0.0000 0.0000
# 3 -3.6049 -1.9016 26.7992 0.0000 0.0000 0.0000
# 4 0.0000 0.0000 0.0000 7.0379 0.0000 0.0000
# 5 0.0000 0.0000 0.0000 0.0000 -12.6019 0.0000
# 6 0.0000 0.0000 0.0000 0.0000 0.0000 26.3223
#
#
#
# Elastic Compliance Matrix: (Units=1/GPa)
#
#
# Indices 1 2 3 4 5 6 
#
# 1 0.007531 -0.011650 0.000186 0.000000 0.000000 0.000000
# 2 -0.011650 0.054502 0.002300 0.000000 0.000000 0.000000
# 3 0.000186 0.002300 0.037503 0.000000 0.000000 0.000000
# 4 0.000000 0.000000 0.000000 0.142088 0.000000 0.000000
# 5 0.000000 0.000000 0.000000 0.000000 -0.079353 0.000000
# 6 0.000000 0.000000 0.000000 0.000000 0.000000 0.037991
#
#
# Mechanical properties :
#
#
# Convention : Reuss Voigt Hill
#
# Bulk Modulus (GPa) = 12.31384 36.39000 24.35192
# Shear Modulus (GPa) = 20.35352 18.55514 19.45433
#
# Velocity S-wave (km/s) = 3.09033 2.95065 3.02130
# Velocity P-wave (km/s) = 4.30248 5.35567 4.85770
#
# Compressibility (1/GPa) = 0.08120942
#
# Stress axis : x y z
#
# Youngs Moduli (GPa) = 132.78024 18.34795 26.66461
#
# Poissons Ratio (x) = 0.21375 -0.00497
# Poissons Ratio (y) = 1.54690 -0.06134
# Poissons Ratio (z) = -0.02475 -0.04221
#
# Static dielectric constant tensor:
#      x y z
#    x 1.864250 0.000000 0.000000 
#    y 0.000000 1.721040 0.000000 
#    z 0.000000 0.000000 1.800610 
# 
# From -- ./inp_files/24511.got.cif
#   From: 2010.05.17/outbox.cif.g08.bks.cpg/sg44_13_cif.got.tgz:24511.got - 2010.06.03 19:37:08.
