data_PCOD9375127
_publ_section_title
;
Structure prediction by ZEFSAII (Michael W. Deem and Ramdas Pophale) SiO2 
 PCOD9375127
Probable space group: I M M 2
;
_chemical_formula_sum "Si O2"
_cell_formula_units_Z 58
_cell_length_a 22.855718
_cell_length_b 7.529935
_cell_length_c 14.491922
_cell_angle_alpha 90.000000
_cell_angle_beta 90.000000
_cell_angle_gamma 90.000000
_cell_volume 2494.089788
_symmetry_space_group_name_H-M "I M M 2"
_symmetry_group_IT_number 44
_symmetry_cell_setting 'orthorhombic'
loop_
_space_group_symop_operation_xyz
x,y,z
-x,-y,z
-x,y,z
x,-y,z
1/2+x,1/2+y,1/2+z
1/2-x,1/2-y,1/2+z
1/2-x,1/2+y,1/2+z
1/2+x,1/2-y,1/2+z
loop_
_atom_site_type_symbol
_atom_site_label
_atom_site_fract_x
_atom_site_fract_y
_atom_site_fract_z
Si Si1 0.175829 0.217453 0.515910
Si Si2 0.500000 0.000000 0.429648
Si Si3 0.433074 0.714357 0.144444
Si Si4 0.258607 0.200194 0.669457
Si Si5 0.852224 0.202739 0.315191
Si Si6 0.434081 0.284854 0.668724
Si Si7 0.345017 0.794134 0.297735
Si Si8 0.597010 0.704984 0.471319
O O1 0.115333 0.268903 0.568119
O O2 0.231866 0.279017 0.575318
O O3 0.172287 0.278894 0.410226
O O4 0.179581 0.000000 0.519549
O O5 0.449571 0.155173 0.434697
O O6 0.500000 0.776027 0.130685
O O7 0.434203 0.500000 0.144075
O O8 0.406250 0.773826 0.242366
O O9 0.305318 0.298328 0.732733
O O10 0.201428 0.194451 0.734924
O O11 0.280073 0.000000 0.653628
O O12 0.908176 0.285363 0.264241
O O13 0.867725 0.000000 0.339420
O O14 0.500000 0.222496 0.649439
O O15 0.435770 0.500000 0.676352
O O16 0.395033 0.246767 0.578790
O O17 0.349613 0.722913 0.401018
O O18 0.328459 0.000000 0.299988
O O19 0.576567 0.500000 0.468897
#
# Coordination Sequence:
#
# PCOD9375127 Si02
#       8
#     8   2   8   8   8   8   8   8
#     4   8  17  35  57  80 111 144 187 242 293 350
#     4  12  22  36  56  90 116 174 214 240 310 358
#     4   9  18  32  53  82 115 154 191 234 293 348
#     4  10  21  40  58  81 113 151 191 246 310 358
#     4  10  20  37  62  88 110 147 197 245 296 362
#     4   9  19  36  57  83 118 156 190 238 302 354
#     4  11  22  36  55  84 114 156 204 247 300 359
#     4  11  22  38  57  86 127 165 204 255 303 360
#
# _framework density 23.254977
#
# number of rings (size 3 to 8) (size 9 to 14) (size 15 to 20)
#    0.000    2.207    1.379    2.690    0.966    1.931 
#    1.241    8.966    0.000    0.000    0.000    0.000 
#    0.000    0.000    0.000    0.000    0.000    0.000 
#
# Total GULP energy -161617.568240 kJ/mol
# GULP energy per Si atom -5573.019594 kJ/mol
# Density = 2.320205 g / cm^3
# Si number density = 23.254977 Si / 1000 Ang^3
#
#
#
# Elastic Constant Matrix: (Units=GPa)
#
#
# Indices 1 2 3 4 5 6 
#
# 1 35.9268 -6.4577 30.8244 0.0000 0.0000 0.0000
# 2 -6.4577 101.7306 -0.7980 0.0000 0.0000 0.0000
# 3 30.8244 -0.7980 171.5996 0.0000 0.0000 0.0000
# 4 0.0000 0.0000 0.0000 -6.3220 0.0000 0.0000
# 5 0.0000 0.0000 0.0000 0.0000 9.3326 0.0000
# 6 0.0000 0.0000 0.0000 0.0000 0.0000 15.4994
#
#
#
# Elastic Compliance Matrix: (Units=1/GPa)
#
#
# Indices 1 2 3 4 5 6 
#
# 1 0.033336 0.002069 -0.005978 0.000000 0.000000 0.000000
# 2 0.002069 0.009959 -0.000325 0.000000 0.000000 0.000000
# 3 -0.005978 -0.000325 0.006900 0.000000 0.000000 0.000000
# 4 0.000000 0.000000 0.000000 -0.158178 0.000000 0.000000
# 5 0.000000 0.000000 0.000000 0.000000 0.107152 0.000000
# 6 0.000000 0.000000 0.000000 0.000000 0.000000 0.064519
#
#
# Mechanical properties :
#
#
# Convention : Reuss Voigt Hill
#
# Bulk Modulus (GPa) = 23.96641 39.59935 31.78288
# Shear Modulus (GPa) = 58.09578 22.74787 40.42183
#
# Velocity S-wave (km/s) = 5.00363 3.13100 4.17370
# Velocity P-wave (km/s) = 6.61136 5.48964 6.07644
#
# Compressibility (1/GPa) = 0.04172507
#
# Stress axis : x y z
#
# Youngs Moduli (GPa) = 29.99784 100.41487 144.92933
#
# Poissons Ratio (x) = -0.20778 0.86645
# Poissons Ratio (y) = -0.06207 0.04716
# Poissons Ratio (z) = 0.17934 0.03267
#
# Static dielectric constant tensor:
#      x y z
#    x 1.919150 0.000000 0.000000 
#    y 0.000000 1.859800 0.000000 
#    z 0.000000 0.000000 1.891300 
# 
# From -- ./inp_files/19447.got.cif
#   From: 2010.05.17/outbox.cif.g08.bks.cpg/sg44_10_cif.got.tgz:19447.got - 2010.06.03 19:37:08.
