data_PCOD9375203
_publ_section_title
;
Structure prediction by ZEFSAII (Michael W. Deem and Ramdas Pophale) SiO2 
 PCOD9375203
Probable space group: I M M 2
;
_chemical_formula_sum "Si O2"
_cell_formula_units_Z 64
_cell_length_a 26.246956
_cell_length_b 13.580833
_cell_length_c 9.203587
_cell_angle_alpha 90.000000
_cell_angle_beta 90.000000
_cell_angle_gamma 90.000000
_cell_volume 3280.669447
_symmetry_space_group_name_H-M "I M M 2"
_symmetry_group_IT_number 44
_symmetry_cell_setting 'orthorhombic'
loop_
_space_group_symop_operation_xyz
x,y,z
-x,-y,z
-x,y,z
x,-y,z
1/2+x,1/2+y,1/2+z
1/2-x,1/2-y,1/2+z
1/2-x,1/2+y,1/2+z
1/2+x,1/2-y,1/2+z
loop_
_atom_site_type_symbol
_atom_site_label
_atom_site_fract_x
_atom_site_fract_y
_atom_site_fract_z
Si Si1 0.442998 0.797188 0.203030
Si Si2 0.784263 0.747907 0.363821
Si Si3 0.307305 0.384348 0.272440
Si Si4 0.697830 0.885830 0.430532
Si Si5 0.382986 0.261668 0.479289
Si Si6 0.659473 0.887702 0.097103
Si Si7 0.400343 0.609317 0.062263
Si Si8 0.367519 0.385652 0.734754
O O1 0.500000 0.835542 0.194036
O O2 0.426027 0.773410 0.368038
O O3 0.399557 0.864817 0.131212
O O4 0.436623 0.693132 0.121655
O O5 0.745750 0.673682 0.281717
O O6 0.748058 0.822508 0.451944
O O7 0.818229 0.684377 0.475183
O O8 0.817330 0.818372 0.259400
O O9 0.299160 0.500000 0.299302
O O10 0.343471 0.333557 0.393882
O O11 0.343807 0.375475 0.131385
O O12 0.650760 0.835060 0.512817
O O13 0.685651 0.875961 0.256404
O O14 0.704294 0.000000 0.465477
O O15 0.399501 0.326228 0.615413
O O16 0.667001 0.000000 0.051180
O O17 0.416626 0.500000 0.107786
O O18 0.394807 0.613355 0.890095
O O19 0.356403 0.500000 0.695857
#
# Coordination Sequence:
#
# PCOD9375203 Si02
#       8
#     8   8   8   8   8   8   8   8
#     4  10  20  40  67  89 110 145 199 259 311 361
#     4  11  21  31  55  83 119 162 199 239 286 349
#     4   9  18  32  53  81 116 160 205 243 283 342
#     4   9  20  36  56  81 118 161 201 243 288 347
#     4   9  20  36  57  82 116 151 196 249 300 359
#     4  10  21  39  60  90 125 156 199 255 301 353
#     4   9  19  37  56  80 117 156 196 243 296 356
#     4  11  22  35  55  80 119 162 193 236 297 357
#
# _framework density 19.508213999999999
#
# number of rings (size 3 to 8) (size 9 to 14) (size 15 to 20)
#    0.000    2.250    1.250    1.875    3.500    1.000 
#    0.000    3.125    0.000    0.750    0.000    0.000 
#    0.000    0.000    0.000    0.000    0.000    0.000 
#
# Total GULP energy -178629.813178 kJ/mol
# GULP energy per Si atom -5582.181662 kJ/mol
# Density = 1.946381 g / cm^3
# Si number density = 19.508214 Si / 1000 Ang^3
#
#
#
# Elastic Constant Matrix: (Units=GPa)
#
#
# Indices 1 2 3 4 5 6 
#
# 1 82.2357 24.4599 14.3681 0.0000 0.0000 0.0000
# 2 24.4599 128.3566 23.0603 0.0000 0.0000 0.0000
# 3 14.3681 23.0603 57.2647 0.0000 0.0000 0.0000
# 4 0.0000 0.0000 0.0000 26.0175 0.0000 0.0000
# 5 0.0000 0.0000 0.0000 0.0000 8.5963 0.0000
# 6 0.0000 0.0000 0.0000 0.0000 0.0000 11.5724
#
#
#
# Elastic Compliance Matrix: (Units=1/GPa)
#
#
# Indices 1 2 3 4 5 6 
#
# 1 0.013210 -0.002072 -0.002480 0.000000 0.000000 0.000000
# 2 -0.002072 0.008723 -0.002993 0.000000 0.000000 0.000000
# 3 -0.002480 -0.002993 0.019290 0.000000 0.000000 0.000000
# 4 0.000000 0.000000 0.000000 0.038436 0.000000 0.000000
# 5 0.000000 0.000000 0.000000 0.000000 0.116330 0.000000
# 6 0.000000 0.000000 0.000000 0.000000 0.000000 0.086413
#
#
# Mechanical properties :
#
#
# Convention : Reuss Voigt Hill
#
# Bulk Modulus (GPa) = 38.26495 43.51485 40.88990
# Shear Modulus (GPa) = 16.32906 22.96846 19.64876
#
# Velocity S-wave (km/s) = 2.89629 3.43501 3.17709
# Velocity P-wave (km/s) = 5.55356 6.17145 5.87064
#
# Compressibility (1/GPa) = 0.02613358
#
# Stress axis : x y z
#
# Youngs Moduli (GPa) = 75.70200 114.63543 51.83945
#
# Poissons Ratio (x) = 0.23749 0.12857
# Poissons Ratio (y) = 0.15683 0.15516
# Poissons Ratio (z) = 0.18775 0.34311
#
# Static dielectric constant tensor:
#      x y z
#    x 1.678270 0.000000 0.000000 
#    y 0.000000 1.695950 0.000000 
#    z 0.000000 0.000000 1.739410 
# 
# From -- ./inp_files/9454.got.cif
#   From: 2010.05.17/outbox.cif.g08.bks.cpg/sg44_5_cif.got.tgz:9454.got - 2010.06.03 19:37:08.
