data_PCOD9375840
_publ_section_title
;
Structure prediction by ZEFSAII (Michael W. Deem and Ramdas Pophale) SiO2 
 PCOD9375840
Probable space group: I M M 2
;
_chemical_formula_sum "Si O2"
_cell_formula_units_Z 56
_cell_length_a 20.603522
_cell_length_b 8.572997
_cell_length_c 15.731674
_cell_angle_alpha 90.000000
_cell_angle_beta 90.000000
_cell_angle_gamma 90.000000
_cell_volume 2778.747440
_symmetry_space_group_name_H-M "I M M 2"
_symmetry_group_IT_number 44
_symmetry_cell_setting 'orthorhombic'
loop_
_space_group_symop_operation_xyz
x,y,z
-x,-y,z
-x,y,z
x,-y,z
1/2+x,1/2+y,1/2+z
1/2-x,1/2-y,1/2+z
1/2-x,1/2+y,1/2+z
1/2+x,1/2-y,1/2+z
loop_
_atom_site_type_symbol
_atom_site_label
_atom_site_fract_x
_atom_site_fract_y
_atom_site_fract_z
Si Si1 0.713920 0.814413 0.000000
Si Si2 0.695791 0.817276 0.654215
Si Si3 0.882640 0.320731 0.722246
Si Si4 0.750939 0.314125 0.816187
Si Si5 0.924072 0.812111 0.063158
Si Si6 0.574479 0.327705 0.378278
Si Si7 0.925504 0.185108 0.547091
O O1 0.753586 0.747066 0.081868
O O2 0.637881 0.762576 0.003944
O O3 0.718161 0.000000 0.005964
O O4 0.741871 0.759816 0.908750
O O5 0.698900 0.733830 0.745836
O O6 0.623623 0.783026 0.621949
O O7 0.708872 0.000000 0.664044
O O8 0.876618 0.500000 0.694151
O O9 0.815110 0.264668 0.763292
O O10 0.924873 0.299650 0.805915
O O11 0.912139 0.221314 0.646489
O O12 0.754196 0.500000 0.827312
O O13 0.000000 0.770325 0.073057
O O14 0.918507 0.000000 0.075766
O O15 0.896036 0.781523 0.967988
O O16 0.500000 0.349238 0.402025
O O17 0.598485 0.500000 0.350032
O O18 0.000000 0.237726 0.526679
O O19 0.922854 0.000000 0.532051
#
# Coordination Sequence:
#
# PCOD9375840 Si02
#       7
#     8   8   8   8   8   8   8
#     4  12  25  43  67  96 130 171 218 273 329 390
#     4  12  24  40  64  94 128 166 210 264 321 384
#     4  11  22  35  56  88 122 159 205 258 317 381
#     4  11  24  42  64  92 125 164 213 268 324 386
#     4   9  19  37  60  86 120 163 208 257 316 379
#     4   9  18  32  51  78 114 156 198 240 296 366
#     4  11  24  42  65  92 127 172 219 271 333 399
#
# _framework density 20.152964999999998
#
# number of rings (size 3 to 8) (size 9 to 14) (size 15 to 20)
#    0.000    1.286    1.429    6.000    0.000    8.000 
#    0.000    2.143    0.000    4.286    0.000    0.000 
#    0.000    0.000    0.000    0.000    0.000    0.000 
#
# Total GULP energy -156128.484087 kJ/mol
# GULP energy per Si atom -5576.017289 kJ/mol
# Density = 2.010710 g / cm^3
# Si number density = 20.152965 Si / 1000 Ang^3
#
#
#
# Elastic Constant Matrix: (Units=GPa)
#
#
# Indices 1 2 3 4 5 6 
#
# 1 88.5079 18.3409 14.2872 0.0000 0.0000 0.0000
# 2 18.3409 40.4879 9.7324 0.0000 0.0000 0.0000
# 3 14.2872 9.7324 72.5039 0.0000 0.0000 0.0000
# 4 0.0000 0.0000 0.0000 15.2872 0.0000 0.0000
# 5 0.0000 0.0000 0.0000 0.0000 27.0461 0.0000
# 6 0.0000 0.0000 0.0000 0.0000 0.0000 30.2326
#
#
#
# Elastic Compliance Matrix: (Units=1/GPa)
#
#
# Indices 1 2 3 4 5 6 
#
# 1 0.012689 -0.005319 -0.001786 0.000000 0.000000 0.000000
# 2 -0.005319 0.027752 -0.002677 0.000000 0.000000 0.000000
# 3 -0.001786 -0.002677 0.014504 0.000000 0.000000 0.000000
# 4 0.000000 0.000000 0.000000 0.065414 0.000000 0.000000
# 5 0.000000 0.000000 0.000000 0.000000 0.036974 0.000000
# 6 0.000000 0.000000 0.000000 0.000000 0.000000 0.033077
#
#
# Mechanical properties :
#
#
# Convention : Reuss Voigt Hill
#
# Bulk Modulus (GPa) = 28.26467 31.80229 30.03348
# Shear Modulus (GPa) = 22.54619 25.12247 23.83433
#
# Velocity S-wave (km/s) = 3.34841 3.53454 3.44273
# Velocity P-wave (km/s) = 5.38559 5.69842 5.54421
#
# Compressibility (1/GPa) = 0.03537986
#
# Stress axis : x y z
#
# Youngs Moduli (GPa) = 78.80871 36.03397 68.94770
#
# Poissons Ratio (x) = 0.19165 0.12317
# Poissons Ratio (y) = 0.41915 0.18458
# Poissons Ratio (z) = 0.14079 0.09647
#
# Static dielectric constant tensor:
#      x y z
#    x 1.696490 0.000000 0.000000 
#    y 0.000000 1.720950 0.000000 
#    z 0.000000 0.000000 1.748610 
# 
# From -- ./inp_files/19199.got.cif
#   From: 2010.05.17/outbox.cif.g08.bks.cpg/sg44_10_cif.got.tgz:19199.got - 2010.06.03 19:37:08.
