data_PCOD9375177
_publ_section_title
;
Structure prediction by ZEFSAII (Michael W. Deem and Ramdas Pophale) SiO2 
 PCOD9375177
Probable space group: I M M 2
;
_chemical_formula_sum "Si O2"
_cell_formula_units_Z 40
_cell_length_a 18.859456
_cell_length_b 11.441404
_cell_length_c 8.888008
_cell_angle_alpha 90.000000
_cell_angle_beta 90.000000
_cell_angle_gamma 90.000000
_cell_volume 1917.842415
_symmetry_space_group_name_H-M "I M M 2"
_symmetry_group_IT_number 44
_symmetry_cell_setting 'orthorhombic'
loop_
_space_group_symop_operation_xyz
x,y,z
-x,-y,z
-x,y,z
x,-y,z
1/2+x,1/2+y,1/2+z
1/2-x,1/2-y,1/2+z
1/2-x,1/2+y,1/2+z
1/2+x,1/2-y,1/2+z
loop_
_atom_site_type_symbol
_atom_site_label
_atom_site_fract_x
_atom_site_fract_y
_atom_site_fract_z
Si Si1 0.082666 0.755227 0.899890
Si Si2 0.197383 0.635902 0.699932
Si Si3 0.818373 0.209802 0.422631
Si Si4 0.414985 0.500000 0.901127
Si Si5 0.085750 0.000000 0.039745
Si Si6 0.420683 0.138423 0.721646
O O1 0.127251 0.693276 0.771361
O O2 0.109887 0.882549 0.955376
O O3 0.000000 0.767174 0.857652
O O4 0.086656 0.674823 0.048377
O O5 0.187802 0.500000 0.659986
O O6 0.214984 0.716614 0.557660
O O7 0.257936 0.648023 0.825294
O O8 0.861507 0.298894 0.318127
O O9 0.876157 0.112755 0.469475
O O10 0.500000 0.500000 0.919346
O O11 0.398663 0.500000 0.719131
O O12 0.000000 0.000000 0.034073
O O13 0.500000 0.178820 0.768778
O O14 0.416790 0.000000 0.737557
#
# Coordination Sequence:
#
# PCOD9375177 Si02
#       6
#     8   8   8   4   4   8
#     4  10  21  40  68  98 133 177 221 274 335 401
#     4  12  28  47  65  95 137 177 227 279 342 405
#     4  12  25  45  67  97 131 181 224 280 340 406
#     4  11  22  43  75 105 136 174 227 291 341 395
#     4   9  18  37  69 103 133 170 219 277 330 389
#     4  10  20  38  66  99 132 172 221 268 330 409
#
# _framework density 20.856771999999999
#
# number of rings (size 3 to 8) (size 9 to 14) (size 15 to 20)
#    0.000    1.200    3.000    3.000    0.000    3.600 
#    5.400    1.000    0.000    0.000    0.000    0.000 
#    0.000    0.000    0.000    0.000    0.000    0.000 
#
# Total GULP energy -111857.412380 kJ/mol
# GULP energy per Si atom -5592.870619 kJ/mol
# Density = 2.080930 g / cm^3
# Si number density = 20.856772 Si / 1000 Ang^3
#
#
#
# Elastic Constant Matrix: (Units=GPa)
#
#
# Indices 1 2 3 4 5 6 
#
# 1 68.2952 26.4914 13.3526 0.0000 0.0000 0.0000
# 2 26.4914 112.9642 24.8367 0.0000 0.0000 0.0000
# 3 13.3526 24.8367 35.9049 0.0000 0.0000 0.0000
# 4 0.0000 0.0000 0.0000 22.7253 0.0000 0.0000
# 5 0.0000 0.0000 0.0000 0.0000 32.1727 0.0000
# 6 0.0000 0.0000 0.0000 0.0000 0.0000 9.8827
#
#
#
# Elastic Compliance Matrix: (Units=1/GPa)
#
#
# Indices 1 2 3 4 5 6 
#
# 1 0.016605 -0.002991 -0.004106 0.000000 0.000000 0.000000
# 2 -0.002991 0.010979 -0.006482 0.000000 0.000000 0.000000
# 3 -0.004106 -0.006482 0.033862 0.000000 0.000000 0.000000
# 4 0.000000 0.000000 0.000000 0.044004 0.000000 0.000000
# 5 0.000000 0.000000 0.000000 0.000000 0.031082 0.000000
# 6 0.000000 0.000000 0.000000 0.000000 0.000000 0.101187
#
#
# Mechanical properties :
#
#
# Convention : Reuss Voigt Hill
#
# Bulk Modulus (GPa) = 29.16511 38.50285 33.83398
# Shear Modulus (GPa) = 18.09575 23.12173 20.60874
#
# Velocity S-wave (km/s) = 2.94873 3.33317 3.14683
# Velocity P-wave (km/s) = 5.06036 5.77183 5.42777
#
# Compressibility (1/GPa) = 0.03428754
#
# Stress axis : x y z
#
# Youngs Moduli (GPa) = 60.22118 91.08244 29.53133
#
# Poissons Ratio (x) = 0.27246 0.12126
# Poissons Ratio (y) = 0.18014 0.19143
# Poissons Ratio (z) = 0.24728 0.59041
#
# Static dielectric constant tensor:
#      x y z
#    x 1.753100 0.000000 0.000000 
#    y 0.000000 1.738320 0.000000 
#    z 0.000000 0.000000 1.738360 
# 
# From -- ./inp_files/8781.got.cif
#   From: 2010.05.17/outbox.cif.g08.bks.cpg/sg44_5_cif.got.tgz:8781.got - 2010.06.03 19:37:08.
