data_PCOD9375886
_publ_section_title
;
Structure prediction by ZEFSAII (Michael W. Deem and Ramdas Pophale) SiO2 
 PCOD9375886
Probable space group: I M M 2
;
_chemical_formula_sum "Si O2"
_cell_formula_units_Z 64
_cell_length_a 7.741544
_cell_length_b 25.014271
_cell_length_c 14.531280
_cell_angle_alpha 90.000000
_cell_angle_beta 90.000000
_cell_angle_gamma 90.000000
_cell_volume 2813.968997
_symmetry_space_group_name_H-M "I M M 2"
_symmetry_group_IT_number 44
_symmetry_cell_setting 'orthorhombic'
loop_
_space_group_symop_operation_xyz
x,y,z
-x,-y,z
-x,y,z
x,-y,z
1/2+x,1/2+y,1/2+z
1/2-x,1/2-y,1/2+z
1/2-x,1/2+y,1/2+z
1/2+x,1/2-y,1/2+z
loop_
_atom_site_type_symbol
_atom_site_label
_atom_site_fract_x
_atom_site_fract_y
_atom_site_fract_z
Si Si1 0.697334 0.779159 0.049830
Si Si2 0.208253 0.160552 0.770862
Si Si3 0.287865 0.441624 0.383936
Si Si4 0.700447 0.397029 0.569736
Si Si5 0.799279 0.442108 0.961349
Si Si6 0.709180 0.607308 0.777754
Si Si7 0.205223 0.774638 0.260995
Si Si8 0.795022 0.165914 0.561458
O O1 0.500000 0.785691 0.018094
O O2 0.790344 0.835470 0.034836
O O3 0.702266 0.773038 0.161671
O O4 0.773017 0.721829 0.018821
O O5 0.271525 0.108971 0.825185
O O6 0.257789 0.218707 0.810369
O O7 0.272776 0.158845 0.665384
O O8 0.000000 0.158303 0.769666
O O9 0.500000 0.440057 0.384657
O O10 0.237117 0.500000 0.348822
O O11 0.226710 0.433010 0.488609
O O12 0.500000 0.411505 0.579535
O O13 0.772570 0.400439 0.672956
O O14 0.722685 0.500000 0.987092
O O15 0.780509 0.433086 0.852261
O O16 0.000000 0.442912 0.985606
O O17 0.725311 0.389038 0.007642
O O18 0.500000 0.603275 0.779408
O O19 0.753573 0.668674 0.805132
O O20 0.000000 0.777487 0.242998
O O21 0.000000 0.175903 0.568023
#
# Coordination Sequence:
#
# PCOD9375886 Si02
#       8
#     8   8   8   8   8   8   8   8
#     4   9  17  31  53  81 110 137 169 210 259 315
#     4   9  18  33  55  83 110 138 174 213 258 310
#     4   9  18  33  53  78 108 141 180 221 254 297
#     4   9  18  33  55  83 110 138 174 213 258 310
#     4  11  25  40  53  74 102 135 180 227 268 311
#     4   9  19  35  55  79 106 137 172 212 260 315
#     4   9  17  31  53  81 110 137 169 210 259 315
#     4   9  19  35  55  79 106 137 172 212 260 315
#
# _framework density 22.743677000000002
#
# number of rings (size 3 to 8) (size 9 to 14) (size 15 to 20)
#    0.000    2.750    0.000    2.625    0.000    8.000 
#    0.000    5.625    0.000    1.500    0.000    0.000 
#    0.000    0.000    0.000    0.000    0.000    0.000 
#
# Total GULP energy -178546.698735 kJ/mol
# GULP energy per Si atom -5579.584335 kJ/mol
# Density = 2.269191 g / cm^3
# Si number density = 22.743677 Si / 1000 Ang^3
#
#
#
# Elastic Constant Matrix: (Units=GPa)
#
#
# Indices 1 2 3 4 5 6 
#
# 1 34.3582 -7.5788 -3.8809 0.0000 0.0000 0.0000
# 2 -7.5788 93.8274 14.6349 0.0000 0.0000 0.0000
# 3 -3.8809 14.6349 43.6314 0.0000 0.0000 0.0000
# 4 0.0000 0.0000 0.0000 25.2873 0.0000 0.0000
# 5 0.0000 0.0000 0.0000 0.0000 10.4703 0.0000
# 6 0.0000 0.0000 0.0000 0.0000 0.0000 13.2827
#
#
#
# Elastic Compliance Matrix: (Units=1/GPa)
#
#
# Indices 1 2 3 4 5 6 
#
# 1 0.029789 0.002103 0.001944 0.000000 0.000000 0.000000
# 2 0.002103 0.011395 -0.003635 0.000000 0.000000 0.000000
# 3 0.001944 -0.003635 0.024311 0.000000 0.000000 0.000000
# 4 0.000000 0.000000 0.000000 0.039546 0.000000 0.000000
# 5 0.000000 0.000000 0.000000 0.000000 0.095508 0.000000
# 6 0.000000 0.000000 0.000000 0.000000 0.000000 0.075286
#
#
# Mechanical properties :
#
#
# Convention : Reuss Voigt Hill
#
# Bulk Modulus (GPa) = 15.07863 19.79639 17.43751
# Shear Modulus (GPa) = 16.82841 21.05085 18.93963
#
# Velocity S-wave (km/s) = 2.72309 3.04562 2.88886
# Velocity P-wave (km/s) = 4.06585 4.59247 4.33716
#
# Compressibility (1/GPa) = 0.06631904
#
# Stress axis : x y z
#
# Youngs Moduli (GPa) = 33.56991 87.76017 41.13286
#
# Poissons Ratio (x) = -0.18455 -0.07997
# Poissons Ratio (y) = -0.07059 0.14952
# Poissons Ratio (z) = -0.06527 0.31901
#
# Static dielectric constant tensor:
#      x y z
#    x 1.843190 0.000000 0.000000 
#    y 0.000000 1.879170 0.000000 
#    z 0.000000 0.000000 1.861100 
# 
# From -- ./inp_files/16759.got.cif
#   From: 2010.05.17/outbox.cif.g08.bks.cpg/sg44_9_cif.got.tgz:16759.got - 2010.06.03 19:37:08.
