data_PCOD9375103
_publ_section_title
;
Structure prediction by ZEFSAII (Michael W. Deem and Ramdas Pophale) SiO2 
 PCOD9375103
Probable space group: I M M 2
;
_chemical_formula_sum "Si O2"
_cell_formula_units_Z 48
_cell_length_a 29.091830
_cell_length_b 10.242866
_cell_length_c 8.808764
_cell_angle_alpha 90.000000
_cell_angle_beta 90.000000
_cell_angle_gamma 90.000000
_cell_volume 2624.868233
_symmetry_space_group_name_H-M "I M M 2"
_symmetry_group_IT_number 44
_symmetry_cell_setting 'orthorhombic'
loop_
_space_group_symop_operation_xyz
x,y,z
-x,-y,z
-x,y,z
x,-y,z
1/2+x,1/2+y,1/2+z
1/2-x,1/2-y,1/2+z
1/2-x,1/2+y,1/2+z
1/2+x,1/2-y,1/2+z
loop_
_atom_site_type_symbol
_atom_site_label
_atom_site_fract_x
_atom_site_fract_y
_atom_site_fract_z
Si Si1 0.553698 0.000000 0.933940
Si Si2 0.706298 0.653903 0.888241
Si Si3 0.607425 0.747085 0.561888
Si Si4 0.947463 0.000000 0.567111
Si Si5 0.945838 0.000000 0.930489
Si Si6 0.607186 0.738823 0.929441
Si Si7 0.294553 0.845775 0.603620
Si Si8 0.551814 0.000000 0.564549
O O1 0.583424 0.126328 0.977942
O O2 0.500000 0.000000 0.985253
O O3 0.551688 0.000000 0.749224
O O4 0.697978 0.500000 0.844747
O O5 0.660369 0.710667 0.967922
O O6 0.714376 0.752405 0.748002
O O7 0.750378 0.655860 0.996279
O O8 0.582804 0.623378 0.490239
O O9 0.605652 0.733315 0.745397
O O10 0.660342 0.781548 0.526489
O O11 0.578065 0.871927 0.514880
O O12 0.922495 0.874930 0.500649
O O13 0.945795 0.000000 0.748670
O O14 0.000000 0.000000 0.516809
O O15 0.000000 0.000000 0.980090
O O16 0.304484 0.000000 0.642957
O O17 0.500000 0.000000 0.510121
#
# Coordination Sequence:
#
# PCOD9375103 Si02
#       8
#     4   8   8   4   4   8   8   4
#     4   9  18  32  56  89 114 140 187 237 288 345
#     4  10  22  39  60  89 121 153 197 239 293 351
#     4  10  20  37  60  87 115 151 194 245 290 340
#     4  11  23  39  56  81 120 158 195 241 298 351
#     4  11  25  39  56  85 122 158 199 241 292 355
#     4  10  20  37  61  87 113 152 192 246 290 342
#     4  10  22  40  61  89 121 154 193 243 294 349
#     4   9  16  30  56  85 112 140 183 235 292 337
#
# _framework density 18.286632999999998
#
# number of rings (size 3 to 8) (size 9 to 14) (size 15 to 20)
#    0.000    2.000    1.667    1.500    7.000    4.667 
#    0.000    0.833    0.000    3.000    0.000    0.000 
#    0.000    0.000    0.000    0.000    0.000    0.000 
#
# Total GULP energy -133829.600074 kJ/mol
# GULP energy per Si atom -5576.233336 kJ/mol
# Density = 1.824501 g / cm^3
# Si number density = 18.286633 Si / 1000 Ang^3
#
#
#
# Elastic Constant Matrix: (Units=GPa)
#
#
# Indices 1 2 3 4 5 6 
#
# 1 182.6263 96.6633 41.0914 0.0000 0.0000 0.0000
# 2 96.6633 191.0252 31.5915 0.0000 0.0000 0.0000
# 3 41.0914 31.5915 12.8649 0.0000 0.0000 0.0000
# 4 0.0000 0.0000 0.0000 -13.1884 0.0000 0.0000
# 5 0.0000 0.0000 0.0000 0.0000 24.7767 0.0000
# 6 0.0000 0.0000 0.0000 0.0000 0.0000 42.6329
#
#
#
# Elastic Compliance Matrix: (Units=1/GPa)
#
#
# Indices 1 2 3 4 5 6 
#
# 1 0.019524 0.000730 -0.064153 0.000000 0.000000 0.000000
# 2 0.000730 0.008842 -0.024044 0.000000 0.000000 0.000000
# 3 -0.064153 -0.024044 0.341683 0.000000 0.000000 0.000000
# 4 0.000000 0.000000 0.000000 -0.075824 0.000000 0.000000
# 5 0.000000 0.000000 0.000000 0.000000 0.040361 0.000000
# 6 0.000000 0.000000 0.000000 0.000000 0.000000 0.023456
#
#
# Mechanical properties :
#
#
# Convention : Reuss Voigt Hill
#
# Bulk Modulus (GPa) = 5.12520 80.57876 42.85198
# Shear Modulus (GPa) = 8.36100 25.32224 16.84162
#
# Velocity S-wave (km/s) = 2.14059 3.72525 3.03806
# Velocity P-wave (km/s) = 2.98635 7.91601 5.98254
#
# Compressibility (1/GPa) = 0.19511442
#
# Stress axis : x y z
#
# Youngs Moduli (GPa) = 51.21923 113.09797 2.92669
#
# Poissons Ratio (x) = -0.08256 0.18776
# Poissons Ratio (y) = -0.03739 0.07037
# Poissons Ratio (z) = 3.28588 2.71934
#
# Static dielectric constant tensor:
#      x y z
#    x 1.637490 0.000000 0.000000 
#    y 0.000000 1.373210 0.000000 
#    z 0.000000 0.000000 1.611370 
# 
# From -- ./inp_files/10026.got.cif
#   From: 2010.05.17/outbox.cif.g08.bks.cpg/sg44_6_cif.got.tgz:10026.got - 2010.06.03 19:37:08.
