data_PCOD9375518
_publ_section_title
;
Structure prediction by ZEFSAII (Michael W. Deem and Ramdas Pophale) SiO2 
 PCOD9375518
Probable space group: I M M 2
;
_chemical_formula_sum "Si O2"
_cell_formula_units_Z 32
_cell_length_a 29.543345
_cell_length_b 8.398975
_cell_length_c 4.993297
_cell_angle_alpha 90.000000
_cell_angle_beta 90.000000
_cell_angle_gamma 90.000000
_cell_volume 1239.005839
_symmetry_space_group_name_H-M "I M M 2"
_symmetry_group_IT_number 44
_symmetry_cell_setting 'orthorhombic'
loop_
_space_group_symop_operation_xyz
x,y,z
-x,-y,z
-x,y,z
x,-y,z
1/2+x,1/2+y,1/2+z
1/2-x,1/2-y,1/2+z
1/2-x,1/2+y,1/2+z
1/2+x,1/2-y,1/2+z
loop_
_atom_site_type_symbol
_atom_site_label
_atom_site_fract_x
_atom_site_fract_y
_atom_site_fract_z
Si Si1 0.074993 0.000000 0.914551
Si Si2 0.348884 0.175737 0.703097
Si Si3 0.451122 0.830036 0.520142
Si Si4 0.864469 0.000000 0.428976
Si Si5 0.220888 0.807741 0.827048
O O1 0.117851 0.000000 0.725796
O O2 0.050401 0.165524 0.859742
O O3 0.092752 0.000000 0.221044
O O4 0.403604 0.169768 0.677606
O O5 0.339152 0.336248 0.867492
O O6 0.324756 0.215409 0.421053
O O7 0.334046 0.000000 0.793515
O O8 0.500000 0.826836 0.666848
O O9 0.450185 0.000000 0.368682
O O10 0.254208 0.771734 0.077203
O O11 0.215807 0.000000 0.799050
#
# Coordination Sequence:
#
# PCOD9375518 Si02
#       5
#     4   8   8   4   8
#     4  10  21  38  62  90 130 172 222 274 334 394
#     4  10  21  42  69 102 140 182 232 288 354 417
#     4   9  19  38  66  99 137 182 232 284 344 414
#     4  10  22  40  63  94 128 172 220 276 333 406
#     4  12  26  47  73 106 145 188 242 301 365 439
#
# _framework density 25.827157
#
# number of rings (size 3 to 8) (size 9 to 14) (size 15 to 20)
#    0.000    1.750    1.250    2.625    0.000    5.000 
#    0.000   15.000    0.000   12.000    0.000    0.000 
#    0.000    0.000    0.000    0.000    0.000    0.000 
#
# Total GULP energy -89344.608831 kJ/mol
# GULP energy per Si atom -5584.038052 kJ/mol
# Density = 2.576837 g / cm^3
# Si number density = 25.827157 Si / 1000 Ang^3
#
#
#
# Elastic Constant Matrix: (Units=GPa)
#
#
# Indices 1 2 3 4 5 6 
#
# 1 147.6371 32.6344 32.2008 -0.0003 0.0002 0.0003
# 2 32.6344 326.8929 30.8676 0.0019 -0.0002 -0.0007
# 3 32.2008 30.8676 35.3692 0.0016 -0.0003 -0.0005
# 4 -0.0003 0.0019 0.0016 32.7628 -0.0001 -0.0004
# 5 0.0002 -0.0002 -0.0003 -0.0001 18.0157 0.0000
# 6 0.0003 -0.0007 -0.0005 -0.0004 0.0000 13.9888
#
#
#
# Elastic Compliance Matrix: (Units=1/GPa)
#
#
# Indices 1 2 3 4 5 6 
#
# 1 0.008456 -0.000128 -0.007587 0.000000 0.000000 0.000000
# 2 -0.000128 0.003336 -0.002795 0.000000 0.000000 0.000000
# 3 -0.007587 -0.002795 0.037620 -0.000002 0.000001 0.000001
# 4 0.000000 0.000000 -0.000002 0.030522 0.000000 0.000001
# 5 0.000000 0.000000 0.000001 0.000000 0.055507 0.000000
# 6 0.000000 0.000000 0.000001 0.000001 0.000000 0.071486
#
#
# Mechanical properties :
#
#
# Convention : Reuss Voigt Hill
#
# Bulk Modulus (GPa) = 35.22099 77.92277 56.57188
# Shear Modulus (GPa) = 21.06042 40.56654 30.81348
#
# Velocity S-wave (km/s) = 2.85868 3.96750 3.45782
# Velocity P-wave (km/s) = 4.95610 7.15712 6.15578
#
# Compressibility (1/GPa) = 0.02839216
#
# Stress axis : x y z
#
# Youngs Moduli (GPa) = 118.25249 299.78037 26.58154
#
# Poissons Ratio (x) = 0.03830 0.20169
# Poissons Ratio (y) = 0.01511 0.07429
# Poissons Ratio (z) = 0.89723 0.83786
#
# Static dielectric constant tensor:
#      x y z
#    x 2.092540 0.000000 0.000000 
#    y 0.000000 2.046890 0.000000 
#    z 0.000000 0.000000 2.018210 
# 
# From -- ./inp_files/3205.got.cif
#   From: 2010.05.17/outbox.cif.g08.bks.cpg/sg44_2_cif.got.tgz:3205.got - 2010.06.03 19:37:08.
