data_PCOD9375758
_publ_section_title
;
Structure prediction by ZEFSAII (Michael W. Deem and Ramdas Pophale) SiO2 
 PCOD9375758
Probable space group: I M M 2
;
_chemical_formula_sum "Si O2"
_cell_formula_units_Z 48
_cell_length_a 18.694908
_cell_length_b 8.391847
_cell_length_c 15.375830
_cell_angle_alpha 90.000000
_cell_angle_beta 90.000000
_cell_angle_gamma 90.000000
_cell_volume 2412.234131
_symmetry_space_group_name_H-M "I M M 2"
_symmetry_group_IT_number 44
_symmetry_cell_setting 'orthorhombic'
loop_
_space_group_symop_operation_xyz
x,y,z
-x,-y,z
-x,y,z
x,-y,z
1/2+x,1/2+y,1/2+z
1/2-x,1/2-y,1/2+z
1/2-x,1/2+y,1/2+z
1/2+x,1/2-y,1/2+z
loop_
_atom_site_type_symbol
_atom_site_label
_atom_site_fract_x
_atom_site_fract_y
_atom_site_fract_z
Si Si1 0.119788 0.185555 0.336380
Si Si2 0.774015 0.807201 0.074480
Si Si3 0.649374 0.810800 0.210400
Si Si4 0.922293 0.309686 0.153922
Si Si5 0.000000 0.185833 0.647121
Si Si6 0.000000 0.313954 0.457522
Si Si7 0.770163 0.185948 0.874046
O O1 0.079820 0.225513 0.247396
O O2 0.069109 0.231509 0.415909
O O3 0.190543 0.290905 0.338000
O O4 0.139415 0.000000 0.338928
O O5 0.709608 0.755638 0.139357
O O6 0.851285 0.747936 0.105706
O O7 0.773389 0.000000 0.077236
O O8 0.766273 0.756655 0.973970
O O9 0.573388 0.726857 0.196442
O O10 0.679033 0.776593 0.306804
O O11 0.640181 0.000000 0.198146
O O12 0.918267 0.500000 0.165600
O O13 0.000000 0.273582 0.112177
O O14 0.000000 0.290373 0.559875
O O15 0.000000 0.000000 0.623450
O O16 0.000000 0.500000 0.433984
O O17 0.790118 0.000000 0.874401
#
# Coordination Sequence:
#
# PCOD9375758 Si02
#       7
#     8   8   8   8   4   4   8
#     4  12  23  37  61  93 128 166 209 259 321 387
#     4  10  23  42  66  94 127 168 213 262 322 384
#     4  11  23  43  68  95 130 172 216 267 323 384
#     4  11  23  39  62  92 128 168 209 259 320 379
#     4  12  26  44  66  95 128 169 218 266 326 388
#     4  12  24  40  62  93 130 167 210 266 328 386
#     4  11  23  41  65  95 128 169 216 266 322 384
#
# _framework density 19.898565999999999
#
# number of rings (size 3 to 8) (size 9 to 14) (size 15 to 20)
#    0.000    0.833    2.500    5.500    0.000    4.333 
#    1.500    0.000    0.000    0.000    0.000    0.000 
#    0.000    0.000    0.000    0.000    0.000    0.000 
#
# Total GULP energy -134150.411821 kJ/mol
# GULP energy per Si atom -5589.600493 kJ/mol
# Density = 1.985328 g / cm^3
# Si number density = 19.898566 Si / 1000 Ang^3
#
#
#
# Elastic Constant Matrix: (Units=GPa)
#
#
# Indices 1 2 3 4 5 6 
#
# 1 130.3252 5.9754 35.0870 0.0000 0.0000 0.0000
# 2 5.9754 34.7361 15.5935 0.0000 0.0000 0.0000
# 3 35.0870 15.5935 79.9401 0.0000 0.0000 0.0000
# 4 0.0000 0.0000 0.0000 30.7247 0.0000 0.0000
# 5 0.0000 0.0000 0.0000 0.0000 34.8927 0.0000
# 6 0.0000 0.0000 0.0000 0.0000 0.0000 101.2708
#
#
#
# Elastic Compliance Matrix: (Units=1/GPa)
#
#
# Indices 1 2 3 4 5 6 
#
# 1 0.008703 0.000239 -0.003866 0.000000 0.000000 0.000000
# 2 0.000239 0.031558 -0.006261 0.000000 0.000000 0.000000
# 3 -0.003866 -0.006261 0.015428 0.000000 0.000000 0.000000
# 4 0.000000 0.000000 0.000000 0.032547 0.000000 0.000000
# 5 0.000000 0.000000 0.000000 0.000000 0.028659 0.000000
# 6 0.000000 0.000000 0.000000 0.000000 0.000000 0.009875
#
#
# Mechanical properties :
#
#
# Convention : Reuss Voigt Hill
#
# Bulk Modulus (GPa) = 27.84606 39.81260 33.82933
# Shear Modulus (GPa) = 31.54235 45.93400 38.73817
#
# Velocity S-wave (km/s) = 3.98572 4.80980 4.41702
# Velocity P-wave (km/s) = 5.93344 7.13420 6.56134
#
# Compressibility (1/GPa) = 0.03591172
#
# Stress axis : x y z
#
# Youngs Moduli (GPa) = 114.90121 31.68782 64.81876
#
# Poissons Ratio (x) = -0.00756 0.25062
# Poissons Ratio (y) = -0.02741 0.40580
# Poissons Ratio (z) = 0.44426 0.19838
#
# Static dielectric constant tensor:
#      x y z
#    x 1.706380 0.000000 0.000000 
#    y 0.000000 1.669780 0.000000 
#    z 0.000000 0.000000 1.701130 
# 
# From -- ./inp_files/18844.got.cif
#   From: 2010.05.17/outbox.cif.g08.bks.cpg/sg44_10_cif.got.tgz:18844.got - 2010.06.03 19:37:08.
