data_PCOD9375039
_publ_section_title
;
Structure prediction by ZEFSAII (Michael W. Deem and Ramdas Pophale) SiO2 
 PCOD9375039
Probable space group: I M M 2
;
_chemical_formula_sum "Si O2"
_cell_formula_units_Z 48
_cell_length_a 7.867885
_cell_length_b 18.251416
_cell_length_c 17.512486
_cell_angle_alpha 90.000000
_cell_angle_beta 90.000000
_cell_angle_gamma 90.000000
_cell_volume 2514.793728
_symmetry_space_group_name_H-M "I M M 2"
_symmetry_group_IT_number 44
_symmetry_cell_setting 'orthorhombic'
loop_
_space_group_symop_operation_xyz
x,y,z
-x,-y,z
-x,y,z
x,-y,z
1/2+x,1/2+y,1/2+z
1/2-x,1/2-y,1/2+z
1/2-x,1/2+y,1/2+z
1/2+x,1/2-y,1/2+z
loop_
_atom_site_type_symbol
_atom_site_label
_atom_site_fract_x
_atom_site_fract_y
_atom_site_fract_z
Si Si1 0.296576 0.340586 0.363000
Si Si2 0.802459 0.331379 0.841822
Si Si3 0.793847 0.084035 0.019742
Si Si4 0.813476 0.912615 0.488247
Si Si5 0.705417 0.584883 0.691074
Si Si6 0.500000 0.912289 0.766307
Si Si7 0.000000 0.589297 0.091220
O O1 0.500000 0.356010 0.352106
O O2 0.268225 0.254754 0.348504
O O3 0.249382 0.363828 0.449601
O O4 0.169826 0.384188 0.308076
O O5 0.768176 0.363136 0.758074
O O6 0.000000 0.343326 0.860081
O O7 0.700909 0.374900 0.906275
O O8 0.736862 0.104956 0.105129
O O9 0.000000 0.082682 0.022425
O O10 0.738311 0.000000 0.004545
O O11 0.665699 0.886619 0.544524
O O12 0.000000 0.899184 0.521395
O O13 0.793334 0.000000 0.477460
O O14 0.500000 0.586672 0.691982
O O15 0.756331 0.500000 0.704970
O O16 0.500000 0.886252 0.678486
O O17 0.500000 0.000000 0.767505
O O18 0.000000 0.500000 0.092102
#
# Coordination Sequence:
#
# PCOD9375039 Si02
#       7
#     8   8   8   8   8   4   4
#     4  10  23  41  59  89 124 156 197 248 306 362
#     4  11  22  36  54  85 126 163 198 241 297 363
#     4   8  15  34  61  83 109 148 196 247 295 348
#     4  10  20  36  61  88 118 160 202 245 299 357
#     4   9  18  33  57  87 115 154 204 246 293 354
#     4  11  24  42  68  91 112 156 206 252 304 354
#     4   9  20  40  60  89 119 144 202 258 293 354
#
# _framework density 19.087050999999999
#
# number of rings (size 3 to 8) (size 9 to 14) (size 15 to 20)
#    0.000    2.333    0.833    2.500    2.333    4.000 
#    4.500    1.667    0.000    0.000    0.000    0.000 
#    0.000    0.000    0.000    0.000    0.000    0.000 
#
# Total GULP energy -133932.204266 kJ/mol
# GULP energy per Si atom -5580.508511 kJ/mol
# Density = 1.904361 g / cm^3
# Si number density = 19.087051 Si / 1000 Ang^3
#
#
#
# Elastic Constant Matrix: (Units=GPa)
#
#
# Indices 1 2 3 4 5 6 
#
# 1 86.5087 49.6726 57.2435 0.0000 0.0000 0.0000
# 2 49.6726 67.6748 73.9406 0.0000 0.0000 0.0000
# 3 57.2435 73.9406 170.9816 0.0000 0.0000 0.0000
# 4 0.0000 0.0000 0.0000 10.1213 0.0000 0.0000
# 5 0.0000 0.0000 0.0000 0.0000 24.3545 0.0000
# 6 0.0000 0.0000 0.0000 0.0000 0.0000 21.8295
#
#
#
# Elastic Compliance Matrix: (Units=1/GPa)
#
#
# Indices 1 2 3 4 5 6 
#
# 1 0.020019 -0.013973 -0.000660 0.000000 0.000000 0.000000
# 2 -0.013973 0.037765 -0.011653 0.000000 0.000000 0.000000
# 3 -0.000660 -0.011653 0.011109 0.000000 0.000000 0.000000
# 4 0.000000 0.000000 0.000000 0.098801 0.000000 0.000000
# 5 0.000000 0.000000 0.000000 0.000000 0.041060 0.000000
# 6 0.000000 0.000000 0.000000 0.000000 0.000000 0.045810
#
#
# Mechanical properties :
#
#
# Convention : Reuss Voigt Hill
#
# Bulk Modulus (GPa) = 61.27123 76.31980 68.79552
# Shear Modulus (GPa) = 15.99608 20.88163 18.43885
#
# Velocity S-wave (km/s) = 2.89807 3.31119 3.11149
# Velocity P-wave (km/s) = 6.58551 7.39530 7.00213
#
# Compressibility (1/GPa) = 0.01632087
#
# Stress axis : x y z
#
# Youngs Moduli (GPa) = 49.95157 26.47959 90.01863
#
# Poissons Ratio (x) = 0.37001 0.05938
# Poissons Ratio (y) = 0.69799 1.04900
# Poissons Ratio (z) = 0.03295 0.30857
#
# Static dielectric constant tensor:
#      x y z
#    x 1.691670 0.000000 0.000000 
#    y 0.000000 1.623090 0.000000 
#    z 0.000000 0.000000 1.647330 
# 
# From -- ./inp_files/16184.got.cif
#   From: 2010.05.17/outbox.cif.g08.bks.cpg/sg44_9_cif.got.tgz:16184.got - 2010.06.03 19:37:08.
