data_PCOD9375313
_publ_section_title
;
Structure prediction by ZEFSAII (Michael W. Deem and Ramdas Pophale) SiO2 
 PCOD9375313
Probable space group: I M M 2
;
_chemical_formula_sum "Si O2"
_cell_formula_units_Z 56
_cell_length_a 13.919781
_cell_length_b 8.721978
_cell_length_c 19.786815
_cell_angle_alpha 90.000000
_cell_angle_beta 90.000000
_cell_angle_gamma 90.000000
_cell_volume 2402.278103
_symmetry_space_group_name_H-M "I M M 2"
_symmetry_group_IT_number 44
_symmetry_cell_setting 'orthorhombic'
loop_
_space_group_symop_operation_xyz
x,y,z
-x,-y,z
-x,y,z
x,-y,z
1/2+x,1/2+y,1/2+z
1/2-x,1/2-y,1/2+z
1/2-x,1/2+y,1/2+z
1/2+x,1/2-y,1/2+z
loop_
_atom_site_type_symbol
_atom_site_label
_atom_site_fract_x
_atom_site_fract_y
_atom_site_fract_z
Si Si1 0.395487 0.317861 0.910470
Si Si2 0.887418 0.166261 0.248745
Si Si3 0.187512 0.682655 0.890248
Si Si4 0.114448 0.181074 0.751444
Si Si5 0.110719 0.315425 0.605656
Si Si6 0.779351 0.819688 0.007816
Si Si7 0.615337 0.832267 0.622147
O O1 0.500000 0.252463 0.930159
O O2 0.396195 0.500000 0.926440
O O3 0.387453 0.305979 0.828726
O O4 0.288644 0.255660 0.925325
O O5 0.854278 0.300061 0.200090
O O6 0.000000 0.150992 0.232715
O O7 0.839865 0.000000 0.237348
O O8 0.189011 0.500000 0.885528
O O9 0.165382 0.750313 0.817876
O O10 0.136811 0.743393 0.956582
O O11 0.139508 0.256571 0.679905
O O12 0.000000 0.208637 0.761492
O O13 0.130802 0.000000 0.748696
O O14 0.112835 0.500000 0.606050
O O15 0.177499 0.259675 0.544892
O O16 0.000000 0.265216 0.595144
O O17 0.840855 0.801387 0.078062
O O18 0.768231 0.000000 0.991702
O O19 0.500000 0.835659 0.618334
O O20 0.651834 0.000000 0.600056
#
# Coordination Sequence:
#
# PCOD9375313 Si02
#       7
#     8   8   8   8   8   8   8
#     4   8  16  32  54  81 113 149 187 225 272 337
#     4   8  14  28  51  77 105 139 179 219 264 326
#     4  11  23  38  59  88 122 159 201 247 299 357
#     4  10  22  41  65  92 122 158 203 257 314 368
#     4   9  20  41  67  92 119 156 205 258 310 365
#     4  11  24  40  59  85 119 159 202 246 302 365
#     4  10  21  36  54  80 114 149 187 233 286 342
#
# _framework density 23.311205999999999
#
# number of rings (size 3 to 8) (size 9 to 14) (size 15 to 20)
#    0.000    2.429    0.000    2.571    2.000    4.000 
#    0.000    0.714    0.000    2.143    0.000    0.000 
#    0.000    0.000    0.000    0.000    0.000    0.000 
#
# Total GULP energy -155888.983240 kJ/mol
# GULP energy per Si atom -5567.463687 kJ/mol
# Density = 2.325815 g / cm^3
# Si number density = 23.311206 Si / 1000 Ang^3
#
#
#
# Elastic Constant Matrix: (Units=GPa)
#
#
# Indices 1 2 3 4 5 6 
#
# 1 71.5512 20.8399 14.2839 0.0000 0.0000 0.0000
# 2 20.8399 65.4258 44.6631 0.0000 0.0000 0.0000
# 3 14.2839 44.6631 161.1581 0.0000 0.0000 0.0000
# 4 0.0000 0.0000 0.0000 33.0564 0.0000 0.0000
# 5 0.0000 0.0000 0.0000 0.0000 99.5205 0.0000
# 6 0.0000 0.0000 0.0000 0.0000 0.0000 -4.2285
#
#
#
# Elastic Compliance Matrix: (Units=1/GPa)
#
#
# Indices 1 2 3 4 5 6 
#
# 1 0.015405 -0.004902 -0.000007 0.000000 0.000000 0.000000
# 2 -0.004902 0.020411 -0.005222 0.000000 0.000000 0.000000
# 3 -0.000007 -0.005222 0.007653 0.000000 0.000000 0.000000
# 4 0.000000 0.000000 0.000000 0.030251 0.000000 0.000000
# 5 0.000000 0.000000 0.000000 0.000000 0.010048 0.000000
# 6 0.000000 0.000000 0.000000 0.000000 0.000000 -0.236488
#
#
# Mechanical properties :
#
#
# Convention : Reuss Voigt Hill
#
# Bulk Modulus (GPa) = 43.09132 50.85657 46.97395
# Shear Modulus (GPa) = -40.08928 40.22622 0.06847
#
# Velocity S-wave (km/s) = -4.15148 4.15856 0.17157
# Velocity P-wave (km/s) = 2.11052 6.70238 4.49820
#
# Compressibility (1/GPa) = 0.02320653
#
# Stress axis : x y z
#
# Youngs Moduli (GPa) = 64.91314 48.99336 130.66863
#
# Poissons Ratio (x) = 0.24018 0.00089
# Poissons Ratio (y) = 0.31823 0.68237
# Poissons Ratio (z) = 0.00044 0.25585
#
# Static dielectric constant tensor:
#      x y z
#    x 1.417250 0.000000 0.000000 
#    y 0.000000 1.942800 0.000000 
#    z 0.000000 0.000000 1.994900 
# 
# From -- ./inp_files/24132.got.cif
#   From: 2010.05.17/outbox.cif.g08.bks.cpg/sg44_13_cif.got.tgz:24132.got - 2010.06.03 19:37:08.
