data_PCOD9375831
_publ_section_title
;
Structure prediction by ZEFSAII (Michael W. Deem and Ramdas Pophale) SiO2 
 PCOD9375831
Probable space group: I M M 2
;
_chemical_formula_sum "Si O2"
_cell_formula_units_Z 34
_cell_length_a 22.645516
_cell_length_b 13.617902
_cell_length_c 5.124890
_cell_angle_alpha 90.000000
_cell_angle_beta 90.000000
_cell_angle_gamma 90.000000
_cell_volume 1580.436218
_symmetry_space_group_name_H-M "I M M 2"
_symmetry_group_IT_number 44
_symmetry_cell_setting 'orthorhombic'
loop_
_space_group_symop_operation_xyz
x,y,z
-x,-y,z
-x,y,z
x,-y,z
1/2+x,1/2+y,1/2+z
1/2-x,1/2-y,1/2+z
1/2-x,1/2+y,1/2+z
1/2+x,1/2-y,1/2+z
loop_
_atom_site_type_symbol
_atom_site_label
_atom_site_fract_x
_atom_site_fract_y
_atom_site_fract_z
Si Si1 0.000000 0.500000 0.635581
Si Si2 0.892269 0.885328 0.638433
Si Si3 0.117782 0.607691 0.484923
Si Si4 0.567246 0.268640 0.644201
Si Si5 0.788434 0.245646 0.704853
O O1 0.946299 0.415808 0.616387
O O2 0.917540 0.821372 0.876045
O O3 0.823724 0.853520 0.632568
O O4 0.900854 0.000000 0.678215
O O5 0.921913 0.847764 0.373363
O O6 0.140936 0.500000 0.411850
O O7 0.105331 0.675163 0.233761
O O8 0.164567 0.666839 0.657007
O O9 0.500000 0.235974 0.640192
O O10 0.763768 0.241518 0.995935
#
# Coordination Sequence:
#
# PCOD9375831 Si02
#       5
#     2   8   8   8   8
#     4   8  16  40  72 102 138 166 228 272 360 402
#     4  11  25  41  62  90 127 169 220 267 319 382
#     4   9  19  39  70 100 134 172 218 279 343 400
#     4  11  21  40  64  95 132 168 209 269 330 397
#     4  11  24  43  66  93 132 177 224 270 329 403
#
# _framework density 21.513047
#
# number of rings (size 3 to 8) (size 9 to 14) (size 15 to 20)
#    0.706    0.941    1.176    4.235    0.000    4.706 
#    0.000    9.412    0.000   18.353    0.000    0.000 
#    0.000    0.000    0.000    0.000    0.000    0.000 
#
# Total GULP energy -94704.854283 kJ/mol
# GULP energy per Si atom -5570.873781 kJ/mol
# Density = 2.146408 g / cm^3
# Si number density = 21.513047 Si / 1000 Ang^3
#
#
#
# Elastic Constant Matrix: (Units=GPa)
#
#
# Indices 1 2 3 4 5 6 
#
# 1 85.0817 20.1898 16.0708 0.0000 0.0000 0.0000
# 2 20.1898 133.6616 -2.2327 0.0000 0.0000 0.0000
# 3 16.0708 -2.2327 43.9456 0.0000 0.0000 0.0000
# 4 0.0000 0.0000 0.0000 2.1255 0.0000 0.0000
# 5 0.0000 0.0000 0.0000 0.0000 12.2591 0.0000
# 6 0.0000 0.0000 0.0000 0.0000 0.0000 18.3969
#
#
#
# Elastic Compliance Matrix: (Units=1/GPa)
#
#
# Indices 1 2 3 4 5 6 
#
# 1 0.013175 -0.002072 -0.004923 0.000000 0.000000 0.000000
# 2 -0.002072 0.007814 0.001155 0.000000 0.000000 0.000000
# 3 -0.004923 0.001155 0.024615 0.000000 0.000000 0.000000
# 4 0.000000 0.000000 0.000000 0.470479 0.000000 0.000000
# 5 0.000000 0.000000 0.000000 0.000000 0.081572 0.000000
# 6 0.000000 0.000000 0.000000 0.000000 0.000000 0.054357
#
#
# Mechanical properties :
#
#
# Convention : Reuss Voigt Hill
#
# Bulk Modulus (GPa) = 29.47961 36.74941 33.11451
# Shear Modulus (GPa) = 7.40740 21.80036 14.60388
#
# Velocity S-wave (km/s) = 1.85760 3.18678 2.60828
# Velocity P-wave (km/s) = 4.28180 5.53717 4.94944
#
# Compressibility (1/GPa) = 0.03392175
#
# Stress axis : x y z
#
# Youngs Moduli (GPa) = 75.90044 127.97695 40.62641
#
# Poissons Ratio (x) = 0.26522 0.20002
# Poissons Ratio (y) = 0.15729 -0.04692
# Poissons Ratio (z) = 0.37369 -0.14780
#
# Static dielectric constant tensor:
#      x y z
#    x 1.824170 0.000000 0.000000 
#    y 0.000000 1.761270 0.000000 
#    z 0.000000 0.000000 1.798440 
# 
# From -- ./inp_files/2666.got.cif
#   From: 2010.05.17/outbox.cif.g08.bks.cpg/sg44_2_cif.got.tgz:2666.got - 2010.06.03 19:37:08.
