data_PCOD9375436
_publ_section_title
;
Structure prediction by ZEFSAII (Michael W. Deem and Ramdas Pophale) SiO2 
 PCOD9375436
Probable space group: I M M 2
;
_chemical_formula_sum "Si O2"
_cell_formula_units_Z 48
_cell_length_a 22.044302
_cell_length_b 13.218250
_cell_length_c 7.049277
_cell_angle_alpha 90.000000
_cell_angle_beta 90.000000
_cell_angle_gamma 90.000000
_cell_volume 2054.068346
_symmetry_space_group_name_H-M "I M M 2"
_symmetry_group_IT_number 44
_symmetry_cell_setting 'orthorhombic'
loop_
_space_group_symop_operation_xyz
x,y,z
-x,-y,z
-x,y,z
x,-y,z
1/2+x,1/2+y,1/2+z
1/2-x,1/2-y,1/2+z
1/2-x,1/2+y,1/2+z
1/2+x,1/2-y,1/2+z
loop_
_atom_site_type_symbol
_atom_site_label
_atom_site_fract_x
_atom_site_fract_y
_atom_site_fract_z
Si Si1 0.140756 0.111076 0.180310
Si Si2 0.746918 0.171208 0.426096
Si Si3 0.066073 0.620711 0.179696
Si Si4 0.621963 0.768708 0.350073
Si Si5 0.928637 0.115214 0.549073
Si Si6 0.799968 0.383381 0.336669
O O1 0.200383 0.118157 0.309239
O O2 0.086409 0.130386 0.327914
O O3 0.134054 0.000000 0.098764
O O4 0.141066 0.188613 0.011318
O O5 0.682489 0.166838 0.318779
O O6 0.770014 0.287820 0.442029
O O7 0.733396 0.124155 0.631122
O O8 0.065087 0.500000 0.167022
O O9 0.074129 0.664663 0.967131
O O10 0.000000 0.654062 0.257904
O O11 0.128405 0.640747 0.297003
O O12 0.600859 0.703504 0.173055
O O13 0.000000 0.117078 0.583427
O O14 0.906586 0.000000 0.594678
O O15 0.794001 0.500000 0.405820
#
# Coordination Sequence:
#
# PCOD9375436 Si02
#       6
#     8   8   8   8   8   8
#     4  11  23  40  61  90 126 166 207 258 313 375
#     4  11  20  39  57  88 118 160 207 250 305 378
#     4   9  18  35  60  87 115 156 204 249 304 360
#     4  11  22  38  65  90 124 161 211 256 310 372
#     4  10  23  41  62  91 126 164 206 256 315 373
#     4  10  21  37  59  87 123 158 198 260 309 365
#
# _framework density 23.368258000000001
#
# number of rings (size 3 to 8) (size 9 to 14) (size 15 to 20)
#    0.000    1.667    3.333    2.500    0.000    4.667 
#    0.000    1.667    0.000    1.000    0.000    2.333 
#    0.000    0.000    0.000    0.000    0.000    0.000 
#
# Total GULP energy -134174.790721 kJ/mol
# GULP energy per Si atom -5590.616280 kJ/mol
# Density = 2.331507 g / cm^3
# Si number density = 23.368258 Si / 1000 Ang^3
#
#
#
# Elastic Constant Matrix: (Units=GPa)
#
#
# Indices 1 2 3 4 5 6 
#
# 1 94.4142 19.4267 7.5700 0.0000 0.0000 0.0000
# 2 19.4267 89.5799 -10.2182 0.0000 0.0000 0.0000
# 3 7.5700 -10.2182 37.9813 0.0000 0.0000 0.0000
# 4 0.0000 0.0000 0.0000 36.6424 0.0000 0.0000
# 5 0.0000 0.0000 0.0000 0.0000 21.8432 0.0000
# 6 0.0000 0.0000 0.0000 0.0000 0.0000 18.6143
#
#
#
# Elastic Compliance Matrix: (Units=1/GPa)
#
#
# Indices 1 2 3 4 5 6 
#
# 1 0.011416 -0.002822 -0.003034 0.000000 0.000000 0.000000
# 2 -0.002822 0.012214 0.003848 0.000000 0.000000 0.000000
# 3 -0.003034 0.003848 0.027969 0.000000 0.000000 0.000000
# 4 0.000000 0.000000 0.000000 0.027291 0.000000 0.000000
# 5 0.000000 0.000000 0.000000 0.000000 0.045781 0.000000
# 6 0.000000 0.000000 0.000000 0.000000 0.000000 0.053722
#
#
# Mechanical properties :
#
#
# Convention : Reuss Voigt Hill
#
# Bulk Modulus (GPa) = 21.01582 28.39246 24.70414
# Shear Modulus (GPa) = 25.21831 29.09980 27.15905
#
# Velocity S-wave (km/s) = 3.28864 3.53267 3.41283
# Velocity P-wave (km/s) = 4.84077 5.36806 5.11122
#
# Compressibility (1/GPa) = 0.04758319
#
# Stress axis : x y z
#
# Youngs Moduli (GPa) = 87.60012 81.87239 35.75400
#
# Poissons Ratio (x) = 0.23102 0.10849
# Poissons Ratio (y) = 0.24718 -0.13760
# Poissons Ratio (z) = 0.26581 -0.31508
#
# Static dielectric constant tensor:
#      x y z
#    x 1.931200 0.000000 0.000000 
#    y 0.000000 1.890760 0.000000 
#    z 0.000000 0.000000 1.874270 
# 
# From -- ./inp_files/8855.got.cif
#   From: 2010.05.17/outbox.cif.g08.bks.cpg/sg44_5_cif.got.tgz:8855.got - 2010.06.03 19:37:08.
