data_PCOD9375056
_publ_section_title
;
Structure prediction by ZEFSAII (Michael W. Deem and Ramdas Pophale) SiO2 
 PCOD9375056
Probable space group: I M M 2
;
_chemical_formula_sum "Si O2"
_cell_formula_units_Z 56
_cell_length_a 14.881448
_cell_length_b 13.586546
_cell_length_c 11.583123
_cell_angle_alpha 90.000000
_cell_angle_beta 90.000000
_cell_angle_gamma 90.000000
_cell_volume 2341.962424
_symmetry_space_group_name_H-M "I M M 2"
_symmetry_group_IT_number 44
_symmetry_cell_setting 'orthorhombic'
loop_
_space_group_symop_operation_xyz
x,y,z
-x,-y,z
-x,y,z
x,-y,z
1/2+x,1/2+y,1/2+z
1/2-x,1/2-y,1/2+z
1/2-x,1/2+y,1/2+z
1/2+x,1/2-y,1/2+z
loop_
_atom_site_type_symbol
_atom_site_label
_atom_site_fract_x
_atom_site_fract_y
_atom_site_fract_z
Si Si1 0.256905 0.117805 0.994510
Si Si2 0.897271 0.303627 0.662698
Si Si3 0.297471 0.883225 0.388417
Si Si4 0.905427 0.175066 0.159762
Si Si5 0.133393 0.390107 0.129830
Si Si6 0.675263 0.389982 0.246391
Si Si7 0.098596 0.886785 0.417833
O O1 0.216161 0.144837 0.869437
O O2 0.268353 0.000000 0.992004
O O3 0.348713 0.162777 0.045149
O O4 0.179639 0.148074 0.084330
O O5 0.837340 0.345414 0.768722
O O6 0.890262 0.186916 0.686401
O O7 0.000000 0.336946 0.668841
O O8 0.367736 0.869525 0.492841
O O9 0.199828 0.844526 0.431032
O O10 0.284879 0.000000 0.375107
O O11 0.903125 0.291847 0.188436
O O12 0.904452 0.116011 0.278276
O O13 0.000000 0.154336 0.097872
O O14 0.097345 0.500000 0.154227
O O15 0.236975 0.395123 0.166585
O O16 0.637954 0.500000 0.260779
O O17 0.000000 0.843589 0.453439
O O18 0.099733 0.000000 0.460390
#
# Coordination Sequence:
#
# PCOD9375056 Si02
#       7
#     8   8   8   8   8   8   8
#     4  11  23  42  69  99 137 179 225 285 347 409
#     4  12  25  42  69 102 137 177 226 284 347 410
#     4  10  20  36  62  92 128 168 210 271 336 399
#     4  11  21  35  60  91 122 161 212 271 330 392
#     4  10  21  39  62  88 126 175 221 266 325 401
#     4  10  23  44  69  94 131 183 230 276 334 407
#     4   9  17  32  57  89 119 150 198 262 330 391
#
# _framework density 23.911570999999999
#
# number of rings (size 3 to 8) (size 9 to 14) (size 15 to 20)
#    0.000    1.571    2.857    1.714    0.000    4.857 
#    0.000    4.286    0.000    5.143    0.000    0.000 
#    0.000    0.000    0.000    0.000    0.000    0.000 
#
# Total GULP energy -156414.029944 kJ/mol
# GULP energy per Si atom -5586.215355 kJ/mol
# Density = 2.385715 g / cm^3
# Si number density = 23.911571 Si / 1000 Ang^3
#
#
#
# Elastic Constant Matrix: (Units=GPa)
#
#
# Indices 1 2 3 4 5 6 
#
# 1 136.6062 12.6861 16.0451 0.0000 0.0000 0.0000
# 2 12.6861 82.7584 13.5893 0.0000 0.0000 0.0000
# 3 16.0451 13.5893 82.0739 0.0000 0.0000 0.0000
# 4 0.0000 0.0000 0.0000 27.9316 0.0000 0.0000
# 5 0.0000 0.0000 0.0000 0.0000 -7.9694 0.0000
# 6 0.0000 0.0000 0.0000 0.0000 0.0000 -22.2092
#
#
#
# Elastic Compliance Matrix: (Units=1/GPa)
#
#
# Indices 1 2 3 4 5 6 
#
# 1 0.007563 -0.000942 -0.001323 0.000000 0.000000 0.000000
# 2 -0.000942 0.012538 -0.001892 0.000000 0.000000 0.000000
# 3 -0.001323 -0.001892 0.012756 0.000000 0.000000 0.000000
# 4 0.000000 0.000000 0.000000 0.035802 0.000000 0.000000
# 5 0.000000 0.000000 0.000000 0.000000 -0.125479 0.000000
# 6 0.000000 0.000000 0.000000 0.000000 0.000000 -0.045026
#
#
# Mechanical properties :
#
#
# Convention : Reuss Voigt Hill
#
# Bulk Modulus (GPa) = 40.74260 42.89772 41.82016
# Shear Modulus (GPa) = -58.58118 16.82512 -20.87803
#
# Velocity S-wave (km/s) = -4.95503 2.65550 -2.95809
# Velocity P-wave (km/s) = 3.95734 5.23272 2.42083
#
# Compressibility (1/GPa) = 0.02454433
#
# Stress axis : x y z
#
# Youngs Moduli (GPa) = 132.21999 79.75471 78.39484
#
# Poissons Ratio (x) = 0.07514 0.10368
# Poissons Ratio (y) = 0.12458 0.14831
# Poissons Ratio (z) = 0.17487 0.15088
#
# Static dielectric constant tensor:
#      x y z
#    x 1.946610 0.000000 0.000000 
#    y 0.000000 1.969090 0.000000 
#    z 0.000000 0.000000 1.894580 
# 
# From -- ./inp_files/13254.got.cif
#   From: 2010.05.17/outbox.cif.g08.bks.cpg/sg44_7_cif.got.tgz:13254.got - 2010.06.03 19:37:08.
