data_PCOD9375897
_publ_section_title
;
Structure prediction by ZEFSAII (Michael W. Deem and Ramdas Pophale) SiO2 
 PCOD9375897
Probable space group: I M M 2
;
_chemical_formula_sum "Si O2"
_cell_formula_units_Z 56
_cell_length_a 7.373249
_cell_length_b 24.575392
_cell_length_c 14.246762
_cell_angle_alpha 90.000000
_cell_angle_beta 90.000000
_cell_angle_gamma 90.000000
_cell_volume 2581.520177
_symmetry_space_group_name_H-M "I M M 2"
_symmetry_group_IT_number 44
_symmetry_cell_setting 'orthorhombic'
loop_
_space_group_symop_operation_xyz
x,y,z
-x,-y,z
-x,y,z
x,-y,z
1/2+x,1/2+y,1/2+z
1/2-x,1/2-y,1/2+z
1/2-x,1/2+y,1/2+z
1/2+x,1/2-y,1/2+z
loop_
_atom_site_type_symbol
_atom_site_label
_atom_site_fract_x
_atom_site_fract_y
_atom_site_fract_z
Si Si1 0.219259 0.669954 0.149720
Si Si2 0.719259 0.169954 0.066345
Si Si3 0.792223 0.566153 0.858032
Si Si4 0.221808 0.437981 0.064907
Si Si5 0.778192 0.562019 0.651158
Si Si6 0.789172 0.727047 0.755950
Si Si7 0.710828 0.772953 0.460115
O O1 0.274127 0.607176 0.140637
O O2 0.280356 0.708582 0.233704
O O3 0.000000 0.671839 0.151196
O O4 0.286054 0.698009 0.052671
O O5 0.500000 0.171839 0.064868
O O6 0.774127 0.107176 0.075428
O O7 0.786053 0.198009 0.163394
O O8 0.780357 0.208582 0.982361
O O9 0.795882 0.500000 0.858032
O O10 0.715749 0.580132 0.755901
O O11 0.000000 0.585982 0.858032
O O12 0.715750 0.580132 0.960164
O O13 0.279538 0.500000 0.082333
O O14 0.000000 0.438767 0.060481
O O15 0.720462 0.500000 0.633732
O O16 0.000000 0.561234 0.655584
O O17 0.710389 0.714385 0.858032
O O18 0.000000 0.711180 0.758893
O O19 0.500000 0.788820 0.457172
#
# Coordination Sequence:
#
# PCOD9375897 Si02
#       7
#     8   8   8   8   8   8   8
#     4   9  17  28  45  68  89 111 143 178 213 255
#     4   9  17  28  45  68  89 111 143 178 213 255
#     4   7  10  16  28  52  85 113 131 153 196 251
#     4   8  13  21  36  61  90 113 134 168 213 257
#     4   8  13  21  36  61  90 113 134 168 213 257
#     4   9  18  31  45  62  87 117 146 178 214 251
#     4   9  18  31  45  62  87 117 146 178 214 251
#
# _framework density 21.692644999999999
#
# number of rings (size 3 to 8) (size 9 to 14) (size 15 to 20)
#    0.000    3.571    0.000    1.714    2.000    0.571 
#    0.000    0.000    0.000    1.714    0.000    6.000 
#    0.000    3.429    0.000    0.000    0.000    0.000 
#
# Total GULP energy -156052.842267 kJ/mol
# GULP energy per Si atom -5573.315795 kJ/mol
# Density = 2.164327 g / cm^3
# Si number density = 21.692645 Si / 1000 Ang^3
#
#
#
# Elastic Constant Matrix: (Units=GPa)
#
#
# Indices 1 2 3 4 5 6 
#
# 1 75.5697 -8.5625 -0.0960 0.0000 0.0000 0.0000
# 2 -8.5625 85.3504 -1.2678 0.0000 0.0000 0.0000
# 3 -0.0960 -1.2678 43.7687 0.0000 0.0000 0.0000
# 4 0.0000 0.0000 0.0000 29.8640 0.0000 0.0000
# 5 0.0000 0.0000 0.0000 0.0000 0.7433 0.0000
# 6 0.0000 0.0000 0.0000 0.0000 0.0000 2.6032
#
#
#
# Elastic Compliance Matrix: (Units=1/GPa)
#
#
# Indices 1 2 3 4 5 6 
#
# 1 0.013385 0.001344 0.000068 0.000000 0.000000 0.000000
# 2 0.001344 0.011856 0.000346 0.000000 0.000000 0.000000
# 3 0.000068 0.000346 0.022858 0.000000 0.000000 0.000000
# 4 0.000000 0.000000 0.000000 0.033485 0.000000 0.000000
# 5 0.000000 0.000000 0.000000 0.000000 1.345375 -0.000002
# 6 0.000000 0.000000 0.000000 0.000000 -0.000002 0.384145
#
#
# Mechanical properties :
#
#
# Convention : Reuss Voigt Hill
#
# Bulk Modulus (GPa) = 19.37380 20.53735 19.95557
# Shear Modulus (GPa) = 2.74004 20.94977 11.84490
#
# Velocity S-wave (km/s) = 1.12510 3.11103 2.33927
# Velocity P-wave (km/s) = 3.26163 4.73209 4.06392
#
# Compressibility (1/GPa) = 0.05161611
#
# Stress axis : x y z
#
# Youngs Moduli (GPa) = 74.70955 84.34283 43.74916
#
# Poissons Ratio (x) = -0.11334 -0.00299
# Poissons Ratio (y) = -0.10040 -0.01515
# Poissons Ratio (z) = -0.00510 -0.02921
#
# Static dielectric constant tensor:
#      x y z
#    x 1.877310 0.000000 0.000000 
#    y 0.000000 1.835250 0.000000 
#    z 0.000000 0.000000 1.772920 
# 
# From -- ./inp_files/12581.got.cif
#   From: 2010.05.17/outbox.cif.g08.bks.cpg/sg44_7_cif.got.tgz:12581.got - 2010.06.03 19:37:08.
