data_PCOD9375978
_publ_section_title
;
Structure prediction by ZEFSAII (Michael W. Deem and Ramdas Pophale) SiO2 
 PCOD9375978
Probable space group: I M M 2
;
_chemical_formula_sum "Si O2"
_cell_formula_units_Z 32
_cell_length_a 18.000000
_cell_length_b 21.000000
_cell_length_c 9.000000
_cell_angle_alpha 90.000000
_cell_angle_beta 90.000000
_cell_angle_gamma 90.000000
_cell_volume 3402.000000
_symmetry_space_group_name_H-M "I M M 2"
_symmetry_group_IT_number 44
_symmetry_cell_setting 'orthorhombic'
loop_
_space_group_symop_operation_xyz
x,y,z
-x,-y,z
-x,y,z
x,-y,z
1/2+x,1/2+y,1/2+z
1/2-x,1/2-y,1/2+z
1/2-x,1/2+y,1/2+z
1/2+x,1/2-y,1/2+z
loop_
_atom_site_type_symbol
_atom_site_label
_atom_site_fract_x
_atom_site_fract_y
_atom_site_fract_z
Si Si1 0.915985 0.312297 0.852510
Si Si2 0.654855 0.747522 0.604966
Si Si3 0.267756 0.570203 0.506195
Si Si4 0.708258 0.202992 0.909098
Si Si5 0.357237 0.574890 0.981650
Si Si6 0.588506 0.286850 0.089211
Si Si7 0.199839 0.428142 0.837350
Si Si8 0.587501 0.610496 0.655746
O O1 0.904063 0.249305 0.748796
O O2 0.858268 0.370229 0.832113
O O3 0.000000 0.333843 0.822081
O O4 0.905107 0.290094 0.021497
O O5 0.697665 0.780872 0.738221
O O6 0.718117 0.731842 0.483957
O O7 0.615159 0.683640 0.662444
O O8 0.255963 0.500000 0.440281
O O9 0.222909 0.627545 0.429584
O O10 0.237074 0.570518 0.674692
O O11 0.356162 0.581831 0.531884
O O12 0.638637 0.239330 0.987463
O O13 0.369127 0.500000 0.032874
O O14 0.268761 0.582866 0.950067
O O15 0.396198 0.580835 0.818568
O O16 0.384403 0.638698 0.072327
O O17 0.500000 0.286247 0.051198
O O18 0.169512 0.500000 0.865105
O O19 0.500000 0.605406 0.621509
#
# Coordination Sequence:
#
# PCOD9375978 Si02
#       8
#     8   8   8   8   8   8   8   8
#     4  11  23  38  58  89 124 157 205 260 309 361
#     4  11  23  36  60  87 117 158 204 254 306 358
#     4   9  19  35  58  87 120 159 201 246 294 358
#     4  11  21  38  61  86 117 158 200 249 297 358
#     4  10  20  34  57  90 125 162 201 245 296 364
#     4  11  22  35  57  89 124 158 200 246 300 362
#     4   9  18  36  59  84 119 160 206 252 301 359
#     4  10  19  32  54  90 125 159 201 246 296 358
#
# _framework density 9.4062319999999993
#
# number of rings (size 3 to 8) (size 9 to 14) (size 15 to 20)
#    0.000    1.750    2.500    3.375    1.750    2.500 
#    0.000    0.625    0.000    9.375    0.000    7.000 
#    0.000    0.000    0.000    0.000    0.000    0.000 
#
# Total GULP energy -178438.475414 kJ/mol
# GULP energy per Si atom -5576.202357 kJ/mol
# Density = 0.938482 g / cm^3
# Si number density = 9.406232 Si / 1000 Ang^3
#
#
#
# Elastic Constant Matrix: (Units=GPa)
#
#
# Indices 1 2 3 4 5 6 
#
# 1 119.3322 72.8820 24.1198 0.0000 0.0000 0.0000
# 2 72.8820 169.9894 28.7097 0.0000 0.0000 0.0000
# 3 24.1198 28.7097 48.7996 0.0000 0.0000 0.0000
# 4 0.0000 0.0000 0.0000 17.7823 0.0000 0.0000
# 5 0.0000 0.0000 0.0000 0.0000 21.0412 0.0000
# 6 0.0000 0.0000 0.0000 0.0000 0.0000 25.9118
#
#
#
# Elastic Compliance Matrix: (Units=1/GPa)
#
#
# Indices 1 2 3 4 5 6 
#
# 1 0.011777 -0.004515 -0.003165 0.000000 0.000000 0.000000
# 2 -0.004515 0.008263 -0.002629 0.000000 0.000000 0.000000
# 3 -0.003165 -0.002629 0.023603 0.000000 0.000000 0.000000
# 4 0.000000 0.000000 0.000000 0.056236 0.000000 0.000000
# 5 0.000000 0.000000 0.000000 0.000000 0.047526 0.000000
# 6 0.000000 0.000000 0.000000 0.000000 0.000000 0.038593
#
#
# Mechanical properties :
#
#
# Convention : Reuss Voigt Hill
#
# Bulk Modulus (GPa) = 43.43194 65.50493 54.46843
# Shear Modulus (GPa) = 23.33289 27.10771 25.22030
#
# Velocity S-wave (km/s) = 3.52559 3.80009 3.66542
# Velocity P-wave (km/s) = 6.30159 7.35866 6.85054
#
# Compressibility (1/GPa) = 0.02302453
#
# Stress axis : x y z
#
# Youngs Moduli (GPa) = 84.91066 121.02828 42.36716
#
# Poissons Ratio (x) = 0.54642 0.13408
# Poissons Ratio (y) = 0.38336 0.11140
# Poissons Ratio (z) = 0.26873 0.31824
#
# Static dielectric constant tensor:
#      x y z
#    x 1.654370 0.000000 0.000000 
#    y 0.000000 1.682100 0.000000 
#    z 0.000000 0.000000 1.679160 
# 
# From -- ./inp_files/8482.got.cif
#   From: 2010.05.17/outbox.ucp.g08.bks.cvg/sg44_5_cif.got.tgz:8482.got - 2010.06.11 16:32:36.
