data_PCOD9375037
_publ_section_title
;
Structure prediction by ZEFSAII (Michael W. Deem and Ramdas Pophale) SiO2 
 PCOD9375037
Probable space group: I M M 2
;
_chemical_formula_sum "Si O2"
_cell_formula_units_Z 64
_cell_length_a 31.860324
_cell_length_b 7.852375
_cell_length_c 12.314485
_cell_angle_alpha 90.000000
_cell_angle_beta 90.000000
_cell_angle_gamma 90.000000
_cell_volume 3080.828149
_symmetry_space_group_name_H-M "I M M 2"
_symmetry_group_IT_number 44
_symmetry_cell_setting 'orthorhombic'
loop_
_space_group_symop_operation_xyz
x,y,z
-x,-y,z
-x,y,z
x,-y,z
1/2+x,1/2+y,1/2+z
1/2-x,1/2-y,1/2+z
1/2-x,1/2+y,1/2+z
1/2+x,1/2-y,1/2+z
loop_
_atom_site_type_symbol
_atom_site_label
_atom_site_fract_x
_atom_site_fract_y
_atom_site_fract_z
Si Si1 0.299135 0.803574 0.478300
Si Si2 0.953941 0.204988 0.499436
Si Si3 0.122346 0.200337 0.117977
Si Si4 0.577980 0.800637 0.233283
Si Si5 0.827569 0.803551 0.746349
Si Si6 0.953420 0.206320 0.968536
Si Si7 0.127402 0.790827 0.364430
Si Si8 0.295131 0.291377 0.013362
O O1 0.334435 0.717607 0.552161
O O2 0.313416 0.792318 0.353755
O O3 0.252004 0.733964 0.488329
O O4 0.298036 0.000000 0.512856
O O5 0.946717 0.249802 0.625262
O O6 0.914206 0.265295 0.429376
O O7 0.000000 0.267286 0.464258
O O8 0.954018 0.000000 0.490778
O O9 0.126154 0.268861 0.239991
O O10 0.113353 0.000000 0.130322
O O11 0.084171 0.271379 0.045180
O O12 0.622300 0.704462 0.235775
O O13 0.554169 0.762675 0.344940
O O14 0.587406 0.000000 0.228188
O O15 0.808190 0.737936 0.634328
O O16 0.814756 0.000000 0.760368
O O17 0.000000 0.258570 0.004745
O O18 0.951891 0.000000 0.968434
O O19 0.169306 0.736020 0.428178
O O20 0.127806 0.000000 0.365203
O O21 0.295636 0.500000 0.011407
#
# Coordination Sequence:
#
# PCOD9375037 Si02
#       8
#     8   8   8   8   8   8   8   8
#     4  11  23  38  58  88 121 151 189 237 291 345
#     4  10  20  36  61  88 115 151 194 240 291 348
#     4  10  21  37  60  84 113 154 196 238 287 341
#     4  12  23  36  57  87 120 152 190 242 294 345
#     4  11  21  39  64  86 115 155 196 238 287 343
#     4  10  21  37  57  83 116 153 194 238 286 346
#     4   9  18  36  59  84 113 149 194 242 285 334
#     4   9  20  37  59  84 116 152 186 234 288 339
#
# _framework density 20.773634000000001
#
# number of rings (size 3 to 8) (size 9 to 14) (size 15 to 20)
#    0.000    1.750    2.500    2.250    1.750    2.500 
#    0.000    5.000    0.000    0.000    0.000    1.750 
#    0.000    0.000    0.000    0.000    0.000    0.000 
#
# Total GULP energy -178782.163806 kJ/mol
# GULP energy per Si atom -5586.942619 kJ/mol
# Density = 2.072635 g / cm^3
# Si number density = 20.773634 Si / 1000 Ang^3
#
#
#
# Elastic Constant Matrix: (Units=GPa)
#
#
# Indices 1 2 3 4 5 6 
#
# 1 165.5277 -2.5415 84.9313 0.0000 0.0000 0.0000
# 2 -2.5415 23.0257 -5.3349 0.0000 0.0000 0.0000
# 3 84.9313 -5.3349 150.9585 0.0000 0.0000 0.0000
# 4 0.0000 0.0000 0.0000 -9.6138 0.0000 0.0000
# 5 0.0000 0.0000 0.0000 0.0000 74.2945 0.0000
# 6 0.0000 0.0000 0.0000 0.0000 0.0000 11.9860
#
#
#
# Elastic Compliance Matrix: (Units=1/GPa)
#
#
# Indices 1 2 3 4 5 6 
#
# 1 0.008494 -0.000171 -0.004785 0.000000 0.000000 0.000000
# 2 -0.000171 0.043792 0.001644 0.000000 0.000000 0.000000
# 3 -0.004785 0.001644 0.009374 0.000000 0.000000 0.000000
# 4 0.000000 0.000000 0.000000 -0.104017 0.000000 0.000000
# 5 0.000000 0.000000 0.000000 0.000000 0.013460 0.000000
# 6 0.000000 0.000000 0.000000 0.000000 0.000000 0.083431
#
#
# Mechanical properties :
#
#
# Convention : Reuss Voigt Hill
#
# Bulk Modulus (GPa) = 18.16993 54.84685 36.50839
# Shear Modulus (GPa) = 62.89076 32.83046 47.86061
#
# Velocity S-wave (km/s) = 5.50818 3.97973 4.80511
# Velocity P-wave (km/s) = 7.01563 6.89761 6.95687
#
# Compressibility (1/GPa) = 0.05503598
#
# Stress axis : x y z
#
# Youngs Moduli (GPa) = 117.73492 22.83533 106.67389
#
# Poissons Ratio (x) = 0.00391 0.51040
# Poissons Ratio (y) = 0.02014 -0.17536
# Poissons Ratio (z) = 0.56333 -0.03754
#
# Static dielectric constant tensor:
#      x y z
#    x 1.733610 0.000000 0.000000 
#    y 0.000000 1.744960 0.000000 
#    z 0.000000 0.000000 1.705030 
# 
# From -- ./inp_files/11426.got.cif
#   From: 2010.05.17/outbox.cif.g08.bks.cpg/sg44_6_cif.got.tgz:11426.got - 2010.06.03 19:37:08.
