data_PCOD9375303
_publ_section_title
;
Structure prediction by ZEFSAII (Michael W. Deem and Ramdas Pophale) SiO2 
 PCOD9375303
Probable space group: I M M 2
;
_chemical_formula_sum "Si O2"
_cell_formula_units_Z 48
_cell_length_a 7.484320
_cell_length_b 9.164610
_cell_length_c 35.819543
_cell_angle_alpha 90.000000
_cell_angle_beta 90.000000
_cell_angle_gamma 90.000000
_cell_volume 2456.893758
_symmetry_space_group_name_H-M "I M M 2"
_symmetry_group_IT_number 44
_symmetry_cell_setting 'orthorhombic'
loop_
_space_group_symop_operation_xyz
x,y,z
-x,-y,z
-x,y,z
x,-y,z
1/2+x,1/2+y,1/2+z
1/2-x,1/2-y,1/2+z
1/2-x,1/2+y,1/2+z
1/2+x,1/2-y,1/2+z
loop_
_atom_site_type_symbol
_atom_site_label
_atom_site_fract_x
_atom_site_fract_y
_atom_site_fract_z
Si Si1 0.000000 0.674905 0.911731
Si Si2 0.500000 0.324236 0.331622
Si Si3 0.285356 0.666796 0.613522
Si Si4 0.714870 0.827558 0.963612
Si Si5 0.287597 0.336183 0.038083
Si Si6 0.716747 0.670753 0.695610
Si Si7 0.207166 0.674596 0.270682
O O1 0.000000 0.737296 0.869927
O O2 0.827395 0.739064 0.933262
O O3 0.000000 0.500000 0.912616
O O4 0.500000 0.500000 0.338592
O O5 0.671075 0.288000 0.305943
O O6 0.500000 0.659780 0.615643
O O7 0.221142 0.500000 0.607739
O O8 0.242402 0.766375 0.578468
O O9 0.222315 0.719925 0.654375
O O10 0.500000 0.807963 0.959306
O O11 0.751924 0.000000 0.960874
O O12 0.772560 0.766914 0.004253
O O13 0.500000 0.346428 0.033462
O O14 0.213044 0.500000 0.035454
O O15 0.500000 0.682401 0.695757
O O16 0.761689 0.500000 0.698756
O O17 0.776840 0.755724 0.732196
O O18 0.212636 0.500000 0.266450
O O19 0.000000 0.718218 0.276285
#
# Coordination Sequence:
#
# PCOD9375303 Si02
#       7
#     4   4   8   8   8   8   8
#     4  12  26  42  64  94 126 156 192 246 304 360
#     4  10  22  40  58  84 118 148 190 242 286 352
#     4   9  18  32  51  76 107 146 191 237 282 339
#     4  10  22  42  67  90 116 157 202 243 293 358
#     4  10  21  36  53  78 113 149 188 237 290 343
#     4   8  15  30  51  75 105 142 186 233 282 337
#     4   9  18  34  57  81 108 147 188 231 288 345
#
# _framework density 19.536864999999999
#
# number of rings (size 3 to 8) (size 9 to 14) (size 15 to 20)
#    0.000    2.500    0.000    2.750    1.167    4.333 
#    1.500    3.333    0.000    0.000    0.000    0.000 
#    0.000    0.000    0.000    0.000    0.000    0.000 
#
# Total GULP energy -133938.865358 kJ/mol
# GULP energy per Si atom -5580.786057 kJ/mol
# Density = 1.949240 g / cm^3
# Si number density = 19.536865 Si / 1000 Ang^3
#
#
#
# Elastic Constant Matrix: (Units=GPa)
#
#
# Indices 1 2 3 4 5 6 
#
# 1 77.3186 42.2650 52.8236 0.0000 0.0000 0.0000
# 2 42.2650 110.0593 98.2022 0.0000 0.0000 0.0000
# 3 52.8236 98.2022 200.7524 0.0000 0.0000 0.0000
# 4 0.0000 0.0000 0.0000 38.5335 0.0000 0.0000
# 5 0.0000 0.0000 0.0000 0.0000 36.5924 0.0000
# 6 0.0000 0.0000 0.0000 0.0000 0.0000 17.3262
#
#
#
# Elastic Compliance Matrix: (Units=1/GPa)
#
#
# Indices 1 2 3 4 5 6 
#
# 1 0.016929 -0.004483 -0.002261 0.000000 0.000000 0.000000
# 2 -0.004483 0.017311 -0.007288 0.000000 0.000000 0.000000
# 3 -0.002261 -0.007288 0.009141 0.000000 0.000000 0.000000
# 4 0.000000 0.000000 0.000000 0.025951 0.000000 0.000000
# 5 0.000000 0.000000 0.000000 0.000000 0.027328 0.000000
# 6 0.000000 0.000000 0.000000 0.000000 0.000000 0.057716
#
#
# Mechanical properties :
#
#
# Convention : Reuss Voigt Hill
#
# Bulk Modulus (GPa) = 65.29353 86.07910 75.68632
# Shear Modulus (GPa) = 26.65980 31.47971 29.06976
#
# Velocity S-wave (km/s) = 3.69804 4.01845 3.86157
# Velocity P-wave (km/s) = 7.19217 8.10470 7.66203
#
# Compressibility (1/GPa) = 0.01531545
#
# Stress axis : x y z
#
# Youngs Moduli (GPa) = 59.06928 57.76761 109.39152
#
# Poissons Ratio (x) = 0.25900 0.24738
# Poissons Ratio (y) = 0.26483 0.79727
# Poissons Ratio (z) = 0.13358 0.42102
#
# Static dielectric constant tensor:
#      x y z
#    x 1.730050 0.000000 0.000000 
#    y 0.000000 1.665780 0.000000 
#    z 0.000000 0.000000 1.664960 
# 
# From -- ./inp_files/26941.got.cif
#   From: 2010.05.17/outbox.cif.g08.bks.cpg/sg44_14_cif.got.tgz:26941.got - 2010.06.03 19:37:08.
