data_PCOD9375275
_publ_section_title
;
Structure prediction by ZEFSAII (Michael W. Deem and Ramdas Pophale) SiO2 
 PCOD9375275
Probable space group: I M M 2
;
_chemical_formula_sum "Si O2"
_cell_formula_units_Z 58
_cell_length_a 14.918699
_cell_length_b 8.964627
_cell_length_c 24.699161
_cell_angle_alpha 90.000000
_cell_angle_beta 90.000000
_cell_angle_gamma 90.000000
_cell_volume 3303.279917
_symmetry_space_group_name_H-M "I M M 2"
_symmetry_group_IT_number 44
_symmetry_cell_setting 'orthorhombic'
loop_
_space_group_symop_operation_xyz
x,y,z
-x,-y,z
-x,y,z
x,-y,z
1/2+x,1/2+y,1/2+z
1/2-x,1/2-y,1/2+z
1/2-x,1/2+y,1/2+z
1/2+x,1/2-y,1/2+z
loop_
_atom_site_type_symbol
_atom_site_label
_atom_site_fract_x
_atom_site_fract_y
_atom_site_fract_z
Si Si1 0.500000 0.500000 0.775360
Si Si2 0.396370 0.820926 0.576190
Si Si3 0.107439 0.824585 0.484366
Si Si4 0.813713 0.164942 0.279141
Si Si5 0.393550 0.176550 0.099686
Si Si6 0.772081 0.678887 0.392178
Si Si7 0.102737 0.179118 0.961514
Si Si8 0.756012 0.320999 0.169139
O O1 0.419655 0.627694 0.776204
O O2 0.500000 0.778316 0.587060
O O3 0.369983 0.749506 0.518979
O O4 0.331969 0.776570 0.625108
O O5 0.392495 0.000000 0.571031
O O6 0.130344 0.751227 0.542055
O O7 0.158043 0.742879 0.435969
O O8 0.000000 0.811629 0.477119
O O9 0.130341 0.000000 0.484912
O O10 0.790864 0.249358 0.334279
O O11 0.782109 0.255519 0.227005
O O12 0.769744 0.000000 0.279175
O O13 0.500000 0.197762 0.107686
O O14 0.335864 0.253669 0.146170
O O15 0.375280 0.000000 0.097464
O O16 0.779201 0.500000 0.389559
O O17 0.673755 0.718815 0.415451
O O18 0.000000 0.225240 0.950142
O O19 0.104008 0.000000 0.967277
O O20 0.751489 0.500000 0.170966
#
# Coordination Sequence:
#
# PCOD9375275 Si02
#       8
#     2   8   8   8   8   8   8   8
#     4   8  24  44  62  80 114 148 198 228 288 338
#     4   9  19  33  52  81 115 146 181 224 277 335
#     4  10  21  35  55  82 116 153 190 231 288 350
#     4  10  23  41  60  81 111 147 191 232 281 344
#     4  10  21  38  58  84 116 152 192 239 288 339
#     4  11  22  36  57  83 112 146 193 241 289 344
#     4   9  19  36  55  79 110 146 183 226 276 332
#     4  11  22  37  59  85 115 150 192 236 287 343
#
# _framework density 17.558306000000002
#
# number of rings (size 3 to 8) (size 9 to 14) (size 15 to 20)
#    0.414    1.655    0.000    2.897    1.931    6.069 
#    0.000    1.379    0.000    2.483    0.000    0.000 
#    0.000    0.000    0.000    0.000    0.000    0.000 
#
# Total GULP energy -161587.589379 kJ/mol
# GULP energy per Si atom -5571.985841 kJ/mol
# Density = 1.751834 g / cm^3
# Si number density = 17.558306 Si / 1000 Ang^3
#
#
#
# Elastic Constant Matrix: (Units=GPa)
#
#
# Indices 1 2 3 4 5 6 
#
# 1 79.1564 57.9789 82.7994 0.0000 0.0000 0.0000
# 2 57.9789 85.8651 71.5224 0.0000 0.0000 0.0000
# 3 82.7994 71.5224 159.6414 0.0000 0.0000 0.0000
# 4 0.0000 0.0000 0.0000 26.8815 0.0000 0.0000
# 5 0.0000 0.0000 0.0000 0.0000 3.9343 0.0000
# 6 0.0000 0.0000 0.0000 0.0000 0.0000 24.5384
#
#
#
# Elastic Compliance Matrix: (Units=1/GPa)
#
#
# Indices 1 2 3 4 5 6 
#
# 1 0.035576 -0.013804 -0.012267 0.000000 0.000000 0.000000
# 2 -0.013804 0.023936 -0.003564 0.000000 0.000000 0.000000
# 3 -0.012267 -0.003564 0.014224 0.000000 0.000000 0.000000
# 4 0.000000 0.000000 0.000000 0.037200 0.000000 0.000000
# 5 0.000000 0.000000 0.000000 0.000000 0.254176 0.000000
# 6 0.000000 0.000000 0.000000 0.000000 0.000000 0.040752
#
#
# Mechanical properties :
#
#
# Convention : Reuss Voigt Hill
#
# Bulk Modulus (GPa) = 69.13533 83.25157 76.19345
# Shear Modulus (GPa) = 10.63928 18.56165 14.60046
#
# Velocity S-wave (km/s) = 2.46425 3.25490 2.88677
# Velocity P-wave (km/s) = 6.89615 7.85131 7.38918
#
# Compressibility (1/GPa) = 0.01446438
#
# Stress axis : x y z
#
# Youngs Moduli (GPa) = 28.10890 41.77835 70.30615
#
# Poissons Ratio (x) = 0.57670 0.86247
# Poissons Ratio (y) = 0.38801 0.25059
# Poissons Ratio (z) = 0.34482 0.14891
#
# Static dielectric constant tensor:
#      x y z
#    x 1.607770 0.000000 0.000000 
#    y 0.000000 1.590550 0.000000 
#    z 0.000000 0.000000 1.559620 
# 
# From -- ./inp_files/25720.got.cif
#   From: 2010.05.17/outbox.cif.g08.bks.cpg/sg44_13_cif.got.tgz:25720.got - 2010.06.03 19:37:08.
