data_PCOD9375146
_publ_section_title
;
Structure prediction by ZEFSAII (Michael W. Deem and Ramdas Pophale) SiO2 
 PCOD9375146
Probable space group: I M M 2
;
_chemical_formula_sum "Si O2"
_cell_formula_units_Z 32
_cell_length_a 23.222261
_cell_length_b 11.473340
_cell_length_c 5.251628
_cell_angle_alpha 90.000000
_cell_angle_beta 90.000000
_cell_angle_gamma 90.000000
_cell_volume 1399.227463
_symmetry_space_group_name_H-M "I M M 2"
_symmetry_group_IT_number 44
_symmetry_cell_setting 'orthorhombic'
loop_
_space_group_symop_operation_xyz
x,y,z
-x,-y,z
-x,y,z
x,-y,z
1/2+x,1/2+y,1/2+z
1/2-x,1/2-y,1/2+z
1/2-x,1/2+y,1/2+z
1/2+x,1/2-y,1/2+z
loop_
_atom_site_type_symbol
_atom_site_label
_atom_site_fract_x
_atom_site_fract_y
_atom_site_fract_z
Si Si1 0.773627 0.269966 0.683930
Si Si2 0.500000 0.862934 0.843847
Si Si3 0.703159 0.000000 0.987680
Si Si4 0.000000 0.865787 0.987068
Si Si5 0.375077 0.000000 0.497409
Si Si6 0.591630 0.219435 0.243988
O O1 0.744218 0.188659 0.468441
O O2 0.760060 0.384059 0.503430
O O3 0.842353 0.251469 0.680796
O O4 0.500000 0.740888 0.687112
O O5 0.500000 0.000000 0.756092
O O6 0.443997 0.846010 0.025594
O O7 0.661934 0.000000 0.748916
O O8 0.663920 0.000000 0.241411
O O9 0.056398 0.833989 0.821297
O O10 0.000000 0.000000 0.073408
O O11 0.408145 0.877720 0.469327
#
# Coordination Sequence:
#
# PCOD9375146 Si02
#       6
#     8   4   4   4   4   8
#     4  11  24  43  69 104 143 186 236 294 369 442
#     4  11  24  42  77 111 133 182 251 319 378 431
#     4  10  22  40  66 101 142 177 228 306 359 410
#     4  11  28  46  67  99 151 202 239 303 376 451
#     4  10  20  37  74 108 136 166 226 323 373 408
#     4  10  24  43  71 103 142 180 246 309 371 441
#
# _framework density 22.869761
#
# number of rings (size 3 to 8) (size 9 to 14) (size 15 to 20)
#    0.000    1.500    1.250    3.000   12.250    2.000 
#    4.500    0.000    0.000    0.000    0.000    0.000 
#    0.000    0.000    0.000    0.000    0.000    0.000 
#
# Total GULP energy -89102.770488 kJ/mol
# GULP energy per Si atom -5568.923155 kJ/mol
# Density = 2.281771 g / cm^3
# Si number density = 22.869761 Si / 1000 Ang^3
#
#
#
# Elastic Constant Matrix: (Units=GPa)
#
#
# Indices 1 2 3 4 5 6 
#
# 1 139.3272 1.5619 35.3823 0.0000 0.0000 0.0000
# 2 1.5619 68.1895 5.1379 0.0000 0.0000 0.0000
# 3 35.3823 5.1379 140.5806 0.0000 0.0000 0.0000
# 4 0.0000 0.0000 0.0000 25.0670 0.0000 0.0000
# 5 0.0000 0.0000 0.0000 0.0000 28.5020 0.0000
# 6 0.0000 0.0000 0.0000 0.0000 0.0000 36.9279
#
#
#
# Elastic Compliance Matrix: (Units=1/GPa)
#
#
# Indices 1 2 3 4 5 6 
#
# 1 0.007667 -0.000030 -0.001929 0.000000 0.000000 0.000000
# 2 -0.000030 0.014706 -0.000530 0.000000 0.000000 0.000000
# 3 -0.001929 -0.000530 0.007618 0.000000 0.000000 0.000000
# 4 0.000000 0.000000 0.000000 0.039893 0.000000 0.000000
# 5 0.000000 0.000000 0.000000 0.000000 0.035085 0.000000
# 6 0.000000 0.000000 0.000000 0.000000 0.000000 0.027080
#
#
# Mechanical properties :
#
#
# Convention : Reuss Voigt Hill
#
# Bulk Modulus (GPa) = 39.97826 48.02907 44.00366
# Shear Modulus (GPa) = 34.39619 38.50040 36.44829
#
# Velocity S-wave (km/s) = 3.88236 4.10745 3.99649
# Velocity P-wave (km/s) = 6.13316 6.59861 6.37014
#
# Compressibility (1/GPa) = 0.02501359
#
# Stress axis : x y z
#
# Youngs Moduli (GPa) = 130.42086 68.00119 131.26551
#
# Poissons Ratio (x) = 0.00206 0.25317
# Poissons Ratio (y) = 0.00395 0.06955
# Poissons Ratio (z) = 0.25154 0.03603
#
# Static dielectric constant tensor:
#      x y z
#    x 2.010360 0.000000 0.000000 
#    y 0.000000 2.306660 0.000000 
#    z 0.000000 0.000000 2.031400 
# 
# From -- ./inp_files/2647.got.cif
#   From: 2010.05.17/outbox.cif.g08.bks.cpg/sg44_2_cif.got.tgz:2647.got - 2010.06.03 19:37:08.
