data_PCOD9375638
_publ_section_title
;
Structure prediction by ZEFSAII (Michael W. Deem and Ramdas Pophale) SiO2 
 PCOD9375638
Probable space group: I M M 2
;
_chemical_formula_sum "Si O2"
_cell_formula_units_Z 56
_cell_length_a 25.200959
_cell_length_b 8.749103
_cell_length_c 14.447747
_cell_angle_alpha 90.000000
_cell_angle_beta 90.000000
_cell_angle_gamma 90.000000
_cell_volume 3185.522853
_symmetry_space_group_name_H-M "I M M 2"
_symmetry_group_IT_number 44
_symmetry_cell_setting 'orthorhombic'
loop_
_space_group_symop_operation_xyz
x,y,z
-x,-y,z
-x,y,z
x,-y,z
1/2+x,1/2+y,1/2+z
1/2-x,1/2-y,1/2+z
1/2-x,1/2+y,1/2+z
1/2+x,1/2-y,1/2+z
loop_
_atom_site_type_symbol
_atom_site_label
_atom_site_fract_x
_atom_site_fract_y
_atom_site_fract_z
Si Si1 0.000000 0.817346 0.491820
Si Si2 0.397209 0.177427 0.892941
Si Si3 0.837003 0.674777 0.581954
Si Si4 0.108269 0.178737 0.746268
Si Si5 0.500000 0.181228 0.201054
Si Si6 0.722766 0.817279 0.570053
Si Si7 0.318242 0.316648 0.750058
Si Si8 0.708048 0.183388 0.354417
O O1 0.051139 0.757576 0.435513
O O2 0.000000 0.751591 0.596819
O O3 0.000000 0.000000 0.497291
O O4 0.368834 0.260928 0.808108
O O5 0.408885 0.000000 0.871455
O O6 0.354484 0.179866 0.976159
O O7 0.843486 0.500000 0.615609
O O8 0.873555 0.785784 0.641415
O O9 0.777299 0.730021 0.591831
O O10 0.157036 0.241147 0.807000
O O11 0.052470 0.264476 0.754824
O O12 0.101153 0.000000 0.761405
O O13 0.500000 0.000000 0.190280
O O14 0.683132 0.759826 0.649096
O O15 0.708804 0.781237 0.463758
O O16 0.730374 0.000000 0.577031
O O17 0.318050 0.500000 0.742714
O O18 0.263672 0.271040 0.804964
O O19 0.704120 0.000000 0.344652
#
# Coordination Sequence:
#
# PCOD9375638 Si02
#       8
#     4   8   8   8   4   8   8   8
#     4  12  24  38  60  87 118 153 196 242 292 344
#     4  11  23  38  58  84 119 158 197 237 289 349
#     4  11  21  33  54  83 119 156 192 235 286 344
#     4  12  24  37  58  86 118 153 196 240 287 346
#     4  12  24  40  60  83 118 157 194 236 292 348
#     4  11  22  37  57  83 117 156 199 240 287 347
#     4  11  22  37  58  85 119 154 195 242 292 346
#     4  10  22  38  57  83 118 156 193 237 290 347
#
# _framework density 17.579533000000001
#
# number of rings (size 3 to 8) (size 9 to 14) (size 15 to 20)
#    0.000    0.857    4.286    4.286    0.000    2.857 
#    0.000    0.000    0.000    0.857    0.000    1.000 
#    0.000    0.000    0.000    0.000    0.000    0.000 
#
# Total GULP energy -156454.059168 kJ/mol
# GULP energy per Si atom -5587.644970 kJ/mol
# Density = 1.753952 g / cm^3
# Si number density = 17.579533 Si / 1000 Ang^3
#
#
#
# Elastic Constant Matrix: (Units=GPa)
#
#
# Indices 1 2 3 4 5 6 
#
# 1 72.9309 27.3273 8.8305 0.0000 0.0000 0.0000
# 2 27.3273 82.8365 21.9926 0.0000 0.0000 0.0000
# 3 8.8305 21.9926 72.0534 0.0000 0.0000 0.0000
# 4 0.0000 0.0000 0.0000 26.5477 0.0000 0.0000
# 5 0.0000 0.0000 0.0000 0.0000 29.2716 0.0000
# 6 0.0000 0.0000 0.0000 0.0000 0.0000 27.4652
#
#
#
# Elastic Compliance Matrix: (Units=1/GPa)
#
#
# Indices 1 2 3 4 5 6 
#
# 1 0.015655 -0.005066 -0.000372 0.000000 0.000000 0.000000
# 2 -0.005066 0.014776 -0.003889 0.000000 0.000000 0.000000
# 3 -0.000372 -0.003889 0.015111 0.000000 0.000000 0.000000
# 4 0.000000 0.000000 0.000000 0.037668 0.000000 0.000000
# 5 0.000000 0.000000 0.000000 0.000000 0.034163 0.000000
# 6 0.000000 0.000000 0.000000 0.000000 0.000000 0.036410
#
#
# Mechanical properties :
#
#
# Convention : Reuss Voigt Hill
#
# Bulk Modulus (GPa) = 37.19196 38.23572 37.71384
# Shear Modulus (GPa) = 27.56357 27.96826 27.76592
#
# Velocity S-wave (km/s) = 3.96401 3.99301 3.97854
# Velocity P-wave (km/s) = 6.49257 6.56172 6.52724
#
# Compressibility (1/GPa) = 0.02688753
#
# Stress axis : x y z
#
# Youngs Moduli (GPa) = 63.87831 67.67918 66.17565
#
# Poissons Ratio (x) = 0.34283 0.02465
# Poissons Ratio (y) = 0.32358 0.25736
# Poissons Ratio (z) = 0.02379 0.26321
#
# Static dielectric constant tensor:
#      x y z
#    x 1.597620 0.000000 0.000000 
#    y 0.000000 1.593010 0.000000 
#    z 0.000000 0.000000 1.594840 
# 
# From -- ./inp_files/16546.got.cif
#   From: 2010.05.17/outbox.cif.g08.bks.cpg/sg44_9_cif.got.tgz:16546.got - 2010.06.03 19:37:08.
