data_PCOD9375366
_publ_section_title
;
Structure prediction by ZEFSAII (Michael W. Deem and Ramdas Pophale) SiO2 
 PCOD9375366
Probable space group: I M M 2
;
_chemical_formula_sum "Si O2"
_cell_formula_units_Z 56
_cell_length_a 16.582986
_cell_length_b 20.447216
_cell_length_c 8.796810
_cell_angle_alpha 90.000000
_cell_angle_beta 90.000000
_cell_angle_gamma 90.000000
_cell_volume 2982.786239
_symmetry_space_group_name_H-M "I M M 2"
_symmetry_group_IT_number 44
_symmetry_cell_setting 'orthorhombic'
loop_
_space_group_symop_operation_xyz
x,y,z
-x,-y,z
-x,y,z
x,-y,z
1/2+x,1/2+y,1/2+z
1/2-x,1/2-y,1/2+z
1/2-x,1/2+y,1/2+z
1/2+x,1/2-y,1/2+z
loop_
_atom_site_type_symbol
_atom_site_label
_atom_site_fract_x
_atom_site_fract_y
_atom_site_fract_z
Si Si1 0.136879 0.150242 0.661550
Si Si2 0.218910 0.575456 0.998971
Si Si3 0.500000 0.421634 0.347011
Si Si4 0.905770 0.313674 0.109860
Si Si5 0.142047 0.752759 0.413173
Si Si6 0.000000 0.077573 0.197915
Si Si7 0.822106 0.881202 0.243013
Si Si8 0.304702 0.304505 0.470625
O O1 0.200319 0.102968 0.579192
O O2 0.099654 0.202297 0.541596
O O3 0.185661 0.187971 0.791575
O O4 0.074232 0.107196 0.753788
O O5 0.201536 0.500000 0.035750
O O6 0.147993 0.624632 0.053381
O O7 0.249851 0.580206 0.823259
O O8 0.500000 0.500000 0.347776
O O9 0.500000 0.397862 0.522703
O O10 0.899292 0.295141 0.290846
O O11 0.000000 0.321952 0.073327
O O12 0.867780 0.250333 0.025819
O O13 0.184334 0.808177 0.309438
O O14 0.213423 0.716627 0.500058
O O15 0.085012 0.097573 0.273920
O O16 0.000000 0.000000 0.193181
O O17 0.816881 0.871857 0.062411
#
# Coordination Sequence:
#
# PCOD9375366 Si02
#       8
#     8   8   4   8   8   4   8   8
#     4  11  21  37  61  91 122 164 201 246 303 365
#     4  11  23  42  61  84 115 163 213 252 303 363
#     4  11  24  37  53  91 137 169 202 241 290 366
#     4  11  24  39  61  94 120 154 198 259 310 354
#     4  10  21  36  61  87 119 150 198 249 305 359
#     4  11  22  37  55  87 131 171 202 241 290 364
#     4  10  21  36  61  87 119 159 205 248 299 361
#     4  11  19  39  61  90 121 152 196 251 306 360
#
# _framework density 18.774391999999999
#
# number of rings (size 3 to 8) (size 9 to 14) (size 15 to 20)
#    0.000    1.286    5.714    1.714    6.000    2.000 
#    0.000    3.571    0.000    0.000    0.000    0.000 
#    0.000    0.000    0.000    0.000    0.000    0.000 
#
# Total GULP energy -155925.981467 kJ/mol
# GULP energy per Si atom -5568.785052 kJ/mol
# Density = 1.873166 g / cm^3
# Si number density = 18.774392 Si / 1000 Ang^3
#
#
#
# Elastic Constant Matrix: (Units=GPa)
#
#
# Indices 1 2 3 4 5 6 
#
# 1 80.9327 30.6360 10.8343 0.0000 0.0000 0.0000
# 2 30.6360 86.9374 28.9586 0.0000 0.0000 0.0000
# 3 10.8343 28.9586 87.1310 0.0000 0.0000 0.0000
# 4 0.0000 0.0000 0.0000 22.4644 0.0000 0.0000
# 5 0.0000 0.0000 0.0000 0.0000 20.0636 0.0000
# 6 0.0000 0.0000 0.0000 0.0000 0.0000 14.1370
#
#
#
# Elastic Compliance Matrix: (Units=1/GPa)
#
#
# Indices 1 2 3 4 5 6 
#
# 1 0.014259 -0.004986 -0.000116 0.000000 0.000000 0.000000
# 2 -0.004986 0.014678 -0.004258 0.000000 0.000000 0.000000
# 3 -0.000116 -0.004258 0.012907 0.000000 0.000000 0.000000
# 4 0.000000 0.000000 0.000000 0.044515 0.000000 0.000000
# 5 0.000000 0.000000 0.000000 0.000000 0.049841 0.000000
# 6 0.000000 0.000000 0.000000 0.000000 0.000000 0.070737
#
#
# Mechanical properties :
#
#
# Convention : Reuss Voigt Hill
#
# Bulk Modulus (GPa) = 43.24706 43.98431 43.61569
# Shear Modulus (GPa) = 21.42569 23.63782 22.53176
#
# Velocity S-wave (km/s) = 3.38186 3.55215 3.46805
# Velocity P-wave (km/s) = 6.19148 6.34842 6.27044
#
# Compressibility (1/GPa) = 0.02312296
#
# Stress axis : x y z
#
# Youngs Moduli (GPa) = 70.13177 68.12899 77.47931
#
# Poissons Ratio (x) = 0.33970 0.00898
# Poissons Ratio (y) = 0.34968 0.32993
# Poissons Ratio (z) = 0.00812 0.29012
#
# Static dielectric constant tensor:
#      x y z
#    x 1.737930 0.000000 0.000000 
#    y 0.000000 1.645180 0.000000 
#    z 0.000000 0.000000 1.744570 
# 
# From -- ./inp_files/7426.got.cif
#   From: 2010.05.17/outbox.cif.g08.bks.cpg/sg44_4_cif.got.tgz:7426.got - 2010.06.03 19:37:08.
