data_PCOD9375359
_publ_section_title
;
Structure prediction by ZEFSAII (Michael W. Deem and Ramdas Pophale) SiO2 
 PCOD9375359
Probable space group: I M M 2
;
_chemical_formula_sum "Si O2"
_cell_formula_units_Z 64
_cell_length_a 16.727177
_cell_length_b 13.520355
_cell_length_c 13.569043
_cell_angle_alpha 90.000000
_cell_angle_beta 90.000000
_cell_angle_gamma 90.000000
_cell_volume 3068.739094
_symmetry_space_group_name_H-M "I M M 2"
_symmetry_group_IT_number 44
_symmetry_cell_setting 'orthorhombic'
loop_
_space_group_symop_operation_xyz
x,y,z
-x,-y,z
-x,y,z
x,-y,z
1/2+x,1/2+y,1/2+z
1/2-x,1/2-y,1/2+z
1/2-x,1/2+y,1/2+z
1/2+x,1/2-y,1/2+z
loop_
_atom_site_type_symbol
_atom_site_label
_atom_site_fract_x
_atom_site_fract_y
_atom_site_fract_z
Si Si1 0.408338 0.118011 0.598130
Si Si2 0.138892 0.618899 0.533629
Si Si3 0.903018 0.885172 0.437428
Si Si4 0.126140 0.616026 0.318628
Si Si5 0.319613 0.699213 0.532107
Si Si6 0.318670 0.615865 0.322253
Si Si7 0.907043 0.119242 0.224117
Si Si8 0.090891 0.211600 0.643636
O O1 0.500000 0.133430 0.563764
O O2 0.404786 0.151735 0.713318
O O3 0.344216 0.185562 0.541209
O O4 0.391048 0.000000 0.593422
O O5 0.142969 0.500000 0.538267
O O6 0.099968 0.648582 0.427873
O O7 0.227757 0.665016 0.537131
O O8 0.093874 0.671521 0.622621
O O9 0.874188 0.844618 0.330970
O O10 0.880204 0.835076 0.539824
O O11 0.000000 0.881663 0.431744
O O12 0.879417 0.000000 0.444155
O O13 0.104918 0.500000 0.317274
O O14 0.222391 0.623919 0.318303
O O15 0.348097 0.656683 0.427285
O O16 0.361061 0.651139 0.627153
O O17 0.338701 0.500000 0.312958
O O18 0.355287 0.676457 0.232680
O O19 0.000000 0.146910 0.215008
O O20 0.904429 0.000000 0.230383
O O21 0.000000 0.178775 0.660515
#
# Coordination Sequence:
#
# PCOD9375359 Si02
#       8
#     8   8   8   8   8   8   8   8
#     4  10  21  36  58  92 129 159 193 242 301 365
#     4  10  22  40  61  86 117 155 201 255 305 355
#     4   8  16  32  52  79 116 149 181 231 295 351
#     4   8  17  36  60  84 115 154 193 241 297 349
#     4  11  21  37  62  87 117 155 201 245 298 355
#     4  10  21  39  62  88 119 159 207 253 294 349
#     4   9  17  30  52  85 119 147 181 235 299 355
#     4  11  23  37  56  83 117 159 204 244 295 359
#
# _framework density 20.85547
#
# number of rings (size 3 to 8) (size 9 to 14) (size 15 to 20)
#    0.000    2.375    0.000    4.125    1.750    2.500 
#    0.000    2.500    0.000    0.000    0.000    0.000 
#    0.000    0.000    0.000    0.000    0.000    0.000 
#
# Total GULP energy -178612.044904 kJ/mol
# GULP energy per Si atom -5581.626403 kJ/mol
# Density = 2.080800 g / cm^3
# Si number density = 20.855470 Si / 1000 Ang^3
#
#
#
# Elastic Constant Matrix: (Units=GPa)
#
#
# Indices 1 2 3 4 5 6 
#
# 1 40.7375 23.2716 28.9126 0.0000 0.0000 0.0000
# 2 23.2716 104.8086 37.8409 0.0000 0.0000 0.0000
# 3 28.9126 37.8409 113.1720 0.0000 0.0000 0.0000
# 4 0.0000 0.0000 0.0000 41.6111 0.0000 0.0000
# 5 0.0000 0.0000 0.0000 0.0000 15.2423 0.0000
# 6 0.0000 0.0000 0.0000 0.0000 0.0000 23.7284
#
#
#
# Elastic Compliance Matrix: (Units=1/GPa)
#
#
# Indices 1 2 3 4 5 6 
#
# 1 0.031905 -0.004710 -0.006576 0.000000 0.000000 0.000000
# 2 -0.004710 0.011546 -0.002657 0.000000 0.000000 0.000000
# 3 -0.006576 -0.002657 0.011405 0.000000 0.000000 0.000000
# 4 0.000000 0.000000 0.000000 0.024032 0.000000 0.000000
# 5 0.000000 0.000000 0.000000 0.000000 0.065607 0.000000
# 6 0.000000 0.000000 0.000000 0.000000 0.000000 0.042144
#
#
# Mechanical properties :
#
#
# Convention : Reuss Voigt Hill
#
# Bulk Modulus (GPa) = 37.07912 48.75200 42.91556
# Shear Modulus (GPa) = 22.36976 27.36255 24.86615
#
# Velocity S-wave (km/s) = 3.27862 3.62609 3.45673
# Velocity P-wave (km/s) = 5.67011 6.39987 6.04601
#
# Compressibility (1/GPa) = 0.02696935
#
# Stress axis : x y z
#
# Youngs Moduli (GPa) = 31.34282 86.60660 87.68296
#
# Poissons Ratio (x) = 0.40791 0.57662
# Poissons Ratio (y) = 0.14762 0.23302
# Poissons Ratio (z) = 0.20612 0.23016
#
# Static dielectric constant tensor:
#      x y z
#    x 1.739540 0.000000 0.000000 
#    y 0.000000 1.815680 0.000000 
#    z 0.000000 0.000000 1.735060 
# 
# From -- ./inp_files/13990.got.cif
#   From: 2010.05.17/outbox.cif.g08.bks.cpg/sg44_7_cif.got.tgz:13990.got - 2010.06.03 19:37:08.
