data_PCOD9375954
_publ_section_title
;
Structure prediction by ZEFSAII (Michael W. Deem and Ramdas Pophale) SiO2 
 PCOD9375954
Probable space group: I M M 2
;
_chemical_formula_sum "Si O2"
_cell_formula_units_Z 32
_cell_length_a 30.000000
_cell_length_b 9.000000
_cell_length_c 15.000000
_cell_angle_alpha 90.000000
_cell_angle_beta 90.000000
_cell_angle_gamma 90.000000
_cell_volume 4050.000000
_symmetry_space_group_name_H-M "I M M 2"
_symmetry_group_IT_number 44
_symmetry_cell_setting 'orthorhombic'
loop_
_space_group_symop_operation_xyz
x,y,z
-x,-y,z
-x,y,z
x,-y,z
1/2+x,1/2+y,1/2+z
1/2-x,1/2-y,1/2+z
1/2-x,1/2+y,1/2+z
1/2+x,1/2-y,1/2+z
loop_
_atom_site_type_symbol
_atom_site_label
_atom_site_fract_x
_atom_site_fract_y
_atom_site_fract_z
Si Si1 0.450544 0.821810 0.058800
Si Si2 0.138246 0.678428 0.263007
Si Si3 0.634939 0.674651 0.107548
Si Si4 0.813481 0.825677 0.426708
Si Si5 0.777959 0.823153 0.925290
Si Si6 0.805186 0.677533 0.098334
Si Si7 0.780016 0.818761 0.718886
Si Si8 0.548631 0.180368 0.851967
O O1 0.500000 0.775324 0.086751
O O2 0.411335 0.757126 0.117295
O O3 0.448593 0.000000 0.059442
O O4 0.444787 0.774791 0.955020
O O5 0.143624 0.500000 0.278141
O O6 0.169091 0.762711 0.333674
O O7 0.153138 0.707224 0.162726
O O8 0.088569 0.725070 0.288559
O O9 0.629116 0.500000 0.123989
O O10 0.675001 0.728533 0.169584
O O11 0.650938 0.692462 0.005399
O O12 0.770925 0.730685 0.453667
O O13 0.802176 0.000000 0.420995
O O14 0.781554 0.771430 0.822216
O O15 0.781963 0.000000 0.925997
O O16 0.808247 0.753546 0.002441
O O17 0.800504 0.500000 0.085203
O O18 0.762535 0.726762 0.159047
O O19 0.778294 0.000000 0.719444
O O20 0.500000 0.232396 0.823023
O O21 0.548259 0.000000 0.852630
#
# Coordination Sequence:
#
# PCOD9375954 Si02
#       8
#     8   8   8   8   8   8   8   8
#     4   9  17  29  46  69  96 121 149 190 231 270
#     4  10  18  30  49  68  93 132 164 188 228 281
#     4  10  19  31  46  65  92 128 158 188 231 274
#     4  11  20  29  45  69  98 126 156 198 234 266
#     4  11  21  34  50  67  90 126 165 197 232 280
#     4  10  19  33  48  67  96 125 155 197 238 272
#     4   9  18  33  48  64  91 124 157 193 233 271
#     4   8  14  25  43  68  94 120 154 191 224 269
#
# _framework density 7.9012349999999998
#
# number of rings (size 3 to 8) (size 9 to 14) (size 15 to 20)
#    0.000    2.250    3.750    1.500    0.000    1.250 
#    0.000    1.250    0.000    0.375    0.000    0.875 
#    0.000    3.000    0.000    0.000    0.000    0.000 
#
# Total GULP energy -178187.301040 kJ/mol
# GULP energy per Si atom -5568.353157 kJ/mol
# Density = 0.788325 g / cm^3
# Si number density = 7.901235 Si / 1000 Ang^3
#
#
#
# Elastic Constant Matrix: (Units=GPa)
#
#
# Indices 1 2 3 4 5 6 
#
# 1 61.3148 3.7763 -0.1539 0.0000 0.0000 0.0000
# 2 3.7763 5.4256 10.2612 0.0000 0.0000 0.0000
# 3 -0.1539 10.2612 46.5481 0.0000 0.0000 0.0000
# 4 0.0000 0.0000 0.0000 21.8756 0.0000 0.0000
# 5 0.0000 0.0000 0.0000 0.0000 19.7957 0.0000
# 6 0.0000 0.0000 0.0000 0.0000 0.0000 16.9592
#
#
#
# Elastic Compliance Matrix: (Units=1/GPa)
#
#
# Indices 1 2 3 4 5 6 
#
# 1 0.017629 -0.021232 0.004739 0.000000 0.000000 0.000000
# 2 -0.021232 0.341670 -0.075389 0.000000 0.000000 0.000000
# 3 0.004739 -0.075389 0.038118 0.000000 0.000000 0.000000
# 4 0.000000 0.000000 0.000000 0.045713 0.000000 0.000000
# 5 0.000000 0.000000 0.000000 0.000000 0.050516 0.000000
# 6 0.000000 0.000000 0.000000 0.000000 0.000000 0.058965
#
#
# Mechanical properties :
#
#
# Convention : Reuss Voigt Hill
#
# Bulk Modulus (GPa) = 4.68051 15.67285 10.17668
# Shear Modulus (GPa) = 6.19123 18.35309 12.27216
#
# Velocity S-wave (km/s) = 1.98151 3.41164 2.78977
# Velocity P-wave (km/s) = 2.86418 5.04565 4.10256
#
# Compressibility (1/GPa) = 0.21365194
#
# Stress axis : x y z
#
# Youngs Moduli (GPa) = 56.72519 2.92680 26.23449
#
# Poissons Ratio (x) = 0.06214 -0.12432
# Poissons Ratio (y) = 1.20441 1.97779
# Poissons Ratio (z) = -0.26881 0.22065
#
# Static dielectric constant tensor:
#      x y z
#    x 1.571610 0.000000 0.000000 
#    y 0.000000 1.532280 0.000000 
#    z 0.000000 0.000000 1.521510 
# 
# From -- ./inp_files/17111.got.cif
#   From: 2010.05.17/outbox.ucp.g08.bks.cvg/sg44_9_cif.got.tgz:17111.got - 2010.06.11 16:32:36.
