data_PCOD9375271
_publ_section_title
;
Structure prediction by ZEFSAII (Michael W. Deem and Ramdas Pophale) SiO2 
 PCOD9375271
Probable space group: I M M 2
;
_chemical_formula_sum "Si O2"
_cell_formula_units_Z 40
_cell_length_a 30.257892
_cell_length_b 8.270733
_cell_length_c 7.494086
_cell_angle_alpha 90.000000
_cell_angle_beta 90.000000
_cell_angle_gamma 90.000000
_cell_volume 1875.432086
_symmetry_space_group_name_H-M "I M M 2"
_symmetry_group_IT_number 44
_symmetry_cell_setting 'orthorhombic'
loop_
_space_group_symop_operation_xyz
x,y,z
-x,-y,z
-x,y,z
x,-y,z
1/2+x,1/2+y,1/2+z
1/2-x,1/2-y,1/2+z
1/2-x,1/2+y,1/2+z
1/2+x,1/2-y,1/2+z
loop_
_atom_site_type_symbol
_atom_site_label
_atom_site_fract_x
_atom_site_fract_y
_atom_site_fract_z
Si Si1 0.950668 0.305486 0.306980
Si Si2 0.287898 0.692666 0.195291
Si Si3 0.399510 0.687974 0.479842
Si Si4 0.123600 0.692570 0.584492
Si Si5 0.809502 0.684255 0.072705
O O1 0.950953 0.500000 0.319700
O O2 0.937001 0.259686 0.106273
O O3 0.913309 0.247774 0.445606
O O4 0.000000 0.245951 0.349018
O O5 0.289331 0.500000 0.237268
O O6 0.327777 0.728443 0.058415
O O7 0.300381 0.802555 0.362104
O O8 0.237644 0.735468 0.149776
O O9 0.406534 0.500000 0.449367
O O10 0.393111 0.769245 0.286112
O O11 0.353833 0.713926 0.590903
O O12 0.128638 0.500000 0.565263
O O13 0.818713 0.500000 0.127923
#
# Coordination Sequence:
#
# PCOD9375271 Si02
#       5
#     8   8   8   8   8
#     4  10  23  43  66  91 118 156 205 251 302 363
#     4  10  21  35  54  83 116 153 196 242 295 351
#     4  11  23  39  61  89 124 160 198 248 304 357
#     4  10  21  39  63  88 119 159 202 249 301 357
#     4  10  21  36  55  82 116 157 200 238 291 355
#
# _framework density 21.328417999999999
#
# number of rings (size 3 to 8) (size 9 to 14) (size 15 to 20)
#    0.000    1.800    0.000    6.000    2.800    6.000 
#    0.000    2.000    0.000    0.000    0.000    0.000 
#    0.000    0.000    0.000    0.000    0.000    0.000 
#
# Total GULP energy -111631.923325 kJ/mol
# GULP energy per Si atom -5581.596166 kJ/mol
# Density = 2.127987 g / cm^3
# Si number density = 21.328418 Si / 1000 Ang^3
#
#
#
# Elastic Constant Matrix: (Units=GPa)
#
#
# Indices 1 2 3 4 5 6 
#
# 1 81.0353 4.7704 25.5568 0.0000 0.0000 0.0000
# 2 4.7704 29.9188 -3.2580 0.0000 0.0000 0.0000
# 3 25.5568 -3.2580 56.6705 0.0000 0.0000 0.0000
# 4 0.0000 0.0000 0.0000 10.0585 0.0000 0.0000
# 5 0.0000 0.0000 0.0000 0.0000 34.5931 0.0000
# 6 0.0000 0.0000 0.0000 0.0000 0.0000 18.9553
#
#
#
# Elastic Compliance Matrix: (Units=1/GPa)
#
#
# Indices 1 2 3 4 5 6 
#
# 1 0.014663 -0.003077 -0.006789 0.000000 0.000000 0.000000
# 2 -0.003077 0.034280 0.003359 0.000000 0.000000 0.000000
# 3 -0.006789 0.003359 0.020901 0.000000 0.000000 0.000000
# 4 0.000000 0.000000 0.000000 0.099419 0.000000 0.000000
# 5 0.000000 0.000000 0.000000 0.000000 0.028908 0.000000
# 6 0.000000 0.000000 0.000000 0.000000 0.000000 0.052756
#
#
# Mechanical properties :
#
#
# Convention : Reuss Voigt Hill
#
# Bulk Modulus (GPa) = 17.59712 24.64033 21.11872
# Shear Modulus (GPa) = 17.67508 22.09172 19.88340
#
# Velocity S-wave (km/s) = 2.88186 3.22186 3.05659
# Velocity P-wave (km/s) = 4.39795 5.04166 4.73077
#
# Compressibility (1/GPa) = 0.05682749
#
# Stress axis : x y z
#
# Youngs Moduli (GPa) = 68.20034 29.17136 47.84516
#
# Poissons Ratio (x) = 0.08977 0.32484
# Poissons Ratio (y) = 0.20987 -0.16069
# Poissons Ratio (z) = 0.46304 -0.09797
#
# Static dielectric constant tensor:
#      x y z
#    x 1.830960 0.000000 0.000000 
#    y 0.000000 1.733280 0.000000 
#    z 0.000000 0.000000 1.804110 
# 
# From -- ./inp_files/4432.got.cif
#   From: 2010.05.17/outbox.cif.g08.bks.cpg/sg44_3_cif.got.tgz:4432.got - 2010.06.03 19:37:08.
