data_PCOD9375584
_publ_section_title
;
Structure prediction by ZEFSAII (Michael W. Deem and Ramdas Pophale) SiO2 
 PCOD9375584
Probable space group: I M M 2
;
_chemical_formula_sum "Si O2"
_cell_formula_units_Z 48
_cell_length_a 8.039066
_cell_length_b 16.181137
_cell_length_c 19.186302
_cell_angle_alpha 90.000000
_cell_angle_beta 90.000000
_cell_angle_gamma 90.000000
_cell_volume 2495.777731
_symmetry_space_group_name_H-M "I M M 2"
_symmetry_group_IT_number 44
_symmetry_cell_setting 'orthorhombic'
loop_
_space_group_symop_operation_xyz
x,y,z
-x,-y,z
-x,y,z
x,-y,z
1/2+x,1/2+y,1/2+z
1/2-x,1/2-y,1/2+z
1/2-x,1/2+y,1/2+z
1/2+x,1/2-y,1/2+z
loop_
_atom_site_type_symbol
_atom_site_label
_atom_site_fract_x
_atom_site_fract_y
_atom_site_fract_z
Si Si1 0.000000 0.098694 0.755450
Si Si2 0.198487 0.654803 0.503641
Si Si3 0.500000 0.401693 0.098141
Si Si4 0.702912 0.000000 0.097907
Si Si5 0.300769 0.000000 0.258531
Si Si6 0.690539 0.162851 0.842527
Si Si7 0.682671 0.839654 0.514402
Si Si8 0.192808 0.859121 0.363929
O O1 0.165814 0.127844 0.794502
O O2 0.000000 0.131712 0.676699
O O3 0.000000 0.000000 0.754057
O O4 0.252573 0.581758 0.554974
O O5 0.215662 0.632200 0.422113
O O6 0.294375 0.740382 0.514089
O O7 0.000000 0.670865 0.514368
O O8 0.500000 0.500000 0.100655
O O9 0.334708 0.373785 0.058624
O O10 0.500000 0.000000 0.097876
O O11 0.759222 0.000000 0.178278
O O12 0.243437 0.080033 0.302081
O O13 0.500000 0.000000 0.256668
O O14 0.500000 0.142586 0.821934
O O15 0.706162 0.262663 0.843951
O O16 0.500000 0.862154 0.540668
O O17 0.703702 0.870250 0.434688
O O18 0.000000 0.874730 0.381941
#
# Coordination Sequence:
#
# PCOD9375584 Si02
#       8
#     4   8   4   4   4   8   8   8
#     4  11  26  42  64  93 123 161 211 257 322 374
#     4   9  18  38  63  93 128 167 210 254 303 366
#     4  11  26  46  62  89 125 165 203 261 326 372
#     4   9  20  37  59  91 135 175 206 249 313 377
#     4  11  23  35  57  97 131 170 213 249 310 382
#     4   9  21  40  66  93 121 163 213 259 308 364
#     4  11  22  40  67  95 120 161 214 260 309 368
#     4  10  21  40  62  89 127 168 209 255 306 368
#
# _framework density 19.232482000000001
#
# number of rings (size 3 to 8) (size 9 to 14) (size 15 to 20)
#    0.000    2.000    1.667    1.750    8.167    2.667 
#    0.000    5.417    0.000    0.000    0.000    0.000 
#    0.000    0.000    0.000    0.000    0.000    0.000 
#
# Total GULP energy -134038.086001 kJ/mol
# GULP energy per Si atom -5584.920250 kJ/mol
# Density = 1.918871 g / cm^3
# Si number density = 19.232482 Si / 1000 Ang^3
#
#
#
# Elastic Constant Matrix: (Units=GPa)
#
#
# Indices 1 2 3 4 5 6 
#
# 1 136.0098 31.3403 68.9148 0.0000 0.0000 0.0000
# 2 31.3403 59.0599 66.4097 0.0000 0.0000 0.0000
# 3 68.9148 66.4097 141.8406 0.0000 0.0000 0.0000
# 4 0.0000 0.0000 0.0000 59.2479 0.0000 0.0000
# 5 0.0000 0.0000 0.0000 0.0000 19.0929 0.0000
# 6 0.0000 0.0000 0.0000 0.0000 0.0000 29.9127
#
#
#
# Elastic Compliance Matrix: (Units=1/GPa)
#
#
# Indices 1 2 3 4 5 6 
#
# 1 0.009756 0.000323 -0.004891 0.000000 0.000000 0.000000
# 2 0.000323 0.035767 -0.016903 0.000000 0.000000 0.000000
# 3 -0.004891 -0.016903 0.017341 0.000000 0.000000 0.000000
# 4 0.000000 0.000000 0.000000 0.016878 0.000000 0.000000
# 5 0.000000 0.000000 0.000000 0.000000 0.052376 0.000000
# 6 0.000000 0.000000 0.000000 0.000000 0.000000 0.033431
#
#
# Mechanical properties :
#
#
# Convention : Reuss Voigt Hill
#
# Bulk Modulus (GPa) = 50.19789 74.47110 62.33450
# Shear Modulus (GPa) = 23.24149 33.00038 28.12093
#
# Velocity S-wave (km/s) = 3.48005 4.14680 3.82797
# Velocity P-wave (km/s) = 6.50422 7.85707 7.21243
#
# Compressibility (1/GPa) = 0.01992115
#
# Stress axis : x y z
#
# Youngs Moduli (GPa) = 102.49617 27.95856 57.66766
#
# Poissons Ratio (x) = -0.00903 0.28208
# Poissons Ratio (y) = -0.03310 0.97476
# Poissons Ratio (z) = 0.50136 0.47259
#
# Static dielectric constant tensor:
#      x y z
#    x 1.636610 0.000000 0.000000 
#    y 0.000000 1.656120 0.000000 
#    z 0.000000 0.000000 1.655840 
# 
# From -- ./inp_files/20384.got.cif
#   From: 2010.05.17/outbox.cif.g08.bks.cpg/sg44_11_cif.got.tgz:20384.got - 2010.06.03 19:37:08.
