data_PCOD9375968
_publ_section_title
;
Structure prediction by ZEFSAII (Michael W. Deem and Ramdas Pophale) SiO2 
 PCOD9375968
Probable space group: I M M 2
;
_chemical_formula_sum "Si O2"
_cell_formula_units_Z 32
_cell_length_a 9.000000
_cell_length_b 30.000000
_cell_length_c 15.000000
_cell_angle_alpha 90.000000
_cell_angle_beta 90.000000
_cell_angle_gamma 90.000000
_cell_volume 4050.000000
_symmetry_space_group_name_H-M "I M M 2"
_symmetry_group_IT_number 44
_symmetry_cell_setting 'orthorhombic'
loop_
_space_group_symop_operation_xyz
x,y,z
-x,-y,z
-x,y,z
x,-y,z
1/2+x,1/2+y,1/2+z
1/2-x,1/2-y,1/2+z
1/2-x,1/2+y,1/2+z
1/2+x,1/2-y,1/2+z
loop_
_atom_site_type_symbol
_atom_site_label
_atom_site_fract_x
_atom_site_fract_y
_atom_site_fract_z
Si Si1 0.820534 0.632763 0.006360
Si Si2 0.179656 0.320121 0.186227
Si Si3 0.820489 0.315905 0.392873
Si Si4 0.179255 0.551993 0.694149
Si Si5 0.320688 0.717249 0.691151
Si Si6 0.678605 0.220286 0.385621
Si Si7 0.179103 0.638164 0.575138
Si Si8 0.179079 0.052679 0.390373
O O1 0.771778 0.645852 0.107918
O O2 0.000000 0.625947 0.006125
O O3 0.790820 0.677946 0.949191
O O4 0.745947 0.589634 0.958814
O O5 0.224354 0.327992 0.290221
O O6 0.219065 0.268410 0.163891
O O7 0.000000 0.321925 0.185147
O O8 0.745325 0.268147 0.415624
O O9 0.785786 0.352044 0.470375
O O10 0.000000 0.309772 0.391922
O O11 0.214790 0.500000 0.669230
O O12 0.220213 0.590520 0.621593
O O13 0.254919 0.560862 0.790591
O O14 0.000000 0.554294 0.705343
O O15 0.500000 0.714414 0.693543
O O16 0.252908 0.711141 0.789730
O O17 0.254616 0.678769 0.628869
O O18 0.500000 0.224384 0.377776
O O19 0.000000 0.641744 0.583640
O O20 0.000000 0.057024 0.388281
O O21 0.213266 0.000000 0.412047
#
# Coordination Sequence:
#
# PCOD9375968 Si02
#       8
#     8   8   8   8   8   8   8   8
#     4  10  19  31  49  69  91 123 160 194 229 273
#     4   8  16  31  47  64  90 125 160 191 225 267
#     4   9  18  32  48  67  96 131 161 193 234 275
#     4   9  18  33  51  70  94 124 155 188 231 282
#     4  10  19  31  47  68  97 130 159 191 235 282
#     4  10  19  30  45  69  99 127 159 197 233 275
#     4  10  19  30  47  71  96 124 160 198 234 276
#     4  10  21  35  50  71  97 120 146 187 237 285
#
# _framework density 7.9012349999999998
#
# number of rings (size 3 to 8) (size 9 to 14) (size 15 to 20)
#    0.000    2.500    0.000    3.375    0.000    6.750 
#    0.000    3.125    0.000    0.750    0.000    3.500 
#    0.000    2.000    0.000    0.000    0.000    0.000 
#
# Total GULP energy -178320.488607 kJ/mol
# GULP energy per Si atom -5572.515269 kJ/mol
# Density = 0.788325 g / cm^3
# Si number density = 7.901235 Si / 1000 Ang^3
#
#
#
# Elastic Constant Matrix: (Units=GPa)
#
#
# Indices 1 2 3 4 5 6 
#
# 1 37.6861 33.8253 30.4934 0.0000 0.0000 0.0000
# 2 33.8253 129.0701 88.0517 0.0000 0.0000 0.0000
# 3 30.4934 88.0517 124.0396 0.0000 0.0000 0.0000
# 4 0.0000 0.0000 0.0000 37.2756 0.0000 0.0000
# 5 0.0000 0.0000 0.0000 0.0000 20.1268 0.0000
# 6 0.0000 0.0000 0.0000 0.0000 0.0000 28.3041
#
#
#
# Elastic Compliance Matrix: (Units=1/GPa)
#
#
# Indices 1 2 3 4 5 6 
#
# 1 0.035764 -0.006543 -0.004147 0.000000 0.000000 0.000000
# 2 -0.006543 0.016220 -0.009906 0.000000 0.000000 0.000000
# 3 -0.004147 -0.009906 0.016113 0.000000 0.000000 0.000000
# 4 0.000000 0.000000 0.000000 0.026827 0.000000 0.000000
# 5 0.000000 0.000000 0.000000 0.000000 0.049685 0.000000
# 6 0.000000 0.000000 0.000000 0.000000 0.000000 0.035331
#
#
# Mechanical properties :
#
#
# Convention : Reuss Voigt Hill
#
# Bulk Modulus (GPa) = 37.16810 66.17075 51.66943
# Shear Modulus (GPa) = 21.72972 26.36966 24.04969
#
# Velocity S-wave (km/s) = 3.71224 4.08941 3.90538
# Velocity P-wave (km/s) = 6.47655 8.01638 7.28725
#
# Compressibility (1/GPa) = 0.02690479
#
# Stress axis : x y z
#
# Youngs Moduli (GPa) = 27.96141 61.65187 62.06163
#
# Poissons Ratio (x) = 0.40342 0.25737
# Poissons Ratio (y) = 0.18296 0.61475
# Poissons Ratio (z) = 0.11596 0.61069
#
# Static dielectric constant tensor:
#      x y z
#    x 1.527620 0.000000 0.000000 
#    y 0.000000 1.525100 0.000000 
#    z 0.000000 0.000000 1.550460 
# 
# From -- ./inp_files/17127.got.cif
#   From: 2010.05.17/outbox.ucp.g08.bks.cvg/sg44_9_cif.got.tgz:17127.got - 2010.06.11 16:32:36.
