data_PCOD9375683
_publ_section_title
;
Structure prediction by ZEFSAII (Michael W. Deem and Ramdas Pophale) SiO2 
 PCOD9375683
Probable space group: I M M 2
;
_chemical_formula_sum "Si O2"
_cell_formula_units_Z 48
_cell_length_a 7.460783
_cell_length_b 9.239891
_cell_length_c 35.688899
_cell_angle_alpha 90.000000
_cell_angle_beta 90.000000
_cell_angle_gamma 90.000000
_cell_volume 2460.279267
_symmetry_space_group_name_H-M "I M M 2"
_symmetry_group_IT_number 44
_symmetry_cell_setting 'orthorhombic'
loop_
_space_group_symop_operation_xyz
x,y,z
-x,-y,z
-x,y,z
x,-y,z
1/2+x,1/2+y,1/2+z
1/2-x,1/2-y,1/2+z
1/2-x,1/2+y,1/2+z
1/2+x,1/2-y,1/2+z
loop_
_atom_site_type_symbol
_atom_site_label
_atom_site_fract_x
_atom_site_fract_y
_atom_site_fract_z
Si Si1 0.284361 0.328824 0.349070
Si Si2 0.500000 0.173118 0.717749
Si Si3 0.285962 0.664313 0.007388
Si Si4 0.500000 0.326221 0.797276
Si Si5 0.713998 0.165500 0.423931
Si Si6 0.780948 0.665597 0.580158
Si Si7 0.209215 0.828010 0.655463
O O1 0.500000 0.310002 0.344795
O O2 0.246306 0.500000 0.346448
O O3 0.172707 0.239885 0.318580
O O4 0.228255 0.265778 0.389682
O O5 0.500000 0.266111 0.755129
O O6 0.671086 0.204824 0.691483
O O7 0.500000 0.000000 0.726422
O O8 0.500000 0.656081 0.011749
O O9 0.214770 0.500000 0.008447
O O10 0.218208 0.756300 0.042297
O O11 0.253711 0.722284 0.965583
O O12 0.500000 0.500000 0.798852
O O13 0.500000 0.156454 0.421111
O O14 0.785015 0.000000 0.420879
O O15 0.724061 0.500000 0.580857
O O16 0.727923 0.746930 0.618087
O O17 0.000000 0.668364 0.579723
O O18 0.000000 0.793280 0.661961
O O19 0.223008 0.000000 0.648489
#
# Coordination Sequence:
#
# PCOD9375683 Si02
#       7
#     8   4   8   4   8   8   8
#     4  10  22  41  64  89 119 157 199 245 298 357
#     4  10  22  40  60  88 118 144 188 240 288 352
#     4   9  17  29  47  72 104 144 189 233 279 336
#     4  12  26  42  64  92 124 158 196 244 298 362
#     4   9  18  33  52  77 110 147 189 237 289 346
#     4   9  17  30  49  74 105 142 185 231 280 333
#     4   9  18  35  59  82 108 146 185 227 283 343
#
# _framework density 19.509981
#
# number of rings (size 3 to 8) (size 9 to 14) (size 15 to 20)
#    0.000    2.500    0.000    1.750    1.167    5.000 
#    1.500    1.667    0.000    0.000    0.000    0.000 
#    0.000    0.000    0.000    0.000    0.000    0.000 
#
# Total GULP energy -133978.122920 kJ/mol
# GULP energy per Si atom -5582.421788 kJ/mol
# Density = 1.946558 g / cm^3
# Si number density = 19.509981 Si / 1000 Ang^3
#
#
#
# Elastic Constant Matrix: (Units=GPa)
#
#
# Indices 1 2 3 4 5 6 
#
# 1 78.0722 46.8773 53.6683 0.0000 0.0000 0.0000
# 2 46.8773 115.5515 114.6653 0.0000 0.0000 0.0000
# 3 53.6683 114.6653 203.6855 0.0000 0.0000 0.0000
# 4 0.0000 0.0000 0.0000 37.7193 0.0000 0.0000
# 5 0.0000 0.0000 0.0000 0.0000 32.8010 0.0000
# 6 0.0000 0.0000 0.0000 0.0000 0.0000 10.4446
#
#
#
# Elastic Compliance Matrix: (Units=1/GPa)
#
#
# Indices 1 2 3 4 5 6 
#
# 1 0.017098 -0.005587 -0.001360 0.000000 0.000000 0.000000
# 2 -0.005587 0.021433 -0.010594 0.000000 0.000000 0.000000
# 3 -0.001360 -0.010594 0.011232 0.000000 0.000000 0.000000
# 4 0.000000 0.000000 0.000000 0.026512 0.000000 0.000000
# 5 0.000000 0.000000 0.000000 0.000000 0.030487 0.000000
# 6 0.000000 0.000000 0.000000 0.000000 0.000000 0.095743
#
#
# Mechanical properties :
#
#
# Convention : Reuss Voigt Hill
#
# Bulk Modulus (GPa) = 68.11220 91.97013 80.04116
# Shear Modulus (GPa) = 20.62030 28.33288 24.47659
#
# Velocity S-wave (km/s) = 3.25454 3.81494 3.54583
# Velocity P-wave (km/s) = 7.00785 8.16379 7.60780
#
# Compressibility (1/GPa) = 0.01468166
#
# Stress axis : x y z
#
# Youngs Moduli (GPa) = 58.48613 46.65648 89.03382
#
# Poissons Ratio (x) = 0.26066 0.12108
# Poissons Ratio (y) = 0.32676 0.94321
# Poissons Ratio (z) = 0.07954 0.49427
#
# Static dielectric constant tensor:
#      x y z
#    x 1.722470 0.000000 0.000000 
#    y 0.000000 1.662470 0.000000 
#    z 0.000000 0.000000 1.652160 
# 
# From -- ./inp_files/26910.got.cif
#   From: 2010.05.17/outbox.cif.g08.bks.cpg/sg44_14_cif.got.tgz:26910.got - 2010.06.03 19:37:08.
