data_PCOD9375567
_publ_section_title
;
Structure prediction by ZEFSAII (Michael W. Deem and Ramdas Pophale) SiO2 
 PCOD9375567
Probable space group: I M M 2
;
_chemical_formula_sum "Si O2"
_cell_formula_units_Z 40
_cell_length_a 23.437254
_cell_length_b 8.747042
_cell_length_c 10.467144
_cell_angle_alpha 90.000000
_cell_angle_beta 90.000000
_cell_angle_gamma 90.000000
_cell_volume 2145.834075
_symmetry_space_group_name_H-M "I M M 2"
_symmetry_group_IT_number 44
_symmetry_cell_setting 'orthorhombic'
loop_
_space_group_symop_operation_xyz
x,y,z
-x,-y,z
-x,y,z
x,-y,z
1/2+x,1/2+y,1/2+z
1/2-x,1/2-y,1/2+z
1/2-x,1/2+y,1/2+z
1/2+x,1/2-y,1/2+z
loop_
_atom_site_type_symbol
_atom_site_label
_atom_site_fract_x
_atom_site_fract_y
_atom_site_fract_z
Si Si1 0.500000 0.317593 0.464931
Si Si2 0.174961 0.684256 0.328879
Si Si3 0.617394 0.682921 0.080696
Si Si4 0.382172 0.816890 0.559472
Si Si5 0.000000 0.317650 0.678547
Si Si6 0.308178 0.683977 0.329752
O O1 0.500000 0.500000 0.457579
O O2 0.556736 0.259081 0.534662
O O3 0.500000 0.251243 0.321310
O O4 0.171831 0.500000 0.342120
O O5 0.144654 0.760702 0.449197
O O6 0.144295 0.725682 0.196292
O O7 0.241742 0.726645 0.324014
O O8 0.610712 0.500000 0.079590
O O9 0.556615 0.759614 0.107850
O O10 0.659351 0.723101 0.198508
O O11 0.340011 0.762898 0.447287
O O12 0.388153 0.000000 0.554296
O O13 0.000000 0.500000 0.686526
O O14 0.311999 0.500000 0.345555
#
# Coordination Sequence:
#
# PCOD9375567 Si02
#       6
#     4   8   8   8   4   8
#     4  12  24  41  64  91 122 158 202 256 308 369
#     4  10  23  41  60  90 129 166 206 252 305 363
#     4  11  23  40  64  93 125 164 205 253 307 363
#     4  11  23  40  64  92 122 163 208 255 307 364
#     4  12  24  41  66  93 120 158 204 254 306 367
#     4  10  21  39  63  90 125 165 206 255 304 361
#
# _framework density 18.64077
#
# number of rings (size 3 to 8) (size 9 to 14) (size 15 to 20)
#    0.000    1.200    2.000    4.200    0.000    5.600 
#    0.000    1.000    0.000    0.000    0.000    0.000 
#    0.000    0.000    0.000    0.000    0.000    0.000 
#
# Total GULP energy -111874.943966 kJ/mol
# GULP energy per Si atom -5593.747198 kJ/mol
# Density = 1.859834 g / cm^3
# Si number density = 18.640770 Si / 1000 Ang^3
#
#
#
# Elastic Constant Matrix: (Units=GPa)
#
#
# Indices 1 2 3 4 5 6 
#
# 1 215.3713 86.6911 119.9462 0.0000 0.0000 0.0000
# 2 86.6911 78.8375 83.4905 0.0000 0.0000 0.0000
# 3 119.9462 83.4905 191.2486 0.0000 0.0000 0.0000
# 4 0.0000 0.0000 0.0000 36.2528 0.0000 0.0000
# 5 0.0000 0.0000 0.0000 0.0000 -3.9780 0.0000
# 6 0.0000 0.0000 0.0000 0.0000 0.0000 22.6973
#
#
#
# Elastic Compliance Matrix: (Units=1/GPa)
#
#
# Indices 1 2 3 4 5 6 
#
# 1 0.008901 -0.007208 -0.002436 0.000000 0.000000 0.000000
# 2 -0.007208 0.029428 -0.008326 0.000000 0.000000 0.000000
# 3 -0.002436 -0.008326 0.010391 0.000000 0.000000 0.000000
# 4 0.000000 0.000000 0.000000 0.027584 0.000000 0.000000
# 5 0.000000 0.000000 0.000000 0.000000 -0.251383 0.000000
# 6 0.000000 0.000000 0.000000 0.000000 0.000000 0.044058
#
#
# Mechanical properties :
#
#
# Convention : Reuss Voigt Hill
#
# Bulk Modulus (GPa) = 78.24605 118.41258 98.32932
# Shear Modulus (GPa) = -55.05470 24.01638 -15.51916
#
# Velocity S-wave (km/s) = -5.44047 3.59329 -2.88850
# Velocity P-wave (km/s) = 1.61306 8.99317 6.46061
#
# Compressibility (1/GPa) = 0.01278020
#
# Stress axis : x y z
#
# Youngs Moduli (GPa) = 112.34436 33.98077 96.23473
#
# Poissons Ratio (x) = 0.24495 0.23440
# Poissons Ratio (y) = 0.80983 0.80127
# Poissons Ratio (z) = 0.27364 0.28293
#
# Static dielectric constant tensor:
#      x y z
#    x 1.620870 0.000000 0.000000 
#    y 0.000000 1.624960 0.000000 
#    z 0.000000 0.000000 1.603460 
# 
# From -- ./inp_files/9242.got.cif
#   From: 2010.05.17/outbox.cif.g08.bks.cpg/sg44_5_cif.got.tgz:9242.got - 2010.06.03 19:37:08.
