data_PCOD9375128
_publ_section_title
;
Structure prediction by ZEFSAII (Michael W. Deem and Ramdas Pophale) SiO2 
 PCOD9375128
Probable space group: I M M 2
;
_chemical_formula_sum "Si O2"
_cell_formula_units_Z 48
_cell_length_a 17.448028
_cell_length_b 8.823962
_cell_length_c 17.349449
_cell_angle_alpha 90.000000
_cell_angle_beta 90.000000
_cell_angle_gamma 90.000000
_cell_volume 2671.133938
_symmetry_space_group_name_H-M "I M M 2"
_symmetry_group_IT_number 44
_symmetry_cell_setting 'orthorhombic'
loop_
_space_group_symop_operation_xyz
x,y,z
-x,-y,z
-x,y,z
x,-y,z
1/2+x,1/2+y,1/2+z
1/2-x,1/2-y,1/2+z
1/2-x,1/2+y,1/2+z
1/2+x,1/2-y,1/2+z
loop_
_atom_site_type_symbol
_atom_site_label
_atom_site_fract_x
_atom_site_fract_y
_atom_site_fract_z
Si Si1 0.410983 0.817791 0.973750
Si Si2 0.000000 0.182769 0.062784
Si Si3 0.356103 0.820027 0.652925
Si Si4 0.194316 0.319599 0.618721
Si Si5 0.591499 0.679476 0.808785
Si Si6 0.412714 0.321878 0.243310
Si Si7 0.500000 0.316113 0.386143
O O1 0.500000 0.778389 0.990203
O O2 0.388650 0.739360 0.893657
O O3 0.407387 0.000000 0.964067
O O4 0.356622 0.775751 0.044593
O O5 0.074793 0.243716 0.105891
O O6 0.000000 0.234745 0.973487
O O7 0.000000 0.000000 0.065109
O O8 0.275135 0.764035 0.620632
O O9 0.364659 0.765332 0.741170
O O10 0.362716 0.000000 0.648871
O O11 0.206302 0.500000 0.617016
O O12 0.145983 0.273799 0.694233
O O13 0.500000 0.706565 0.798213
O O14 0.604756 0.500000 0.802763
O O15 0.500000 0.308582 0.210669
O O16 0.391688 0.500000 0.240948
O O17 0.427106 0.273746 0.332456
O O18 0.500000 0.500000 0.386404
#
# Coordination Sequence:
#
# PCOD9375128 Si02
#       7
#     8   4   8   8   8   8   4
#     4   9  19  36  59  86 119 155 193 234 285 346
#     4  11  21  41  67  86 109 146 193 245 294 349
#     4  12  25  40  60  84 115 155 194 240 293 349
#     4  11  22  37  57  87 121 157 196 239 287 339
#     4  10  20  37  62  88 113 146 191 241 291 344
#     4   8  16  34  58  85 117 154 191 228 278 344
#     4   7  16  35  61  88 113 150 191 229 284 347
#
# _framework density 17.969895999999999
#
# number of rings (size 3 to 8) (size 9 to 14) (size 15 to 20)
#    0.500    1.667    0.833    3.250    0.000    3.000 
#    3.000    3.333    0.000    0.000    0.000    0.000 
#    0.000    0.000    0.000    0.000    0.000    0.000 
#
# Total GULP energy -133861.080010 kJ/mol
# GULP energy per Si atom -5577.545000 kJ/mol
# Density = 1.792900 g / cm^3
# Si number density = 17.969896 Si / 1000 Ang^3
#
#
#
# Elastic Constant Matrix: (Units=GPa)
#
#
# Indices 1 2 3 4 5 6 
#
# 1 96.4903 48.4054 71.6760 0.0000 0.0000 0.0000
# 2 48.4054 70.3277 53.3801 0.0000 0.0000 0.0000
# 3 71.6760 53.3801 142.2935 0.0000 0.0000 0.0000
# 4 0.0000 0.0000 0.0000 32.0798 0.0000 0.0000
# 5 0.0000 0.0000 0.0000 0.0000 -2.5472 0.0000
# 6 0.0000 0.0000 0.0000 0.0000 0.0000 27.9993
#
#
#
# Elastic Compliance Matrix: (Units=1/GPa)
#
#
# Indices 1 2 3 4 5 6 
#
# 1 0.019538 -0.008357 -0.006707 0.000000 0.000000 0.000000
# 2 -0.008357 0.023455 -0.004589 0.000000 0.000000 0.000000
# 3 -0.006707 -0.004589 0.012127 0.000000 0.000000 0.000000
# 4 0.000000 0.000000 0.000000 0.031172 0.000000 0.000000
# 5 0.000000 0.000000 0.000000 0.000000 -0.392594 0.000000
# 6 0.000000 0.000000 0.000000 0.000000 0.000000 0.035715
#
#
# Mechanical properties :
#
#
# Convention : Reuss Voigt Hill
#
# Bulk Modulus (GPa) = 63.23383 72.89272 68.06327
# Shear Modulus (GPa) = -22.12296 20.54973 -0.78662
#
# Velocity S-wave (km/s) = -3.51253 3.38533 -0.66234
# Velocity P-wave (km/s) = 4.33759 7.47880 6.11339
#
# Compressibility (1/GPa) = 0.01581432
#
# Stress axis : x y z
#
# Youngs Moduli (GPa) = 51.18205 42.63568 82.45757
#
# Poissons Ratio (x) = 0.35632 0.55300
# Poissons Ratio (y) = 0.42775 0.37840
# Poissons Ratio (z) = 0.34325 0.19565
#
# Static dielectric constant tensor:
#      x y z
#    x 1.602380 0.000000 0.000000 
#    y 0.000000 1.596260 0.000000 
#    z 0.000000 0.000000 1.612890 
# 
# From -- ./inp_files/21731.got.cif
#   From: 2010.05.17/outbox.cif.g08.bks.cpg/sg44_11_cif.got.tgz:21731.got - 2010.06.03 19:37:08.
