data_PCOD9375343
_publ_section_title
;
Structure prediction by ZEFSAII (Michael W. Deem and Ramdas Pophale) SiO2 
 PCOD9375343
Probable space group: I M M 2
;
_chemical_formula_sum "Si O2"
_cell_formula_units_Z 64
_cell_length_a 7.684052
_cell_length_b 14.396907
_cell_length_c 24.685600
_cell_angle_alpha 90.000000
_cell_angle_beta 90.000000
_cell_angle_gamma 90.000000
_cell_volume 2730.883553
_symmetry_space_group_name_H-M "I M M 2"
_symmetry_group_IT_number 44
_symmetry_cell_setting 'orthorhombic'
loop_
_space_group_symop_operation_xyz
x,y,z
-x,-y,z
-x,y,z
x,-y,z
1/2+x,1/2+y,1/2+z
1/2-x,1/2-y,1/2+z
1/2-x,1/2+y,1/2+z
1/2+x,1/2-y,1/2+z
loop_
_atom_site_type_symbol
_atom_site_label
_atom_site_fract_x
_atom_site_fract_y
_atom_site_fract_z
Si Si1 0.206268 0.893906 0.724950
Si Si2 0.304149 0.110190 0.221563
Si Si3 0.293587 0.800623 0.613655
Si Si4 0.211672 0.608308 0.838303
Si Si5 0.709933 0.893935 0.847686
Si Si6 0.802297 0.246049 0.430204
Si Si7 0.302325 0.396979 0.602272
Si Si8 0.794264 0.898894 0.511306
O O1 0.262807 0.826261 0.676391
O O2 0.246261 0.863155 0.786445
O O3 0.000000 0.899651 0.720567
O O4 0.277964 0.000000 0.718250
O O5 0.500000 0.147345 0.211194
O O6 0.234928 0.144364 0.278733
O O7 0.193497 0.114157 0.167636
O O8 0.323965 0.000000 0.231653
O O9 0.500000 0.794217 0.606844
O O10 0.217370 0.702729 0.590363
O O11 0.225716 0.881671 0.575033
O O12 0.254485 0.500000 0.844943
O O13 0.301471 0.667459 0.884020
O O14 0.000000 0.617346 0.841176
O O15 0.500000 0.891966 0.851242
O O16 0.778701 0.832155 0.897488
O O17 0.770325 0.000000 0.852399
O O18 0.717853 0.190333 0.479990
O O19 0.000000 0.272960 0.445708
O O20 0.500000 0.399678 0.581301
O O21 0.223725 0.500000 0.591212
O O22 0.000000 0.900367 0.498531
O O23 0.721224 0.000000 0.495899
#
# Coordination Sequence:
#
# PCOD9375343 Si02
#       8
#     8   8   8   8   8   8   8   8
#     4  10  21  37  58  85 117 153 191 234 287 344
#     4   8  15  28  45  68 101 139 176 215 262 315
#     4  11  23  37  58  86 114 149 195 241 287 339
#     4   9  18  31  47  73 109 144 179 222 272 327
#     4   9  19  37  59  84 117 152 187 233 285 339
#     4  10  21  36  57  82 109 145 189 232 280 336
#     4   9  19  35  52  73 106 145 183 225 273 327
#     4  10  22  41  61  83 115 150 187 236 289 342
#
# _framework density 23.435638000000001
#
# number of rings (size 3 to 8) (size 9 to 14) (size 15 to 20)
#    0.000    2.500    0.000    2.250    1.750    5.750 
#    0.000    1.875    0.000    0.750    0.000    0.000 
#    0.000    0.000    0.000    0.000    0.000    0.000 
#
# Total GULP energy -178431.894057 kJ/mol
# GULP energy per Si atom -5575.996689 kJ/mol
# Density = 2.338230 g / cm^3
# Si number density = 23.435638 Si / 1000 Ang^3
#
#
#
# Elastic Constant Matrix: (Units=GPa)
#
#
# Indices 1 2 3 4 5 6 
#
# 1 51.6943 2.3481 -5.0819 0.0000 0.0000 0.0000
# 2 2.3481 148.9203 37.7511 0.0000 0.0000 0.0000
# 3 -5.0819 37.7511 78.5455 0.0000 0.0000 0.0000
# 4 0.0000 0.0000 0.0000 37.0130 0.0000 0.0000
# 5 0.0000 0.0000 0.0000 0.0000 11.5257 0.0000
# 6 0.0000 0.0000 0.0000 0.0000 0.0000 6.5350
#
#
#
# Elastic Compliance Matrix: (Units=1/GPa)
#
#
# Indices 1 2 3 4 5 6 
#
# 1 0.019535 -0.000716 0.001608 0.000000 0.000000 0.000000
# 2 -0.000716 0.007673 -0.003734 0.000000 0.000000 0.000000
# 3 0.001608 -0.003734 0.014630 0.000000 0.000000 0.000000
# 4 0.000000 0.000000 0.000000 0.027018 0.000000 0.000000
# 5 0.000000 0.000000 0.000000 0.000000 0.086763 0.000000
# 6 0.000000 0.000000 0.000000 0.000000 0.000000 0.153023
#
#
# Mechanical properties :
#
#
# Convention : Reuss Voigt Hill
#
# Bulk Modulus (GPa) = 27.65909 38.79941 33.22925
# Shear Modulus (GPa) = 15.31975 27.29091 21.30533
#
# Velocity S-wave (km/s) = 2.55952 3.41619 3.01840
# Velocity P-wave (km/s) = 4.53460 5.67028 5.13394
#
# Compressibility (1/GPa) = 0.03615448
#
# Stress axis : x y z
#
# Youngs Moduli (GPa) = 51.18999 130.32924 68.35173
#
# Poissons Ratio (x) = 0.09326 -0.10990
# Poissons Ratio (y) = 0.03663 0.25523
# Poissons Ratio (z) = -0.08231 0.48666
#
# Static dielectric constant tensor:
#      x y z
#    x 1.887890 0.000000 0.000000 
#    y 0.000000 1.915700 0.000000 
#    z 0.000000 0.000000 1.878570 
# 
# From -- ./inp_files/25176.got.cif
#   From: 2010.05.17/outbox.cif.g08.bks.cpg/sg44_13_cif.got.tgz:25176.got - 2010.06.03 19:37:08.
