data_PCOD9375980
_publ_section_title
;
Structure prediction by ZEFSAII (Michael W. Deem and Ramdas Pophale) SiO2 
 PCOD9375980
Probable space group: I M M 2
;
_chemical_formula_sum "Si O2"
_cell_formula_units_Z 32
_cell_length_a 30.000000
_cell_length_b 9.000000
_cell_length_c 12.000000
_cell_angle_alpha 90.000000
_cell_angle_beta 90.000000
_cell_angle_gamma 90.000000
_cell_volume 3240.000000
_symmetry_space_group_name_H-M "I M M 2"
_symmetry_group_IT_number 44
_symmetry_cell_setting 'orthorhombic'
loop_
_space_group_symop_operation_xyz
x,y,z
-x,-y,z
-x,y,z
x,-y,z
1/2+x,1/2+y,1/2+z
1/2-x,1/2-y,1/2+z
1/2-x,1/2+y,1/2+z
1/2+x,1/2-y,1/2+z
loop_
_atom_site_type_symbol
_atom_site_label
_atom_site_fract_x
_atom_site_fract_y
_atom_site_fract_z
Si Si1 0.551493 0.821960 0.971630
Si Si2 0.323682 0.835347 0.487721
Si Si3 0.427658 0.165610 0.542697
Si Si4 0.205698 0.323012 0.736237
Si Si5 0.547788 0.672875 0.328327
Si Si6 0.379798 0.323243 0.143059
Si Si7 0.905182 0.176993 0.260697
Si Si8 0.805359 0.824581 0.203939
O O1 0.500000 0.776926 0.994797
O O2 0.566627 0.763882 0.851566
O O3 0.553419 0.000000 0.978490
O O4 0.589041 0.751912 0.051016
O O5 0.376408 0.842112 0.503443
O O6 0.311786 0.804769 0.361453
O O7 0.307392 0.712402 0.573290
O O8 0.305534 0.000000 0.517840
O O9 0.452626 0.224932 0.435663
O O10 0.427157 0.281298 0.643013
O O11 0.441604 0.000000 0.577633
O O12 0.206002 0.500000 0.709916
O O13 0.169635 0.243222 0.657288
O O14 0.256727 0.266327 0.738279
O O15 0.500000 0.691436 0.267503
O O16 0.550834 0.500000 0.361902
O O17 0.590804 0.704246 0.254068
O O18 0.377154 0.500000 0.124341
O O19 0.852753 0.228856 0.255367
O O20 0.905787 0.000000 0.279873
O O21 0.805187 0.000000 0.224775
#
# Coordination Sequence:
#
# PCOD9375980 Si02
#       8
#     8   8   8   8   8   8   8   8
#     4  11  25  44  65  89 121 163 209 258 312 372
#     4   9  18  33  54  78 112 151 188 237 295 352
#     4  10  19  34  57  84 112 149 192 237 293 354
#     4  10  20  37  58  84 119 158 200 248 303 362
#     4  10  21  36  55  82 115 148 185 235 293 351
#     4  11  23  39  61  88 119 156 201 251 302 362
#     4  10  21  39  62  88 121 158 201 252 305 362
#     4   9  20  36  57  86 119 156 199 249 304 361
#
# _framework density 9.8765429999999999
#
# number of rings (size 3 to 8) (size 9 to 14) (size 15 to 20)
#    0.000    2.000    1.250    1.875    0.000    5.750 
#    0.000    1.250    0.000    0.000    0.000    0.000 
#    0.000    0.000    0.000    0.000    0.000    0.000 
#
# Total GULP energy -178347.489007 kJ/mol
# GULP energy per Si atom -5573.359031 kJ/mol
# Density = 0.985406 g / cm^3
# Si number density = 9.876543 Si / 1000 Ang^3
#
#
#
# Elastic Constant Matrix: (Units=GPa)
#
#
# Indices 1 2 3 4 5 6 
#
# 1 36.5523 11.6512 5.8108 0.0000 0.0000 0.0000
# 2 11.6512 1.3518 21.8988 0.0000 0.0000 0.0000
# 3 5.8108 21.8988 39.4730 0.0000 0.0000 0.0000
# 4 0.0000 0.0000 0.0000 29.3347 0.0000 0.0000
# 5 0.0000 0.0000 0.0000 0.0000 14.5081 0.0000
# 6 0.0000 0.0000 0.0000 0.0000 0.0000 53.7406
#
#
#
# Elastic Compliance Matrix: (Units=1/GPa)
#
#
# Indices 1 2 3 4 5 6 
#
# 1 0.023655 0.018463 -0.013725 0.000000 0.000000 0.000000
# 2 0.018463 -0.078205 0.040669 0.000000 0.000000 0.000000
# 3 -0.013725 0.040669 0.004792 0.000000 0.000000 0.000000
# 4 0.000000 0.000000 0.000000 0.034089 0.000000 0.000000
# 5 0.000000 0.000000 0.000000 0.000000 0.068927 0.000000
# 6 0.000000 0.000000 0.000000 0.000000 0.000000 0.018608
#
#
# Mechanical properties :
#
#
# Convention : Reuss Voigt Hill
#
# Bulk Modulus (GPa) = 24.35761 17.34430 20.85095
# Shear Modulus (GPa) = -950.04390 22.05109 -463.99641
#
# Velocity S-wave (km/s) = -21.95459 3.34479 -15.34302
# Velocity P-wave (km/s) = 25.10605 4.86995 17.41548
#
# Compressibility (1/GPa) = 0.04105494
#
# Stress axis : x y z
#
# Youngs Moduli (GPa) = 42.27475 -12.78683 208.68070
#
# Poissons Ratio (x) = 0.23609 2.86418
# Poissons Ratio (y) = -0.78053 -8.48680
# Poissons Ratio (z) = 0.58023 0.52003
#
# Static dielectric constant tensor:
#      x y z
#    x 1.715750 0.000000 0.000000 
#    y 0.000000 1.689020 0.000000 
#    z 0.000000 0.000000 1.710800 
# 
# From -- ./inp_files/11440.got.cif
#   From: 2010.05.17/outbox.ucp.g08.bks.cvg/sg44_6_cif.got.tgz:11440.got - 2010.06.11 16:32:36.
