data_PCOD9375423
_publ_section_title
;
Structure prediction by ZEFSAII (Michael W. Deem and Ramdas Pophale) SiO2 
 PCOD9375423
Probable space group: I M M 2
;
_chemical_formula_sum "Si O2"
_cell_formula_units_Z 64
_cell_length_a 14.826487
_cell_length_b 19.043097
_cell_length_c 11.787575
_cell_angle_alpha 90.000000
_cell_angle_beta 90.000000
_cell_angle_gamma 90.000000
_cell_volume 3328.130213
_symmetry_space_group_name_H-M "I M M 2"
_symmetry_group_IT_number 44
_symmetry_cell_setting 'orthorhombic'
loop_
_space_group_symop_operation_xyz
x,y,z
-x,-y,z
-x,y,z
x,-y,z
1/2+x,1/2+y,1/2+z
1/2-x,1/2-y,1/2+z
1/2-x,1/2+y,1/2+z
1/2+x,1/2-y,1/2+z
loop_
_atom_site_type_symbol
_atom_site_label
_atom_site_fract_x
_atom_site_fract_y
_atom_site_fract_z
Si Si1 0.397992 0.309918 0.820670
Si Si2 0.602874 0.707835 0.555665
Si Si3 0.898440 0.921579 0.892749
Si Si4 0.603031 0.081574 0.644363
Si Si5 0.394784 0.419277 0.003357
Si Si6 0.707554 0.779002 0.358775
Si Si7 0.394480 0.080436 0.370101
Si Si8 0.213846 0.147947 0.704019
O O1 0.500000 0.284596 0.841933
O O2 0.378701 0.303881 0.687292
O O3 0.314264 0.271641 0.877208
O O4 0.392531 0.387224 0.876881
O O5 0.500000 0.733517 0.546120
O O6 0.610358 0.633358 0.493307
O O7 0.661915 0.757923 0.477406
O O8 0.827192 0.905918 0.795595
O O9 0.000000 0.912750 0.844400
O O10 0.889872 0.000000 0.935585
O O11 0.500000 0.100863 0.675444
O O12 0.608947 0.081670 0.507477
O O13 0.679799 0.132835 0.691631
O O14 0.618847 0.000000 0.679348
O O15 0.500000 0.416538 0.039499
O O16 0.364178 0.500000 0.007374
O O17 0.334374 0.372201 0.086408
O O18 0.670994 0.856864 0.329633
O O19 0.687831 0.723248 0.258036
O O20 0.500000 0.093613 0.338910
O O21 0.371345 0.000000 0.335433
#
# Coordination Sequence:
#
# PCOD9375423 Si02
#       8
#     8   8   8   8   8   8   8   8
#     4  10  23  39  56  81 116 154 197 245 299 358
#     4   9  20  38  57  82 115 151 195 246 296 353
#     4   9  17  31  53  80 111 150 192 232 280 344
#     4   9  18  32  53  82 113 149 195 246 298 349
#     4  10  21  37  58  85 119 156 193 237 294 357
#     4  11  23  35  58  85 118 157 200 244 308 368
#     4   9  19  37  60  85 112 147 197 254 306 356
#     4  11  21  32  52  86 121 156 191 243 301 357
#
# _framework density 19.230015999999999
#
# number of rings (size 3 to 8) (size 9 to 14) (size 15 to 20)
#    0.000    2.250    0.000    3.375    3.500    5.000 
#    0.000    2.500    0.000    0.000    0.000    0.000 
#    0.000    9.000    0.000    6.500    0.000    0.000 
#
# Total GULP energy -178467.889852 kJ/mol
# GULP energy per Si atom -5577.121558 kJ/mol
# Density = 1.918625 g / cm^3
# Si number density = 19.230016 Si / 1000 Ang^3
#
#
#
# Elastic Constant Matrix: (Units=GPa)
#
#
# Indices 1 2 3 4 5 6 
#
# 1 105.2290 48.2266 51.4284 0.0000 0.0000 0.0000
# 2 48.2266 113.1713 34.1297 0.0000 0.0000 0.0000
# 3 51.4284 34.1297 82.0210 0.0000 0.0000 0.0000
# 4 0.0000 0.0000 0.0000 8.3820 0.0000 0.0000
# 5 0.0000 0.0000 0.0000 0.0000 17.4498 0.0000
# 6 0.0000 0.0000 0.0000 0.0000 0.0000 25.9347
#
#
#
# Elastic Compliance Matrix: (Units=1/GPa)
#
#
# Indices 1 2 3 4 5 6 
#
# 1 0.015218 -0.004125 -0.007826 0.000000 0.000000 0.000000
# 2 -0.004125 0.011222 -0.002083 0.000000 0.000000 0.000000
# 3 -0.007826 -0.002083 0.017966 0.000000 0.000000 0.000000
# 4 0.000000 0.000000 0.000000 0.119303 0.000000 0.000000
# 5 0.000000 0.000000 0.000000 0.000000 0.057307 0.000000
# 6 0.000000 0.000000 0.000000 0.000000 0.000000 0.038558
#
#
# Mechanical properties :
#
#
# Convention : Reuss Voigt Hill
#
# Bulk Modulus (GPa) = 61.20561 63.11009 62.15785
# Shear Modulus (GPa) = 17.05969 21.46240 19.26105
#
# Velocity S-wave (km/s) = 2.98172 3.34442 3.16826
# Velocity P-wave (km/s) = 6.61449 6.91399 6.76590
#
# Compressibility (1/GPa) = 0.01633837
#
# Stress axis : x y z
#
# Youngs Moduli (GPa) = 65.71096 89.10874 55.66201
#
# Poissons Ratio (x) = 0.36758 0.43559
# Poissons Ratio (y) = 0.27106 0.11596
# Poissons Ratio (z) = 0.51422 0.18563
#
# Static dielectric constant tensor:
#      x y z
#    x 1.722860 0.000000 0.000000 
#    y 0.000000 1.711230 0.000000 
#    z 0.000000 0.000000 1.650810 
# 
# From -- ./inp_files/13430.got.cif
#   From: 2010.05.17/outbox.cif.g08.bks.cpg/sg44_7_cif.got.tgz:13430.got - 2010.06.03 19:37:08.
