data_PCOD9375386
_publ_section_title
;
Structure prediction by ZEFSAII (Michael W. Deem and Ramdas Pophale) SiO2 
 PCOD9375386
Probable space group: I M M 2
;
_chemical_formula_sum "Si O2"
_cell_formula_units_Z 56
_cell_length_a 14.632634
_cell_length_b 8.668892
_cell_length_c 23.402593
_cell_angle_alpha 90.000000
_cell_angle_beta 90.000000
_cell_angle_gamma 90.000000
_cell_volume 2968.589056
_symmetry_space_group_name_H-M "I M M 2"
_symmetry_group_IT_number 44
_symmetry_cell_setting 'orthorhombic'
loop_
_space_group_symop_operation_xyz
x,y,z
-x,-y,z
-x,y,z
x,-y,z
1/2+x,1/2+y,1/2+z
1/2-x,1/2-y,1/2+z
1/2-x,1/2+y,1/2+z
1/2+x,1/2-y,1/2+z
loop_
_atom_site_type_symbol
_atom_site_label
_atom_site_fract_x
_atom_site_fract_y
_atom_site_fract_z
Si Si1 0.901290 0.182106 0.808860
Si Si2 0.394372 0.815844 0.949904
Si Si3 0.296023 0.315189 0.838899
Si Si4 0.330591 0.679934 0.186983
Si Si5 0.854918 0.178392 0.218174
Si Si6 0.700948 0.683876 0.061051
Si Si7 0.402279 0.184651 0.600105
O O1 0.808541 0.258351 0.831683
O O2 0.898964 0.193533 0.739578
O O3 0.000000 0.242407 0.829308
O O4 0.896222 0.000000 0.822394
O O5 0.500000 0.763604 0.949899
O O6 0.340607 0.744533 0.896600
O O7 0.392791 0.000000 0.944754
O O8 0.345832 0.766849 0.008508
O O9 0.295714 0.500000 0.837485
O O10 0.355955 0.263383 0.783446
O O11 0.295651 0.500000 0.189170
O O12 0.251477 0.800108 0.202203
O O13 0.353802 0.705701 0.120878
O O14 0.901029 0.270554 0.166982
O O15 0.882967 0.000000 0.216161
O O16 0.703229 0.500000 0.049744
O O17 0.806101 0.737540 0.072656
O O18 0.500000 0.240669 0.575770
O O19 0.400690 0.000000 0.595658
#
# Coordination Sequence:
#
# PCOD9375386 Si02
#       7
#     8   8   8   8   8   8   8
#     4   9  17  31  54  84 116 147 178 214 258 312
#     4  11  25  42  58  76  99 133 179 228 276 324
#     4  10  21  37  56  78 107 143 181 223 269 317
#     4   8  15  29  50  76 106 141 176 207 248 304
#     4   9  17  29  48  76 107 137 171 212 257 302
#     4   9  18  34  56  80 107 140 177 218 262 309
#     4   9  18  33  54  81 112 144 175 207 252 315
#
# _framework density 18.864180000000001
#
# number of rings (size 3 to 8) (size 9 to 14) (size 15 to 20)
#    0.000    2.714    0.000    2.143    0.000    6.857 
#    0.000    5.000    0.000    2.571    0.000    0.000 
#    0.000    0.000    0.000    0.000    0.000    0.000 
#
# Total GULP energy -155897.024755 kJ/mol
# GULP energy per Si atom -5567.750884 kJ/mol
# Density = 1.882124 g / cm^3
# Si number density = 18.864180 Si / 1000 Ang^3
#
#
#
# Elastic Constant Matrix: (Units=GPa)
#
#
# Indices 1 2 3 4 5 6 
#
# 1 130.1204 26.5813 57.9069 0.0000 0.0000 0.0000
# 2 26.5813 21.6361 26.3205 0.0000 0.0000 0.0000
# 3 57.9069 26.3205 118.6880 0.0000 0.0000 0.0000
# 4 0.0000 0.0000 0.0000 28.1061 0.0000 0.0000
# 5 0.0000 0.0000 0.0000 0.0000 9.9398 0.0000
# 6 0.0000 0.0000 0.0000 0.0000 0.0000 8.2956
#
#
#
# Elastic Compliance Matrix: (Units=1/GPa)
#
#
# Indices 1 2 3 4 5 6 
#
# 1 0.011121 -0.009671 -0.003281 0.000000 0.000000 0.000000
# 2 -0.009671 0.071705 -0.011183 0.000000 0.000000 0.000000
# 3 -0.003281 -0.011183 0.012506 0.000000 0.000000 0.000000
# 4 0.000000 0.000000 0.000000 0.035579 0.000000 0.000000
# 5 0.000000 0.000000 0.000000 0.000000 0.100605 0.000000
# 6 0.000000 0.000000 0.000000 0.000000 0.000000 0.120546
#
#
# Mechanical properties :
#
#
# Convention : Reuss Voigt Hill
#
# Bulk Modulus (GPa) = 21.24875 54.67354 37.96114
# Shear Modulus (GPa) = 12.01862 19.91070 15.96466
#
# Velocity S-wave (km/s) = 2.52685 3.25233 2.91227
# Velocity P-wave (km/s) = 4.44992 6.56881 5.61030
#
# Compressibility (1/GPa) = 0.04706160
#
# Stress axis : x y z
#
# Youngs Moduli (GPa) = 89.91935 13.94601 79.96020
#
# Poissons Ratio (x) = 0.13488 0.26236
# Poissons Ratio (y) = 0.86965 0.89418
# Poissons Ratio (z) = 0.29504 0.15596
#
# Static dielectric constant tensor:
#      x y z
#    x 1.700330 0.000000 0.000000 
#    y 0.000000 1.645740 0.000000 
#    z 0.000000 0.000000 1.650950 
# 
# From -- ./inp_files/24133.got.cif
#   From: 2010.05.17/outbox.cif.g08.bks.cpg/sg44_13_cif.got.tgz:24133.got - 2010.06.03 19:37:08.
