data_PCOD9375692
_publ_section_title
;
Structure prediction by ZEFSAII (Michael W. Deem and Ramdas Pophale) SiO2 
 PCOD9375692
Probable space group: I M M 2
;
_chemical_formula_sum "Si O2"
_cell_formula_units_Z 48
_cell_length_a 28.888912
_cell_length_b 7.987379
_cell_length_c 9.788181
_cell_angle_alpha 90.000000
_cell_angle_beta 90.000000
_cell_angle_gamma 90.000000
_cell_volume 2258.590357
_symmetry_space_group_name_H-M "I M M 2"
_symmetry_group_IT_number 44
_symmetry_cell_setting 'orthorhombic'
loop_
_space_group_symop_operation_xyz
x,y,z
-x,-y,z
-x,y,z
x,-y,z
1/2+x,1/2+y,1/2+z
1/2-x,1/2-y,1/2+z
1/2-x,1/2+y,1/2+z
1/2+x,1/2-y,1/2+z
loop_
_atom_site_type_symbol
_atom_site_label
_atom_site_fract_x
_atom_site_fract_y
_atom_site_fract_z
Si Si1 0.300121 0.199834 0.343620
Si Si2 0.619889 0.199744 0.148533
Si Si3 0.055539 0.000000 0.008104
Si Si4 0.054372 0.692646 0.195055
Si Si5 0.780427 0.191831 0.150759
Si Si6 0.144593 0.306353 0.353169
Si Si7 0.054807 0.000000 0.688225
O O1 0.349814 0.246255 0.281055
O O2 0.260650 0.270736 0.242065
O O3 0.291326 0.237243 0.501726
O O4 0.297981 0.000000 0.331440
O O5 0.577961 0.329181 0.135039
O O6 0.607746 0.000000 0.152043
O O7 0.651194 0.225616 0.013020
O O8 0.065484 0.000000 0.849704
O O9 0.069847 0.830333 0.084755
O O10 0.000000 0.000000 0.018552
O O11 0.058726 0.500000 0.145036
O O12 0.090130 0.712177 0.319066
O O13 0.000000 0.718071 0.229732
O O14 0.824878 0.201293 0.249627
O O15 0.768001 0.000000 0.124218
O O16 0.156611 0.500000 0.325940
O O17 0.000000 0.000000 0.665815
#
# Coordination Sequence:
#
# PCOD9375692 Si02
#       7
#     8   8   4   8   8   8   4
#     4  10  23  43  62  92 131 171 218 264 330 398
#     4  10  24  44  66  92 132 177 218 274 329 395
#     4   9  20  37  57  85 125 161 201 265 323 380
#     4   9  19  35  58  87 120 162 211 262 319 386
#     4  11  24  39  66  98 128 170 217 271 328 394
#     4  10  22  40  61  91 128 166 211 266 329 386
#     4  11  26  43  65  99 131 173 227 277 336 398
#
# _framework density 21.252193999999999
#
# number of rings (size 3 to 8) (size 9 to 14) (size 15 to 20)
#    0.000    2.000    0.000    1.500    5.833    4.333 
#    0.000    4.167    0.000    0.000    0.000    0.000 
#    0.000    0.000    0.000    0.000    0.000    0.000 
#
# Total GULP energy -133919.442174 kJ/mol
# GULP energy per Si atom -5579.976757 kJ/mol
# Density = 2.120382 g / cm^3
# Si number density = 21.252194 Si / 1000 Ang^3
#
#
#
# Elastic Constant Matrix: (Units=GPa)
#
#
# Indices 1 2 3 4 5 6 
#
# 1 91.9130 44.8196 32.2895 0.0000 0.0000 0.0000
# 2 44.8196 65.8962 38.5947 0.0000 0.0000 0.0000
# 3 32.2895 38.5947 96.0830 0.0000 0.0000 0.0000
# 4 0.0000 0.0000 0.0000 18.8728 0.0000 0.0000
# 5 0.0000 0.0000 0.0000 0.0000 30.2155 0.0000
# 6 0.0000 0.0000 0.0000 0.0000 0.0000 23.3600
#
#
#
# Elastic Compliance Matrix: (Units=1/GPa)
#
#
# Indices 1 2 3 4 5 6 
#
# 1 0.016412 -0.010372 -0.001349 0.000000 0.000000 0.000000
# 2 -0.010372 0.026399 -0.007118 0.000000 0.000000 0.000000
# 3 -0.001349 -0.007118 0.013720 0.000000 0.000000 0.000000
# 4 0.000000 0.000000 0.000000 0.052986 0.000000 0.000000
# 5 0.000000 0.000000 0.000000 0.000000 0.033096 0.000000
# 6 0.000000 0.000000 0.000000 0.000000 0.000000 0.042808
#
#
# Mechanical properties :
#
#
# Convention : Reuss Voigt Hill
#
# Bulk Modulus (GPa) = 53.04490 53.92221 53.48356
# Shear Modulus (GPa) = 21.79742 23.70221 22.74981
#
# Velocity S-wave (km/s) = 3.20606 3.34321 3.27535
# Velocity P-wave (km/s) = 6.22246 6.35062 6.28687
#
# Compressibility (1/GPa) = 0.01885195
#
# Stress axis : x y z
#
# Youngs Moduli (GPa) = 60.93240 37.87967 72.88488
#
# Poissons Ratio (x) = 0.39290 0.09831
# Poissons Ratio (y) = 0.63202 0.51882
# Poissons Ratio (z) = 0.08219 0.26964
#
# Static dielectric constant tensor:
#      x y z
#    x 1.794810 0.000000 0.000000 
#    y 0.000000 1.785840 0.000000 
#    z 0.000000 0.000000 1.754770 
# 
# From -- ./inp_files/9985.got.cif
#   From: 2010.05.17/outbox.cif.g08.bks.cpg/sg44_5_cif.got.tgz:9985.got - 2010.06.03 19:37:08.
