data_PCOD9375787
_publ_section_title
;
Structure prediction by ZEFSAII (Michael W. Deem and Ramdas Pophale) SiO2 
 PCOD9375787
Probable space group: I M M 2
;
_chemical_formula_sum "Si O2"
_cell_formula_units_Z 48
_cell_length_a 14.155576
_cell_length_b 18.862635
_cell_length_c 6.890246
_cell_angle_alpha 90.000000
_cell_angle_beta 90.000000
_cell_angle_gamma 90.000000
_cell_volume 1839.774667
_symmetry_space_group_name_H-M "I M M 2"
_symmetry_group_IT_number 44
_symmetry_cell_setting 'orthorhombic'
loop_
_space_group_symop_operation_xyz
x,y,z
-x,-y,z
-x,y,z
x,-y,z
1/2+x,1/2+y,1/2+z
1/2-x,1/2-y,1/2+z
1/2-x,1/2+y,1/2+z
1/2+x,1/2-y,1/2+z
loop_
_atom_site_type_symbol
_atom_site_label
_atom_site_fract_x
_atom_site_fract_y
_atom_site_fract_z
Si Si1 0.391025 0.225550 0.833450
Si Si2 0.264760 0.657866 0.860707
Si Si3 0.601822 0.919469 0.457360
Si Si4 0.611169 0.582817 0.537995
Si Si5 0.109987 0.576901 0.488490
Si Si6 0.391286 0.269947 0.375331
O O1 0.500000 0.222667 0.881998
O O2 0.345962 0.292274 0.942625
O O3 0.383777 0.247964 0.606687
O O4 0.351528 0.148955 0.895972
O O5 0.201528 0.613522 0.008390
O O6 0.314911 0.605737 0.706367
O O7 0.188533 0.717962 0.788936
O O8 0.500000 0.886935 0.512921
O O9 0.606540 0.917880 0.222307
O O10 0.599013 0.000000 0.519548
O O11 0.500000 0.590291 0.601717
O O12 0.623467 0.500000 0.484714
O O13 0.623279 0.645244 0.378588
O O14 0.153869 0.500000 0.442693
O O15 0.000000 0.572942 0.428650
O O16 0.500000 0.255094 0.315769
#
# Coordination Sequence:
#
# PCOD9375787 Si02
#       6
#     8   8   8   8   8   8
#     4   9  19  33  48  70 103 137 171 212 257 312
#     4  11  19  29  51  76 105 136 170 217 268 317
#     4   9  18  31  48  74 104 130 163 210 262 312
#     4   9  19  37  58  79 106 143 187 226 260 311
#     4   8  15  30  50  69  93 128 168 209 252 301
#     4   9  19  34  50  74 109 141 173 218 270 320
#
# _framework density 26.090152
#
# number of rings (size 3 to 8) (size 9 to 14) (size 15 to 20)
#    0.000    2.833    0.000    3.500    4.667    0.000 
#    0.000    1.667    0.000    4.000    0.000    0.000 
#    0.000   10.667    0.000    0.000    0.000    0.000 
#
# Total GULP energy -134035.447384 kJ/mol
# GULP energy per Si atom -5584.810308 kJ/mol
# Density = 2.603077 g / cm^3
# Si number density = 26.090152 Si / 1000 Ang^3
#
#
#
# Elastic Constant Matrix: (Units=GPa)
#
#
# Indices 1 2 3 4 5 6 
#
# 1 170.4536 49.1337 0.5719 0.0000 0.0000 0.0000
# 2 49.1337 228.8206 10.4100 0.0000 0.0000 0.0000
# 3 0.5719 10.4100 108.8158 0.0000 0.0000 0.0000
# 4 0.0000 0.0000 0.0000 30.2397 0.0000 0.0000
# 5 0.0000 0.0000 0.0000 0.0000 9.9257 0.0000
# 6 0.0000 0.0000 0.0000 0.0000 0.0000 47.8898
#
#
#
# Elastic Compliance Matrix: (Units=1/GPa)
#
#
# Indices 1 2 3 4 5 6 
#
# 1 0.006255 -0.001347 0.000096 0.000000 0.000000 0.000000
# 2 -0.001347 0.004680 -0.000441 0.000000 0.000000 0.000000
# 3 0.000096 -0.000441 0.009231 0.000000 0.000000 0.000000
# 4 0.000000 0.000000 0.000000 0.033069 0.000000 0.000000
# 5 0.000000 0.000000 0.000000 0.000000 0.100749 0.000000
# 6 0.000000 0.000000 0.000000 0.000000 0.000000 0.020881
#
#
# Mechanical properties :
#
#
# Convention : Reuss Voigt Hill
#
# Bulk Modulus (GPa) = 59.58811 69.81347 64.70079
# Shear Modulus (GPa) = 27.19707 47.47598 37.33653
#
# Velocity S-wave (km/s) = 3.23217 4.27041 3.78704
# Velocity P-wave (km/s) = 6.06779 7.15065 6.63136
#
# Compressibility (1/GPa) = 0.01678187
#
# Stress axis : x y z
#
# Youngs Moduli (GPa) = 159.87776 213.69308 108.32493
#
# Poissons Ratio (x) = 0.28794 -0.01040
# Poissons Ratio (y) = 0.21542 0.04773
# Poissons Ratio (z) = -0.01535 0.09415
#
# Static dielectric constant tensor:
#      x y z
#    x 2.075380 0.000000 0.000000 
#    y 0.000000 2.093170 0.000000 
#    z 0.000000 0.000000 2.101050 
# 
# From -- ./inp_files/7113.got.cif
#   From: 2010.05.17/outbox.cif.g08.bks.cpg/sg44_4_cif.got.tgz:7113.got - 2010.06.03 19:37:08.
