data_PCOD9375885
_publ_section_title
;
Structure prediction by ZEFSAII (Michael W. Deem and Ramdas Pophale) SiO2 
 PCOD9375885
Probable space group: I M M 2
;
_chemical_formula_sum "Si O2"
_cell_formula_units_Z 24
_cell_length_a 10.408329
_cell_length_b 11.200497
_cell_length_c 9.436352
_cell_angle_alpha 90.000000
_cell_angle_beta 90.000000
_cell_angle_gamma 90.000000
_cell_volume 1100.075363
_symmetry_space_group_name_H-M "I M M 2"
_symmetry_group_IT_number 44
_symmetry_cell_setting 'orthorhombic'
loop_
_space_group_symop_operation_xyz
x,y,z
-x,-y,z
-x,y,z
x,-y,z
1/2+x,1/2+y,1/2+z
1/2-x,1/2-y,1/2+z
1/2-x,1/2+y,1/2+z
1/2+x,1/2-y,1/2+z
loop_
_atom_site_type_symbol
_atom_site_label
_atom_site_fract_x
_atom_site_fract_y
_atom_site_fract_z
Si Si1 0.000000 0.131696 0.018440
Si Si2 0.000000 0.367735 0.218885
Si Si3 0.351872 0.364807 0.025328
Si Si4 0.770196 0.205454 0.820257
O O1 0.000000 0.249437 0.118439
O O2 0.875878 0.141170 0.916515
O O3 0.000000 0.000000 0.089567
O O4 0.868439 0.357989 0.307923
O O5 0.000000 0.500000 0.148650
O O6 0.500000 0.353759 0.983019
O O7 0.329887 0.500000 0.073329
O O8 0.322235 0.284096 0.161246
O O9 0.261105 0.329478 0.897005
#
# Coordination Sequence:
#
# PCOD9375885 Si02
#       4
#     4   4   8   8
#     4  12  26  43  70 102 140 184 230 279 348 416
#     4  12  26  45  70 100 140 180 230 291 346 402
#     4  11  24  45  70 100 140 183 227 284 350 414
#     4  12  24  44  71 101 135 179 231 282 343 406
#
# _framework density 21.816686000000001
#
# number of rings (size 3 to 8) (size 9 to 14) (size 15 to 20)
#    0.000    0.333    6.667    3.000    0.000    1.333 
#    0.000    0.000    0.000    0.000    0.000    0.000 
#    0.000    0.000    0.000    0.000    0.000    0.000 
#
# Total GULP energy -67042.321345 kJ/mol
# GULP energy per Si atom -5586.860112 kJ/mol
# Density = 2.176703 g / cm^3
# Si number density = 21.816686 Si / 1000 Ang^3
#
#
#
# Elastic Constant Matrix: (Units=GPa)
#
#
# Indices 1 2 3 4 5 6 
#
# 1 147.1885 45.0720 21.9660 0.0000 0.0000 0.0000
# 2 45.0720 95.2376 59.5698 0.0000 0.0000 0.0000
# 3 21.9660 59.5698 80.2545 0.0000 0.0000 0.0000
# 4 0.0000 0.0000 0.0000 27.9753 0.0000 0.0000
# 5 0.0000 0.0000 0.0000 0.0000 45.4687 0.0000
# 6 0.0000 0.0000 0.0000 0.0000 0.0000 11.4707
#
#
#
# Elastic Compliance Matrix: (Units=1/GPa)
#
#
# Indices 1 2 3 4 5 6 
#
# 1 0.008003 -0.004512 0.001159 0.000000 0.000000 0.000000
# 2 -0.004512 0.022144 -0.015201 0.000000 0.000000 0.000000
# 3 0.001159 -0.015201 0.023427 0.000000 0.000000 0.000000
# 4 0.000000 0.000000 0.000000 0.035746 0.000000 0.000000
# 5 0.000000 0.000000 0.000000 0.000000 0.021993 0.000000
# 6 0.000000 0.000000 0.000000 0.000000 0.000000 0.087178
#
#
# Mechanical properties :
#
#
# Convention : Reuss Voigt Hill
#
# Bulk Modulus (GPa) = 60.74026 63.98846 62.36436
# Shear Modulus (GPa) = 20.73931 30.05447 25.39689
#
# Velocity S-wave (km/s) = 3.08655 3.71562 3.41560
# Velocity P-wave (km/s) = 6.37213 6.91386 6.64852
#
# Compressibility (1/GPa) = 0.01646354
#
# Stress axis : x y z
#
# Youngs Moduli (GPa) = 124.95632 45.15936 42.68647
#
# Poissons Ratio (x) = 0.20377 -0.04947
# Poissons Ratio (y) = 0.56383 0.64890
# Poissons Ratio (z) = -0.14481 0.68649
#
# Static dielectric constant tensor:
#      x y z
#    x 1.799920 0.000000 0.000000 
#    y 0.000000 1.801920 0.000000 
#    z 0.000000 0.000000 1.801390 
# 
# From -- ./inp_files/5157.got.cif
#   From: 2010.05.17/outbox.cif.g08.bks.cpg/sg44_3_cif.got.tgz:5157.got - 2010.06.03 19:37:08.
