data_PCOD9375792
_publ_section_title
;
Structure prediction by ZEFSAII (Michael W. Deem and Ramdas Pophale) SiO2 
 PCOD9375792
Probable space group: I M M 2
;
_chemical_formula_sum "Si O2"
_cell_formula_units_Z 64
_cell_length_a 8.846664
_cell_length_b 27.504621
_cell_length_c 18.701597
_cell_angle_alpha 90.000000
_cell_angle_beta 90.000000
_cell_angle_gamma 90.000000
_cell_volume 4550.550015
_symmetry_space_group_name_H-M "I M M 2"
_symmetry_group_IT_number 44
_symmetry_cell_setting 'orthorhombic'
loop_
_space_group_symop_operation_xyz
x,y,z
-x,-y,z
-x,y,z
x,-y,z
1/2+x,1/2+y,1/2+z
1/2-x,1/2-y,1/2+z
1/2-x,1/2+y,1/2+z
1/2+x,1/2-y,1/2+z
loop_
_atom_site_type_symbol
_atom_site_label
_atom_site_fract_x
_atom_site_fract_y
_atom_site_fract_z
Si Si1 0.679501 0.739725 0.839220
Si Si2 0.179501 0.260275 0.683005
Si Si3 0.316767 0.649168 0.596644
Si Si4 0.817876 0.944744 0.183289
Si Si5 0.683233 0.850833 0.425582
Si Si6 0.325862 0.797811 0.562137
Si Si7 0.182124 0.444744 0.838936
Si Si8 0.174138 0.202190 0.960088
O O1 0.500000 0.736049 0.834721
O O2 0.750000 0.745623 0.761113
O O3 0.745778 0.690704 0.875408
O O4 0.727754 0.783587 0.891934
O O5 0.245777 0.309296 0.646817
O O6 0.227754 0.216413 0.630292
O O7 0.000000 0.263951 0.687505
O O8 0.500000 0.654270 0.599907
O O9 0.273863 0.596571 0.626877
O O10 0.273612 0.660141 0.514403
O O11 0.750000 0.933339 0.261113
O O12 0.000000 0.943826 0.188871
O O13 0.772166 0.000000 0.164419
O O14 0.500000 0.845730 0.422319
O O15 0.726389 0.839859 0.507822
O O16 0.726137 0.903429 0.395349
O O17 0.500000 0.806209 0.583834
O O18 0.325212 0.750000 0.511113
O O19 0.227834 0.500000 0.857806
O O20 0.000000 0.443826 0.833354
O O21 0.000000 0.193791 0.938391
#
# Coordination Sequence:
#
# PCOD9375792 Si02
#       8
#     8   8   8   8   8   8   8   8
#     4  11  20  28  40  58  80 105 134 165 196 234
#     4  11  20  28  40  58  80 105 134 165 196 234
#     4   9  17  29  43  58  79 107 135 164 198 233
#     4   9  17  28  41  58  80 106 136 167 196 226
#     4   9  17  29  43  58  79 107 135 164 198 233
#     4   8  15  28  42  56  77 103 130 161 197 234
#     4   9  17  28  41  58  80 106 136 167 196 226
#     4   8  15  28  42  56  77 103 130 161 197 234
#
# _framework density 14.064234000000001
#
# number of rings (size 3 to 8) (size 9 to 14) (size 15 to 20)
#    0.000    2.750    0.000    4.500    0.000    7.500 
#    0.000    0.000    0.000    0.000    0.000    0.000 
#    0.000    1.000    0.000    1.750    0.000    2.500 
#
# Total GULP energy -178225.964235 kJ/mol
# GULP energy per Si atom -5569.561382 kJ/mol
# Density = 1.403222 g / cm^3
# Si number density = 14.064234 Si / 1000 Ang^3
#
#
#
# Elastic Constant Matrix: (Units=GPa)
#
#
# Indices 1 2 3 4 5 6 
#
# 1 42.0279 21.2975 40.7353 0.0000 0.0000 0.0000
# 2 21.2975 82.5422 51.5327 0.0000 0.0000 0.0000
# 3 40.7353 51.5327 97.9968 0.0000 0.0000 0.0000
# 4 0.0000 0.0000 0.0000 27.2968 0.0000 0.0000
# 5 0.0000 0.0000 0.0000 0.0000 22.7105 0.0000
# 6 0.0000 0.0000 0.0000 0.0000 0.0000 6.9075
#
#
#
# Elastic Compliance Matrix: (Units=1/GPa)
#
#
# Indices 1 2 3 4 5 6 
#
# 1 0.039849 0.000089 -0.016611 0.000000 0.000000 0.000000
# 2 0.000089 0.018037 -0.009522 0.000000 0.000000 0.000000
# 3 -0.016611 -0.009522 0.022116 0.000000 0.000000 0.000000
# 4 0.000000 0.000000 0.000000 0.036634 0.000000 0.000000
# 5 0.000000 0.000000 0.000000 0.000000 0.044032 0.000000
# 6 0.000000 0.000000 0.000000 0.000000 0.000000 0.144771
#
#
# Mechanical properties :
#
#
# Convention : Reuss Voigt Hill
#
# Bulk Modulus (GPa) = 35.82424 49.96644 42.89534
# Shear Modulus (GPa) = 13.63018 18.64969 16.13994
#
# Velocity S-wave (km/s) = 3.11648 3.64543 3.39128
# Velocity P-wave (km/s) = 6.20299 7.30228 6.77497
#
# Compressibility (1/GPa) = 0.02791406
#
# Stress axis : x y z
#
# Youngs Moduli (GPa) = 25.09471 55.44255 45.21521
#
# Poissons Ratio (x) = -0.00492 0.75108
# Poissons Ratio (y) = -0.00223 0.43053
# Poissons Ratio (z) = 0.41685 0.52791
#
# Static dielectric constant tensor:
#      x y z
#    x 1.471940 0.000000 0.000000 
#    y 0.000000 1.473890 0.000000 
#    z 0.000000 0.000000 1.458770 
# 
# From -- ./inp_files/17095.got.cif
#   From: 2010.05.17/outbox.cif.g08.bks.cpg/sg44_9_cif.got.tgz:17095.got - 2010.06.03 19:37:08.
