data_PCOD9375292
_publ_section_title
;
Structure prediction by ZEFSAII (Michael W. Deem and Ramdas Pophale) SiO2 
 PCOD9375292
Probable space group: I M M 2
;
_chemical_formula_sum "Si O2"
_cell_formula_units_Z 64
_cell_length_a 8.938246
_cell_length_b 14.620356
_cell_length_c 28.644249
_cell_angle_alpha 90.000000
_cell_angle_beta 90.000000
_cell_angle_gamma 90.000000
_cell_volume 3743.240156
_symmetry_space_group_name_H-M "I M M 2"
_symmetry_group_IT_number 44
_symmetry_cell_setting 'orthorhombic'
loop_
_space_group_symop_operation_xyz
x,y,z
-x,-y,z
-x,y,z
x,-y,z
1/2+x,1/2+y,1/2+z
1/2-x,1/2-y,1/2+z
1/2-x,1/2+y,1/2+z
1/2+x,1/2-y,1/2+z
loop_
_atom_site_type_symbol
_atom_site_label
_atom_site_fract_x
_atom_site_fract_y
_atom_site_fract_z
Si Si1 0.322070 0.106701 0.706400
Si Si2 0.321232 0.893450 0.431975
Si Si3 0.178754 0.893231 0.330761
Si Si4 0.820372 0.106241 0.056923
Si Si5 0.822495 0.278290 0.747811
Si Si6 0.321051 0.278957 0.015086
Si Si7 0.823455 0.108981 0.165286
Si Si8 0.175921 0.891776 0.607641
O O1 0.500000 0.117074 0.710343
O O2 0.239841 0.176257 0.740585
O O3 0.270860 0.129793 0.653583
O O4 0.283297 0.000000 0.714215
O O5 0.500000 0.883330 0.429262
O O6 0.248610 0.875214 0.381552
O O7 0.253870 0.828067 0.471199
O O8 0.288030 0.000000 0.443775
O O9 0.248962 0.828484 0.291842
O O10 0.000000 0.882168 0.332263
O O11 0.210418 0.000000 0.319098
O O12 0.737611 0.176857 0.023699
O O13 0.782840 0.126668 0.111281
O O14 0.000000 0.115979 0.052596
O O15 0.783326 0.000000 0.048176
O O16 0.771946 0.334469 0.701883
O O17 0.000000 0.278088 0.751995
O O18 0.500000 0.281124 0.010287
O O19 0.280566 0.335072 0.062125
O O20 0.000000 0.130816 0.171501
O O21 0.806945 0.000000 0.173173
O O22 0.000000 0.874462 0.617716
O O23 0.192411 0.000000 0.597904
#
# Coordination Sequence:
#
# PCOD9375292 Si02
#       8
#     8   8   8   8   8   8   8   8
#     4  10  21  36  53  73 100 137 180 222 261 303
#     4  10  21  37  57  81 108 136 168 208 254 306
#     4  10  21  38  59  81 107 137 168 207 255 305
#     4   9  19  35  52  71 100 139 180 221 262 303
#     4  12  23  33  51  78 107 139 174 212 256 309
#     4  11  21  32  51  78 106 138 175 213 257 310
#     4   9  18  33  52  75 105 140 177 216 258 305
#     4   9  18  32  49  73 107 141 172 210 257 308
#
# _framework density 17.097487000000001
#
# number of rings (size 3 to 8) (size 9 to 14) (size 15 to 20)
#    0.000    2.000    0.000    4.875    0.000    8.250 
#    0.000    2.500    0.000    0.750    0.000    0.000 
#    0.000    0.000    0.000    0.000    0.000    0.000 
#
# Total GULP energy -178767.800207 kJ/mol
# GULP energy per Si atom -5586.493756 kJ/mol
# Density = 1.705857 g / cm^3
# Si number density = 17.097487 Si / 1000 Ang^3
#
#
#
# Elastic Constant Matrix: (Units=GPa)
#
#
# Indices 1 2 3 4 5 6 
#
# 1 80.2149 66.9492 68.7270 0.0000 0.0000 0.0000
# 2 66.9492 106.3287 92.3693 0.0000 0.0000 0.0000
# 3 68.7270 92.3693 109.7016 0.0000 0.0000 0.0000
# 4 0.0000 0.0000 0.0000 32.3812 0.0000 0.0000
# 5 0.0000 0.0000 0.0000 0.0000 31.1875 0.0000
# 6 0.0000 0.0000 0.0000 0.0000 0.0000 26.4438
#
#
#
# Elastic Compliance Matrix: (Units=1/GPa)
#
#
# Indices 1 2 3 4 5 6 
#
# 1 0.029180 -0.009280 -0.010467 0.000000 0.000000 0.000000
# 2 -0.009280 0.037974 -0.026160 0.000000 0.000000 0.000000
# 3 -0.010467 -0.026160 0.037700 0.000000 0.000000 0.000000
# 4 0.000000 0.000000 0.000000 0.030882 0.000000 0.000000
# 5 0.000000 0.000000 0.000000 0.000000 0.032064 0.000000
# 6 0.000000 0.000000 0.000000 0.000000 0.000000 0.037816
#
#
# Mechanical properties :
#
#
# Convention : Reuss Voigt Hill
#
# Bulk Modulus (GPa) = 76.69213 83.59291 80.14252
# Shear Modulus (GPa) = 16.56852 22.54915 19.55884
#
# Velocity S-wave (km/s) = 3.11635 3.63555 3.38592
# Velocity P-wave (km/s) = 7.60934 8.16217 7.89060
#
# Compressibility (1/GPa) = 0.01303915
#
# Stress axis : x y z
#
# Youngs Moduli (GPa) = 34.27014 26.33404 26.52503
#
# Poissons Ratio (x) = 0.24438 0.27764
# Poissons Ratio (y) = 0.31803 0.69390
# Poissons Ratio (z) = 0.35871 0.68890
#
# Static dielectric constant tensor:
#      x y z
#    x 1.567100 0.000000 0.000000 
#    y 0.000000 1.584200 0.000000 
#    z 0.000000 0.000000 1.546260 
# 
# From -- ./inp_files/25117.got.cif
#   From: 2010.05.17/outbox.cif.g08.bks.cpg/sg44_13_cif.got.tgz:25117.got - 2010.06.03 19:37:08.
