data_PCOD9375539
_publ_section_title
;
Structure prediction by ZEFSAII (Michael W. Deem and Ramdas Pophale) SiO2 
 PCOD9375539
Probable space group: I M M 2
;
_chemical_formula_sum "Si O2"
_cell_formula_units_Z 48
_cell_length_a 8.668430
_cell_length_b 15.522532
_cell_length_c 19.478351
_cell_angle_alpha 90.000000
_cell_angle_beta 90.000000
_cell_angle_gamma 90.000000
_cell_volume 2620.928648
_symmetry_space_group_name_H-M "I M M 2"
_symmetry_group_IT_number 44
_symmetry_cell_setting 'orthorhombic'
loop_
_space_group_symop_operation_xyz
x,y,z
-x,-y,z
-x,y,z
x,-y,z
1/2+x,1/2+y,1/2+z
1/2-x,1/2-y,1/2+z
1/2-x,1/2+y,1/2+z
1/2+x,1/2-y,1/2+z
loop_
_atom_site_type_symbol
_atom_site_label
_atom_site_fract_x
_atom_site_fract_y
_atom_site_fract_z
Si Si1 0.814227 0.000000 0.738981
Si Si2 0.184937 0.649699 0.487216
Si Si3 0.312450 0.500000 0.081157
Si Si4 0.816176 0.000000 0.080643
Si Si5 0.185808 0.000000 0.239094
Si Si6 0.685560 0.154965 0.828831
Si Si7 0.813389 0.847679 0.480873
Si Si8 0.315764 0.845702 0.329910
O O1 0.761592 0.000000 0.659755
O O2 0.751940 0.083971 0.777971
O O3 0.000000 0.000000 0.740833
O O4 0.258710 0.583451 0.539520
O O5 0.227421 0.631488 0.407779
O O6 0.226558 0.749457 0.500182
O O7 0.000000 0.641951 0.492187
O O8 0.500000 0.500000 0.082207
O O9 0.265322 0.415854 0.038269
O O10 0.763425 0.000000 0.159654
O O11 0.000000 0.000000 0.080999
O O12 0.248564 0.916036 0.278115
O O13 0.000000 0.000000 0.242041
O O14 0.500000 0.157517 0.824945
O O15 0.751188 0.250122 0.814881
O O16 0.739751 0.867669 0.407170
O O17 0.000000 0.851473 0.472899
O O18 0.500000 0.845313 0.326910
#
# Coordination Sequence:
#
# PCOD9375539 Si02
#       8
#     4   8   4   4   4   8   8   8
#     4  11  22  35  54  86 120 151 190 237 276 318
#     4   9  19  35  57  81 107 142 186 228 273 331
#     4   9  19  35  56  82 114 149 184 219 270 334
#     4  11  24  37  54  80 110 145 186 231 280 326
#     4  11  24  41  56  78 116 157 186 219 278 348
#     4  10  21  39  60  83 112 152 191 226 279 343
#     4   9  18  36  60  83 110 149 185 220 273 339
#     4  11  22  37  60  89 112 139 186 242 283 321
#
# _framework density 18.314119000000002
#
# number of rings (size 3 to 8) (size 9 to 14) (size 15 to 20)
#    0.000    2.000    0.000    4.750    0.000    8.667 
#    0.000    3.333    0.000    0.000    0.000    0.000 
#    0.000    0.000    0.000    0.000    0.000    0.000 
#
# Total GULP energy -134072.934458 kJ/mol
# GULP energy per Si atom -5586.372269 kJ/mol
# Density = 1.827243 g / cm^3
# Si number density = 18.314119 Si / 1000 Ang^3
#
#
#
# Elastic Constant Matrix: (Units=GPa)
#
#
# Indices 1 2 3 4 5 6 
#
# 1 64.1200 52.1182 58.8417 0.0000 0.0000 0.0000
# 2 52.1182 152.0019 145.1397 0.0000 0.0000 0.0000
# 3 58.8417 145.1397 185.9908 0.0000 0.0000 0.0000
# 4 0.0000 0.0000 0.0000 -24.7016 0.0000 0.0000
# 5 0.0000 0.0000 0.0000 0.0000 27.7537 0.0000
# 6 0.0000 0.0000 0.0000 0.0000 0.0000 28.3847
#
#
#
# Elastic Compliance Matrix: (Units=1/GPa)
#
#
# Indices 1 2 3 4 5 6 
#
# 1 0.022466 -0.003596 -0.004302 0.000000 0.000000 0.000000
# 2 -0.003596 0.026388 -0.019455 0.000000 0.000000 0.000000
# 3 -0.004302 -0.019455 0.021919 0.000000 0.000000 0.000000
# 4 0.000000 0.000000 0.000000 -0.040483 0.000000 0.000000
# 5 0.000000 0.000000 0.000000 0.000000 0.036031 0.000000
# 6 0.000000 0.000000 0.000000 0.000000 0.000000 0.035230
#
#
# Mechanical properties :
#
#
# Convention : Reuss Voigt Hill
#
# Bulk Modulus (GPa) = 62.23051 101.59022 81.91036
# Shear Modulus (GPa) = 30.93837 16.02157 23.47997
#
# Velocity S-wave (km/s) = 4.11459 2.96095 3.58448
# Velocity P-wave (km/s) = 7.52505 8.20250 7.87107
#
# Compressibility (1/GPa) = 0.01606929
#
# Stress axis : x y z
#
# Youngs Moduli (GPa) = 44.51187 37.89586 45.62229
#
# Poissons Ratio (x) = 0.13626 0.19625
# Poissons Ratio (y) = 0.16005 0.88757
# Poissons Ratio (z) = 0.19147 0.73725
#
# Static dielectric constant tensor:
#      x y z
#    x 1.617890 0.000000 0.000000 
#    y 0.000000 1.612310 0.000000 
#    z 0.000000 0.000000 1.607410 
# 
# From -- ./inp_files/20385.got.cif
#   From: 2010.05.17/outbox.cif.g08.bks.cpg/sg44_11_cif.got.tgz:20385.got - 2010.06.03 19:37:08.
