data_PCOD9375467
_publ_section_title
;
Structure prediction by ZEFSAII (Michael W. Deem and Ramdas Pophale) SiO2 
 PCOD9375467
Probable space group: I M M 2
;
_chemical_formula_sum "Si O2"
_cell_formula_units_Z 48
_cell_length_a 17.547243
_cell_length_b 7.957465
_cell_length_c 17.194870
_cell_angle_alpha 90.000000
_cell_angle_beta 90.000000
_cell_angle_gamma 90.000000
_cell_volume 2400.946729
_symmetry_space_group_name_H-M "I M M 2"
_symmetry_group_IT_number 44
_symmetry_cell_setting 'orthorhombic'
loop_
_space_group_symop_operation_xyz
x,y,z
-x,-y,z
-x,y,z
x,-y,z
1/2+x,1/2+y,1/2+z
1/2-x,1/2-y,1/2+z
1/2-x,1/2+y,1/2+z
1/2+x,1/2-y,1/2+z
loop_
_atom_site_type_symbol
_atom_site_label
_atom_site_fract_x
_atom_site_fract_y
_atom_site_fract_z
Si Si1 0.688199 0.203382 0.090320
Si Si2 0.642490 0.800448 0.619749
Si Si3 0.500000 0.308859 0.518108
Si Si4 0.500000 0.803727 0.345466
Si Si5 0.677199 0.201818 0.793048
Si Si6 0.653257 0.203179 0.265188
Si Si7 0.912487 0.294044 0.444644
O O1 0.774786 0.265307 0.083165
O O2 0.656673 0.257197 0.174751
O O3 0.689849 0.000000 0.090074
O O4 0.635450 0.260064 0.019669
O O5 0.574264 0.724523 0.570239
O O6 0.648717 0.735057 0.708752
O O7 0.629791 0.000000 0.622527
O O8 0.500000 0.500000 0.491881
O O9 0.500000 0.205482 0.438437
O O10 0.421755 0.732790 0.309312
O O11 0.500000 0.000000 0.322908
O O12 0.766405 0.242393 0.801778
O O13 0.628085 0.263415 0.865515
O O14 0.670217 0.000000 0.790706
O O15 0.652734 0.000000 0.266438
O O16 0.911853 0.500000 0.444328
O O17 0.000000 0.240805 0.448447
#
# Coordination Sequence:
#
# PCOD9375467 Si02
#       7
#     8   8   4   4   8   8   8
#     4   9  18  34  57  85 114 147 187 228 271 324
#     4  10  21  38  59  81 111 149 186 227 281 338
#     4  12  26  40  58  83 110 142 188 241 286 336
#     4  10  22  38  56  83 114 150 188 229 282 338
#     4   9  19  35  57  82 110 146 186 225 272 328
#     4   9  19  35  56  80 112 148 184 226 274 326
#     4   9  18  31  54  85 112 141 182 228 269 318
#
# _framework density 19.992114000000001
#
# number of rings (size 3 to 8) (size 9 to 14) (size 15 to 20)
#    0.000    2.500    0.000    1.250    4.667    1.333 
#    0.000    0.000    0.000    1.500    0.000    0.000 
#    0.000    0.000    0.000    0.000    0.000    0.000 
#
# Total GULP energy -133976.174531 kJ/mol
# GULP energy per Si atom -5582.340605 kJ/mol
# Density = 1.994661 g / cm^3
# Si number density = 19.992114 Si / 1000 Ang^3
#
#
#
# Elastic Constant Matrix: (Units=GPa)
#
#
# Indices 1 2 3 4 5 6 
#
# 1 147.3006 -8.3311 97.2774 0.0000 0.0000 0.0000
# 2 -8.3311 15.4038 -6.0475 0.0000 0.0000 0.0000
# 3 97.2774 -6.0475 105.9867 0.0000 0.0000 0.0000
# 4 0.0000 0.0000 0.0000 9.1073 0.0000 0.0000
# 5 0.0000 0.0000 0.0000 0.0000 32.1972 0.0000
# 6 0.0000 0.0000 0.0000 0.0000 0.0000 23.5855
#
#
#
# Elastic Compliance Matrix: (Units=1/GPa)
#
#
# Indices 1 2 3 4 5 6 
#
# 1 0.017390 0.003211 -0.015778 0.000000 0.000000 0.000000
# 2 0.003211 0.067000 0.000876 0.000000 0.000000 0.000000
# 3 -0.015778 0.000876 0.023967 0.000000 0.000000 0.000000
# 4 0.000000 0.000000 0.000000 0.109801 0.000000 0.000000
# 5 0.000000 0.000000 0.000000 0.000000 0.031059 0.000000
# 6 0.000000 0.000000 0.000000 0.000000 0.000000 0.042399
#
#
# Mechanical properties :
#
#
# Convention : Reuss Voigt Hill
#
# Bulk Modulus (GPa) = 11.76830 48.27651 30.02240
# Shear Modulus (GPa) = 14.56356 25.36418 19.96387
#
# Velocity S-wave (km/s) = 2.70194 3.56576 3.16347
# Velocity P-wave (km/s) = 3.95388 6.41506 5.32852
#
# Compressibility (1/GPa) = 0.08497408
#
# Stress axis : x y z
#
# Youngs Moduli (GPa) = 57.50336 14.92546 41.72468
#
# Poissons Ratio (x) = -0.04793 0.65833
# Poissons Ratio (y) = -0.18464 -0.03654
# Poissons Ratio (z) = 0.90729 -0.01307
#
# Static dielectric constant tensor:
#      x y z
#    x 1.667300 0.000000 0.000000 
#    y 0.000000 1.720900 0.000000 
#    z 0.000000 0.000000 1.694840 
# 
# From -- ./inp_files/16181.got.cif
#   From: 2010.05.17/outbox.cif.g08.bks.cpg/sg44_9_cif.got.tgz:16181.got - 2010.06.03 19:37:08.
