data_PCOD9375881
_publ_section_title
;
Structure prediction by ZEFSAII (Michael W. Deem and Ramdas Pophale) SiO2 
 PCOD9375881
Probable space group: I M M 2
;
_chemical_formula_sum "Si O2"
_cell_formula_units_Z 34
_cell_length_a 10.649276
_cell_length_b 7.743667
_cell_length_c 19.997948
_cell_angle_alpha 90.000000
_cell_angle_beta 90.000000
_cell_angle_gamma 90.000000
_cell_volume 1649.119726
_symmetry_space_group_name_H-M "I M M 2"
_symmetry_group_IT_number 44
_symmetry_cell_setting 'orthorhombic'
loop_
_space_group_symop_operation_xyz
x,y,z
-x,-y,z
-x,y,z
x,-y,z
1/2+x,1/2+y,1/2+z
1/2-x,1/2-y,1/2+z
1/2-x,1/2+y,1/2+z
1/2+x,1/2-y,1/2+z
loop_
_atom_site_type_symbol
_atom_site_label
_atom_site_fract_x
_atom_site_fract_y
_atom_site_fract_z
Si Si1 0.859745 0.708505 0.186010
Si Si2 0.142945 0.709011 0.031193
Si Si3 0.701185 0.190955 0.906614
Si Si4 0.860665 0.703415 0.787394
Si Si5 0.500000 0.500000 0.886701
O O1 0.862087 0.500000 0.187970
O O2 0.839839 0.759501 0.108739
O O3 0.747333 0.768038 0.232577
O O4 0.000000 0.768969 0.207381
O O5 0.151524 0.500000 0.027896
O O6 0.000000 0.756413 0.012280
O O7 0.243564 0.785187 0.980818
O O8 0.816000 0.205287 0.854671
O O9 0.608491 0.346985 0.889703
O O10 0.645470 0.000000 0.899293
O O11 0.865956 0.500000 0.801270
O O12 0.000000 0.760198 0.765685
#
# Coordination Sequence:
#
# PCOD9375881 Si02
#       5
#     8   8   8   8   2
#     4   9  20  38  64  94 127 170 221 270 325 390
#     4   9  18  39  66  93 128 172 217 271 328 383
#     4  12  25  42  69  96 128 170 224 269 327 395
#     4  11  24  42  62  91 132 176 218 274 332 384
#     4  12  26  48  62  98 132 176 208 278 336 390
#
# _framework density 20.617059999999999
#
# number of rings (size 3 to 8) (size 9 to 14) (size 15 to 20)
#    0.000    1.647    2.353    3.176    1.647    6.588 
#    2.118    2.353    0.000    0.000    0.000    0.000 
#    0.000    0.000    0.000    0.000    0.000    0.000 
#
# Total GULP energy -94732.525995 kJ/mol
# GULP energy per Si atom -5572.501529 kJ/mol
# Density = 2.057014 g / cm^3
# Si number density = 20.617060 Si / 1000 Ang^3
#
#
#
# Elastic Constant Matrix: (Units=GPa)
#
#
# Indices 1 2 3 4 5 6 
#
# 1 150.3121 39.1701 57.6353 0.0000 0.0000 0.0000
# 2 39.1701 120.2045 14.8090 0.0000 0.0000 0.0000
# 3 57.6353 14.8090 66.6083 0.0000 0.0000 0.0000
# 4 0.0000 0.0000 0.0000 27.4482 0.0000 0.0000
# 5 0.0000 0.0000 0.0000 0.0000 -11.5902 0.0000
# 6 0.0000 0.0000 0.0000 0.0000 0.0000 13.4776
#
#
#
# Elastic Compliance Matrix: (Units=1/GPa)
#
#
# Indices 1 2 3 4 5 6 
#
# 1 0.010582 -0.002386 -0.008626 0.000000 0.000000 0.000000
# 2 -0.002386 0.009091 0.000043 0.000000 0.000000 0.000000
# 3 -0.008626 0.000043 0.022468 0.000000 0.000000 0.000000
# 4 0.000000 0.000000 0.000000 0.036432 0.000000 0.000000
# 5 0.000000 0.000000 0.000000 0.000000 -0.086280 0.000000
# 6 0.000000 0.000000 0.000000 0.000000 0.000000 0.074197
#
#
# Mechanical properties :
#
#
# Convention : Reuss Voigt Hill
#
# Bulk Modulus (GPa) = 49.49645 62.26151 55.87898
# Shear Modulus (GPa) = 52.54143 20.90114 36.72128
#
# Velocity S-wave (km/s) = 5.05369 3.18744 4.22490
# Velocity P-wave (km/s) = 7.62317 6.61899 7.13875
#
# Compressibility (1/GPa) = 0.02020347
#
# Stress axis : x y z
#
# Youngs Moduli (GPa) = 94.49953 109.99615 44.50836
#
# Poissons Ratio (x) = 0.26240 0.38394
# Poissons Ratio (y) = 0.22543 -0.00191
# Poissons Ratio (z) = 0.81517 -0.00472
#
# Static dielectric constant tensor:
#      x y z
#    x 1.736910 0.000000 0.000000 
#    y 0.000000 1.750760 0.000000 
#    z 0.000000 0.000000 1.719090 
# 
# From -- ./inp_files/22555.got.cif
#   From: 2010.05.17/outbox.cif.g08.bks.cpg/sg44_12_cif.got.tgz:22555.got - 2010.06.03 19:37:08.
