data_PCOD9375370
_publ_section_title
;
Structure prediction by ZEFSAII (Michael W. Deem and Ramdas Pophale) SiO2 
 PCOD9375370
Probable space group: I M M 2
;
_chemical_formula_sum "Si O2"
_cell_formula_units_Z 64
_cell_length_a 8.834595
_cell_length_b 14.425392
_cell_length_c 24.794785
_cell_angle_alpha 90.000000
_cell_angle_beta 90.000000
_cell_angle_gamma 90.000000
_cell_volume 3159.909289
_symmetry_space_group_name_H-M "I M M 2"
_symmetry_group_IT_number 44
_symmetry_cell_setting 'orthorhombic'
loop_
_space_group_symop_operation_xyz
x,y,z
-x,-y,z
-x,y,z
x,-y,z
1/2+x,1/2+y,1/2+z
1/2-x,1/2-y,1/2+z
1/2-x,1/2+y,1/2+z
1/2+x,1/2-y,1/2+z
loop_
_atom_site_type_symbol
_atom_site_label
_atom_site_fract_x
_atom_site_fract_y
_atom_site_fract_z
Si Si1 0.820682 0.608564 0.573590
Si Si2 0.317866 0.609898 0.123690
Si Si3 0.178973 0.281309 0.023619
Si Si4 0.181813 0.395471 0.354357
Si Si5 0.815618 0.107289 0.304209
Si Si6 0.674968 0.386832 0.241984
Si Si7 0.317213 0.715661 0.911598
Si Si8 0.325215 0.386910 0.686788
O O1 0.783205 0.500000 0.566204
O O2 0.734714 0.676276 0.533451
O O3 0.773246 0.635608 0.634619
O O4 0.000000 0.620077 0.566841
O O5 0.500000 0.621771 0.122070
O O6 0.287080 0.500000 0.119506
O O7 0.243362 0.662012 0.074237
O O8 0.266274 0.643276 0.183234
O O9 0.000000 0.286082 0.022850
O O10 0.246288 0.316758 0.967266
O O11 0.238982 0.500000 0.363090
O O12 0.232909 0.361959 0.295176
O O13 0.228431 0.321663 0.398997
O O14 0.000000 0.397987 0.354373
O O15 0.769624 0.159938 0.358130
O O16 0.766564 0.144891 0.245465
O O17 0.000000 0.109885 0.302031
O O18 0.769760 0.000000 0.308592
O O19 0.500000 0.358428 0.247979
O O20 0.676052 0.500000 0.239836
O O21 0.500000 0.710427 0.915626
O O22 0.500000 0.357194 0.678564
O O23 0.327845 0.500000 0.690302
#
# Coordination Sequence:
#
# PCOD9375370 Si02
#       8
#     8   8   8   8   8   8   8   8
#     4  10  21  38  60  84 111 145 184 226 275 332
#     4   9  19  38  62  85 112 148 186 224 271 328
#     4  12  26  40  55  79 111 146 189 237 281 327
#     4   9  18  32  51  77 109 142 174 214 266 321
#     4   8  15  30  54  81 106 135 172 216 267 321
#     4   8  15  30  54  83 111 138 171 213 264 323
#     4  10  21  37  54  73 101 140 189 231 263 315
#     4   8  14  28  52  82 113 140 171 215 267 324
#
# _framework density 20.253744999999999
#
# number of rings (size 3 to 8) (size 9 to 14) (size 15 to 20)
#    0.000    2.750    0.000    3.000    0.000    4.000 
#    0.000    5.625    0.000    0.750    0.000    0.000 
#    0.000    0.000    0.000    0.000    0.000    0.000 
#
# Total GULP energy -178611.296357 kJ/mol
# GULP energy per Si atom -5581.603011 kJ/mol
# Density = 2.020765 g / cm^3
# Si number density = 20.253745 Si / 1000 Ang^3
#
#
#
# Elastic Constant Matrix: (Units=GPa)
#
#
# Indices 1 2 3 4 5 6 
#
# 1 15.9455 11.3283 10.2499 0.0000 0.0000 0.0000
# 2 11.3283 35.7117 12.5531 0.0000 0.0000 0.0000
# 3 10.2499 12.5531 86.0499 0.0000 0.0000 0.0000
# 4 0.0000 0.0000 0.0000 26.2487 0.0000 0.0000
# 5 0.0000 0.0000 0.0000 0.0000 31.6312 0.0000
# 6 0.0000 0.0000 0.0000 0.0000 0.0000 15.4958
#
#
#
# Elastic Compliance Matrix: (Units=1/GPa)
#
#
# Indices 1 2 3 4 5 6 
#
# 1 0.084241 -0.024449 -0.006468 0.000000 0.000000 0.000000
# 2 -0.024449 0.036611 -0.002429 0.000000 0.000000 0.000000
# 3 -0.006468 -0.002429 0.012746 0.000000 0.000000 0.000000
# 4 0.000000 0.000000 0.000000 0.038097 0.000000 0.000000
# 5 0.000000 0.000000 0.000000 0.000000 0.031614 0.000000
# 6 0.000000 0.000000 0.000000 0.000000 0.000000 0.064534
#
#
# Mechanical properties :
#
#
# Convention : Reuss Voigt Hill
#
# Bulk Modulus (GPa) = 14.94607 22.88550 18.91579
# Shear Modulus (GPa) = 14.01205 21.58019 17.79612
#
# Velocity S-wave (km/s) = 2.63311 3.26773 2.96743
# Velocity P-wave (km/s) = 4.07919 5.05582 4.59353
#
# Compressibility (1/GPa) = 0.06690723
#
# Stress axis : x y z
#
# Youngs Moduli (GPa) = 11.87077 27.31399 78.45679
#
# Poissons Ratio (x) = 0.66780 0.50744
# Poissons Ratio (y) = 0.29023 0.19055
# Poissons Ratio (z) = 0.07678 0.06634
#
# Static dielectric constant tensor:
#      x y z
#    x 1.676090 0.000000 0.000000 
#    y 0.000000 1.763440 0.000000 
#    z 0.000000 0.000000 1.712650 
# 
# From -- ./inp_files/25099.got.cif
#   From: 2010.05.17/outbox.cif.g08.bks.cpg/sg44_13_cif.got.tgz:25099.got - 2010.06.03 19:37:08.
