data_PCOD9375796
_publ_section_title
;
Structure prediction by ZEFSAII (Michael W. Deem and Ramdas Pophale) SiO2 
 PCOD9375796
Probable space group: I M M 2
;
_chemical_formula_sum "Si O2"
_cell_formula_units_Z 64
_cell_length_a 14.703449
_cell_length_b 9.075944
_cell_length_c 28.813714
_cell_angle_alpha 90.000000
_cell_angle_beta 90.000000
_cell_angle_gamma 90.000000
_cell_volume 3845.123278
_symmetry_space_group_name_H-M "I M M 2"
_symmetry_group_IT_number 44
_symmetry_cell_setting 'orthorhombic'
loop_
_space_group_symop_operation_xyz
x,y,z
-x,-y,z
-x,y,z
x,-y,z
1/2+x,1/2+y,1/2+z
1/2-x,1/2-y,1/2+z
1/2-x,1/2+y,1/2+z
1/2+x,1/2-y,1/2+z
loop_
_atom_site_type_symbol
_atom_site_label
_atom_site_fract_x
_atom_site_fract_y
_atom_site_fract_z
Si Si1 0.894242 0.176780 0.856660
Si Si2 0.396825 0.820899 0.082725
Si Si3 0.393278 0.823029 0.976094
Si Si4 0.608544 0.827297 0.815903
Si Si5 0.722149 0.675024 0.895783
Si Si6 0.223483 0.323647 0.668876
Si Si7 0.604820 0.823409 0.707771
Si Si8 0.891534 0.827178 0.748693
O O1 0.822624 0.259020 0.888695
O O2 0.873631 0.211473 0.802477
O O3 0.000000 0.213938 0.865266
O O4 0.884917 0.000000 0.861554
O O5 0.500000 0.772091 0.093812
O O6 0.326343 0.772389 0.121766
O O7 0.398018 0.000000 0.083392
O O8 0.375709 0.779708 0.029659
O O9 0.500000 0.792036 0.966189
O O10 0.328323 0.741968 0.940377
O O11 0.381742 0.000000 0.971914
O O12 0.500000 0.813501 0.823626
O O13 0.664227 0.729198 0.851302
O O14 0.625887 0.790753 0.761997
O O15 0.632404 0.000000 0.823118
O O16 0.724548 0.500000 0.898045
O O17 0.227455 0.500000 0.668794
O O18 0.323016 0.256693 0.675705
O O19 0.163518 0.268409 0.712245
O O20 0.500000 0.781785 0.699146
O O21 0.611880 0.000000 0.702835
O O22 0.000000 0.812331 0.741388
O O23 0.867682 0.000000 0.742598
#
# Coordination Sequence:
#
# PCOD9375796 Si02
#       8
#     8   8   8   8   8   8   8   8
#     4   9  19  36  54  69  91 130 176 210 231 267
#     4   8  16  32  52  74  99 126 158 196 237 284
#     4   9  18  35  57  74  92 126 168 202 233 280
#     4   9  18  33  51  69  93 131 175 207 231 274
#     4  12  23  31  46  75 106 129 152 195 254 303
#     4  11  20  29  48  77 104 128 157 199 249 294
#     4   9  19  35  51  67  93 132 174 209 237 274
#     4   9  18  32  49  71 100 133 168 201 232 276
#
# _framework density 16.644461
#
# number of rings (size 3 to 8) (size 9 to 14) (size 15 to 20)
#    0.000    2.500    0.000    5.250    0.000    7.250 
#    0.000    3.750    0.000    2.250    0.000    1.750 
#    0.000    0.000    0.000    0.000    0.000    0.000 
#
# Total GULP energy -178585.021048 kJ/mol
# GULP energy per Si atom -5580.781908 kJ/mol
# Density = 1.660658 g / cm^3
# Si number density = 16.644461 Si / 1000 Ang^3
#
#
#
# Elastic Constant Matrix: (Units=GPa)
#
#
# Indices 1 2 3 4 5 6 
#
# 1 116.2480 57.1209 99.5121 0.0000 0.0000 0.0000
# 2 57.1209 46.4087 55.7909 0.0000 0.0000 0.0000
# 3 99.5121 55.7909 108.9345 0.0000 0.0000 0.0000
# 4 0.0000 0.0000 0.0000 20.1036 0.0000 0.0000
# 5 0.0000 0.0000 0.0000 0.0000 31.9322 0.0000
# 6 0.0000 0.0000 0.0000 0.0000 0.0000 20.6849
#
#
#
# Elastic Compliance Matrix: (Units=1/GPa)
#
#
# Indices 1 2 3 4 5 6 
#
# 1 0.043069 -0.014865 -0.031730 0.000000 0.000000 0.000000
# 2 -0.014865 0.061199 -0.017764 0.000000 0.000000 0.000000
# 3 -0.031730 -0.017764 0.047263 0.000000 0.000000 0.000000
# 4 0.000000 0.000000 0.000000 0.049742 0.000000 0.000000
# 5 0.000000 0.000000 0.000000 0.000000 0.031316 0.000000
# 6 0.000000 0.000000 0.000000 0.000000 0.000000 0.048344
#
#
# Mechanical properties :
#
#
# Convention : Reuss Voigt Hill
#
# Bulk Modulus (GPa) = 43.83528 77.38210 60.60869
# Shear Modulus (GPa) = 11.98304 18.48863 15.23584
#
# Velocity S-wave (km/s) = 2.68608 3.33648 3.02879
# Velocity P-wave (km/s) = 6.00112 7.83804 6.98027
#
# Compressibility (1/GPa) = 0.02281267
#
# Stress axis : x y z
#
# Youngs Moduli (GPa) = 23.21873 16.34020 21.15801
#
# Poissons Ratio (x) = 0.24289 0.67135
# Poissons Ratio (y) = 0.34514 0.37585
# Poissons Ratio (z) = 0.73674 0.29027
#
# Static dielectric constant tensor:
#      x y z
#    x 1.567480 0.000000 0.000000 
#    y 0.000000 1.550710 0.000000 
#    z 0.000000 0.000000 1.547760 
# 
# From -- ./inp_files/25805.got.cif
#   From: 2010.05.17/outbox.cif.g08.bks.cpg/sg44_13_cif.got.tgz:25805.got - 2010.06.03 19:37:08.
