data_PCOD9375211
_publ_section_title
;
Structure prediction by ZEFSAII (Michael W. Deem and Ramdas Pophale) SiO2 
 PCOD9375211
Probable space group: I M M 2
;
_chemical_formula_sum "Si O2"
_cell_formula_units_Z 48
_cell_length_a 17.561531
_cell_length_b 7.603254
_cell_length_c 17.438196
_cell_angle_alpha 90.000000
_cell_angle_beta 90.000000
_cell_angle_gamma 90.000000
_cell_volume 2328.431299
_symmetry_space_group_name_H-M "I M M 2"
_symmetry_group_IT_number 44
_symmetry_cell_setting 'orthorhombic'
loop_
_space_group_symop_operation_xyz
x,y,z
-x,-y,z
-x,y,z
x,-y,z
1/2+x,1/2+y,1/2+z
1/2-x,1/2-y,1/2+z
1/2-x,1/2+y,1/2+z
1/2+x,1/2-y,1/2+z
loop_
_atom_site_type_symbol
_atom_site_label
_atom_site_fract_x
_atom_site_fract_y
_atom_site_fract_z
Si Si1 0.317324 0.715077 0.284760
Si Si2 0.149370 0.710388 0.249761
Si Si3 0.000000 0.216204 0.520754
Si Si4 0.500000 0.707223 0.846814
Si Si5 0.649557 0.714237 0.112181
Si Si6 0.585894 0.709417 0.428629
Si Si7 0.180641 0.712160 0.079853
O O1 0.317317 0.500000 0.286526
O O2 0.229060 0.773136 0.286276
O O3 0.350534 0.766105 0.201695
O O4 0.366295 0.779251 0.356340
O O5 0.155615 0.500000 0.245113
O O6 0.075349 0.748118 0.299143
O O7 0.146764 0.774210 0.161577
O O8 0.076171 0.272909 0.565164
O O9 0.000000 0.280420 0.433102
O O10 0.000000 0.000000 0.521344
O O11 0.500000 0.500000 0.856276
O O12 0.649289 0.500000 0.111131
O O13 0.731022 0.770474 0.077483
O O14 0.500000 0.780507 0.432853
O O15 0.580064 0.500000 0.416973
O O16 0.631469 0.735358 0.507175
O O17 0.181453 0.500000 0.081236
#
# Coordination Sequence:
#
# PCOD9375211 Si02
#       7
#     8   8   4   4   8   8   8
#     4   8  16  32  53  75 100 134 173 208 248 303
#     4   9  19  37  56  73  98 139 182 210 243 303
#     4   9  18  29  47  78 109 130 158 207 263 307
#     4  11  23  33  49  82 111 130 164 215 267 307
#     4   8  15  30  52  75 100 132 169 209 250 298
#     4  10  21  33  50  80 110 131 162 211 263 306
#     4   9  19  35  55  75  98 135 179 212 245 299
#
# _framework density 20.614739
#
# number of rings (size 3 to 8) (size 9 to 14) (size 15 to 20)
#    0.000    3.000    0.000    2.250    4.667    1.000 
#    0.000    0.000    0.000    1.000    0.000    0.000 
#    0.000    0.000    0.000    0.000    0.000    0.000 
#
# Total GULP energy -133921.034545 kJ/mol
# GULP energy per Si atom -5580.043106 kJ/mol
# Density = 2.056782 g / cm^3
# Si number density = 20.614739 Si / 1000 Ang^3
#
#
#
# Elastic Constant Matrix: (Units=GPa)
#
#
# Indices 1 2 3 4 5 6 
#
# 1 218.2902 5.6049 171.4919 0.0000 0.0000 0.0000
# 2 5.6049 40.3475 3.1568 0.0000 0.0000 0.0000
# 3 171.4919 3.1568 196.6363 0.0000 0.0000 0.0000
# 4 0.0000 0.0000 0.0000 17.7063 0.0000 0.0000
# 5 0.0000 0.0000 0.0000 0.0000 35.1777 0.0000
# 6 0.0000 0.0000 0.0000 0.0000 0.0000 8.5851
#
#
#
# Elastic Compliance Matrix: (Units=1/GPa)
#
#
# Indices 1 2 3 4 5 6 
#
# 1 0.014593 -0.001033 -0.012710 0.000000 0.000000 0.000000
# 2 -0.001033 0.024889 0.000501 0.000000 0.000000 0.000000
# 3 -0.012710 0.000501 0.016163 0.000000 0.000000 0.000000
# 4 0.000000 0.000000 0.000000 0.056477 0.000000 0.000000
# 5 0.000000 0.000000 0.000000 0.000000 0.028427 0.000000
# 6 0.000000 0.000000 0.000000 0.000000 0.000000 0.116481
#
#
# Mechanical properties :
#
#
# Convention : Reuss Voigt Hill
#
# Bulk Modulus (GPa) = 34.29300 90.64235 62.46767
# Shear Modulus (GPa) = 17.05119 30.62851 23.83985
#
# Velocity S-wave (km/s) = 2.87912 3.85873 3.40435
# Velocity P-wave (km/s) = 5.26533 7.99489 6.76912
#
# Compressibility (1/GPa) = 0.02916047
#
# Stress axis : x y z
#
# Youngs Moduli (GPa) = 68.52553 40.17854 61.87111
#
# Poissons Ratio (x) = 0.04149 0.78641
# Poissons Ratio (y) = 0.07077 -0.03100
# Poissons Ratio (z) = 0.87099 -0.02013
#
# Static dielectric constant tensor:
#      x y z
#    x 1.663990 0.000000 0.000000 
#    y 0.000000 1.798530 0.000000 
#    z 0.000000 0.000000 1.715210 
# 
# From -- ./inp_files/16114.got.cif
#   From: 2010.05.17/outbox.cif.g08.bks.cpg/sg44_9_cif.got.tgz:16114.got - 2010.06.03 19:37:08.
