data_PCOD9375156
_publ_section_title
;
Structure prediction by ZEFSAII (Michael W. Deem and Ramdas Pophale) SiO2 
 PCOD9375156
Probable space group: I M M 2
;
_chemical_formula_sum "Si O2"
_cell_formula_units_Z 48
_cell_length_a 14.874033
_cell_length_b 17.746672
_cell_length_c 9.238706
_cell_angle_alpha 90.000000
_cell_angle_beta 90.000000
_cell_angle_gamma 90.000000
_cell_volume 2438.691195
_symmetry_space_group_name_H-M "I M M 2"
_symmetry_group_IT_number 44
_symmetry_cell_setting 'orthorhombic'
loop_
_space_group_symop_operation_xyz
x,y,z
-x,-y,z
-x,y,z
x,-y,z
1/2+x,1/2+y,1/2+z
1/2-x,1/2-y,1/2+z
1/2-x,1/2+y,1/2+z
1/2+x,1/2-y,1/2+z
loop_
_atom_site_type_symbol
_atom_site_label
_atom_site_fract_x
_atom_site_fract_y
_atom_site_fract_z
Si Si1 0.894439 0.296897 0.492920
Si Si2 0.773762 0.145997 0.489065
Si Si3 0.897263 0.916338 0.716479
Si Si4 0.400892 0.192844 0.649097
Si Si5 0.724984 0.913248 0.172375
Si Si6 0.103020 0.139679 0.016325
O O1 0.831063 0.223255 0.503220
O O2 0.893508 0.315125 0.321653
O O3 0.848380 0.361920 0.589193
O O4 0.000000 0.283859 0.532531
O O5 0.834796 0.088739 0.578452
O O6 0.680253 0.152311 0.572102
O O7 0.751029 0.122851 0.326584
O O8 0.000000 0.905426 0.670372
O O9 0.889581 0.000000 0.782490
O O10 0.877695 0.856642 0.843883
O O11 0.500000 0.165936 0.604512
O O12 0.394299 0.279982 0.597082
O O13 0.818056 0.909292 0.083152
O O14 0.695965 0.000000 0.187471
O O15 0.000000 0.111067 0.030048
#
# Coordination Sequence:
#
# PCOD9375156 Si02
#       6
#     8   8   8   8   8   8
#     4  11  23  42  66  93 126 171 224 275 321 386
#     4  12  22  40  65  95 127 169 220 273 322 390
#     4  10  22  38  60  93 132 171 209 260 330 399
#     4  10  22  40  64  93 121 156 213 274 324 377
#     4  12  26  41  63  97 136 176 215 269 337 398
#     4  10  20  38  62  92 125 161 211 267 326 388
#
# _framework density 19.682689
#
# number of rings (size 3 to 8) (size 9 to 14) (size 15 to 20)
#    0.000    1.167    3.333    2.500    2.333    2.667 
#    0.000    0.833    0.000    3.500    0.000    0.000 
#    0.000    0.000    0.000    0.000    0.000    0.000 
#
# Total GULP energy -133977.105180 kJ/mol
# GULP energy per Si atom -5582.379383 kJ/mol
# Density = 1.963789 g / cm^3
# Si number density = 19.682689 Si / 1000 Ang^3
#
#
#
# Elastic Constant Matrix: (Units=GPa)
#
#
# Indices 1 2 3 4 5 6 
#
# 1 127.4455 36.3957 73.5905 0.0000 0.0000 0.0000
# 2 36.3957 88.3601 42.4368 0.0000 0.0000 0.0000
# 3 73.5905 42.4368 115.9373 0.0000 0.0000 0.0000
# 4 0.0000 0.0000 0.0000 21.0248 0.0000 0.0000
# 5 0.0000 0.0000 0.0000 0.0000 37.7372 0.0000
# 6 0.0000 0.0000 0.0000 0.0000 0.0000 22.0206
#
#
#
# Elastic Compliance Matrix: (Units=1/GPa)
#
#
# Indices 1 2 3 4 5 6 
#
# 1 0.012578 -0.001634 -0.007386 0.000000 0.000000 0.000000
# 2 -0.001634 0.013943 -0.004067 0.000000 0.000000 0.000000
# 3 -0.007386 -0.004067 0.014802 0.000000 0.000000 0.000000
# 4 0.000000 0.000000 0.000000 0.047563 0.000000 0.000000
# 5 0.000000 0.000000 0.000000 0.000000 0.026499 0.000000
# 6 0.000000 0.000000 0.000000 0.000000 0.000000 0.045412
#
#
# Mechanical properties :
#
#
# Convention : Reuss Voigt Hill
#
# Bulk Modulus (GPa) = 66.00294 70.73209 68.36751
# Shear Modulus (GPa) = 26.03903 28.11118 27.07511
#
# Velocity S-wave (km/s) = 3.64117 3.78328 3.71290
# Velocity P-wave (km/s) = 7.16127 7.42283 7.29322
#
# Compressibility (1/GPa) = 0.01515084
#
# Stress axis : x y z
#
# Youngs Moduli (GPa) = 79.50576 71.71861 67.55880
#
# Poissons Ratio (x) = 0.11716 0.49897
# Poissons Ratio (y) = 0.12989 0.27475
# Poissons Ratio (z) = 0.58720 0.29166
#
# Static dielectric constant tensor:
#      x y z
#    x 1.678400 0.000000 0.000000 
#    y 0.000000 1.706320 0.000000 
#    z 0.000000 0.000000 1.686180 
# 
# From -- ./inp_files/7103.got.cif
#   From: 2010.05.17/outbox.cif.g08.bks.cpg/sg44_4_cif.got.tgz:7103.got - 2010.06.03 19:37:08.
