data_PCOD9375546
_publ_section_title
;
Structure prediction by ZEFSAII (Michael W. Deem and Ramdas Pophale) SiO2 
 PCOD9375546
Probable space group: I M M 2
;
_chemical_formula_sum "Si O2"
_cell_formula_units_Z 56
_cell_length_a 8.849965
_cell_length_b 17.038824
_cell_length_c 19.894704
_cell_angle_alpha 90.000000
_cell_angle_beta 90.000000
_cell_angle_gamma 90.000000
_cell_volume 2999.982022
_symmetry_space_group_name_H-M "I M M 2"
_symmetry_group_IT_number 44
_symmetry_cell_setting 'orthorhombic'
loop_
_space_group_symop_operation_xyz
x,y,z
-x,-y,z
-x,y,z
x,-y,z
1/2+x,1/2+y,1/2+z
1/2-x,1/2-y,1/2+z
1/2-x,1/2+y,1/2+z
1/2+x,1/2-y,1/2+z
loop_
_atom_site_type_symbol
_atom_site_label
_atom_site_fract_x
_atom_site_fract_y
_atom_site_fract_z
Si Si1 0.176351 0.912265 0.408610
Si Si2 0.320449 0.651458 0.295428
Si Si3 0.820469 0.662187 0.546532
Si Si4 0.680985 0.761749 0.180723
Si Si5 0.323337 0.587107 0.746399
Si Si6 0.680061 0.000000 0.865487
Si Si7 0.175064 0.749131 0.927141
Si Si8 0.819875 0.000000 0.016282
O O1 0.183968 0.911200 0.327399
O O2 0.276313 0.840837 0.433827
O O3 0.000000 0.899899 0.426791
O O4 0.220968 0.000000 0.430669
O O5 0.500000 0.632548 0.290846
O O6 0.263988 0.688094 0.224994
O O7 0.234279 0.576444 0.324334
O O8 0.305367 0.720364 0.351014
O O9 0.771191 0.724030 0.603939
O O10 0.777082 0.697848 0.474923
O O11 0.739064 0.578533 0.552229
O O12 0.000000 0.650451 0.551689
O O13 0.500000 0.755418 0.181710
O O14 0.728748 0.842127 0.216940
O O15 0.500000 0.596322 0.727806
O O16 0.273113 0.500000 0.724610
O O17 0.500000 0.000000 0.873896
O O18 0.755676 0.000000 0.939647
O O19 0.000000 0.760863 0.945105
O O20 0.000000 0.000000 0.013356
#
# Coordination Sequence:
#
# PCOD9375546 Si02
#       8
#     8   8   8   8   8   4   8   4
#     4   9  18  33  54  81 113 147 187 233 281 335
#     4  10  21  39  61  87 119 153 195 245 300 356
#     4  11  24  40  59  84 119 157 199 244 296 364
#     4  10  22  39  58  82 113 154 196 236 285 348
#     4   9  18  31  49  78 113 147 180 218 266 321
#     4  12  24  38  64  96 120 151 198 253 308 359
#     4  11  21  35  59  86 115 150 191 242 299 354
#     4  12  24  40  60  88 126 165 202 245 304 365
#
# _framework density 18.666777
#
# number of rings (size 3 to 8) (size 9 to 14) (size 15 to 20)
#    0.000    1.714    2.857    3.000    1.000    2.857 
#    0.000    1.429    1.571    0.000    0.000    0.000 
#    0.000    0.000    0.000    0.000    0.000    0.000 
#
# Total GULP energy -156294.831728 kJ/mol
# GULP energy per Si atom -5581.958276 kJ/mol
# Density = 1.862429 g / cm^3
# Si number density = 18.666777 Si / 1000 Ang^3
#
#
#
# Elastic Constant Matrix: (Units=GPa)
#
#
# Indices 1 2 3 4 5 6 
#
# 1 51.9158 29.2987 26.5745 0.0000 0.0000 0.0000
# 2 29.2987 77.8995 7.5260 0.0000 0.0000 0.0000
# 3 26.5745 7.5260 53.6681 0.0000 0.0000 0.0000
# 4 0.0000 0.0000 0.0000 26.0276 0.0000 0.0000
# 5 0.0000 0.0000 0.0000 0.0000 19.3079 0.0000
# 6 0.0000 0.0000 0.0000 0.0000 0.0000 32.2502
#
#
#
# Elastic Compliance Matrix: (Units=1/GPa)
#
#
# Indices 1 2 3 4 5 6 
#
# 1 0.033061 -0.011002 -0.014828 0.000000 0.000000 0.000000
# 2 -0.011002 0.016675 0.003109 0.000000 0.000000 0.000000
# 3 -0.014828 0.003109 0.025539 0.000000 0.000000 0.000000
# 4 0.000000 0.000000 0.000000 0.038421 0.000000 0.000000
# 5 0.000000 0.000000 0.000000 0.000000 0.051792 0.000000
# 6 0.000000 0.000000 0.000000 0.000000 0.000000 0.031008
#
#
# Mechanical properties :
#
#
# Convention : Reuss Voigt Hill
#
# Bulk Modulus (GPa) = 33.51864 34.47576 33.99720
# Shear Modulus (GPa) = 19.85068 23.52274 21.68671
#
# Velocity S-wave (km/s) = 3.26455 3.55370 3.41219
# Velocity P-wave (km/s) = 5.67495 5.94537 5.81173
#
# Compressibility (1/GPa) = 0.02983415
#
# Stress axis : x y z
#
# Youngs Moduli (GPa) = 30.24720 59.97145 39.15562
#
# Poissons Ratio (x) = 0.65981 0.58059
# Poissons Ratio (y) = 0.33278 -0.12175
# Poissons Ratio (z) = 0.44850 -0.18648
#
# Static dielectric constant tensor:
#      x y z
#    x 1.630650 0.000000 0.000000 
#    y 0.000000 1.636750 0.000000 
#    z 0.000000 0.000000 1.659440 
# 
# From -- ./inp_files/23141.got.cif
#   From: 2010.05.17/outbox.cif.g08.bks.cpg/sg44_12_cif.got.tgz:23141.got - 2010.06.03 19:37:08.
