data_PCOD9375310
_publ_section_title
;
Structure prediction by ZEFSAII (Michael W. Deem and Ramdas Pophale) SiO2 
 PCOD9375310
Probable space group: I M M 2
;
_chemical_formula_sum "Si O2"
_cell_formula_units_Z 48
_cell_length_a 7.676800
_cell_length_b 23.827968
_cell_length_c 12.044706
_cell_angle_alpha 90.000000
_cell_angle_beta 90.000000
_cell_angle_gamma 90.000000
_cell_volume 2203.248272
_symmetry_space_group_name_H-M "I M M 2"
_symmetry_group_IT_number 44
_symmetry_cell_setting 'orthorhombic'
loop_
_space_group_symop_operation_xyz
x,y,z
-x,-y,z
-x,y,z
x,-y,z
1/2+x,1/2+y,1/2+z
1/2-x,1/2-y,1/2+z
1/2-x,1/2+y,1/2+z
1/2+x,1/2-y,1/2+z
loop_
_atom_site_type_symbol
_atom_site_label
_atom_site_fract_x
_atom_site_fract_y
_atom_site_fract_z
Si Si1 0.204747 0.764558 0.439450
Si Si2 0.708493 0.563689 0.989201
Si Si3 0.205879 0.936211 0.081959
Si Si4 0.697229 0.840334 0.644137
Si Si5 0.209186 0.140940 0.277375
Si Si6 0.788583 0.643294 0.392469
O O1 0.221345 0.798474 0.554071
O O2 0.277627 0.801922 0.336330
O O3 0.271665 0.701446 0.449638
O O4 0.000000 0.759334 0.416287
O O5 0.500000 0.565663 0.009006
O O6 0.765998 0.500000 0.985588
O O7 0.737013 0.594358 0.872543
O O8 0.797863 0.599844 0.083755
O O9 0.278877 0.888304 0.165778
O O10 0.000000 0.940002 0.107509
O O11 0.275688 0.000000 0.093259
O O12 0.225764 0.910679 0.959429
O O13 0.500000 0.820091 0.659095
O O14 0.773092 0.849022 0.765896
O O15 0.000000 0.149169 0.263433
O O16 0.000000 0.639537 0.392355
#
# Coordination Sequence:
#
# PCOD9375310 Si02
#       6
#     8   8   8   8   8   8
#     4   9  19  37  59  81 107 140 182 229 279 337
#     4   9  17  32  56  81 107 143 182 221 269 322
#     4  10  21  36  57  85 113 147 192 232 270 325
#     4  10  21  36  54  79 109 140 179 226 276 326
#     4   8  15  31  57  83 106 136 179 231 275 317
#     4  10  23  39  55  78 111 150 184 221 277 337
#
# _framework density 21.786014999999999
#
# number of rings (size 3 to 8) (size 9 to 14) (size 15 to 20)
#    0.000    2.667    0.000    2.000    2.333    5.333 
#    0.000    6.667    0.000    4.000    0.000    0.000 
#    0.000    0.000    0.000    0.000    0.000    0.000 
#
# Total GULP energy -133832.675018 kJ/mol
# GULP energy per Si atom -5576.361459 kJ/mol
# Density = 2.173643 g / cm^3
# Si number density = 21.786015 Si / 1000 Ang^3
#
#
#
# Elastic Constant Matrix: (Units=GPa)
#
#
# Indices 1 2 3 4 5 6 
#
# 1 28.3275 9.1175 0.0907 0.0000 0.0000 -0.0001
# 2 9.1175 67.3027 10.6283 0.0000 0.0000 -0.0002
# 3 0.0907 10.6283 85.6317 0.0003 0.0000 -0.0006
# 4 0.0000 0.0000 0.0003 15.8169 0.0000 0.0000
# 5 0.0000 0.0000 0.0000 0.0000 19.0667 -0.0001
# 6 -0.0001 -0.0002 -0.0006 0.0000 -0.0001 69.0543
#
#
#
# Elastic Compliance Matrix: (Units=1/GPa)
#
#
# Indices 1 2 3 4 5 6 
#
# 1 0.036940 -0.005098 0.000594 0.000000 0.000000 0.000000
# 2 -0.005098 0.015859 -0.001963 0.000000 0.000000 0.000000
# 3 0.000594 -0.001963 0.011921 0.000000 0.000000 0.000000
# 4 0.000000 0.000000 0.000000 0.063223 0.000000 0.000000
# 5 0.000000 0.000000 0.000000 0.000000 0.052447 0.000000
# 6 0.000000 0.000000 0.000000 0.000000 0.000000 0.014481
#
#
# Mechanical properties :
#
#
# Convention : Reuss Voigt Hill
#
# Bulk Modulus (GPa) = 19.31047 24.54831 21.92939
# Shear Modulus (GPa) = 22.21544 31.54928 26.88236
#
# Velocity S-wave (km/s) = 3.19676 3.80958 3.51654
# Velocity P-wave (km/s) = 4.74432 5.53560 5.15517
#
# Compressibility (1/GPa) = 0.05178538
#
# Stress axis : x y z
#
# Youngs Moduli (GPa) = 27.07069 63.05622 83.88611
#
# Poissons Ratio (x) = 0.32146 -0.04980
# Poissons Ratio (y) = 0.13801 0.16466
# Poissons Ratio (z) = -0.01607 0.12378
#
# Static dielectric constant tensor:
#      x y z
#    x 1.809520 0.000000 0.000000 
#    y 0.000000 1.789430 0.000000 
#    z 0.000000 0.000000 1.795040 
# 
# From -- ./inp_files/11150.got.cif
#   From: 2010.05.17/outbox.cif.g08.bks.cpg/sg44_6_cif.got.tgz:11150.got - 2010.06.03 19:37:08.
