data_PCOD9375367
_publ_section_title
;
Structure prediction by ZEFSAII (Michael W. Deem and Ramdas Pophale) SiO2 
 PCOD9375367
Probable space group: I M M 2
;
_chemical_formula_sum "Si O2"
_cell_formula_units_Z 64
_cell_length_a 26.274514
_cell_length_b 13.560982
_cell_length_c 9.039869
_cell_angle_alpha 90.000000
_cell_angle_beta 90.000000
_cell_angle_gamma 90.000000
_cell_volume 3220.979555
_symmetry_space_group_name_H-M "I M M 2"
_symmetry_group_IT_number 44
_symmetry_cell_setting 'orthorhombic'
loop_
_space_group_symop_operation_xyz
x,y,z
-x,-y,z
-x,y,z
x,-y,z
1/2+x,1/2+y,1/2+z
1/2-x,1/2-y,1/2+z
1/2-x,1/2+y,1/2+z
1/2+x,1/2-y,1/2+z
loop_
_atom_site_type_symbol
_atom_site_label
_atom_site_fract_x
_atom_site_fract_y
_atom_site_fract_z
Si Si1 0.442337 0.242765 0.423060
Si Si2 0.145624 0.695394 0.419007
Si Si3 0.376610 0.882378 0.599257
Si Si4 0.254199 0.119339 0.080808
Si Si5 0.218889 0.618081 0.907872
Si Si6 0.321503 0.384038 0.066502
Si Si7 0.347640 0.382536 0.410152
Si Si8 0.058771 0.613540 0.628228
O O1 0.500000 0.279183 0.433214
O O2 0.430109 0.160258 0.545848
O O3 0.400050 0.326795 0.441388
O O4 0.435895 0.187346 0.266019
O O5 0.140717 0.671147 0.247785
O O6 0.198501 0.652055 0.481085
O O7 0.146490 0.810520 0.463531
O O8 0.099347 0.643221 0.505040
O O9 0.336532 0.856961 0.468435
O O10 0.376540 0.000000 0.620856
O O11 0.264620 0.157074 0.247472
O O12 0.253713 0.000000 0.083226
O O13 0.200252 0.149429 0.011072
O O14 0.217870 0.500000 0.891408
O O15 0.262658 0.638169 0.027567
O O16 0.330423 0.500000 0.035033
O O17 0.333129 0.366010 0.238102
O O18 0.353934 0.500000 0.430277
O O19 0.068228 0.500000 0.675648
O O20 0.000000 0.619355 0.576598
#
# Coordination Sequence:
#
# PCOD9375367 Si02
#       8
#     8   8   8   8   8   8   8   8
#     4  11  24  42  64  91 120 163 216 263 326 383
#     4  12  23  37  65  94 127 171 212 255 308 376
#     4  11  24  40  61  92 131 169 209 256 312 380
#     4  10  21  36  62  97 130 165 208 257 312 380
#     4   9  20  37  58  90 130 169 204 244 305 377
#     4  10  22  39  59  90 129 168 205 255 311 364
#     4  10  22  42  65  93 128 165 212 265 315 371
#     4  10  21  40  65  92 125 162 208 264 317 377
#
# _framework density 19.869733
#
# number of rings (size 3 to 8) (size 9 to 14) (size 15 to 20)
#    0.000    1.625    1.250    3.000    3.500    4.500 
#    0.000    0.000    0.000    0.375    0.000    0.000 
#    0.000    0.000    0.000    0.000    0.000    0.000 
#
# Total GULP energy -178905.010173 kJ/mol
# GULP energy per Si atom -5590.781568 kJ/mol
# Density = 1.982451 g / cm^3
# Si number density = 19.869733 Si / 1000 Ang^3
#
#
#
# Elastic Constant Matrix: (Units=GPa)
#
#
# Indices 1 2 3 4 5 6 
#
# 1 140.6314 45.7781 59.2643 0.0000 0.0000 0.0000
# 2 45.7781 89.1768 24.0398 0.0000 0.0000 0.0000
# 3 59.2643 24.0398 99.8270 0.0000 0.0000 0.0000
# 4 0.0000 0.0000 0.0000 27.2483 0.0000 0.0000
# 5 0.0000 0.0000 0.0000 0.0000 28.0414 0.0000
# 6 0.0000 0.0000 0.0000 0.0000 0.0000 34.3005
#
#
#
# Elastic Compliance Matrix: (Units=1/GPa)
#
#
# Indices 1 2 3 4 5 6 
#
# 1 0.010690 -0.004039 -0.005374 0.000000 0.000000 0.000000
# 2 -0.004039 0.013518 -0.000858 0.000000 0.000000 0.000000
# 3 -0.005374 -0.000858 0.013414 0.000000 0.000000 0.000000
# 4 0.000000 0.000000 0.000000 0.036700 0.000000 0.000000
# 5 0.000000 0.000000 0.000000 0.000000 0.035662 0.000000
# 6 0.000000 0.000000 0.000000 0.000000 0.000000 0.029154
#
#
# Mechanical properties :
#
#
# Convention : Reuss Voigt Hill
#
# Bulk Modulus (GPa) = 58.54185 65.31107 61.92646
# Shear Modulus (GPa) = 30.23478 31.28822 30.76150
#
# Velocity S-wave (km/s) = 3.90507 3.97251 3.93893
# Velocity P-wave (km/s) = 7.06113 7.34725 7.20561
#
# Compressibility (1/GPa) = 0.01708180
#
# Stress axis : x y z
#
# Youngs Moduli (GPa) = 93.54384 73.97395 74.54853
#
# Poissons Ratio (x) = 0.29879 0.40061
# Poissons Ratio (y) = 0.37783 0.06393
# Poissons Ratio (z) = 0.50268 0.06343
#
# Static dielectric constant tensor:
#      x y z
#    x 1.674010 0.000000 0.000000 
#    y 0.000000 1.741120 0.000000 
#    z 0.000000 0.000000 1.694230 
# 
# From -- ./inp_files/9478.got.cif
#   From: 2010.05.17/outbox.cif.g08.bks.cpg/sg44_5_cif.got.tgz:9478.got - 2010.06.03 19:37:08.
