data_PCOD9375818
_publ_section_title
;
Structure prediction by ZEFSAII (Michael W. Deem and Ramdas Pophale) SiO2 
 PCOD9375818
Probable space group: I M M 2
;
_chemical_formula_sum "Si O2"
_cell_formula_units_Z 48
_cell_length_a 10.272245
_cell_length_b 7.497173
_cell_length_c 29.065965
_cell_angle_alpha 90.000000
_cell_angle_beta 90.000000
_cell_angle_gamma 90.000000
_cell_volume 2238.451287
_symmetry_space_group_name_H-M "I M M 2"
_symmetry_group_IT_number 44
_symmetry_cell_setting 'orthorhombic'
loop_
_space_group_symop_operation_xyz
x,y,z
-x,-y,z
-x,y,z
x,-y,z
1/2+x,1/2+y,1/2+z
1/2-x,1/2-y,1/2+z
1/2-x,1/2+y,1/2+z
1/2+x,1/2-y,1/2+z
loop_
_atom_site_type_symbol
_atom_site_label
_atom_site_fract_x
_atom_site_fract_y
_atom_site_fract_z
Si Si1 0.000000 0.284186 0.281860
Si Si2 0.000000 0.717355 0.386927
Si Si3 0.739365 0.782266 0.949097
Si Si4 0.500000 0.295409 0.293081
Si Si5 0.650951 0.782352 0.050567
Si Si6 0.652517 0.281295 0.631638
Si Si7 0.240281 0.297422 0.727999
Si Si8 0.000000 0.780719 0.897703
O O1 0.000000 0.225612 0.334509
O O2 0.872592 0.215425 0.256631
O O3 0.000000 0.500000 0.279948
O O4 0.125915 0.774392 0.414726
O O5 0.000000 0.500000 0.386443
O O6 0.874014 0.724731 0.926552
O O7 0.740199 0.000000 0.950267
O O8 0.703694 0.725211 0.000617
O O9 0.500000 0.500000 0.304715
O O10 0.374541 0.266488 0.261048
O O11 0.500000 0.212475 0.344577
O O12 0.500000 0.725908 0.057650
O O13 0.754751 0.728174 0.089392
O O14 0.648540 0.000000 0.050842
O O15 0.500000 0.225767 0.628983
O O16 0.648933 0.500000 0.632659
O O17 0.722154 0.216300 0.678569
O O18 0.203963 0.500000 0.717630
O O19 0.000000 0.000000 0.897880
#
# Coordination Sequence:
#
# PCOD9375818 Si02
#       8
#     4   4   8   4   8   8   8   4
#     4  11  21  35  58  83 111 149 187 231 278 329
#     4   9  16  27  44  67  99 137 171 211 270 323
#     4   9  15  25  40  64  99 136 171 210 265 331
#     4  11  23  39  56  81 113 149 193 233 276 331
#     4   9  16  25  41  67  99 136 175 213 264 332
#     4   9  18  31  47  70 102 139 177 220 273 328
#     4  11  22  38  57  80 113 150 187 232 282 332
#     4   9  18  29  44  67 101 139 173 217 272 325
#
# _framework density 21.443397000000001
#
# number of rings (size 3 to 8) (size 9 to 14) (size 15 to 20)
#    0.000    2.333    1.667    2.000    2.333    2.667 
#    0.000    0.000    0.000    0.000    0.000    0.000 
#    0.000   26.667    0.000    0.000    0.000    0.000 
#
# Total GULP energy -133960.119896 kJ/mol
# GULP energy per Si atom -5581.671662 kJ/mol
# Density = 2.139459 g / cm^3
# Si number density = 21.443397 Si / 1000 Ang^3
#
#
#
# Elastic Constant Matrix: (Units=GPa)
#
#
# Indices 1 2 3 4 5 6 
#
# 1 185.4704 -8.8232 93.6476 0.0000 0.0000 0.0000
# 2 -8.8232 52.4437 -6.7212 0.0000 0.0000 0.0000
# 3 93.6476 -6.7212 205.5053 0.0000 0.0000 0.0000
# 4 0.0000 0.0000 0.0000 10.2934 0.0000 0.0000
# 5 0.0000 0.0000 0.0000 0.0000 53.6971 0.0000
# 6 0.0000 0.0000 0.0000 0.0000 0.0000 4.4758
#
#
#
# Elastic Compliance Matrix: (Units=1/GPa)
#
#
# Indices 1 2 3 4 5 6 
#
# 1 0.007034 0.000776 -0.003180 0.000000 0.000000 0.000000
# 2 0.000776 0.019234 0.000275 0.000000 0.000000 0.000000
# 3 -0.003180 0.000275 0.006324 0.000000 0.000000 0.000000
# 4 0.000000 0.000000 0.000000 0.097149 0.000000 0.000000
# 5 0.000000 0.000000 0.000000 0.000000 0.018623 0.000000
# 6 0.000000 0.000000 0.000000 0.000000 0.000000 0.223422
#
#
# Mechanical properties :
#
#
# Convention : Reuss Voigt Hill
#
# Bulk Modulus (GPa) = 35.29210 66.62511 50.95860
# Shear Modulus (GPa) = 12.97053 38.04769 25.50911
#
# Velocity S-wave (km/s) = 2.46208 4.21685 3.45280
# Velocity P-wave (km/s) = 4.95747 7.40586 6.30172
#
# Compressibility (1/GPa) = 0.02833496
#
# Stress axis : x y z
#
# Youngs Moduli (GPa) = 142.16038 51.99154 158.12212
#
# Poissons Ratio (x) = -0.04034 0.50285
# Poissons Ratio (y) = -0.11030 -0.04356
# Poissons Ratio (z) = 0.45209 -0.01432
#
# Static dielectric constant tensor:
#      x y z
#    x 1.730600 0.000000 0.000000 
#    y 0.000000 1.889510 0.000000 
#    z 0.000000 0.000000 1.762490 
# 
# From -- ./inp_files/26998.got.cif
#   From: 2010.05.17/outbox.cif.g08.bks.cpg/sg44_14_cif.got.tgz:26998.got - 2010.06.03 19:37:08.
