data_PCOD9375183
_publ_section_title
;
Structure prediction by ZEFSAII (Michael W. Deem and Ramdas Pophale) SiO2 
 PCOD9375183
Probable space group: I M M 2
;
_chemical_formula_sum "Si O2"
_cell_formula_units_Z 52
_cell_length_a 7.652225
_cell_length_b 24.595740
_cell_length_c 14.774306
_cell_angle_alpha 90.000000
_cell_angle_beta 90.000000
_cell_angle_gamma 90.000000
_cell_volume 2780.703698
_symmetry_space_group_name_H-M "I M M 2"
_symmetry_group_IT_number 44
_symmetry_cell_setting 'orthorhombic'
loop_
_space_group_symop_operation_xyz
x,y,z
-x,-y,z
-x,y,z
x,-y,z
1/2+x,1/2+y,1/2+z
1/2-x,1/2-y,1/2+z
1/2-x,1/2+y,1/2+z
1/2+x,1/2-y,1/2+z
loop_
_atom_site_type_symbol
_atom_site_label
_atom_site_fract_x
_atom_site_fract_y
_atom_site_fract_z
Si Si1 0.000000 0.000000 0.163370
Si Si2 0.194423 0.410003 0.642673
Si Si3 0.795912 0.761513 0.443142
Si Si4 0.500000 0.500000 0.250308
Si Si5 0.203355 0.405417 0.257378
Si Si6 0.787660 0.802030 0.248358
Si Si7 0.789918 0.303004 0.133703
Si Si8 0.798886 0.138161 0.951691
O O1 0.846578 0.047324 0.160879
O O2 0.217712 0.357408 0.706537
O O3 0.213556 0.388336 0.539723
O O4 0.000000 0.432423 0.655129
O O5 0.734002 0.790377 0.351573
O O6 0.775054 0.798406 0.531448
O O7 0.706486 0.703416 0.459053
O O8 0.000000 0.748674 0.429793
O O9 0.344747 0.452832 0.251558
O O10 0.255093 0.357405 0.187744
O O11 0.211968 0.380124 0.358277
O O12 0.000000 0.421311 0.239800
O O13 0.730114 0.750334 0.188581
O O14 0.000000 0.804683 0.244817
O O15 0.000000 0.300670 0.131309
O O16 0.000000 0.119785 0.949412
#
# Coordination Sequence:
#
# PCOD9375183 Si02
#       8
#     2   8   8   2   8   8   8   8
#     4  12  26  49  66  91 136 178 228 273 314 381
#     4  12  25  42  67  93 129 175 222 268 325 388
#     4  11  22  35  62  96 136 173 208 263 337 395
#     4  12  26  45  66  95 128 186 228 265 326 385
#     4  11  24  43  65  92 132 172 223 274 320 385
#     4  10  20  39  61  94 134 169 209 273 329 385
#     4  10  21  38  62  93 131 169 211 271 332 385
#     4  12  22  38  60  94 135 175 214 266 323 396
#
# _framework density 18.700301
#
# number of rings (size 3 to 8) (size 9 to 14) (size 15 to 20)
#    0.000    0.923    5.385    2.308    1.077    2.462 
#    0.000    1.538    0.000    1.846    0.000    2.154 
#    0.000    0.000    0.000    0.000    0.000    0.000 
#
# Total GULP energy -144786.302151 kJ/mol
# GULP energy per Si atom -5568.703929 kJ/mol
# Density = 1.865774 g / cm^3
# Si number density = 18.700301 Si / 1000 Ang^3
#
#
#
# Elastic Constant Matrix: (Units=GPa)
#
#
# Indices 1 2 3 4 5 6 
#
# 1 125.6176 52.7237 18.0312 0.0000 0.0000 0.0000
# 2 52.7237 122.7713 39.7650 0.0000 0.0000 0.0000
# 3 18.0312 39.7650 105.1591 0.0000 0.0000 0.0001
# 4 0.0000 0.0000 0.0000 -7.2811 0.0000 0.0000
# 5 0.0000 0.0000 0.0000 0.0000 9.5655 0.0000
# 6 0.0000 0.0000 0.0001 0.0000 0.0000 20.3330
#
#
#
# Elastic Compliance Matrix: (Units=1/GPa)
#
#
# Indices 1 2 3 4 5 6 
#
# 1 0.009712 -0.004138 -0.000100 0.000000 0.000000 0.000000
# 2 -0.004138 0.011045 -0.003467 0.000000 0.000000 0.000000
# 3 -0.000100 -0.003467 0.010838 0.000000 0.000000 0.000000
# 4 0.000000 0.000000 0.000000 -0.137342 0.000000 0.000000
# 5 0.000000 0.000000 0.000000 0.000000 0.104543 0.000000
# 6 0.000000 0.000000 0.000000 0.000000 0.000000 0.049181
#
#
# Mechanical properties :
#
#
# Convention : Reuss Voigt Hill
#
# Bulk Modulus (GPa) = 61.79174 63.84310 62.81742
# Shear Modulus (GPa) = 72.69222 20.72534 46.70878
#
# Velocity S-wave (km/s) = 6.24152 3.33271 5.00318
# Velocity P-wave (km/s) = 9.22264 7.00168 8.18781
#
# Compressibility (1/GPa) = 0.01618339
#
# Stress axis : x y z
#
# Youngs Moduli (GPa) = 102.96576 90.53568 92.27055
#
# Poissons Ratio (x) = 0.37466 0.00927
# Poissons Ratio (y) = 0.42610 0.31992
# Poissons Ratio (z) = 0.01034 0.31390
#
# Static dielectric constant tensor:
#      x y z
#    x 1.681800 0.000000 0.000000 
#    y 0.000000 1.606170 0.000000 
#    z 0.000000 0.000000 1.635900 
# 
# From -- ./inp_files/16404.got.cif
#   From: 2010.05.17/outbox.cif.g08.bks.cpg/sg44_9_cif.got.tgz:16404.got - 2010.06.03 19:37:08.
