data_PCOD9375888
_publ_section_title
;
Structure prediction by ZEFSAII (Michael W. Deem and Ramdas Pophale) SiO2 
 PCOD9375888
Probable space group: I M M 2
;
_chemical_formula_sum "Si O2"
_cell_formula_units_Z 56
_cell_length_a 14.845901
_cell_length_b 18.816413
_cell_length_c 8.990992
_cell_angle_alpha 90.000000
_cell_angle_beta 90.000000
_cell_angle_gamma 90.000000
_cell_volume 2511.603087
_symmetry_space_group_name_H-M "I M M 2"
_symmetry_group_IT_number 44
_symmetry_cell_setting 'orthorhombic'
loop_
_space_group_symop_operation_xyz
x,y,z
-x,-y,z
-x,y,z
x,-y,z
1/2+x,1/2+y,1/2+z
1/2-x,1/2-y,1/2+z
1/2-x,1/2+y,1/2+z
1/2+x,1/2-y,1/2+z
loop_
_atom_site_type_symbol
_atom_site_label
_atom_site_fract_x
_atom_site_fract_y
_atom_site_fract_z
Si Si1 0.102065 0.077172 0.943320
Si Si2 0.752455 0.114171 0.701468
Si Si3 0.898887 0.355268 0.021534
Si Si4 0.096958 0.197071 0.516479
Si Si5 0.853821 0.797260 0.172078
Si Si6 0.105983 0.417931 0.416433
Si Si7 0.855134 0.335721 0.682141
O O1 0.174026 0.078981 0.809903
O O2 0.000000 0.082616 0.885255
O O3 0.111542 0.000000 0.018896
O O4 0.115380 0.140903 0.059241
O O5 0.678620 0.090868 0.577998
O O6 0.818751 0.161495 0.599962
O O7 0.676093 0.132306 0.827546
O O8 0.877349 0.278000 0.095336
O O9 0.000000 0.377324 0.061793
O O10 0.892254 0.343655 0.846317
O O11 0.107484 0.197803 0.338488
O O12 0.096287 0.275863 0.584232
O O13 0.000000 0.162935 0.551654
O O14 0.747540 0.809928 0.190667
O O15 0.122749 0.500000 0.372186
O O16 0.131487 0.406974 0.588044
O O17 0.000000 0.402931 0.395378
#
# Coordination Sequence:
#
# PCOD9375888 Si02
#       7
#     8   8   8   8   8   8   8
#     4  11  25  46  72  99 133 180 229 276 330 396
#     4  12  23  42  64  98 131 172 220 274 326 394
#     4  12  25  42  67 101 139 176 218 276 341 403
#     4  12  25  42  67 101 139 176 218 276 341 403
#     4  12  23  44  68 100 138 178 220 277 336 400
#     4  11  25  46  72  99 133 180 229 276 330 396
#     4  12  23  44  68 100 138 178 220 277 336 400
#
# _framework density 22.296516
#
# number of rings (size 3 to 8) (size 9 to 14) (size 15 to 20)
#    0.000    0.286    4.286    5.571    0.000    0.000 
#    0.000    2.857    0.000    6.857    0.000    0.000 
#    0.000    0.000    0.000    0.000    0.000    0.000 
#
# Total GULP energy -156160.467312 kJ/mol
# GULP energy per Si atom -5577.159547 kJ/mol
# Density = 2.224577 g / cm^3
# Si number density = 22.296516 Si / 1000 Ang^3
#
#
#
# Elastic Constant Matrix: (Units=GPa)
#
#
# Indices 1 2 3 4 5 6 
#
# 1 199.2675 18.5174 39.4615 0.0000 0.0000 0.0000
# 2 18.5174 62.7266 55.3064 0.0000 0.0000 0.0000
# 3 39.4615 55.3064 157.8695 0.0000 0.0000 0.0000
# 4 0.0000 0.0000 0.0000 18.9508 0.0000 0.0000
# 5 0.0000 0.0000 0.0000 0.0000 -14.9795 0.0000
# 6 0.0000 0.0000 0.0000 0.0000 0.0000 -1.8933
#
#
#
# Elastic Compliance Matrix: (Units=1/GPa)
#
#
# Indices 1 2 3 4 5 6 
#
# 1 0.005294 -0.000573 -0.001123 0.000000 0.000000 0.000000
# 2 -0.000573 0.023129 -0.007960 0.000000 0.000000 0.000000
# 3 -0.001123 -0.007960 0.009403 0.000000 0.000000 0.000000
# 4 0.000000 0.000000 0.000000 0.052768 0.000000 0.000000
# 5 0.000000 0.000000 0.000000 0.000000 -0.066758 0.000000
# 6 0.000000 0.000000 0.000000 0.000000 0.000000 -0.528185
#
#
# Mechanical properties :
#
#
# Convention : Reuss Voigt Hill
#
# Bulk Modulus (GPa) = 54.00655 71.82602 62.91628
# Shear Modulus (GPa) = -10.44136 20.85416 5.20640
#
# Velocity S-wave (km/s) = -2.16636 3.06160 1.52975
# Velocity P-wave (km/s) = 4.24465 6.69192 5.60352
#
# Compressibility (1/GPa) = 0.01851627
#
# Stress axis : x y z
#
# Youngs Moduli (GPa) = 188.89559 43.23487 106.34390
#
# Poissons Ratio (x) = 0.02478 0.11937
# Poissons Ratio (y) = 0.10825 0.84647
# Poissons Ratio (z) = 0.21204 0.34414
#
# Static dielectric constant tensor:
#      x y z
#    x 1.836690 0.000000 0.000000 
#    y 0.000000 1.861680 0.000000 
#    z 0.000000 0.000000 1.815000 
# 
# From -- ./inp_files/7406.got.cif
#   From: 2010.05.17/outbox.cif.g08.bks.cpg/sg44_4_cif.got.tgz:7406.got - 2010.06.03 19:37:08.
