data_PCOD9375540
_publ_section_title
;
Structure prediction by ZEFSAII (Michael W. Deem and Ramdas Pophale) SiO2 
 PCOD9375540
Probable space group: I M M 2
;
_chemical_formula_sum "Si O2"
_cell_formula_units_Z 64
_cell_length_a 8.315080
_cell_length_b 15.954888
_cell_length_c 24.484148
_cell_angle_alpha 90.000000
_cell_angle_beta 90.000000
_cell_angle_gamma 90.000000
_cell_volume 3248.218144
_symmetry_space_group_name_H-M "I M M 2"
_symmetry_group_IT_number 44
_symmetry_cell_setting 'orthorhombic'
loop_
_space_group_symop_operation_xyz
x,y,z
-x,-y,z
-x,y,z
x,-y,z
1/2+x,1/2+y,1/2+z
1/2-x,1/2-y,1/2+z
1/2-x,1/2+y,1/2+z
1/2+x,1/2-y,1/2+z
loop_
_atom_site_type_symbol
_atom_site_label
_atom_site_fract_x
_atom_site_fract_y
_atom_site_fract_z
Si Si1 0.809848 0.647100 0.523040
Si Si2 0.306403 0.748581 0.214374
Si Si3 0.805294 0.906103 0.411627
Si Si4 0.303624 0.093211 0.143879
Si Si5 0.690092 0.835984 0.525444
Si Si6 0.194864 0.094234 0.640095
Si Si7 0.809434 0.906688 0.906473
Si Si8 0.808895 0.248792 0.337983
O O1 0.755053 0.610937 0.581295
O O2 0.779690 0.746658 0.523971
O O3 0.724137 0.609109 0.470390
O O4 0.000000 0.630742 0.517495
O O5 0.500000 0.749066 0.210926
O O6 0.247572 0.831870 0.182914
O O7 0.250197 0.665817 0.182104
O O8 0.259611 0.747536 0.277296
O O9 0.739163 0.887069 0.471767
O O10 0.748428 0.832665 0.371242
O O11 0.000000 0.902237 0.414332
O O12 0.759677 0.000000 0.394132
O O13 0.500000 0.094905 0.144150
O O14 0.252625 0.000000 0.160705
O O15 0.500000 0.820452 0.525082
O O16 0.739549 0.883766 0.580329
O O17 0.000000 0.097258 0.637476
O O18 0.241912 0.000000 0.656064
O O19 0.731935 0.831976 0.872107
O O20 0.000000 0.903623 0.897003
O O21 0.750447 0.000000 0.891775
O O22 0.000000 0.241425 0.334091
#
# Coordination Sequence:
#
# PCOD9375540 Si02
#       8
#     8   8   8   8   8   8   8   8
#     4  11  20  36  62  90 122 160 199 239 290 353
#     4  10  21  39  60  84 117 155 200 248 296 348
#     4  10  22  41  63  86 117 159 202 244 296 360
#     4   9  18  34  59  89 118 151 193 238 286 346
#     4  12  23  35  58  91 125 156 192 242 301 357
#     4  10  21  39  62  86 115 156 200 240 293 358
#     4  11  24  41  62  91 125 158 195 244 302 358
#     4  11  24  41  62  87 117 158 206 250 297 353
#
# _framework density 19.703109000000001
#
# number of rings (size 3 to 8) (size 9 to 14) (size 15 to 20)
#    0.000    1.500    2.500    3.000    0.000    5.500 
#    0.000    1.250    0.000    1.500    0.000    0.000 
#    0.000    0.000    0.000    0.000    0.000    0.000 
#
# Total GULP energy -178856.056090 kJ/mol
# GULP energy per Si atom -5589.251753 kJ/mol
# Density = 1.965826 g / cm^3
# Si number density = 19.703109 Si / 1000 Ang^3
#
#
#
# Elastic Constant Matrix: (Units=GPa)
#
#
# Indices 1 2 3 4 5 6 
#
# 1 7.7935 6.9393 4.4623 0.0000 0.0000 0.0000
# 2 6.9393 170.2013 81.5317 0.0000 0.0000 0.0000
# 3 4.4623 81.5317 146.7198 0.0000 0.0000 0.0000
# 4 0.0000 0.0000 0.0000 0.2083 0.0000 0.0000
# 5 0.0000 0.0000 0.0000 0.0000 32.6818 0.0000
# 6 0.0000 0.0000 0.0000 0.0000 0.0000 14.3635
#
#
#
# Elastic Compliance Matrix: (Units=1/GPa)
#
#
# Indices 1 2 3 4 5 6 
#
# 1 0.133359 -0.004762 -0.001410 0.000000 0.000000 0.000000
# 2 -0.004762 0.008177 -0.004399 0.000000 0.000000 0.000000
# 3 -0.001410 -0.004399 0.009303 0.000000 0.000000 0.000000
# 4 0.000000 0.000000 0.000000 4.799648 0.000000 0.000000
# 5 0.000000 0.000000 0.000000 0.000000 0.030598 0.000000
# 6 0.000000 0.000000 0.000000 0.000000 0.000000 0.069621
#
#
# Mechanical properties :
#
#
# Convention : Reuss Voigt Hill
#
# Bulk Modulus (GPa) = 7.71023 56.73124 32.22073
# Shear Modulus (GPa) = 0.97750 24.90280 12.94015
#
# Velocity S-wave (km/s) = 0.70512 3.55900 2.56551
# Velocity P-wave (km/s) = 2.14117 6.76344 5.01641
#
# Compressibility (1/GPa) = 0.12969784
#
# Stress axis : x y z
#
# Youngs Moduli (GPa) = 7.49854 122.29731 107.49114
#
# Poissons Ratio (x) = 0.58236 0.15154
# Poissons Ratio (y) = 0.03571 0.47285
# Poissons Ratio (z) = 0.01057 0.53798
#
# Static dielectric constant tensor:
#      x y z
#    x 1.679890 0.000000 0.000000 
#    y 0.000000 1.704080 0.000000 
#    z 0.000000 0.000000 1.646780 
# 
# From -- ./inp_files/25093.got.cif
#   From: 2010.05.17/outbox.cif.g08.bks.cpg/sg44_13_cif.got.tgz:25093.got - 2010.06.03 19:37:08.
