data_PCOD9375946
_publ_section_title
;
Structure prediction by ZEFSAII (Michael W. Deem and Ramdas Pophale) SiO2 
 PCOD9375946
Probable space group: I M M 2
;
_chemical_formula_sum "Si O2"
_cell_formula_units_Z 32
_cell_length_a 30.000000
_cell_length_b 9.000000
_cell_length_c 12.000000
_cell_angle_alpha 90.000000
_cell_angle_beta 90.000000
_cell_angle_gamma 90.000000
_cell_volume 3240.000000
_symmetry_space_group_name_H-M "I M M 2"
_symmetry_group_IT_number 44
_symmetry_cell_setting 'orthorhombic'
loop_
_space_group_symop_operation_xyz
x,y,z
-x,-y,z
-x,y,z
x,-y,z
1/2+x,1/2+y,1/2+z
1/2-x,1/2-y,1/2+z
1/2-x,1/2+y,1/2+z
1/2+x,1/2-y,1/2+z
loop_
_atom_site_type_symbol
_atom_site_label
_atom_site_fract_x
_atom_site_fract_y
_atom_site_fract_z
Si Si1 0.277155 0.172930 0.229930
Si Si2 0.548561 0.825405 0.568515
Si Si3 0.449266 0.677209 0.086962
Si Si4 0.690521 0.823442 0.825021
Si Si5 0.658189 0.826554 0.426069
Si Si6 0.365054 0.675476 0.648775
Si Si7 0.844405 0.180482 0.550648
Si Si8 0.070729 0.822753 0.844498
O O1 0.231578 0.262209 0.249905
O O2 0.297842 0.171956 0.353692
O O3 0.314207 0.248344 0.149813
O O4 0.269662 0.000000 0.195871
O O5 0.500000 0.806852 0.618980
O O6 0.584163 0.715383 0.621166
O O7 0.547359 0.773944 0.439673
O O8 0.560514 0.000000 0.576644
O O9 0.500000 0.731698 0.050564
O O10 0.449674 0.500000 0.064823
O O11 0.398041 0.725503 0.049682
O O12 0.447258 0.699315 0.220673
O O13 0.648290 0.776251 0.751850
O O14 0.694659 0.000000 0.841901
O O15 0.681398 0.738174 0.940654
O O16 0.661268 0.737721 0.541025
O O17 0.620963 0.738639 0.355062
O O18 0.645413 0.000000 0.444414
O O19 0.357982 0.500000 0.665742
O O20 0.843501 0.000000 0.558874
O O21 0.068883 0.000000 0.868984
#
# Coordination Sequence:
#
# PCOD9375946 Si02
#       8
#     8   8   8   8   8   8   8   8
#     4  11  24  42  66  95 127 163 207 255 316 384
#     4  10  20  34  54  84 123 165 208 258 318 376
#     4   9  18  33  57  90 127 168 212 259 312 371
#     4  12  27  46  67  90 124 166 214 266 324 385
#     4  10  20  35  58  88 126 163 199 247 306 369
#     4  11  23  40  63  89 122 160 209 259 312 375
#     4  11  23  43  68  95 132 170 216 270 323 380
#     4  10  17  29  52  84 123 163 204 252 306 368
#
# _framework density 9.8765429999999999
#
# number of rings (size 3 to 8) (size 9 to 14) (size 15 to 20)
#    0.000    1.500    1.250    6.000    1.750    3.000 
#    0.000    0.625    0.000    6.000    0.000    0.000 
#    0.000    0.000    0.000    0.000    0.000    0.000 
#
# Total GULP energy -178310.637892 kJ/mol
# GULP energy per Si atom -5572.207434 kJ/mol
# Density = 0.985406 g / cm^3
# Si number density = 9.876543 Si / 1000 Ang^3
#
#
#
# Elastic Constant Matrix: (Units=GPa)
#
#
# Indices 1 2 3 4 5 6 
#
# 1 92.9555 18.6899 26.5412 0.0000 0.0000 0.0000
# 2 18.6899 103.1011 9.2601 0.0000 0.0000 0.0000
# 3 26.5412 9.2601 51.1157 0.0000 0.0000 0.0000
# 4 0.0000 0.0000 0.0000 27.7851 0.0000 0.0000
# 5 0.0000 0.0000 0.0000 0.0000 -49.1125 0.0000
# 6 0.0000 0.0000 0.0000 0.0000 0.0000 7.2072
#
#
#
# Elastic Compliance Matrix: (Units=1/GPa)
#
#
# Indices 1 2 3 4 5 6 
#
# 1 0.012941 -0.001771 -0.006399 0.000000 0.000000 0.000000
# 2 -0.001771 0.010102 -0.000910 0.000000 0.000000 0.000000
# 3 -0.006399 -0.000910 0.023051 0.000000 0.000000 0.000000
# 4 0.000000 0.000000 0.000000 0.035991 0.000000 0.000000
# 5 0.000000 0.000000 0.000000 0.000000 -0.020361 0.000000
# 6 0.000000 0.000000 0.000000 0.000000 0.000000 0.138751
#
#
# Mechanical properties :
#
#
# Convention : Reuss Voigt Hill
#
# Bulk Modulus (GPa) = 35.79939 39.57273 37.68606
# Shear Modulus (GPa) = 21.93509 10.02134 15.97822
#
# Velocity S-wave (km/s) = 3.33598 2.25484 2.84720
# Velocity P-wave (km/s) = 5.74466 5.18230 5.47071
#
# Compressibility (1/GPa) = 0.02793343
#
# Stress axis : x y z
#
# Youngs Moduli (GPa) = 77.27431 98.98966 43.38252
#
# Poissons Ratio (x) = 0.17533 0.27758
# Poissons Ratio (y) = 0.13687 0.03950
# Poissons Ratio (z) = 0.49444 0.09012
#
# Static dielectric constant tensor:
#      x y z
#    x 1.777980 0.000000 0.000000 
#    y 0.000000 1.655720 0.000000 
#    z 0.000000 0.000000 1.735080 
# 
# From -- ./inp_files/15106.got.cif
#   From: 2010.05.17/outbox.ucp.g08.bks.cvg/sg44_8_cif.got.tgz:15106.got - 2010.06.11 16:32:36.
