data_PCOD9375563
_publ_section_title
;
Structure prediction by ZEFSAII (Michael W. Deem and Ramdas Pophale) SiO2 
 PCOD9375563
Probable space group: I M M 2
;
_chemical_formula_sum "Si O2"
_cell_formula_units_Z 64
_cell_length_a 13.844290
_cell_length_b 8.848859
_cell_length_c 24.599763
_cell_angle_alpha 90.000000
_cell_angle_beta 90.000000
_cell_angle_gamma 90.000000
_cell_volume 3013.622752
_symmetry_space_group_name_H-M "I M M 2"
_symmetry_group_IT_number 44
_symmetry_cell_setting 'orthorhombic'
loop_
_space_group_symop_operation_xyz
x,y,z
-x,-y,z
-x,y,z
x,-y,z
1/2+x,1/2+y,1/2+z
1/2-x,1/2-y,1/2+z
1/2-x,1/2+y,1/2+z
1/2+x,1/2-y,1/2+z
loop_
_atom_site_type_symbol
_atom_site_label
_atom_site_fract_x
_atom_site_fract_y
_atom_site_fract_z
Si Si1 0.617799 0.326117 0.765050
Si Si2 0.116572 0.674094 0.377898
Si Si3 0.112598 0.680091 0.149612
Si Si4 0.383659 0.323445 0.200357
Si Si5 0.887167 0.817142 0.938234
Si Si6 0.295123 0.320859 0.985062
Si Si7 0.883061 0.178463 0.817866
Si Si8 0.290701 0.178426 0.095887
O O1 0.500000 0.327593 0.767349
O O2 0.649885 0.500000 0.760779
O O3 0.650298 0.250158 0.821477
O O4 0.640822 0.233416 0.710549
O O5 0.149063 0.500000 0.379531
O O6 0.150347 0.757033 0.432273
O O7 0.000000 0.675449 0.376829
O O8 0.122986 0.500000 0.145467
O O9 0.182631 0.761998 0.107707
O O10 0.000000 0.719011 0.141453
O O11 0.500000 0.323833 0.200817
O O12 0.352992 0.500000 0.195121
O O13 0.351134 0.259927 0.259416
O O14 0.347569 0.229915 0.149484
O O15 0.814574 0.738698 0.979048
O O16 0.854999 0.765019 0.877405
O O17 0.000000 0.780934 0.946277
O O18 0.878472 0.000000 0.940666
O O19 0.299012 0.500000 0.985477
O O20 0.332649 0.255131 0.041864
O O21 0.000000 0.188846 0.818714
O O22 0.860412 0.000000 0.816327
O O23 0.291362 0.000000 0.089440
#
# Coordination Sequence:
#
# PCOD9375563 Si02
#       8
#     8   8   8   8   8   8   8   8
#     4   9  17  32  57  90 124 154 188 232 285 346
#     4  10  21  39  63  89 118 153 193 239 292 348
#     4  10  21  39  63  89 118 153 193 239 292 348
#     4   9  18  36  62  89 118 152 189 231 281 338
#     4   9  18  36  62  89 118 152 189 231 281 338
#     4  12  26  42  59  81 113 152 198 247 292 346
#     4   7  12  27  55  88 116 144 180 220 267 329
#     4  12  26  42  59  81 113 152 198 247 292 346
#
# _framework density 21.236898
#
# number of rings (size 3 to 8) (size 9 to 14) (size 15 to 20)
#    0.000    2.250    0.000    4.875    0.000    5.500 
#    0.000    4.375    0.000    2.250    0.000    0.000 
#    0.000    0.000    0.000    0.000    0.000    0.000 
#
# Total GULP energy -178842.587808 kJ/mol
# GULP energy per Si atom -5588.830869 kJ/mol
# Density = 2.118856 g / cm^3
# Si number density = 21.236898 Si / 1000 Ang^3
#
#
#
# Elastic Constant Matrix: (Units=GPa)
#
#
# Indices 1 2 3 4 5 6 
#
# 1 37.5898 4.8824 3.9889 0.0000 0.0000 0.0000
# 2 4.8824 103.4135 36.8480 0.0000 0.0000 0.0000
# 3 3.9889 36.8480 121.6826 0.0000 0.0000 0.0000
# 4 0.0000 0.0000 0.0000 34.4183 0.0000 0.0000
# 5 0.0000 0.0000 0.0000 0.0000 23.9760 0.0000
# 6 0.0000 0.0000 0.0000 0.0000 0.0000 26.9221
#
#
#
# Elastic Compliance Matrix: (Units=1/GPa)
#
#
# Indices 1 2 3 4 5 6 
#
# 1 0.026801 -0.001067 -0.000555 0.000000 0.000000 0.000000
# 2 -0.001067 0.010882 -0.003260 0.000000 0.000000 0.000000
# 3 -0.000555 -0.003260 0.009224 0.000000 0.000000 0.000000
# 4 0.000000 0.000000 0.000000 0.029054 0.000000 0.000000
# 5 0.000000 0.000000 0.000000 0.000000 0.041708 0.000000
# 6 0.000000 0.000000 0.000000 0.000000 0.000000 0.037144
#
#
# Mechanical properties :
#
#
# Convention : Reuss Voigt Hill
#
# Bulk Modulus (GPa) = 26.92513 39.34716 33.13614
# Shear Modulus (GPa) = 28.25509 31.52771 29.89140
#
# Velocity S-wave (km/s) = 3.65152 3.85719 3.75577
# Velocity P-wave (km/s) = 5.52124 6.19719 5.86896
#
# Compressibility (1/GPa) = 0.03714003
#
# Stress axis : x y z
#
# Youngs Moduli (GPa) = 37.31267 91.89475 108.41763
#
# Poissons Ratio (x) = 0.09809 0.06021
# Poissons Ratio (y) = 0.03983 0.35347
# Poissons Ratio (z) = 0.02072 0.29960
#
# Static dielectric constant tensor:
#      x y z
#    x 1.821920 0.000000 0.000000 
#    y 0.000000 1.709320 0.000000 
#    z 0.000000 0.000000 1.758830 
# 
# From -- ./inp_files/25800.got.cif
#   From: 2010.05.17/outbox.cif.g08.bks.cpg/sg44_13_cif.got.tgz:25800.got - 2010.06.03 19:37:08.
