data_PCOD9375742
_publ_section_title
;
Structure prediction by ZEFSAII (Michael W. Deem and Ramdas Pophale) SiO2 
 PCOD9375742
Probable space group: I M M 2
;
_chemical_formula_sum "Si O2"
_cell_formula_units_Z 48
_cell_length_a 16.658526
_cell_length_b 7.560820
_cell_length_c 20.339210
_cell_angle_alpha 90.000000
_cell_angle_beta 90.000000
_cell_angle_gamma 90.000000
_cell_volume 2561.766548
_symmetry_space_group_name_H-M "I M M 2"
_symmetry_group_IT_number 44
_symmetry_cell_setting 'orthorhombic'
loop_
_space_group_symop_operation_xyz
x,y,z
-x,-y,z
-x,y,z
x,-y,z
1/2+x,1/2+y,1/2+z
1/2-x,1/2-y,1/2+z
1/2-x,1/2+y,1/2+z
1/2+x,1/2-y,1/2+z
loop_
_atom_site_type_symbol
_atom_site_label
_atom_site_fract_x
_atom_site_fract_y
_atom_site_fract_z
Si Si1 0.500000 0.211830 0.086820
Si Si2 0.500000 0.216579 0.239560
Si Si3 0.591857 0.000000 0.836639
Si Si4 0.092440 0.500000 0.178153
Si Si5 0.677979 0.706304 0.046550
Si Si6 0.282913 0.299348 0.668080
Si Si7 0.293472 0.286719 0.897854
Si Si8 0.828530 0.285879 0.788943
O O1 0.500000 0.271137 0.163099
O O2 0.417773 0.271400 0.052996
O O3 0.500000 0.000000 0.086869
O O4 0.581722 0.276898 0.274396
O O5 0.500000 0.000000 0.239842
O O6 0.593095 0.000000 0.757688
O O7 0.637223 0.173148 0.863331
O O8 0.500000 0.000000 0.859335
O O9 0.142551 0.328731 0.156000
O O10 0.000000 0.500000 0.156346
O O11 0.697105 0.500000 0.054106
O O12 0.722927 0.800312 0.106231
O O13 0.706862 0.762094 0.974472
O O14 0.308904 0.500000 0.682459
O O15 0.231278 0.230375 0.730303
O O16 0.306499 0.500000 0.892767
O O17 0.212372 0.241461 0.858071
O O18 0.831289 0.500000 0.785162
#
# Coordination Sequence:
#
# PCOD9375742 Si02
#       8
#     4   4   4   4   8   8   8   8
#     4  11  21  33  53  91 127 156 199 243 305 373
#     4   9  16  29  57  89 115 146 191 244 292 357
#     4  11  24  38  60  88 116 157 201 246 301 360
#     4  11  24  42  64  90 116 151 207 262 303 362
#     4  11  23  37  56  86 126 165 202 246 304 370
#     4  11  21  38  63  88 119 156 197 252 310 365
#     4  10  23  39  57  83 122 163 200 242 294 362
#     4   9  17  34  57  84 116 153 195 239 294 352
#
# _framework density 18.737069999999999
#
# number of rings (size 3 to 8) (size 9 to 14) (size 15 to 20)
#    0.000    1.667    4.167    0.750    3.500    0.667 
#    0.000    1.667    1.833    0.000    0.000    0.000 
#    0.000    0.000    0.000    0.000    0.000    0.000 
#
# Total GULP energy -134029.718324 kJ/mol
# GULP energy per Si atom -5584.571597 kJ/mol
# Density = 1.869442 g / cm^3
# Si number density = 18.737070 Si / 1000 Ang^3
#
#
#
# Elastic Constant Matrix: (Units=GPa)
#
#
# Indices 1 2 3 4 5 6 
#
# 1 142.3725 26.8328 51.4622 0.0000 0.0000 0.0000
# 2 26.8328 64.2788 6.5578 0.0000 0.0000 0.0000
# 3 51.4622 6.5578 112.6693 0.0000 0.0000 0.0000
# 4 0.0000 0.0000 0.0000 19.4114 0.0000 0.0000
# 5 0.0000 0.0000 0.0000 0.0000 27.4209 0.0000
# 6 0.0000 0.0000 0.0000 0.0000 0.0000 -21.6840
#
#
#
# Elastic Compliance Matrix: (Units=1/GPa)
#
#
# Indices 1 2 3 4 5 6 
#
# 1 0.009093 -0.003392 -0.003956 0.000000 0.000000 0.000000
# 2 -0.003392 0.016916 0.000565 0.000000 0.000000 0.000000
# 3 -0.003956 0.000565 0.010650 0.000000 0.000000 0.000000
# 4 0.000000 0.000000 0.000000 0.051516 0.000000 0.000000
# 5 0.000000 0.000000 0.000000 0.000000 0.036468 0.000000
# 6 0.000000 0.000000 0.000000 0.000000 0.000000 -0.046117
#
#
# Mechanical properties :
#
#
# Convention : Reuss Voigt Hill
#
# Bulk Modulus (GPa) = 43.30546 54.33624 48.82085
# Shear Modulus (GPa) = 50.10542 20.66086 35.38314
#
# Velocity S-wave (km/s) = 5.17681 3.32425 4.35029
# Velocity P-wave (km/s) = 7.67430 6.61789 7.16559
#
# Compressibility (1/GPa) = 0.02309178
#
# Stress axis : x y z
#
# Youngs Moduli (GPa) = 109.97411 59.11671 93.90111
#
# Poissons Ratio (x) = 0.20054 0.37146
# Poissons Ratio (y) = 0.37306 -0.05304
# Poissons Ratio (z) = 0.43504 -0.03339
#
# Static dielectric constant tensor:
#      x y z
#    x 1.628270 0.000000 0.000000 
#    y 0.000000 1.682750 0.000000 
#    z 0.000000 0.000000 1.640860 
# 
# From -- ./inp_files/21757.got.cif
#   From: 2010.05.17/outbox.cif.g08.bks.cpg/sg44_11_cif.got.tgz:21757.got - 2010.06.03 19:37:08.
