data_PCOD9375304
_publ_section_title
;
Structure prediction by ZEFSAII (Michael W. Deem and Ramdas Pophale) SiO2 
 PCOD9375304
Probable space group: I M M 2
;
_chemical_formula_sum "Si O2"
_cell_formula_units_Z 64
_cell_length_a 16.534473
_cell_length_b 21.907573
_cell_length_c 10.012745
_cell_angle_alpha 90.000000
_cell_angle_beta 90.000000
_cell_angle_gamma 90.000000
_cell_volume 3626.918366
_symmetry_space_group_name_H-M "I M M 2"
_symmetry_group_IT_number 44
_symmetry_cell_setting 'orthorhombic'
loop_
_space_group_symop_operation_xyz
x,y,z
-x,-y,z
-x,y,z
x,-y,z
1/2+x,1/2+y,1/2+z
1/2-x,1/2-y,1/2+z
1/2-x,1/2+y,1/2+z
1/2+x,1/2-y,1/2+z
loop_
_atom_site_type_symbol
_atom_site_label
_atom_site_fract_x
_atom_site_fract_y
_atom_site_fract_z
Si Si1 0.824189 0.145324 0.483420
Si Si2 0.595705 0.605736 0.481265
Si Si3 0.096703 0.065107 0.698095
Si Si4 0.176149 0.711520 0.116837
Si Si5 0.402580 0.773062 0.896675
Si Si6 0.214325 0.927598 0.222792
Si Si7 0.689772 0.811898 0.151906
Si Si8 0.409664 0.744265 0.379247
O O1 0.874707 0.119689 0.606622
O O2 0.738959 0.164731 0.549614
O O3 0.868102 0.204372 0.420153
O O4 0.815282 0.095218 0.367924
O O5 0.500000 0.595471 0.507144
O O6 0.623966 0.568826 0.351128
O O7 0.646969 0.588293 0.610468
O O8 0.604114 0.674924 0.426454
O O9 0.000000 0.067208 0.703120
O O10 0.122648 0.000000 0.639807
O O11 0.141675 0.701472 0.264315
O O12 0.228047 0.774698 0.118375
O O13 0.102328 0.718369 0.015174
O O14 0.500000 0.772989 0.885433
O O15 0.370120 0.808638 0.026467
O O16 0.287738 0.880744 0.190779
O O17 0.231419 0.000000 0.220505
O O18 0.651566 0.772211 0.272174
O O19 0.500000 0.748448 0.324162
#
# Coordination Sequence:
#
# PCOD9375304 Si02
#       8
#     8   8   8   8   8   8   8   8
#     4  11  22  37  58  85 120 153 191 238 294 359
#     4  10  21  37  58  86 119 154 195 242 293 350
#     4  10  21  36  53  78 116 160 201 232 268 337
#     4  11  20  36  58  84 117 145 178 245 304 345
#     4  11  22  36  60  90 117 145 185 243 311 358
#     4  12  24  38  57  83 120 165 203 236 282 346
#     4  11  21  38  56  88 121 151 191 243 288 352
#     4  11  20  35  60  86 114 149 186 239 303 350
#
# _framework density 17.645835000000002
#
# number of rings (size 3 to 8) (size 9 to 14) (size 15 to 20)
#    0.000    1.125    3.750    4.125    1.750    3.750 
#    0.000    0.000    0.000    1.500    0.000    0.000 
#    0.000    0.000    0.000    0.000    0.000    0.000 
#
# Total GULP energy -178512.958907 kJ/mol
# GULP energy per Si atom -5578.529966 kJ/mol
# Density = 1.760567 g / cm^3
# Si number density = 17.645835 Si / 1000 Ang^3
#
#
#
# Elastic Constant Matrix: (Units=GPa)
#
#
# Indices 1 2 3 4 5 6 
#
# 1 70.9298 22.6319 28.7588 0.0000 0.0000 0.0000
# 2 22.6319 73.2725 22.5440 0.0000 0.0000 0.0000
# 3 28.7588 22.5440 105.2891 0.0000 0.0000 0.0000
# 4 0.0000 0.0000 0.0000 24.6127 0.0000 0.0000
# 5 0.0000 0.0000 0.0000 0.0000 31.4070 0.0000
# 6 0.0000 0.0000 0.0000 0.0000 0.0000 10.3056
#
#
#
# Elastic Compliance Matrix: (Units=1/GPa)
#
#
# Indices 1 2 3 4 5 6 
#
# 1 0.016918 -0.004072 -0.003749 0.000000 0.000000 0.000000
# 2 -0.004072 0.015590 -0.002226 0.000000 0.000000 0.000000
# 3 -0.003749 -0.002226 0.010998 0.000000 0.000000 0.000000
# 4 0.000000 0.000000 0.000000 0.040629 0.000000 0.000000
# 5 0.000000 0.000000 0.000000 0.000000 0.031840 0.000000
# 6 0.000000 0.000000 0.000000 0.000000 0.000000 0.097035
#
#
# Mechanical properties :
#
#
# Convention : Reuss Voigt Hill
#
# Bulk Modulus (GPa) = 42.71231 44.15123 43.43177
# Shear Modulus (GPa) = 20.75478 24.96885 22.86181
#
# Velocity S-wave (km/s) = 3.43328 3.76573 3.60334
# Velocity P-wave (km/s) = 6.32253 6.63195 6.47909
#
# Compressibility (1/GPa) = 0.02341246
#
# Stress axis : x y z
#
# Youngs Moduli (GPa) = 59.10941 64.14261 90.92329
#
# Poissons Ratio (x) = 0.26119 0.34088
# Poissons Ratio (y) = 0.24069 0.20239
# Poissons Ratio (z) = 0.22161 0.14277
#
# Static dielectric constant tensor:
#      x y z
#    x 1.607350 0.000000 0.000000 
#    y 0.000000 1.633160 0.000000 
#    z 0.000000 0.000000 1.613340 
# 
# From -- ./inp_files/8441.got.cif
#   From: 2010.05.17/outbox.cif.g08.bks.cpg/sg44_5_cif.got.tgz:8441.got - 2010.06.03 19:37:08.
