data_PCOD9375168
_publ_section_title
;
Structure prediction by ZEFSAII (Michael W. Deem and Ramdas Pophale) SiO2 
 PCOD9375168
Probable space group: I M M 2
;
_chemical_formula_sum "Si O2"
_cell_formula_units_Z 48
_cell_length_a 16.809159
_cell_length_b 15.802856
_cell_length_c 8.905318
_cell_angle_alpha 90.000000
_cell_angle_beta 90.000000
_cell_angle_gamma 90.000000
_cell_volume 2365.543835
_symmetry_space_group_name_H-M "I M M 2"
_symmetry_group_IT_number 44
_symmetry_cell_setting 'orthorhombic'
loop_
_space_group_symop_operation_xyz
x,y,z
-x,-y,z
-x,y,z
x,-y,z
1/2+x,1/2+y,1/2+z
1/2-x,1/2-y,1/2+z
1/2-x,1/2+y,1/2+z
1/2+x,1/2-y,1/2+z
loop_
_atom_site_type_symbol
_atom_site_label
_atom_site_fract_x
_atom_site_fract_y
_atom_site_fract_z
Si Si1 0.588662 0.657596 0.619040
Si Si2 0.142849 0.500000 0.281969
Si Si3 0.824049 0.500000 0.634449
Si Si4 0.591707 0.821432 0.165836
Si Si5 0.652537 0.500000 0.791833
Si Si6 0.684877 0.669320 0.320437
Si Si7 0.123614 0.683205 0.319017
Si Si8 0.309612 0.500000 0.141068
O O1 0.500000 0.647199 0.555007
O O2 0.606782 0.582793 0.735199
O O3 0.653735 0.655300 0.488266
O O4 0.594751 0.745831 0.706201
O O5 0.180837 0.500000 0.451689
O O6 0.097605 0.588428 0.273611
O O7 0.213699 0.500000 0.161439
O O8 0.870835 0.584994 0.679606
O O9 0.738305 0.500000 0.710431
O O10 0.500000 0.820819 0.214323
O O11 0.642546 0.752124 0.254333
O O12 0.596434 0.799949 0.988547
O O13 0.664920 0.500000 0.969425
O O14 0.779895 0.681592 0.317518
O O15 0.663784 0.585793 0.224295
#
# Coordination Sequence:
#
# PCOD9375168 Si02
#       8
#     8   4   4   8   4   8   8   4
#     4  12  25  41  60  90 127 162 201 257 315 362
#     4   8  18  37  60  90 118 151 199 250 298 349
#     4  10  21  39  65  90 121 163 205 250 304 369
#     4  11  22  38  60  92 126 160 204 259 310 357
#     4  12  23  40  64  90 118 160 209 254 306 372
#     4  11  22  41  63  88 121 164 208 252 305 370
#     4  10  20  38  64  90 120 160 208 253 299 366
#     4  10  22  38  63  90 113 148 205 260 298 350
#
# _framework density 20.291316999999999
#
# number of rings (size 3 to 8) (size 9 to 14) (size 15 to 20)
#    0.000    1.333    0.000    8.000    0.000    4.000 
#    0.000    5.000    0.000    0.000    0.000    1.167 
#    0.000    0.000    0.000    0.000    0.000    0.000 
#
# Total GULP energy -134244.781837 kJ/mol
# GULP energy per Si atom -5593.532577 kJ/mol
# Density = 2.024513 g / cm^3
# Si number density = 20.291317 Si / 1000 Ang^3
#
#
#
# Elastic Constant Matrix: (Units=GPa)
#
#
# Indices 1 2 3 4 5 6 
#
# 1 102.7668 26.8220 -1.8694 0.0000 0.0000 0.0000
# 2 26.8220 131.5543 47.0782 0.0000 0.0000 0.0000
# 3 -1.8694 47.0782 68.5313 0.0000 0.0000 0.0000
# 4 0.0000 0.0000 0.0000 37.7501 0.0000 0.0000
# 5 0.0000 0.0000 0.0000 0.0000 14.2022 0.0000
# 6 0.0000 0.0000 0.0000 0.0000 0.0000 67.5104
#
#
#
# Elastic Compliance Matrix: (Units=1/GPa)
#
#
# Indices 1 2 3 4 5 6 
#
# 1 0.010554 -0.002990 0.002342 0.000000 0.000000 0.000000
# 2 -0.002990 0.010926 -0.007587 0.000000 0.000000 0.000000
# 3 0.002342 -0.007587 0.019868 0.000000 0.000000 0.000000
# 4 0.000000 0.000000 0.000000 0.026490 0.000000 0.000000
# 5 0.000000 0.000000 0.000000 0.000000 0.070412 0.000000
# 6 0.000000 0.000000 0.000000 0.000000 0.000000 0.014813
#
#
# Mechanical properties :
#
#
# Convention : Reuss Voigt Hill
#
# Bulk Modulus (GPa) = 40.19778 49.65711 44.92744
# Shear Modulus (GPa) = 28.11745 39.28064 33.69904
#
# Velocity S-wave (km/s) = 3.72652 4.40459 4.07967
# Velocity P-wave (km/s) = 6.19430 7.09876 6.66189
#
# Compressibility (1/GPa) = 0.02487700
#
# Stress axis : x y z
#
# Youngs Moduli (GPa) = 94.75358 91.52285 50.33224
#
# Poissons Ratio (x) = 0.27363 -0.11786
# Poissons Ratio (y) = 0.28329 0.38189
# Poissons Ratio (z) = -0.22189 0.69442
#
# Static dielectric constant tensor:
#      x y z
#    x 1.704410 0.000000 0.000000 
#    y 0.000000 1.713410 0.000000 
#    z 0.000000 0.000000 1.682670 
# 
# From -- ./inp_files/8147.got.cif
#   From: 2010.05.17/outbox.cif.g08.bks.cpg/sg44_5_cif.got.tgz:8147.got - 2010.06.03 19:37:08.
