data_PCOD9375290
_publ_section_title
;
Structure prediction by ZEFSAII (Michael W. Deem and Ramdas Pophale) SiO2 
 PCOD9375290
Probable space group: I M M 2
;
_chemical_formula_sum "Si O2"
_cell_formula_units_Z 48
_cell_length_a 8.978513
_cell_length_b 7.456471
_cell_length_c 36.107208
_cell_angle_alpha 90.000000
_cell_angle_beta 90.000000
_cell_angle_gamma 90.000000
_cell_volume 2417.306149
_symmetry_space_group_name_H-M "I M M 2"
_symmetry_group_IT_number 44
_symmetry_cell_setting 'orthorhombic'
loop_
_space_group_symop_operation_xyz
x,y,z
-x,-y,z
-x,y,z
x,-y,z
1/2+x,1/2+y,1/2+z
1/2-x,1/2-y,1/2+z
1/2-x,1/2+y,1/2+z
1/2+x,1/2-y,1/2+z
loop_
_atom_site_type_symbol
_atom_site_label
_atom_site_fract_x
_atom_site_fract_y
_atom_site_fract_z
Si Si1 0.321328 0.285030 0.036820
Si Si2 0.677681 0.500000 0.483445
Si Si3 0.180763 0.210396 0.618679
Si Si4 0.830339 0.784829 0.698351
Si Si5 0.167054 0.214009 0.274708
Si Si6 0.675404 0.785084 0.349672
Si Si7 0.677522 0.000000 0.902555
O O1 0.500000 0.256132 0.033438
O O2 0.297071 0.500000 0.034032
O O3 0.275047 0.220657 0.078276
O O4 0.236088 0.172395 0.006192
O O5 0.500000 0.500000 0.481114
O O6 0.749085 0.500000 0.442880
O O7 0.229888 0.284061 0.658615
O O8 0.000000 0.220981 0.619865
O O9 0.220702 0.000000 0.617739
O O10 0.734376 0.749135 0.734441
O O11 0.000000 0.718929 0.703974
O O12 0.838799 0.000000 0.694459
O O13 0.269690 0.273223 0.308787
O O14 0.000000 0.287049 0.278064
O O15 0.158857 0.000000 0.278227
O O16 0.500000 0.749455 0.353552
O O17 0.766154 0.672738 0.379654
O O18 0.698304 0.000000 0.353575
O O19 0.500000 0.000000 0.905318
#
# Coordination Sequence:
#
# PCOD9375290 Si02
#       7
#     8   4   8   8   8   8   4
#     4   9  18  37  65  90 116 155 202 252 303 355
#     4  12  26  42  60  90 128 160 196 244 296 364
#     4   7  12  27  52  80 108 142 190 243 294 346
#     4   9  17  30  51  79 109 144 190 244 293 343
#     4  10  21  36  52  75 112 155 196 238 286 344
#     4  10  22  42  67  92 120 156 198 245 297 357
#     4  12  26  44  68  94 122 156 196 246 300 362
#
# _framework density 19.856815000000001
#
# number of rings (size 3 to 8) (size 9 to 14) (size 15 to 20)
#    0.000    2.500    0.000    4.500    1.167    3.333 
#    1.500    0.833    0.000    3.000    0.000    0.000 
#    0.000    0.000    0.000    0.000    0.000    0.000 
#
# Total GULP energy -133898.452562 kJ/mol
# GULP energy per Si atom -5579.102190 kJ/mol
# Density = 1.981162 g / cm^3
# Si number density = 19.856815 Si / 1000 Ang^3
#
#
#
# Elastic Constant Matrix: (Units=GPa)
#
#
# Indices 1 2 3 4 5 6 
#
# 1 112.8264 43.2818 84.8875 0.0000 0.0000 0.0000
# 2 43.2818 77.3139 47.6957 0.0000 0.0000 0.0000
# 3 84.8875 47.6957 198.5357 0.0000 0.0000 0.0000
# 4 0.0000 0.0000 0.0000 36.9144 0.0000 0.0000
# 5 0.0000 0.0000 0.0000 0.0000 28.7104 0.0000
# 6 0.0000 0.0000 0.0000 0.0000 0.0000 23.9002
#
#
#
# Elastic Compliance Matrix: (Units=1/GPa)
#
#
# Indices 1 2 3 4 5 6 
#
# 1 0.014582 -0.005068 -0.005017 0.000000 0.000000 0.000000
# 2 -0.005068 0.016946 -0.001904 0.000000 0.000000 0.000000
# 3 -0.005017 -0.001904 0.007640 0.000000 0.000000 0.000000
# 4 0.000000 0.000000 0.000000 0.027090 0.000000 0.000000
# 5 0.000000 0.000000 0.000000 0.000000 0.034831 0.000000
# 6 0.000000 0.000000 0.000000 0.000000 0.000000 0.041841
#
#
# Mechanical properties :
#
#
# Convention : Reuss Voigt Hill
#
# Bulk Modulus (GPa) = 65.83813 82.26735 74.05274
# Shear Modulus (GPa) = 29.07461 32.09240 30.58351
#
# Velocity S-wave (km/s) = 3.83066 4.02455 3.92880
# Velocity P-wave (km/s) = 7.26592 7.94457 7.61281
#
# Compressibility (1/GPa) = 0.01518877
#
# Stress axis : x y z
#
# Youngs Moduli (GPa) = 68.57610 59.01020 130.89713
#
# Poissons Ratio (x) = 0.29908 0.65676
# Poissons Ratio (y) = 0.34756 0.24924
# Poissons Ratio (z) = 0.34407 0.11236
#
# Static dielectric constant tensor:
#      x y z
#    x 1.675170 0.000000 0.000000 
#    y 0.000000 1.733100 0.000000 
#    z 0.000000 0.000000 1.706090 
# 
# From -- ./inp_files/26911.got.cif
#   From: 2010.05.17/outbox.cif.g08.bks.cpg/sg44_14_cif.got.tgz:26911.got - 2010.06.03 19:37:08.
