data_PCOD9375951
_publ_section_title
;
Structure prediction by ZEFSAII (Michael W. Deem and Ramdas Pophale) SiO2 
 PCOD9375951
Probable space group: I M M 2
;
_chemical_formula_sum "Si O2"
_cell_formula_units_Z 32
_cell_length_a 27.000000
_cell_length_b 9.000000
_cell_length_c 18.000000
_cell_angle_alpha 90.000000
_cell_angle_beta 90.000000
_cell_angle_gamma 90.000000
_cell_volume 4374.000000
_symmetry_space_group_name_H-M "I M M 2"
_symmetry_group_IT_number 44
_symmetry_cell_setting 'orthorhombic'
loop_
_space_group_symop_operation_xyz
x,y,z
-x,-y,z
-x,y,z
x,-y,z
1/2+x,1/2+y,1/2+z
1/2-x,1/2-y,1/2+z
1/2-x,1/2+y,1/2+z
1/2+x,1/2-y,1/2+z
loop_
_atom_site_type_symbol
_atom_site_label
_atom_site_fract_x
_atom_site_fract_y
_atom_site_fract_z
Si Si1 0.203407 0.676875 0.631570
Si Si2 0.058099 0.677896 0.253661
Si Si3 0.205898 0.677342 0.040791
Si Si4 0.735329 0.671425 0.769848
Si Si5 0.642040 0.674184 0.658054
Si Si6 0.233308 0.324133 0.423329
Si Si7 0.856569 0.177345 0.515303
Si Si8 0.441128 0.824137 0.925604
O O1 0.205928 0.500000 0.615502
O O2 0.248034 0.762343 0.590034
O O3 0.216555 0.694004 0.717887
O O4 0.154942 0.748446 0.595284
O O5 0.064475 0.500000 0.245814
O O6 0.093548 0.762426 0.197455
O O7 0.070516 0.714831 0.339623
O O8 0.000000 0.711186 0.242381
O O9 0.206566 0.500000 0.036029
O O10 0.158181 0.736494 0.084645
O O11 0.218307 0.753033 0.962289
O O12 0.735283 0.500000 0.796809
O O13 0.687210 0.688926 0.717271
O O14 0.733102 0.783495 0.837303
O O15 0.637530 0.500000 0.640864
O O16 0.231357 0.500000 0.435967
O O17 0.185489 0.246400 0.460921
O O18 0.908475 0.228093 0.481067
O O19 0.851722 0.000000 0.518465
O O20 0.500000 0.804807 0.935672
O O21 0.430002 0.000000 0.935249
#
# Coordination Sequence:
#
# PCOD9375951 Si02
#       8
#     8   8   8   8   8   8   8   8
#     4   9  17  30  45  60  82 110 141 176 211 250
#     4   9  18  31  45  62  84 111 145 182 216 250
#     4  10  18  29  44  60  82 110 141 176 212 250
#     4   9  18  30  43  62  86 111 141 177 213 251
#     4  10  19  30  44  62  85 113 145 177 212 254
#     4  11  20  29  43  62  86 114 144 176 210 252
#     4  11  20  29  43  62  86 114 145 178 212 253
#     4   9  18  32  47  62  83 112 146 182 216 250
#
# _framework density 7.3159580000000002
#
# number of rings (size 3 to 8) (size 9 to 14) (size 15 to 20)
#    0.000    2.250    0.000    7.875    0.000    6.000 
#    0.000    1.250    0.000    0.000    0.000    0.000 
#    0.000    1.000    0.000    8.750    0.000    4.875 
#
# Total GULP energy -178350.044019 kJ/mol
# GULP energy per Si atom -5573.438876 kJ/mol
# Density = 0.729931 g / cm^3
# Si number density = 7.315958 Si / 1000 Ang^3
#
#
#
# Elastic Constant Matrix: (Units=GPa)
#
#
# Indices 1 2 3 4 5 6 
#
# 1 40.0341 24.7465 11.5328 0.0000 0.0000 0.0000
# 2 24.7465 95.1521 25.3602 0.0000 0.0000 0.0000
# 3 11.5328 25.3602 25.5524 0.0000 0.0000 0.0000
# 4 0.0000 0.0000 0.0000 24.1168 0.0000 0.0000
# 5 0.0000 0.0000 0.0000 0.0000 26.6007 0.0000
# 6 0.0000 0.0000 0.0000 0.0000 0.0000 24.1722
#
#
#
# Elastic Compliance Matrix: (Units=1/GPa)
#
#
# Indices 1 2 3 4 5 6 
#
# 1 0.030959 -0.005884 -0.008133 0.000000 0.000000 0.000000
# 2 -0.005884 0.015407 -0.012636 0.000000 0.000000 0.000000
# 3 -0.008133 -0.012636 0.055347 0.000000 0.000000 0.000000
# 4 0.000000 0.000000 0.000000 0.041465 0.000000 0.000000
# 5 0.000000 0.000000 0.000000 0.000000 0.037593 0.000000
# 6 0.000000 0.000000 0.000000 0.000000 0.000000 0.041370
#
#
# Mechanical properties :
#
#
# Convention : Reuss Voigt Hill
#
# Bulk Modulus (GPa) = 20.65817 31.55751 26.10784
# Shear Modulus (GPa) = 17.14777 21.58454 19.36616
#
# Velocity S-wave (km/s) = 3.42708 3.84496 3.64202
# Velocity P-wave (km/s) = 5.45977 6.42853 5.96385
#
# Compressibility (1/GPa) = 0.04840700
#
# Stress axis : x y z
#
# Youngs Moduli (GPa) = 32.30106 64.90351 18.06778
#
# Poissons Ratio (x) = 0.38188 0.14695
# Poissons Ratio (y) = 0.19005 0.22830
# Poissons Ratio (z) = 0.26272 0.82012
#
# Static dielectric constant tensor:
#      x y z
#    x 1.483780 0.000000 0.000000 
#    y 0.000000 1.483890 0.000000 
#    z 0.000000 0.000000 1.506530 
# 
# From -- ./inp_files/22354.got.cif
#   From: 2010.05.17/outbox.ucp.g08.bks.cvg/sg44_12_cif.got.tgz:22354.got - 2010.06.11 16:32:36.
