data_PCOD9375752
_publ_section_title
;
Structure prediction by ZEFSAII (Michael W. Deem and Ramdas Pophale) SiO2 
 PCOD9375752
Probable space group: I M M 2
;
_chemical_formula_sum "Si O2"
_cell_formula_units_Z 48
_cell_length_a 10.379109
_cell_length_b 17.583149
_cell_length_c 13.857045
_cell_angle_alpha 90.000000
_cell_angle_beta 90.000000
_cell_angle_gamma 90.000000
_cell_volume 2528.874962
_symmetry_space_group_name_H-M "I M M 2"
_symmetry_group_IT_number 44
_symmetry_cell_setting 'orthorhombic'
loop_
_space_group_symop_operation_xyz
x,y,z
-x,-y,z
-x,y,z
x,-y,z
1/2+x,1/2+y,1/2+z
1/2-x,1/2-y,1/2+z
1/2-x,1/2+y,1/2+z
1/2+x,1/2-y,1/2+z
loop_
_atom_site_type_symbol
_atom_site_label
_atom_site_fract_x
_atom_site_fract_y
_atom_site_fract_z
Si Si1 0.000000 0.092441 0.695650
Si Si2 0.649328 0.842317 0.194490
Si Si3 0.347129 0.000000 0.500334
Si Si4 0.000000 0.092362 0.930018
Si Si5 0.344072 0.000000 0.285128
Si Si6 0.731293 0.850269 0.611946
Si Si7 0.643857 0.229491 0.787927
Si Si8 0.243315 0.194308 0.994995
O O1 0.123124 0.134421 0.648911
O O2 0.000000 0.100948 0.812561
O O3 0.000000 0.000000 0.676446
O O4 0.500000 0.827548 0.219822
O O5 0.744892 0.784406 0.247314
O O6 0.691466 0.924524 0.229996
O O7 0.668584 0.838746 0.080095
O O8 0.291083 0.000000 0.392830
O O9 0.306944 0.924996 0.555550
O O10 0.500000 0.000000 0.492186
O O11 0.876753 0.138185 0.973063
O O12 0.000000 0.000000 0.949395
O O13 0.500000 0.000000 0.289200
O O14 0.650172 0.837889 0.709479
O O15 0.709705 0.777501 0.541322
O O16 0.500000 0.262946 0.786471
O O17 0.681804 0.205494 0.895153
#
# Coordination Sequence:
#
# PCOD9375752 Si02
#       8
#     4   8   4   4   4   8   8   8
#     4  11  22  46  70  98 134 181 236 286 340 412
#     4  10  23  41  66  91 128 175 220 274 338 414
#     4  11  22  39  64  95 128 171 211 271 340 411
#     4  11  26  46  70 101 137 190 241 292 344 414
#     4   9  20  42  63  90 123 165 219 265 334 413
#     4  11  24  40  65  96 133 170 222 277 343 401
#     4  11  24  41  61  96 132 168 220 279 337 401
#     4  11  25  39  69  93 136 172 228 277 345 403
#
# _framework density 18.980772000000002
#
# number of rings (size 3 to 8) (size 9 to 14) (size 15 to 20)
#    0.000    1.333    2.500    2.000   14.000    0.000 
#    0.000    0.417    0.000    0.000    0.000    0.000 
#    0.000    0.000    0.000    0.000    0.000    0.000 
#
# Total GULP energy -133904.087223 kJ/mol
# GULP energy per Si atom -5579.336968 kJ/mol
# Density = 1.893757 g / cm^3
# Si number density = 18.980772 Si / 1000 Ang^3
#
#
#
# Elastic Constant Matrix: (Units=GPa)
#
#
# Indices 1 2 3 4 5 6 
#
# 1 123.6642 42.1500 34.5691 0.0000 0.0000 0.0000
# 2 42.1500 135.6107 70.6573 0.0000 0.0000 0.0000
# 3 34.5691 70.6573 159.0178 0.0001 0.0000 0.0000
# 4 0.0000 0.0000 0.0001 40.2018 0.0000 0.0000
# 5 0.0000 0.0000 0.0000 0.0000 25.6915 0.0000
# 6 0.0000 0.0000 0.0000 0.0000 0.0000 39.7126
#
#
#
# Elastic Compliance Matrix: (Units=1/GPa)
#
#
# Indices 1 2 3 4 5 6 
#
# 1 0.009152 -0.002353 -0.000944 0.000000 0.000000 0.000000
# 2 -0.002353 0.010200 -0.004021 0.000000 0.000000 0.000000
# 3 -0.000944 -0.004021 0.008281 0.000000 0.000000 0.000000
# 4 0.000000 0.000000 0.000000 0.024874 0.000000 0.000000
# 5 0.000000 0.000000 0.000000 0.000000 0.038923 0.000000
# 6 0.000000 0.000000 0.000000 0.000000 0.000000 0.025181
#
#
# Mechanical properties :
#
#
# Convention : Reuss Voigt Hill
#
# Bulk Modulus (GPa) = 76.93844 79.22729 78.08287
# Shear Modulus (GPa) = 36.87860 39.18229 38.03045
#
# Velocity S-wave (km/s) = 4.41267 4.54840 4.48105
# Velocity P-wave (km/s) = 8.15997 8.33159 8.24623
#
# Compressibility (1/GPa) = 0.01299740
#
# Stress axis : x y z
#
# Youngs Moduli (GPa) = 109.26257 98.03612 120.76556
#
# Poissons Ratio (x) = 0.23065 0.11403
# Poissons Ratio (y) = 0.25706 0.48559
# Poissons Ratio (z) = 0.10317 0.39419
#
# Static dielectric constant tensor:
#      x y z
#    x 1.669310 0.000000 0.000000 
#    y 0.000000 1.685100 0.000000 
#    z 0.000000 0.000000 1.648220 
# 
# From -- ./inp_files/16253.got.cif
#   From: 2010.05.17/outbox.cif.g08.bks.cpg/sg44_9_cif.got.tgz:16253.got - 2010.06.03 19:37:08.
