data_PCOD9375961
_publ_section_title
;
Structure prediction by ZEFSAII (Michael W. Deem and Ramdas Pophale) SiO2 
 PCOD9375961
Probable space group: I M M 2
;
_chemical_formula_sum "Si O2"
_cell_formula_units_Z 32
_cell_length_a 9.000000
_cell_length_b 21.000000
_cell_length_c 21.000000
_cell_angle_alpha 90.000000
_cell_angle_beta 90.000000
_cell_angle_gamma 90.000000
_cell_volume 3969.000000
_symmetry_space_group_name_H-M "I M M 2"
_symmetry_group_IT_number 44
_symmetry_cell_setting 'orthorhombic'
loop_
_space_group_symop_operation_xyz
x,y,z
-x,-y,z
-x,y,z
x,-y,z
1/2+x,1/2+y,1/2+z
1/2-x,1/2-y,1/2+z
1/2-x,1/2+y,1/2+z
1/2+x,1/2-y,1/2+z
loop_
_atom_site_type_symbol
_atom_site_label
_atom_site_fract_x
_atom_site_fract_y
_atom_site_fract_z
Si Si1 0.178538 0.927084 0.822790
Si Si2 0.820451 0.731703 0.693694
Si Si3 0.680851 0.928559 0.419800
Si Si4 0.680372 0.189035 0.333299
Si Si5 0.678833 0.132732 0.553584
Si Si6 0.322163 0.128021 0.696394
Si Si7 0.821702 0.727202 0.549521
Si Si8 0.179829 0.187039 0.917944
O O1 0.251818 0.910131 0.754966
O O2 0.221373 0.875555 0.876872
O O3 0.000000 0.921716 0.815381
O O4 0.214093 0.000000 0.840421
O O5 0.776959 0.694648 0.758670
O O6 0.743545 0.800565 0.698932
O O7 0.785034 0.704870 0.622583
O O8 0.000000 0.739943 0.695446
O O9 0.500000 0.928689 0.417183
O O10 0.731982 0.874043 0.370662
O O11 0.719271 0.909395 0.492407
O O12 0.732098 0.000000 0.404936
O O13 0.500000 0.188330 0.334013
O O14 0.723502 0.251380 0.374789
O O15 0.500000 0.143762 0.551064
O O16 0.711588 0.104916 0.623967
O O17 0.760290 0.200472 0.547075
O O18 0.500000 0.129166 0.703403
O O19 0.750396 0.691933 0.488434
O O20 0.000000 0.726374 0.543339
O O21 0.000000 0.188356 0.924545
#
# Coordination Sequence:
#
# PCOD9375961 Si02
#       8
#     8   8   8   8   8   8   8   8
#     4  10  21  36  52  69  92 128 170 206 245 298
#     4   9  17  31  49  70  98 129 160 195 238 287
#     4   9  16  26  44  70  94 118 154 195 228 266
#     4   9  15  27  49  70  89 121 159 194 231 272
#     4   9  17  30  46  68  99 133 163 189 229 285
#     4  10  19  29  46  72 101 129 159 197 239 286
#     4  10  19  29  47  74 100 124 156 200 243 283
#     4  10  18  32  53  71  92 124 162 202 242 287
#
# _framework density 8.0624839999999995
#
# number of rings (size 3 to 8) (size 9 to 14) (size 15 to 20)
#    0.000    2.500    2.500    0.750    0.000    2.250 
#    0.000    1.250    0.000    1.125    0.000    1.750 
#    0.000    0.000    0.000    0.000    0.000    0.000 
#
# Total GULP energy -178259.603236 kJ/mol
# GULP energy per Si atom -5570.612601 kJ/mol
# Density = 0.804413 g / cm^3
# Si number density = 8.062484 Si / 1000 Ang^3
#
#
#
# Elastic Constant Matrix: (Units=GPa)
#
#
# Indices 1 2 3 4 5 6 
#
# 1 18.2938 18.8943 28.3077 0.0000 0.0000 0.0000
# 2 18.8943 110.4074 81.0748 0.0000 0.0000 0.0000
# 3 28.3077 81.0748 169.1374 0.0000 0.0000 0.0000
# 4 0.0000 0.0000 0.0000 25.1207 0.0000 0.0000
# 5 0.0000 0.0000 0.0000 0.0000 29.2776 0.0000
# 6 0.0000 0.0000 0.0000 0.0000 0.0000 12.3992
#
#
#
# Elastic Compliance Matrix: (Units=1/GPa)
#
#
# Indices 1 2 3 4 5 6 
#
# 1 0.075989 -0.005656 -0.010007 0.000000 0.000000 0.000000
# 2 -0.005656 0.014398 -0.005955 0.000000 0.000000 0.000000
# 3 -0.010007 -0.005955 0.010442 0.000000 0.000000 0.000000
# 4 0.000000 0.000000 0.000000 0.039808 0.000000 0.000000
# 5 0.000000 0.000000 0.000000 0.000000 0.034156 0.000000
# 6 0.000000 0.000000 0.000000 0.000000 0.000000 0.080650
#
#
# Mechanical properties :
#
#
# Convention : Reuss Voigt Hill
#
# Bulk Modulus (GPa) = 17.36309 61.59914 39.48111
# Shear Modulus (GPa) = 15.72937 24.66361 20.19649
#
# Velocity S-wave (km/s) = 3.12663 3.91516 3.54290
# Velocity P-wave (km/s) = 4.88115 7.66303 6.42447
#
# Compressibility (1/GPa) = 0.05759343
#
# Stress axis : x y z
#
# Youngs Moduli (GPa) = 13.15976 69.45290 95.77009
#
# Poissons Ratio (x) = 0.39282 0.95835
# Poissons Ratio (y) = 0.07443 0.57032
# Poissons Ratio (z) = 0.13169 0.41360
#
# Static dielectric constant tensor:
#      x y z
#    x 1.535340 0.000000 0.000000 
#    y 0.000000 1.532000 0.000000 
#    z 0.000000 0.000000 1.560390 
# 
# From -- ./inp_files/23410.got.cif
#   From: 2010.05.17/outbox.ucp.g08.bks.cvg/sg44_12_cif.got.tgz:23410.got - 2010.06.11 16:32:36.
