data_PCOD9375332
_publ_section_title
;
Structure prediction by ZEFSAII (Michael W. Deem and Ramdas Pophale) SiO2 
 PCOD9375332
Probable space group: I M M 2
;
_chemical_formula_sum "Si O2"
_cell_formula_units_Z 56
_cell_length_a 14.057139
_cell_length_b 9.148914
_cell_length_c 19.616932
_cell_angle_alpha 90.000000
_cell_angle_beta 90.000000
_cell_angle_gamma 90.000000
_cell_volume 2522.885677
_symmetry_space_group_name_H-M "I M M 2"
_symmetry_group_IT_number 44
_symmetry_cell_setting 'orthorhombic'
loop_
_space_group_symop_operation_xyz
x,y,z
-x,-y,z
-x,y,z
x,-y,z
1/2+x,1/2+y,1/2+z
1/2-x,1/2-y,1/2+z
1/2-x,1/2+y,1/2+z
1/2+x,1/2-y,1/2+z
loop_
_atom_site_type_symbol
_atom_site_label
_atom_site_fract_x
_atom_site_fract_y
_atom_site_fract_z
Si Si1 0.388519 0.324627 0.574050
Si Si2 0.386887 0.157173 0.096147
Si Si3 0.276006 0.671767 0.991815
Si Si4 0.607394 0.664905 0.369779
Si Si5 0.390070 0.652306 0.207059
Si Si6 0.387877 0.824910 0.720354
Si Si7 0.791356 0.170418 0.348447
O O1 0.500000 0.291171 0.559896
O O2 0.380091 0.500000 0.578894
O O3 0.318273 0.261339 0.516084
O O4 0.365505 0.250115 0.647448
O O5 0.500000 0.146265 0.090831
O O6 0.355741 0.199725 0.172802
O O7 0.346428 0.000000 0.075666
O O8 0.348423 0.287770 0.051591
O O9 0.254037 0.500000 0.989638
O O10 0.335028 0.709049 0.922283
O O11 0.500000 0.693986 0.393582
O O12 0.635236 0.500000 0.394007
O O13 0.605546 0.654534 0.287643
O O14 0.684203 0.792180 0.374495
O O15 0.500000 0.644018 0.184701
O O16 0.341208 0.500000 0.186462
O O17 0.500000 0.793131 0.734128
O O18 0.326478 0.763619 0.784071
O O19 0.377316 0.000000 0.715748
O O20 0.802976 0.000000 0.332565
#
# Coordination Sequence:
#
# PCOD9375332 Si02
#       7
#     8   8   8   8   8   8   8
#     4  10  22  42  69  98 126 160 208 268 325 376
#     4  10  21  36  56  84 117 153 194 243 298 355
#     4  11  25  42  60  86 123 168 212 254 309 376
#     4   9  19  36  58  84 116 156 198 240 292 356
#     4   8  15  30  52  78 108 143 183 225 275 341
#     4  10  22  42  69  97 125 163 211 264 321 380
#     4  11  25  41  59  88 125 166 210 257 311 371
#
# _framework density 22.196804
#
# number of rings (size 3 to 8) (size 9 to 14) (size 15 to 20)
#    0.000    2.143    0.000    3.000    2.000    6.857 
#    0.000    7.143    0.000    0.000    0.000    0.000 
#    0.000    0.000    0.000    0.000    0.000    0.000 
#
# Total GULP energy -155998.524993 kJ/mol
# GULP energy per Si atom -5571.375893 kJ/mol
# Density = 2.214628 g / cm^3
# Si number density = 22.196804 Si / 1000 Ang^3
#
#
#
# Elastic Constant Matrix: (Units=GPa)
#
#
# Indices 1 2 3 4 5 6 
#
# 1 82.8620 10.7656 8.7079 0.0000 0.0000 0.0000
# 2 10.7656 88.5847 49.3823 0.0000 0.0000 0.0000
# 3 8.7079 49.3823 117.9679 0.0000 0.0000 0.0000
# 4 0.0000 0.0000 0.0000 22.9090 0.0000 0.0000
# 5 0.0000 0.0000 0.0000 0.0000 -10.5318 0.0000
# 6 0.0000 0.0000 0.0000 0.0000 0.0000 26.0170
#
#
#
# Elastic Compliance Matrix: (Units=1/GPa)
#
#
# Indices 1 2 3 4 5 6 
#
# 1 0.012274 -0.001287 -0.000367 0.000000 0.000000 0.000000
# 2 -0.001287 0.014860 -0.006125 0.000000 0.000000 0.000000
# 3 -0.000367 -0.006125 0.011068 0.000000 0.000000 0.000000
# 4 0.000000 0.000000 0.000000 0.043651 0.000000 0.000000
# 5 0.000000 0.000000 0.000000 0.000000 -0.094951 0.000000
# 6 0.000000 0.000000 0.000000 0.000000 0.000000 0.038436
#
#
# Mechanical properties :
#
#
# Convention : Reuss Voigt Hill
#
# Bulk Modulus (GPa) = 44.16439 47.45847 45.81143
# Shear Modulus (GPa) = 103.20882 22.38276 62.79579
#
# Velocity S-wave (km/s) = 6.82628 3.17894 5.32465
# Velocity P-wave (km/s) = 9.05929 5.90774 7.64762
#
# Compressibility (1/GPa) = 0.02264267
#
# Stress axis : x y z
#
# Youngs Moduli (GPa) = 81.47271 67.29619 90.34950
#
# Poissons Ratio (x) = 0.08660 0.03319
# Poissons Ratio (y) = 0.10485 0.55343
# Poissons Ratio (z) = 0.02993 0.41222
#
# Static dielectric constant tensor:
#      x y z
#    x 1.972220 0.000000 0.000000 
#    y 0.000000 1.885410 0.000000 
#    z 0.000000 0.000000 1.908070 
# 
# From -- ./inp_files/24143.got.cif
#   From: 2010.05.17/outbox.cif.g08.bks.cpg/sg44_13_cif.got.tgz:24143.got - 2010.06.03 19:37:08.
