data_PCOD9375848
_publ_section_title
;
Structure prediction by ZEFSAII (Michael W. Deem and Ramdas Pophale) SiO2 
 PCOD9375848
Probable space group: I M M 2
;
_chemical_formula_sum "Si O2"
_cell_formula_units_Z 32
_cell_length_a 7.879344
_cell_length_b 17.589841
_cell_length_c 10.116274
_cell_angle_alpha 90.000000
_cell_angle_beta 90.000000
_cell_angle_gamma 90.000000
_cell_volume 1402.079240
_symmetry_space_group_name_H-M "I M M 2"
_symmetry_group_IT_number 44
_symmetry_cell_setting 'orthorhombic'
loop_
_space_group_symop_operation_xyz
x,y,z
-x,-y,z
-x,y,z
x,-y,z
1/2+x,1/2+y,1/2+z
1/2-x,1/2-y,1/2+z
1/2-x,1/2+y,1/2+z
1/2+x,1/2-y,1/2+z
loop_
_atom_site_type_symbol
_atom_site_label
_atom_site_fract_x
_atom_site_fract_y
_atom_site_fract_z
Si Si1 0.804091 0.125564 0.121080
Si Si2 0.802235 0.204087 0.619214
Si Si3 0.707542 0.416828 0.331957
Si Si4 0.302280 0.915375 0.409707
O O1 0.793149 0.216664 0.109250
O O2 0.713117 0.098788 0.253419
O O3 0.000000 0.101864 0.133716
O O4 0.736428 0.093315 0.982897
O O5 0.736100 0.151548 0.738747
O O6 0.787760 0.151654 0.489627
O O7 0.000000 0.222216 0.643406
O O8 0.500000 0.414401 0.331566
O O9 0.759012 0.500000 0.281897
O O10 0.500000 0.912820 0.446646
O O11 0.234694 0.000000 0.440216
#
# Coordination Sequence:
#
# PCOD9375848 Si02
#       4
#     8   8   8   8
#     4  11  22  38  62  89 119 155 196 245 303 364
#     4  11  22  38  62  89 119 155 196 245 303 364
#     4   9  19  36  58  84 112 145 190 241 290 346
#     4  11  24  41  60  86 122 161 204 253 300 351
#
# _framework density 22.823246999999999
#
# number of rings (size 3 to 8) (size 9 to 14) (size 15 to 20)
#    0.000    1.500    0.000    5.250    0.000    6.000 
#    0.000    3.750    0.000    9.000    0.000    0.000 
#    0.000    0.000    0.000    0.000    0.000    0.000 
#
# Total GULP energy -89543.662974 kJ/mol
# GULP energy per Si atom -5596.478936 kJ/mol
# Density = 2.277130 g / cm^3
# Si number density = 22.823247 Si / 1000 Ang^3
#
#
#
# Elastic Constant Matrix: (Units=GPa)
#
#
# Indices 1 2 3 4 5 6 
#
# 1 40.7981 -7.8382 -9.1631 0.0000 0.0000 0.0000
# 2 -7.8382 111.4825 6.2096 0.0002 0.0000 -0.0001
# 3 -9.1631 6.2096 85.7791 0.0001 0.0000 0.0000
# 4 0.0000 0.0002 0.0001 42.7863 0.0000 0.0000
# 5 0.0000 0.0000 0.0000 0.0000 13.1176 0.0000
# 6 0.0000 -0.0001 0.0000 0.0000 0.0000 -12.1280
#
#
#
# Elastic Compliance Matrix: (Units=1/GPa)
#
#
# Indices 1 2 3 4 5 6 
#
# 1 0.025409 0.001642 0.002595 0.000000 0.000000 0.000000
# 2 0.001642 0.009112 -0.000484 0.000000 0.000000 0.000000
# 3 0.002595 -0.000484 0.011970 0.000000 0.000000 0.000000
# 4 0.000000 0.000000 0.000000 0.023372 0.000000 0.000000
# 5 0.000000 0.000000 0.000000 0.000000 0.076233 0.000000
# 6 0.000000 0.000000 0.000000 0.000000 0.000000 -0.082454
#
#
# Mechanical properties :
#
#
# Convention : Reuss Voigt Hill
#
# Bulk Modulus (GPa) = 18.51915 24.05290 21.28603
# Shear Modulus (GPa) = 67.44307 25.34527 46.39417
#
# Velocity S-wave (km/s) = 5.44190 3.33604 4.51350
# Velocity P-wave (km/s) = 6.90055 5.03989 6.04227
#
# Compressibility (1/GPa) = 0.05399816
#
# Stress axis : x y z
#
# Youngs Moduli (GPa) = 39.35560 109.74016 83.54107
#
# Poissons Ratio (x) = -0.18019 -0.21682
# Poissons Ratio (y) = -0.06462 0.04046
# Poissons Ratio (z) = -0.10214 0.05314
#
# Static dielectric constant tensor:
#      x y z
#    x 1.811610 0.000000 0.000000 
#    y 0.000000 1.807760 0.000000 
#    z 0.000000 0.000000 1.825930 
# 
# From -- ./inp_files/4176.got.cif
#   From: 2010.05.17/outbox.cif.g08.bks.cpg/sg44_3_cif.got.tgz:4176.got - 2010.06.03 19:37:08.
