data_PCOD9375750
_publ_section_title
;
Structure prediction by ZEFSAII (Michael W. Deem and Ramdas Pophale) SiO2 
 PCOD9375750
Probable space group: I M M 2
;
_chemical_formula_sum "Si O2"
_cell_formula_units_Z 40
_cell_length_a 23.555558
_cell_length_b 8.566238
_cell_length_c 10.501728
_cell_angle_alpha 90.000000
_cell_angle_beta 90.000000
_cell_angle_gamma 90.000000
_cell_volume 2119.065099
_symmetry_space_group_name_H-M "I M M 2"
_symmetry_group_IT_number 44
_symmetry_cell_setting 'orthorhombic'
loop_
_space_group_symop_operation_xyz
x,y,z
-x,-y,z
-x,y,z
x,-y,z
1/2+x,1/2+y,1/2+z
1/2-x,1/2-y,1/2+z
1/2-x,1/2+y,1/2+z
1/2+x,1/2-y,1/2+z
loop_
_atom_site_type_symbol
_atom_site_label
_atom_site_fract_x
_atom_site_fract_y
_atom_site_fract_z
Si Si1 0.000000 0.689902 0.429420
Si Si2 0.500000 0.186812 0.634495
Si Si3 0.119442 0.811818 0.048008
Si Si4 0.877961 0.687484 0.533295
Si Si5 0.192564 0.812675 0.294820
Si Si6 0.679936 0.312652 0.286536
O O1 0.000000 0.742141 0.282135
O O2 0.057998 0.739098 0.498084
O O3 0.000000 0.500000 0.427874
O O4 0.556727 0.246107 0.567227
O O5 0.500000 0.000000 0.635801
O O6 0.157857 0.764185 0.168645
O O7 0.116562 0.000000 0.048129
O O8 0.148353 0.762581 0.916120
O O9 0.877224 0.500000 0.543100
O O10 0.837266 0.738592 0.417764
O O11 0.855183 0.759414 0.663657
O O12 0.257334 0.759222 0.283346
O O13 0.190110 0.000000 0.305071
O O14 0.684845 0.500000 0.287431
#
# Coordination Sequence:
#
# PCOD9375750 Si02
#       6
#     4   4   8   8   8   8
#     4   9  20  38  61  88 118 154 199 249 300 355
#     4  11  21  38  65  92 116 154 203 249 300 359
#     4  10  23  41  61  88 124 160 197 248 303 356
#     4  11  22  40  63  90 125 161 200 251 302 357
#     4  11  22  39  64  92 120 161 207 248 303 361
#     4  11  24  41  60  89 126 163 203 249 303 360
#
# _framework density 18.876249999999999
#
# number of rings (size 3 to 8) (size 9 to 14) (size 15 to 20)
#    0.000    1.400    2.000    3.300    0.000    4.800 
#    0.000    4.000    0.000    0.000    0.000    0.000 
#    0.000    0.000    0.000    0.000    0.000    0.000 
#
# Total GULP energy -111830.577021 kJ/mol
# GULP energy per Si atom -5591.528851 kJ/mol
# Density = 1.883329 g / cm^3
# Si number density = 18.876250 Si / 1000 Ang^3
#
#
#
# Elastic Constant Matrix: (Units=GPa)
#
#
# Indices 1 2 3 4 5 6 
#
# 1 159.9444 11.1700 60.9535 0.0000 0.0000 0.0000
# 2 11.1700 22.5673 12.4892 0.0000 0.0000 0.0000
# 3 60.9535 12.4892 134.6410 0.0000 0.0000 0.0000
# 4 0.0000 0.0000 0.0000 20.9392 0.0000 0.0000
# 5 0.0000 0.0000 0.0000 0.0000 -122.7667 0.0000
# 6 0.0000 0.0000 0.0000 0.0000 0.0000 31.6303
#
#
#
# Elastic Compliance Matrix: (Units=1/GPa)
#
#
# Indices 1 2 3 4 5 6 
#
# 1 0.007638 -0.001968 -0.003275 0.000000 0.000000 0.000000
# 2 -0.001968 0.047217 -0.003489 0.000000 0.000000 0.000000
# 3 -0.003275 -0.003489 0.009233 0.000000 0.000000 0.000000
# 4 0.000000 0.000000 0.000000 0.047757 0.000000 0.000000
# 5 0.000000 0.000000 0.000000 0.000000 -0.008146 0.000000
# 6 0.000000 0.000000 0.000000 0.000000 0.000000 0.031615
#
#
# Mechanical properties :
#
#
# Convention : Reuss Voigt Hill
#
# Bulk Modulus (GPa) = 21.44813 54.04201 37.74507
# Shear Modulus (GPa) = 29.70527 1.46323 15.58425
#
# Velocity S-wave (km/s) = 3.97127 0.88139 2.87644
# Velocity P-wave (km/s) = 5.69343 5.45230 5.57417
#
# Compressibility (1/GPa) = 0.04662411
#
# Stress axis : x y z
#
# Youngs Moduli (GPa) = 130.92889 21.17892 108.30151
#
# Poissons Ratio (x) = 0.04168 0.35470
# Poissons Ratio (y) = 0.25765 0.37785
# Poissons Ratio (z) = 0.42881 0.07389
#
# Static dielectric constant tensor:
#      x y z
#    x 1.620600 0.000000 0.000000 
#    y 0.000000 1.641520 0.000000 
#    z 0.000000 0.000000 1.628000 
# 
# From -- ./inp_files/14204.got.cif
#   From: 2010.05.17/outbox.cif.g08.bks.cpg/sg44_8_cif.got.tgz:14204.got - 2010.06.03 19:37:08.
