data_PCOD9375605
_publ_section_title
;
Structure prediction by ZEFSAII (Michael W. Deem and Ramdas Pophale) SiO2 
 PCOD9375605
Probable space group: I M M 2
;
_chemical_formula_sum "Si O2"
_cell_formula_units_Z 40
_cell_length_a 13.645944
_cell_length_b 16.907795
_cell_length_c 7.878966
_cell_angle_alpha 90.000000
_cell_angle_beta 90.000000
_cell_angle_gamma 90.000000
_cell_volume 1817.857284
_symmetry_space_group_name_H-M "I M M 2"
_symmetry_group_IT_number 44
_symmetry_cell_setting 'orthorhombic'
loop_
_space_group_symop_operation_xyz
x,y,z
-x,-y,z
-x,y,z
x,-y,z
1/2+x,1/2+y,1/2+z
1/2-x,1/2-y,1/2+z
1/2-x,1/2+y,1/2+z
1/2+x,1/2-y,1/2+z
loop_
_atom_site_type_symbol
_atom_site_label
_atom_site_fract_x
_atom_site_fract_y
_atom_site_fract_z
Si Si1 0.114440 0.409239 0.125000
Si Si2 0.204760 0.089240 0.190831
Si Si3 0.384700 0.139913 0.016425
Si Si4 0.116390 0.090669 0.827536
Si Si5 0.294513 0.314012 0.017919
O O1 0.144255 0.500000 0.080434
O O2 0.123304 0.399090 0.329670
O O3 0.181531 0.341214 0.042402
O O4 0.000000 0.399717 0.082341
O O5 0.174873 0.146227 0.341553
O O6 0.174737 0.000000 0.232110
O O7 0.321183 0.092306 0.153386
O O8 0.155910 0.112341 0.012599
O O9 0.500000 0.147583 0.055914
O O10 0.329410 0.224248 0.012262
O O11 0.155153 0.145963 0.680004
O O12 0.000000 0.092664 0.829931
O O13 0.148446 0.000000 0.794729
#
# Coordination Sequence:
#
# PCOD9375605 Si02
#       5
#     8   8   8   8   8
#     4  10  21  41  70  98 130 175 222 270 326 389
#     4  11  24  41  67  98 131 173 221 272 325 390
#     4  11  24  42  65  97 136 176 216 267 331 394
#     4  10  22  41  65  93 129 174 220 268 325 390
#     4  12  23  42  66  98 132 170 217 271 332 387
#
# _framework density 22.00393
#
# number of rings (size 3 to 8) (size 9 to 14) (size 15 to 20)
#    0.000    1.200    2.000    4.200    0.000    3.600 
#    0.000    3.000    0.000    0.000    0.000    0.000 
#    0.000    0.000    0.000    0.000    0.000    0.000 
#
# Total GULP energy -111889.290327 kJ/mol
# GULP energy per Si atom -5594.464516 kJ/mol
# Density = 2.195385 g / cm^3
# Si number density = 22.003930 Si / 1000 Ang^3
#
#
#
# Elastic Constant Matrix: (Units=GPa)
#
#
# Indices 1 2 3 4 5 6 
#
# 1 90.7939 19.6115 6.1540 0.0000 0.0000 0.0000
# 2 19.6115 94.4327 37.7674 0.0000 0.0000 0.0000
# 3 6.1540 37.7674 54.4474 0.0000 0.0000 0.0000
# 4 0.0000 0.0000 0.0000 20.5573 0.0000 0.0000
# 5 0.0000 0.0000 0.0000 0.0000 10.7629 0.0000
# 6 0.0000 0.0000 0.0000 0.0000 0.0000 34.4959
#
#
#
# Elastic Compliance Matrix: (Units=1/GPa)
#
#
# Indices 1 2 3 4 5 6 
#
# 1 0.011541 -0.002595 0.000496 0.000000 0.000000 0.000000
# 2 -0.002595 0.015239 -0.010277 0.000000 0.000000 0.000000
# 3 0.000496 -0.010277 0.025439 0.000000 0.000000 0.000000
# 4 0.000000 0.000000 0.000000 0.048645 0.000000 0.000000
# 5 0.000000 0.000000 0.000000 0.000000 0.092912 0.000000
# 6 0.000000 0.000000 0.000000 0.000000 0.000000 0.028989
#
#
# Mechanical properties :
#
#
# Convention : Reuss Voigt Hill
#
# Bulk Modulus (GPa) = 36.40903 40.74888 38.57896
# Shear Modulus (GPa) = 19.48012 24.90596 22.19304
#
# Velocity S-wave (km/s) = 2.97863 3.36800 3.17928
# Velocity P-wave (km/s) = 5.33031 5.80377 5.57207
#
# Compressibility (1/GPa) = 0.02746571
#
# Stress axis : x y z
#
# Youngs Moduli (GPa) = 86.64851 65.62261 39.30979
#
# Poissons Ratio (x) = 0.17029 -0.01948
# Poissons Ratio (y) = 0.22485 0.40399
# Poissons Ratio (z) = -0.04294 0.67440
#
# Static dielectric constant tensor:
#      x y z
#    x 1.822540 0.000000 0.000000 
#    y 0.000000 1.787030 0.000000 
#    z 0.000000 0.000000 1.774300 
# 
# From -- ./inp_files/6963.got.cif
#   From: 2010.05.17/outbox.cif.g08.bks.cpg/sg44_4_cif.got.tgz:6963.got - 2010.06.03 19:37:08.
