data_PCOD9375379
_publ_section_title
;
Structure prediction by ZEFSAII (Michael W. Deem and Ramdas Pophale) SiO2 
 PCOD9375379
Probable space group: I M M 2
;
_chemical_formula_sum "Si O2"
_cell_formula_units_Z 64
_cell_length_a 30.079423
_cell_length_b 8.463847
_cell_length_c 13.043762
_cell_angle_alpha 90.000000
_cell_angle_beta 90.000000
_cell_angle_gamma 90.000000
_cell_volume 3320.780508
_symmetry_space_group_name_H-M "I M M 2"
_symmetry_group_IT_number 44
_symmetry_cell_setting 'orthorhombic'
loop_
_space_group_symop_operation_xyz
x,y,z
-x,-y,z
-x,y,z
x,-y,z
1/2+x,1/2+y,1/2+z
1/2-x,1/2-y,1/2+z
1/2-x,1/2+y,1/2+z
1/2+x,1/2-y,1/2+z
loop_
_atom_site_type_symbol
_atom_site_label
_atom_site_fract_x
_atom_site_fract_y
_atom_site_fract_z
Si Si1 0.051784 0.309104 0.786690
Si Si2 0.053236 0.687244 0.557199
Si Si3 0.798503 0.316033 0.509552
Si Si4 0.618782 0.684288 0.890839
Si Si5 0.785636 0.182137 0.902728
Si Si6 0.747348 0.680344 0.709093
Si Si7 0.382277 0.690154 0.460424
Si Si8 0.649408 0.187269 0.673421
O O1 0.053391 0.500000 0.785700
O O2 0.067347 0.256770 0.672025
O O3 0.080064 0.248736 0.882538
O O4 0.000000 0.262634 0.797137
O O5 0.063317 0.500000 0.551772
O O6 0.077023 0.766637 0.460832
O O7 0.000000 0.706198 0.552379
O O8 0.803297 0.500000 0.474431
O O9 0.839453 0.223724 0.464114
O O10 0.752508 0.240359 0.470262
O O11 0.787798 0.321576 0.628595
O O12 0.617096 0.500000 0.867283
O O13 0.626869 0.772874 0.783015
O O14 0.763831 0.196590 0.792516
O O15 0.834932 0.245674 0.912597
O O16 0.788568 0.000000 0.937231
O O17 0.743413 0.500000 0.749048
O O18 0.698029 0.728027 0.670791
O O19 0.384334 0.500000 0.463341
O O20 0.379923 0.753432 0.576967
O O21 0.655949 0.000000 0.665371
#
# Coordination Sequence:
#
# PCOD9375379 Si02
#       8
#     8   8   8   8   8   8   8   8
#     4   9  20  41  67  94 123 156 195 239 294 359
#     4   9  20  42  69  93 121 157 195 240 297 358
#     4  10  21  38  56  79 116 160 200 243 292 348
#     4  12  25  39  60  90 122 157 201 250 299 353
#     4  10  21  37  55  80 118 158 197 242 293 349
#     4  11  22  37  56  80 114 156 202 252 296 343
#     4  11  23  40  61  89 123 157 201 251 299 351
#     4  12  24  40  61  83 117 162 204 247 299 358
#
# _framework density 19.272576999999998
#
# number of rings (size 3 to 8) (size 9 to 14) (size 15 to 20)
#    0.000    1.500    2.500    3.750    1.750    3.000 
#    0.000    1.875    0.000    3.750    0.000    0.000 
#    0.000    0.000    0.000    0.000    0.000    0.000 
#
# Total GULP energy -178412.516093 kJ/mol
# GULP energy per Si atom -5575.391128 kJ/mol
# Density = 1.922871 g / cm^3
# Si number density = 19.272577 Si / 1000 Ang^3
#
#
#
# Elastic Constant Matrix: (Units=GPa)
#
#
# Indices 1 2 3 4 5 6 
#
# 1 30.8418 7.2146 11.8087 0.0000 0.0000 0.0000
# 2 7.2146 52.5008 6.5675 0.0000 0.0000 0.0000
# 3 11.8087 6.5675 75.9651 0.0000 0.0000 0.0000
# 4 0.0000 0.0000 0.0000 23.5517 0.0000 0.0000
# 5 0.0000 0.0000 0.0000 0.0000 32.5585 0.0000
# 6 0.0000 0.0000 0.0000 0.0000 0.0000 14.9079
#
#
#
# Elastic Compliance Matrix: (Units=1/GPa)
#
#
# Indices 1 2 3 4 5 6 
#
# 1 0.035376 -0.004219 -0.005134 0.000000 0.000000 0.000000
# 2 -0.004219 0.019759 -0.001052 0.000000 0.000000 0.000000
# 3 -0.005134 -0.001052 0.014053 0.000000 0.000000 0.000000
# 4 0.000000 0.000000 0.000000 0.042460 0.000000 0.000000
# 5 0.000000 0.000000 0.000000 0.000000 0.030714 0.000000
# 6 0.000000 0.000000 0.000000 0.000000 0.000000 0.067078
#
#
# Mechanical properties :
#
#
# Convention : Reuss Voigt Hill
#
# Bulk Modulus (GPa) = 20.67127 23.38771 22.02949
# Shear Modulus (GPa) = 20.29406 23.11809 21.70607
#
# Velocity S-wave (km/s) = 3.24852 3.46718 3.35963
# Velocity P-wave (km/s) = 4.98192 5.30943 5.14828
#
# Compressibility (1/GPa) = 0.04837632
#
# Stress axis : x y z
#
# Youngs Moduli (GPa) = 28.26744 50.61049 71.15886
#
# Poissons Ratio (x) = 0.21353 0.36536
# Poissons Ratio (y) = 0.11926 0.07489
# Poissons Ratio (z) = 0.14514 0.05326
#
# Static dielectric constant tensor:
#      x y z
#    x 1.672060 0.000000 0.000000 
#    y 0.000000 1.684740 0.000000 
#    z 0.000000 0.000000 1.752870 
# 
# From -- ./inp_files/11432.got.cif
#   From: 2010.05.17/outbox.cif.g08.bks.cpg/sg44_6_cif.got.tgz:11432.got - 2010.06.03 19:37:08.
