data_PCOD9375718
_publ_section_title
;
Structure prediction by ZEFSAII (Michael W. Deem and Ramdas Pophale) SiO2 
 PCOD9375718
Probable space group: I M M 2
;
_chemical_formula_sum "Si O2"
_cell_formula_units_Z 40
_cell_length_a 8.922342
_cell_length_b 11.714768
_cell_length_c 20.217760
_cell_angle_alpha 90.000000
_cell_angle_beta 90.000000
_cell_angle_gamma 90.000000
_cell_volume 2113.224296
_symmetry_space_group_name_H-M "I M M 2"
_symmetry_group_IT_number 44
_symmetry_cell_setting 'orthorhombic'
loop_
_space_group_symop_operation_xyz
x,y,z
-x,-y,z
-x,y,z
x,-y,z
1/2+x,1/2+y,1/2+z
1/2-x,1/2-y,1/2+z
1/2-x,1/2+y,1/2+z
1/2+x,1/2-y,1/2+z
loop_
_atom_site_type_symbol
_atom_site_label
_atom_site_fract_x
_atom_site_fract_y
_atom_site_fract_z
Si Si1 0.821255 0.740946 0.340740
Si Si2 0.176940 0.634512 0.966376
Si Si3 0.321419 0.778130 0.075111
Si Si4 0.325190 0.500000 0.509246
Si Si5 0.820711 0.133234 0.204322
Si Si6 0.325727 0.500000 0.350055
O O1 0.747823 0.794451 0.406182
O O2 0.790055 0.821451 0.277850
O O3 0.755140 0.615566 0.327801
O O4 0.000000 0.733833 0.350130
O O5 0.196780 0.500000 0.954524
O O6 0.000000 0.660298 0.970089
O O7 0.254374 0.672509 0.034469
O O8 0.500000 0.777215 0.072865
O O9 0.256342 0.889121 0.037467
O O10 0.262864 0.791815 0.149639
O O11 0.500000 0.500000 0.529842
O O12 0.319368 0.500000 0.430117
O O13 0.000000 0.140976 0.193390
O O14 0.777591 0.000000 0.197452
O O15 0.500000 0.500000 0.330444
#
# Coordination Sequence:
#
# PCOD9375718 Si02
#       6
#     8   8   8   4   8   4
#     4  11  23  40  65  94 123 160 206 254 304 361
#     4  11  24  42  64  90 123 165 204 248 306 366
#     4  12  24  38  63  95 123 156 203 257 304 356
#     4  11  21  37  63  91 124 159 196 247 304 364
#     4  10  22  41  64  89 123 164 201 247 307 369
#     4  11  23  39  63  91 124 165 202 249 308 362
#
# _framework density 18.928422999999999
#
# number of rings (size 3 to 8) (size 9 to 14) (size 15 to 20)
#    0.000    1.000    3.000    4.200    0.000    4.800 
#    1.800    0.000    0.000    0.000    0.000    0.000 
#    0.000    0.000    0.000    0.000    0.000    0.000 
#
# Total GULP energy -111861.503430 kJ/mol
# GULP energy per Si atom -5593.075171 kJ/mol
# Density = 1.888534 g / cm^3
# Si number density = 18.928423 Si / 1000 Ang^3
#
#
#
# Elastic Constant Matrix: (Units=GPa)
#
#
# Indices 1 2 3 4 5 6 
#
# 1 109.0441 53.3375 54.8189 0.0000 0.0000 0.0000
# 2 53.3375 79.1276 36.2041 0.0000 0.0000 0.0000
# 3 54.8189 36.2041 89.8879 0.0000 0.0000 0.0000
# 4 0.0000 0.0000 0.0000 31.3458 0.0000 0.0000
# 5 0.0000 0.0000 0.0000 0.0000 34.3705 0.0000
# 6 0.0000 0.0000 0.0000 0.0000 0.0000 26.2385
#
#
#
# Elastic Compliance Matrix: (Units=1/GPa)
#
#
# Indices 1 2 3 4 5 6 
#
# 1 0.016536 -0.008008 -0.006859 0.000000 0.000000 0.000000
# 2 -0.008008 0.019371 -0.002918 0.000000 0.000000 0.000000
# 3 -0.006859 -0.002918 0.016484 0.000000 0.000000 0.000000
# 4 0.000000 0.000000 0.000000 0.031902 0.000000 0.000000
# 5 0.000000 0.000000 0.000000 0.000000 0.029095 0.000000
# 6 0.000000 0.000000 0.000000 0.000000 0.000000 0.038112
#
#
# Mechanical properties :
#
#
# Convention : Reuss Voigt Hill
#
# Bulk Modulus (GPa) = 59.45501 62.97562 61.21532
# Shear Modulus (GPa) = 25.95023 27.30423 26.62723
#
# Velocity S-wave (km/s) = 3.70667 3.80214 3.75471
# Velocity P-wave (km/s) = 7.05676 7.25381 7.15596
#
# Compressibility (1/GPa) = 0.01681944
#
# Stress axis : x y z
#
# Youngs Moduli (GPa) = 60.47474 51.62367 60.66670
#
# Poissons Ratio (x) = 0.41340 0.41612
# Poissons Ratio (y) = 0.48428 0.17705
# Poissons Ratio (z) = 0.41481 0.15065
#
# Static dielectric constant tensor:
#      x y z
#    x 1.631760 0.000000 0.000000 
#    y 0.000000 1.638560 0.000000 
#    z 0.000000 0.000000 1.640820 
# 
# From -- ./inp_files/22783.got.cif
#   From: 2010.05.17/outbox.cif.g08.bks.cpg/sg44_12_cif.got.tgz:22783.got - 2010.06.03 19:37:08.
