data_PCOD9375305
_publ_section_title
;
Structure prediction by ZEFSAII (Michael W. Deem and Ramdas Pophale) SiO2 
 PCOD9375305
Probable space group: I M M 2
;
_chemical_formula_sum "Si O2"
_cell_formula_units_Z 56
_cell_length_a 7.534599
_cell_length_b 21.592122
_cell_length_c 14.451110
_cell_angle_alpha 90.000000
_cell_angle_beta 90.000000
_cell_angle_gamma 90.000000
_cell_volume 2351.021907
_symmetry_space_group_name_H-M "I M M 2"
_symmetry_group_IT_number 44
_symmetry_cell_setting 'orthorhombic'
loop_
_space_group_symop_operation_xyz
x,y,z
-x,-y,z
-x,y,z
x,-y,z
1/2+x,1/2+y,1/2+z
1/2-x,1/2-y,1/2+z
1/2-x,1/2+y,1/2+z
1/2+x,1/2-y,1/2+z
loop_
_atom_site_type_symbol
_atom_site_label
_atom_site_fract_x
_atom_site_fract_y
_atom_site_fract_z
Si Si1 0.708559 0.569555 0.996710
Si Si2 0.785177 0.104541 0.023492
Si Si3 0.205258 0.842717 0.666839
Si Si4 0.290122 0.255680 0.511149
Si Si5 0.217473 0.068622 0.819091
Si Si6 0.698243 0.169223 0.353420
Si Si7 0.291103 0.932844 0.225626
O O1 0.500000 0.571481 0.970153
O O2 0.772177 0.500000 0.994168
O O3 0.811070 0.614088 0.928492
O O4 0.717599 0.598570 0.098084
O O5 0.721566 0.175625 0.026007
O O6 0.724730 0.070916 0.115755
O O7 0.000000 0.103830 0.025598
O O8 0.731701 0.075427 0.926043
O O9 0.272193 0.786261 0.603416
O O10 0.281336 0.871500 0.761047
O O11 0.000000 0.827313 0.684177
O O12 0.500000 0.260123 0.493358
O O13 0.216271 0.222444 0.417839
O O14 0.000000 0.070090 0.813882
O O15 0.271369 0.000000 0.785139
O O16 0.500000 0.189945 0.324616
O O17 0.784655 0.131137 0.268895
O O18 0.500000 0.932339 0.249388
O O19 0.218113 0.000000 0.257792
#
# Coordination Sequence:
#
# PCOD9375305 Si02
#       7
#     8   8   8   8   8   8   8
#     4   9  16  26  43  71 104 132 161 203 252 299
#     4  10  21  36  54  75 101 136 175 212 249 294
#     4   9  17  30  51  76 101 131 166 204 250 304
#     4   9  19  35  52  75 106 135 167 207 250 298
#     4   9  17  31  53  79 102 127 166 213 255 297
#     4   9  18  33  52  72  99 134 168 205 250 301
#     4  10  21  36  54  78 105 133 169 212 256 300
#
# _framework density 23.819431000000002
#
# number of rings (size 3 to 8) (size 9 to 14) (size 15 to 20)
#    0.000    2.714    0.000    1.286    0.000    5.714 
#    0.000    3.571    0.000    2.143    0.000    0.000 
#    0.000    0.000    0.000    0.000    0.000    0.000 
#
# Total GULP energy -156185.255841 kJ/mol
# GULP energy per Si atom -5578.044851 kJ/mol
# Density = 2.376522 g / cm^3
# Si number density = 23.819431 Si / 1000 Ang^3
#
#
#
# Elastic Constant Matrix: (Units=GPa)
#
#
# Indices 1 2 3 4 5 6 
#
# 1 53.6385 -2.1293 7.2709 0.0000 0.0000 -0.0002
# 2 -2.1293 119.5996 19.3725 0.0000 0.0000 -0.0004
# 3 7.2709 19.3725 93.5058 -0.0001 0.0000 -0.0017
# 4 0.0000 0.0000 -0.0001 31.2256 0.0000 -0.0004
# 5 0.0000 0.0000 0.0000 0.0000 22.2811 0.0003
# 6 -0.0002 -0.0004 -0.0017 -0.0004 0.0003 169.3302
#
#
#
# Elastic Compliance Matrix: (Units=1/GPa)
#
#
# Indices 1 2 3 4 5 6 
#
# 1 0.018883 0.000594 -0.001591 0.000000 0.000000 0.000000
# 2 0.000594 0.008670 -0.001842 0.000000 0.000000 0.000000
# 3 -0.001591 -0.001842 0.011200 0.000000 0.000000 0.000000
# 4 0.000000 0.000000 0.000000 0.032025 0.000000 0.000000
# 5 0.000000 0.000000 0.000000 0.000000 0.044881 0.000000
# 6 0.000000 0.000000 0.000000 0.000000 0.000000 0.005906
#
#
# Mechanical properties :
#
#
# Convention : Reuss Voigt Hill
#
# Bulk Modulus (GPa) = 30.23609 35.08582 32.66095
# Shear Modulus (GPa) = 36.16147 60.71604 48.43876
#
# Velocity S-wave (km/s) = 3.90057 5.05425 4.51442
# Velocity P-wave (km/s) = 5.74520 6.98731 6.39648
#
# Compressibility (1/GPa) = 0.03307306
#
# Stress axis : x y z
#
# Youngs Moduli (GPa) = 52.95880 115.33699 89.28583
#
# Poissons Ratio (x) = -0.06850 0.14208
# Poissons Ratio (y) = -0.03145 0.16451
# Poissons Ratio (z) = 0.08428 0.21251
#
# Static dielectric constant tensor:
#      x y z
#    x 1.926130 0.000000 0.000000 
#    y 0.000000 1.932390 0.000000 
#    z 0.000000 0.000000 1.926540 
# 
# From -- ./inp_files/14321.got.cif
#   From: 2010.05.17/outbox.cif.g08.bks.cpg/sg44_8_cif.got.tgz:14321.got - 2010.06.03 19:37:08.
