data_PCOD9375236
_publ_section_title
;
Structure prediction by ZEFSAII (Michael W. Deem and Ramdas Pophale) SiO2 
 PCOD9375236
Probable space group: I M M 2
;
_chemical_formula_sum "Si O2"
_cell_formula_units_Z 64
_cell_length_a 14.648201
_cell_length_b 7.715847
_cell_length_c 29.368505
_cell_angle_alpha 90.000000
_cell_angle_beta 90.000000
_cell_angle_gamma 90.000000
_cell_volume 3319.324697
_symmetry_space_group_name_H-M "I M M 2"
_symmetry_group_IT_number 44
_symmetry_cell_setting 'orthorhombic'
loop_
_space_group_symop_operation_xyz
x,y,z
-x,-y,z
-x,y,z
x,-y,z
1/2+x,1/2+y,1/2+z
1/2-x,1/2-y,1/2+z
1/2-x,1/2+y,1/2+z
1/2+x,1/2-y,1/2+z
loop_
_atom_site_type_symbol
_atom_site_label
_atom_site_fract_x
_atom_site_fract_y
_atom_site_fract_z
Si Si1 0.396924 0.791897 0.708840
Si Si2 0.255369 0.290821 0.138342
Si Si3 0.244631 0.209179 0.284324
Si Si4 0.395318 0.787426 0.461334
Si Si5 0.896695 0.707019 0.461332
Si Si6 0.751694 0.292922 0.035467
Si Si7 0.751697 0.707077 0.887199
Si Si8 0.603076 0.208103 0.213826
O O1 0.500000 0.724461 0.706756
O O2 0.329981 0.726809 0.668775
O O3 0.346247 0.753580 0.756236
O O4 0.400963 0.000000 0.704273
O O5 0.249877 0.500000 0.136994
O O6 0.253943 0.224492 0.086734
O O7 0.346247 0.246419 0.166430
O O8 0.246058 0.275509 0.335932
O O9 0.329981 0.273191 0.253891
O O10 0.250123 0.000000 0.285672
O O11 0.500000 0.731327 0.461334
O O12 0.337352 0.729529 0.505375
O O13 0.337354 0.729528 0.417291
O O14 0.395003 0.000000 0.461334
O O15 0.900506 0.500000 0.461330
O O16 0.838367 0.760791 0.505458
O O17 0.838364 0.760801 0.417208
O O18 0.000000 0.775422 0.461332
O O19 0.762518 0.500000 0.038775
O O20 0.762526 0.500000 0.883890
O O21 0.500000 0.275539 0.215911
O O22 0.599036 0.000000 0.218393
#
# Coordination Sequence:
#
# PCOD9375236 Si02
#       8
#     8   8   8   8   8   8   8   8
#     4   9  18  32  49  70  97 127 158 194 235 278
#     4   9  18  32  49  70  96 125 158 195 234 278
#     4   9  18  32  49  70  96 125 158 195 234 278
#     4   8  14  26  46  71  94 115 145 188 234 278
#     4  10  21  35  50  69  94 125 159 194 234 280
#     4   9  18  32  50  72  96 123 156 194 236 279
#     4   9  18  32  50  72  96 123 156 194 236 279
#     4   9  18  32  49  70  97 127 158 194 235 278
#
# _framework density 19.281030999999999
#
# number of rings (size 3 to 8) (size 9 to 14) (size 15 to 20)
#    0.000    3.000    0.000    1.125    0.000    4.500 
#    0.000   10.000    0.000    6.000    0.000   10.500 
#    0.000    0.000    0.000    0.000    0.000    0.000 
#
# Total GULP energy -178428.701609 kJ/mol
# GULP energy per Si atom -5575.896925 kJ/mol
# Density = 1.923715 g / cm^3
# Si number density = 19.281031 Si / 1000 Ang^3
#
#
#
# Elastic Constant Matrix: (Units=GPa)
#
#
# Indices 1 2 3 4 5 6 
#
# 1 185.6529 -3.2084 91.1375 0.0000 0.0000 0.0000
# 2 -3.2084 28.4673 -0.4456 0.0000 0.0000 0.0000
# 3 91.1375 -0.4456 187.5760 0.0000 0.0000 0.0000
# 4 0.0000 0.0000 0.0000 31.7752 0.0000 0.0000
# 5 0.0000 0.0000 0.0000 0.0000 7.2744 0.0000
# 6 0.0000 0.0000 0.0000 0.0000 0.0000 280.3789
#
#
#
# Elastic Compliance Matrix: (Units=1/GPa)
#
#
# Indices 1 2 3 4 5 6 
#
# 1 0.007089 0.000745 -0.003443 0.000000 0.000000 0.000000
# 2 0.000745 0.035208 -0.000278 0.000000 0.000000 0.000000
# 3 -0.003443 -0.000278 0.007003 0.000000 0.000000 0.000000
# 4 0.000000 0.000000 0.000000 0.031471 0.000000 0.000000
# 5 0.000000 0.000000 0.000000 0.000000 0.137468 0.000000
# 6 0.000000 0.000000 0.000000 0.000000 0.000000 0.003567
#
#
# Mechanical properties :
#
#
# Convention : Reuss Voigt Hill
#
# Bulk Modulus (GPa) = 23.06904 64.07373 43.57138
# Shear Modulus (GPa) = 20.64348 84.83320 52.73834
#
# Velocity S-wave (km/s) = 3.27565 6.64032 5.23563
# Velocity P-wave (km/s) = 5.12807 9.59663 7.69391
#
# Compressibility (1/GPa) = 0.04334813
#
# Stress axis : x y z
#
# Youngs Moduli (GPa) = 141.05749 28.40295 142.79148
#
# Poissons Ratio (x) = -0.02116 0.49159
# Poissons Ratio (y) = -0.10510 0.03975
# Poissons Ratio (z) = 0.48562 0.00791
#
# Static dielectric constant tensor:
#      x y z
#    x 1.656730 0.000000 0.000000 
#    y 0.000000 1.723760 0.000000 
#    z 0.000000 0.000000 1.748330 
# 
# From -- ./inp_files/27507.got.cif
#   From: 2010.05.17/outbox.cif.g08.bks.cpg/sg44_14_cif.got.tgz:27507.got - 2010.06.03 19:37:08.
