data_PCOD9375389
_publ_section_title
;
Structure prediction by ZEFSAII (Michael W. Deem and Ramdas Pophale) SiO2 
 PCOD9375389
Probable space group: I M M 2
;
_chemical_formula_sum "Si O2"
_cell_formula_units_Z 64
_cell_length_a 7.580833
_cell_length_b 32.111538
_cell_length_c 12.205871
_cell_angle_alpha 90.000000
_cell_angle_beta 90.000000
_cell_angle_gamma 90.000000
_cell_volume 2971.302115
_symmetry_space_group_name_H-M "I M M 2"
_symmetry_group_IT_number 44
_symmetry_cell_setting 'orthorhombic'
loop_
_space_group_symop_operation_xyz
x,y,z
-x,-y,z
-x,y,z
x,-y,z
1/2+x,1/2+y,1/2+z
1/2-x,1/2-y,1/2+z
1/2-x,1/2+y,1/2+z
1/2+x,1/2-y,1/2+z
loop_
_atom_site_type_symbol
_atom_site_label
_atom_site_fract_x
_atom_site_fract_y
_atom_site_fract_z
Si Si1 0.215646 0.705319 0.657180
Si Si2 0.709699 0.127253 0.295936
Si Si3 0.707610 0.838508 0.934791
Si Si4 0.787059 0.874728 0.551896
Si Si5 0.284349 0.546000 0.192268
Si Si6 0.286705 0.701213 0.201798
Si Si7 0.794931 0.454689 0.677101
Si Si8 0.298823 0.566437 0.434624
O O1 0.276388 0.670421 0.743820
O O2 0.268101 0.688821 0.537578
O O3 0.277390 0.752037 0.680254
O O4 0.000000 0.706827 0.659832
O O5 0.500000 0.127592 0.273833
O O6 0.737384 0.124889 0.425162
O O7 0.783315 0.086143 0.235352
O O8 0.500000 0.846824 0.950362
O O9 0.735770 0.814747 0.821633
O O10 0.796522 0.883484 0.931868
O O11 0.724507 0.915734 0.617181
O O12 0.724929 0.833034 0.613745
O O13 0.000000 0.874923 0.557653
O O14 0.500000 0.547760 0.194700
O O15 0.233947 0.500000 0.152510
O O16 0.224474 0.551742 0.318027
O O17 0.500000 0.701757 0.196703
O O18 0.715999 0.500000 0.703616
O O19 0.789804 0.448167 0.546316
O O20 0.000000 0.456250 0.710399
O O21 0.500000 0.551551 0.440958
#
# Coordination Sequence:
#
# PCOD9375389 Si02
#       8
#     8   8   8   8   8   8   8   8
#     4   9  20  38  59  80 112 151 183 228 284 338
#     4  10  21  39  57  78 111 151 189 228 282 339
#     4  11  21  37  61  87 115 150 189 233 286 343
#     4  10  21  37  56  80 111 146 185 233 283 331
#     4   9  18  34  55  79 109 144 179 221 279 333
#     4  10  21  39  59  83 114 148 187 234 288 337
#     4  10  21  38  59  83 115 152 189 235 289 341
#     4  11  20  35  59  87 117 149 186 234 284 340
#
# _framework density 21.539376000000001
#
# number of rings (size 3 to 8) (size 9 to 14) (size 15 to 20)
#    0.000    2.000    2.500    1.125    1.750    2.250 
#    0.000    1.250    0.000    1.500    0.000    0.000 
#    0.000    0.000    0.000    0.000    0.000    0.000 
#
# Total GULP energy -178811.755626 kJ/mol
# GULP energy per Si atom -5587.867363 kJ/mol
# Density = 2.149035 g / cm^3
# Si number density = 21.539376 Si / 1000 Ang^3
#
#
#
# Elastic Constant Matrix: (Units=GPa)
#
#
# Indices 1 2 3 4 5 6 
#
# 1 50.0297 7.6108 -8.7689 0.0000 0.0000 0.0000
# 2 7.6108 218.0567 84.9039 0.0000 0.0000 0.0000
# 3 -8.7689 84.9039 135.5561 0.0000 0.0000 0.0000
# 4 0.0000 0.0000 0.0000 37.4767 0.0000 0.0000
# 5 0.0000 0.0000 0.0000 0.0000 27.4801 0.0000
# 6 0.0000 0.0000 0.0000 0.0000 0.0000 -9.1669
#
#
#
# Elastic Compliance Matrix: (Units=1/GPa)
#
#
# Indices 1 2 3 4 5 6 
#
# 1 0.020652 -0.001641 0.002364 0.000000 0.000000 0.000000
# 2 -0.001641 0.006196 -0.003987 0.000000 0.000000 0.000000
# 3 0.002364 -0.003987 0.010027 0.000000 0.000000 0.000000
# 4 0.000000 0.000000 0.000000 0.026683 0.000000 0.000000
# 5 0.000000 0.000000 0.000000 0.000000 0.036390 0.000000
# 6 0.000000 0.000000 0.000000 0.000000 0.000000 -0.109088
#
#
# Mechanical properties :
#
#
# Convention : Reuss Voigt Hill
#
# Bulk Modulus (GPa) = 32.95256 63.45935 48.20595
# Shear Modulus (GPa) = 666.35907 32.48442 349.42175
#
# Velocity S-wave (km/s) = 17.60794 3.88769 12.75056
# Velocity P-wave (km/s) = 20.70550 7.04827 15.46603
#
# Compressibility (1/GPa) = 0.03034665
#
# Stress axis : x y z
#
# Youngs Moduli (GPa) = 48.42110 161.40711 99.73145
#
# Poissons Ratio (x) = 0.26491 -0.23576
# Poissons Ratio (y) = 0.07947 0.39759
# Poissons Ratio (z) = -0.11446 0.64347
#
# Static dielectric constant tensor:
#      x y z
#    x 1.811770 0.000000 0.000000 
#    y 0.000000 1.780280 0.000000 
#    z 0.000000 0.000000 1.719440 
# 
# From -- ./inp_files/11474.got.cif
#   From: 2010.05.17/outbox.cif.g08.bks.cpg/sg44_6_cif.got.tgz:11474.got - 2010.06.03 19:37:08.
