data_PCOD9375135
_publ_section_title
;
Structure prediction by ZEFSAII (Michael W. Deem and Ramdas Pophale) SiO2 
 PCOD9375135
Probable space group: I M M 2
;
_chemical_formula_sum "Si O2"
_cell_formula_units_Z 48
_cell_length_a 8.969117
_cell_length_b 7.960373
_cell_length_c 34.909099
_cell_angle_alpha 90.000000
_cell_angle_beta 90.000000
_cell_angle_gamma 90.000000
_cell_volume 2492.422982
_symmetry_space_group_name_H-M "I M M 2"
_symmetry_group_IT_number 44
_symmetry_cell_setting 'orthorhombic'
loop_
_space_group_symop_operation_xyz
x,y,z
-x,-y,z
-x,y,z
x,-y,z
1/2+x,1/2+y,1/2+z
1/2-x,1/2-y,1/2+z
1/2-x,1/2+y,1/2+z
1/2+x,1/2-y,1/2+z
loop_
_atom_site_type_symbol
_atom_site_label
_atom_site_fract_x
_atom_site_fract_y
_atom_site_fract_z
Si Si1 0.669901 0.301128 0.639180
Si Si2 0.178739 0.301923 0.980320
Si Si3 0.828875 0.802692 0.716282
Si Si4 0.320497 0.314596 0.792779
Si Si5 0.680030 0.000000 0.932397
Si Si6 0.670617 0.297985 0.061128
Si Si7 0.181449 0.500000 0.343314
O O1 0.500000 0.238661 0.636174
O O2 0.666492 0.500000 0.646089
O O3 0.751768 0.221149 0.675379
O O4 0.754984 0.268980 0.599631
O O5 0.217244 0.500000 0.972972
O O6 0.000000 0.287008 0.978410
O O7 0.255170 0.167612 0.952338
O O8 0.235896 0.258675 0.023089
O O9 0.744340 0.709994 0.750429
O O10 0.000000 0.745868 0.713964
O O11 0.826346 0.000000 0.725772
O O12 0.500000 0.304311 0.790248
O O13 0.280773 0.500000 0.807335
O O14 0.268168 0.165574 0.820486
O O15 0.723658 0.000000 0.887657
O O16 0.500000 0.000000 0.935530
O O17 0.500000 0.238498 0.057197
O O18 0.667950 0.500000 0.064310
O O19 0.000000 0.500000 0.342447
#
# Coordination Sequence:
#
# PCOD9375135 Si02
#       7
#     8   8   8   8   4   8   4
#     4  11  24  38  54  81 116 156 201 248 299 359
#     4  10  22  41  64  90 124 167 210 255 310 375
#     4  11  23  38  57  83 116 155 199 248 303 359
#     4  10  20  37  63  90 117 155 200 245 299 363
#     4  11  23  39  65  97 127 163 207 261 319 375
#     4  10  21  38  60  86 116 152 198 251 306 362
#     4   9  20  39  61  91 125 157 199 251 307 365
#
# _framework density 19.258368000000001
#
# number of rings (size 3 to 8) (size 9 to 14) (size 15 to 20)
#    0.000    1.667    0.833    3.250    1.167    9.333 
#    0.000    3.333    0.000    0.000    0.000    0.000 
#    0.000    0.000    0.000    0.000    0.000    0.000 
#
# Total GULP energy -134097.618779 kJ/mol
# GULP energy per Si atom -5587.400782 kJ/mol
# Density = 1.921453 g / cm^3
# Si number density = 19.258368 Si / 1000 Ang^3
#
#
#
# Elastic Constant Matrix: (Units=GPa)
#
#
# Indices 1 2 3 4 5 6 
#
# 1 78.8230 47.6849 42.9320 0.0000 0.0000 0.0000
# 2 47.6849 108.5199 71.6146 0.0000 0.0000 0.0000
# 3 42.9320 71.6146 138.8351 0.0000 0.0000 0.0000
# 4 0.0000 0.0000 0.0000 8.2858 0.0000 0.0000
# 5 0.0000 0.0000 0.0000 0.0000 25.8503 0.0000
# 6 0.0000 0.0000 0.0000 0.0000 0.0000 19.4757
#
#
#
# Elastic Compliance Matrix: (Units=1/GPa)
#
#
# Indices 1 2 3 4 5 6 
#
# 1 0.017720 -0.006322 -0.002218 0.000000 0.000000 0.000000
# 2 -0.006322 0.016226 -0.006415 0.000000 0.000000 0.000000
# 3 -0.002218 -0.006415 0.011198 0.000000 0.000000 0.000000
# 4 0.000000 0.000000 0.000000 0.120688 0.000000 0.000000
# 5 0.000000 0.000000 0.000000 0.000000 0.038684 0.000000
# 6 0.000000 0.000000 0.000000 0.000000 0.000000 0.051346
#
#
# Mechanical properties :
#
#
# Convention : Reuss Voigt Hill
#
# Bulk Modulus (GPa) = 65.64811 72.29345 68.97078
# Shear Modulus (GPa) = 17.19096 21.65211 19.42154
#
# Velocity S-wave (km/s) = 2.99096 3.35669 3.17909
# Velocity P-wave (km/s) = 6.78896 7.25558 7.02614
#
# Compressibility (1/GPa) = 0.01523273
#
# Stress axis : x y z
#
# Youngs Moduli (GPa) = 56.43455 61.62816 89.30414
#
# Poissons Ratio (x) = 0.38964 0.19810
# Poissons Ratio (y) = 0.35680 0.57288
# Poissons Ratio (z) = 0.12518 0.39534
#
# Static dielectric constant tensor:
#      x y z
#    x 1.660970 0.000000 0.000000 
#    y 0.000000 1.692650 0.000000 
#    z 0.000000 0.000000 1.619930 
# 
# From -- ./inp_files/26944.got.cif
#   From: 2010.05.17/outbox.cif.g08.bks.cpg/sg44_14_cif.got.tgz:26944.got - 2010.06.03 19:37:08.
