data_PCOD9375405
_publ_section_title
;
Structure prediction by ZEFSAII (Michael W. Deem and Ramdas Pophale) SiO2 
 PCOD9375405
Probable space group: I M M 2
;
_chemical_formula_sum "Si O2"
_cell_formula_units_Z 32
_cell_length_a 8.827367
_cell_length_b 20.643120
_cell_length_c 9.561606
_cell_angle_alpha 90.000000
_cell_angle_beta 90.000000
_cell_angle_gamma 90.000000
_cell_volume 1742.357881
_symmetry_space_group_name_H-M "I M M 2"
_symmetry_group_IT_number 44
_symmetry_cell_setting 'orthorhombic'
loop_
_space_group_symop_operation_xyz
x,y,z
-x,-y,z
-x,y,z
x,-y,z
1/2+x,1/2+y,1/2+z
1/2-x,1/2-y,1/2+z
1/2-x,1/2+y,1/2+z
1/2+x,1/2-y,1/2+z
loop_
_atom_site_type_symbol
_atom_site_label
_atom_site_fract_x
_atom_site_fract_y
_atom_site_fract_z
Si Si1 0.181667 0.311523 0.008010
Si Si2 0.182783 0.693533 0.331837
Si Si3 0.682129 0.925555 0.025569
Si Si4 0.180799 0.924388 0.328333
O O1 0.229058 0.305370 0.169855
O O2 0.000000 0.311507 0.002600
O O3 0.245119 0.252004 0.918098
O O4 0.243474 0.377192 0.939519
O O5 0.223750 0.625957 0.407051
O O6 0.000000 0.699857 0.337094
O O7 0.500000 0.923071 0.043818
O O8 0.758867 0.908323 0.173001
O O9 0.722977 0.000000 0.990851
O O10 0.000000 0.916678 0.331396
O O11 0.217595 0.000000 0.353923
#
# Coordination Sequence:
#
# PCOD9375405 Si02
#       4
#     8   8   8   8
#     4  11  23  37  56  81 109 144 184 226 271 321
#     4  10  22  38  56  81 112 144 181 226 272 320
#     4   9  18  35  59  84 111 145 182 220 266 320
#     4  10  21  37  57  82 112 144 179 222 271 323
#
# _framework density 18.365917
#
# number of rings (size 3 to 8) (size 9 to 14) (size 15 to 20)
#    0.000    2.000    0.000    3.000    0.000    9.500 
#    0.000    2.500    0.000    3.000    0.000    0.000 
#    0.000    0.000    0.000    0.000    0.000    0.000 
#
# Total GULP energy -89383.829859 kJ/mol
# GULP energy per Si atom -5586.489366 kJ/mol
# Density = 1.832412 g / cm^3
# Si number density = 18.365917 Si / 1000 Ang^3
#
#
#
# Elastic Constant Matrix: (Units=GPa)
#
#
# Indices 1 2 3 4 5 6 
#
# 1 26.6272 44.2994 55.8339 0.0000 0.0000 0.0001
# 2 44.2994 111.5479 117.9177 0.0001 0.0000 0.0003
# 3 55.8339 117.9177 199.6272 0.0002 0.0001 0.0010
# 4 0.0000 0.0001 0.0002 41.9922 0.0000 0.0002
# 5 0.0000 0.0000 0.0001 0.0000 26.9784 0.0000
# 6 0.0001 0.0003 0.0010 0.0002 0.0000 69.9032
#
#
#
# Elastic Compliance Matrix: (Units=1/GPa)
#
#
# Indices 1 2 3 4 5 6 
#
# 1 0.125741 -0.033972 -0.015102 0.000000 0.000000 0.000000
# 2 -0.033972 0.033047 -0.010019 0.000000 0.000000 0.000000
# 3 -0.015102 -0.010019 0.015151 0.000000 0.000000 0.000000
# 4 0.000000 0.000000 0.000000 0.023814 0.000000 0.000000
# 5 0.000000 0.000000 0.000000 0.000000 0.037067 0.000000
# 6 0.000000 0.000000 0.000000 0.000000 0.000000 0.014305
#
#
# Mechanical properties :
#
#
# Convention : Reuss Voigt Hill
#
# Bulk Modulus (GPa) = 17.93590 85.98935 51.96263
# Shear Modulus (GPa) = 12.95689 35.75820 24.35754
#
# Velocity S-wave (km/s) = 2.65898 4.41725 3.64570
# Velocity P-wave (km/s) = 4.38337 8.54037 6.78792
#
# Compressibility (1/GPa) = 0.05575411
#
# Stress axis : x y z
#
# Youngs Moduli (GPa) = 7.95288 30.25969 66.00069
#
# Poissons Ratio (x) = 1.02797 0.99673
# Poissons Ratio (y) = 0.27017 0.66127
# Poissons Ratio (z) = 0.12010 0.30318
#
# Static dielectric constant tensor:
#      x y z
#    x 1.614620 0.000000 0.000000 
#    y 0.000000 1.623610 0.000000 
#    z 0.000000 0.000000 1.599330 
# 
# From -- ./inp_files/4216.got.cif
#   From: 2010.05.17/outbox.cif.g08.bks.cpg/sg44_3_cif.got.tgz:4216.got - 2010.06.03 19:37:08.
