data_PCOD9375165
_publ_section_title
;
Structure prediction by ZEFSAII (Michael W. Deem and Ramdas Pophale) SiO2 
 PCOD9375165
Probable space group: I M M 2
;
_chemical_formula_sum "Si O2"
_cell_formula_units_Z 58
_cell_length_a 7.656013
_cell_length_b 28.135290
_cell_length_c 11.594208
_cell_angle_alpha 90.000000
_cell_angle_beta 90.000000
_cell_angle_gamma 90.000000
_cell_volume 2497.440473
_symmetry_space_group_name_H-M "I M M 2"
_symmetry_group_IT_number 44
_symmetry_cell_setting 'orthorhombic'
loop_
_space_group_symop_operation_xyz
x,y,z
-x,-y,z
-x,y,z
x,-y,z
1/2+x,1/2+y,1/2+z
1/2-x,1/2-y,1/2+z
1/2-x,1/2+y,1/2+z
1/2+x,1/2-y,1/2+z
loop_
_atom_site_type_symbol
_atom_site_label
_atom_site_fract_x
_atom_site_fract_y
_atom_site_fract_z
Si Si1 0.699070 0.276512 0.530890
Si Si2 0.297265 0.641833 0.171088
Si Si3 0.500000 0.500000 0.081335
Si Si4 0.790019 0.553024 0.740179
Si Si5 0.291908 0.261907 0.279189
Si Si6 0.790263 0.616999 0.543215
Si Si7 0.301585 0.929045 0.507781
Si Si8 0.709384 0.946683 0.830609
O O1 0.500000 0.260225 0.541305
O O2 0.775303 0.253034 0.411482
O O3 0.772514 0.269210 0.661477
O O4 0.707476 0.333222 0.508353
O O5 0.500000 0.651633 0.149030
O O6 0.220595 0.687216 0.235320
O O7 0.211632 0.624823 0.052366
O O8 0.276597 0.596424 0.253654
O O9 0.653689 0.459343 0.069824
O O10 0.721640 0.500000 0.713706
O O11 0.725722 0.596749 0.664740
O O12 0.000000 0.551124 0.720529
O O13 0.764458 0.563626 0.873846
O O14 0.500000 0.266013 0.297291
O O15 0.756659 0.572779 0.458283
O O16 0.000000 0.625234 0.543924
O O17 0.500000 0.945331 0.530902
O O18 0.500000 0.948994 0.814727
O O19 0.781397 0.000000 0.811722
#
# Coordination Sequence:
#
# PCOD9375165 Si02
#       8
#     8   8   2   8   8   8   8   8
#     4  11  24  44  69  99 130 171 222 284 352 423
#     4  11  23  41  62  88 129 170 213 273 335 400
#     4  12  22  40  60  90 130 180 230 276 332 396
#     4   9  18  35  59  86 124 173 218 268 322 385
#     4  10  24  46  70  95 133 171 220 285 352 420
#     4  10  20  38  63  91 127 167 214 264 327 398
#     4  11  23  39  61  90 129 175 226 274 331 396
#     4  10  21  35  58  92 128 170 217 261 312 385
#
# _framework density 23.223776999999998
#
# number of rings (size 3 to 8) (size 9 to 14) (size 15 to 20)
#    0.000    1.655    2.759    1.448    0.966    5.241 
#    1.241    4.138    0.000    0.828    0.000    0.000 
#    0.000    0.000    0.000    0.000    0.000    0.000 
#
# Total GULP energy -161520.299059 kJ/mol
# GULP energy per Si atom -5569.665485 kJ/mol
# Density = 2.317092 g / cm^3
# Si number density = 23.223777 Si / 1000 Ang^3
#
#
#
# Elastic Constant Matrix: (Units=GPa)
#
#
# Indices 1 2 3 4 5 6 
#
# 1 55.9024 -5.0934 9.1240 0.0000 0.0000 0.0000
# 2 -5.0934 56.6857 28.7167 0.0001 0.0000 0.0001
# 3 9.1240 28.7167 96.2136 0.0000 -0.0001 0.0002
# 4 0.0000 0.0001 0.0000 11.9852 0.0000 0.0001
# 5 0.0000 0.0000 -0.0001 0.0000 12.6517 0.0000
# 6 0.0000 0.0001 0.0002 0.0001 0.0000 41.3959
#
#
#
# Elastic Compliance Matrix: (Units=1/GPa)
#
#
# Indices 1 2 3 4 5 6 
#
# 1 0.018599 0.003022 -0.002666 0.000000 0.000000 0.000000
# 2 0.003022 0.021275 -0.006636 0.000000 0.000000 0.000000
# 3 -0.002666 -0.006636 0.012627 0.000000 0.000000 0.000000
# 4 0.000000 0.000000 0.000000 0.083436 0.000000 0.000000
# 5 0.000000 0.000000 0.000000 0.000000 0.079041 0.000000
# 6 0.000000 0.000000 0.000000 0.000000 0.000000 0.024157
#
#
# Mechanical properties :
#
#
# Convention : Reuss Voigt Hill
#
# Bulk Modulus (GPa) = 25.03785 30.47739 27.75762
# Shear Modulus (GPa) = 18.86734 24.94352 21.90543
#
# Velocity S-wave (km/s) = 2.85338 3.28083 3.07454
# Velocity P-wave (km/s) = 4.65406 5.24439 4.95802
#
# Compressibility (1/GPa) = 0.03993953
#
# Stress axis : x y z
#
# Youngs Moduli (GPa) = 53.76732 47.00454 79.19507
#
# Poissons Ratio (x) = -0.14202 0.21110
# Poissons Ratio (y) = -0.16246 0.52556
# Poissons Ratio (z) = 0.14332 0.31194
#
# Static dielectric constant tensor:
#      x y z
#    x 1.877000 0.000000 0.000000 
#    y 0.000000 1.928930 0.000000 
#    z 0.000000 0.000000 1.972900 
# 
# From -- ./inp_files/11317.got.cif
#   From: 2010.05.17/outbox.cif.g08.bks.cpg/sg44_6_cif.got.tgz:11317.got - 2010.06.03 19:37:08.
