data_PCOD9375707
_publ_section_title
;
Structure prediction by ZEFSAII (Michael W. Deem and Ramdas Pophale) SiO2 
 PCOD9375707
Probable space group: I M M 2
;
_chemical_formula_sum "Si O2"
_cell_formula_units_Z 48
_cell_length_a 17.008452
_cell_length_b 14.358922
_cell_length_c 9.046223
_cell_angle_alpha 90.000000
_cell_angle_beta 90.000000
_cell_angle_gamma 90.000000
_cell_volume 2209.296042
_symmetry_space_group_name_H-M "I M M 2"
_symmetry_group_IT_number 44
_symmetry_cell_setting 'orthorhombic'
loop_
_space_group_symop_operation_xyz
x,y,z
-x,-y,z
-x,y,z
x,-y,z
1/2+x,1/2+y,1/2+z
1/2-x,1/2-y,1/2+z
1/2-x,1/2+y,1/2+z
1/2+x,1/2-y,1/2+z
loop_
_atom_site_type_symbol
_atom_site_label
_atom_site_fract_x
_atom_site_fract_y
_atom_site_fract_z
Si Si1 0.184820 0.317839 0.180820
Si Si2 0.347423 0.500000 0.762227
Si Si3 0.091075 0.803695 0.955580
Si Si4 0.087984 0.000000 0.957225
Si Si5 0.321520 0.000000 0.114064
Si Si6 0.680541 0.313988 0.945988
Si Si7 0.411610 0.815766 0.161384
Si Si8 0.403475 0.000000 0.792863
O O1 0.212651 0.262247 0.327310
O O2 0.129752 0.406548 0.214771
O O3 0.134261 0.242192 0.091510
O O4 0.255480 0.341439 0.069592
O O5 0.413190 0.500000 0.635724
O O6 0.269120 0.500000 0.659110
O O7 0.346926 0.593023 0.861690
O O8 0.090987 0.737795 0.815261
O O9 0.000000 0.819897 0.997254
O O10 0.127115 0.903477 0.912454
O O11 0.000000 0.000000 0.891809
O O12 0.355921 0.904254 0.176664
O O13 0.356172 0.000000 0.948188
O O14 0.614652 0.255322 0.033655
O O15 0.500000 0.848875 0.130421
O O16 0.500000 0.000000 0.803509
#
# Coordination Sequence:
#
# PCOD9375707 Si02
#       8
#     8   4   8   4   4   8   8   4
#     4  12  24  43  68 100 141 179 235 286 345 419
#     4  12  25  43  66 101 139 183 233 285 347 419
#     4  10  22  41  67  96 133 177 225 284 347 411
#     4  10  22  40  65  98 134 180 230 278 343 413
#     4  12  24  44  70 101 138 179 232 286 362 421
#     4  12  26  42  68  99 140 185 232 287 348 411
#     4  11  25  45  71 102 139 183 234 294 354 419
#     4  12  27  45  73 106 141 186 233 291 352 419
#
# _framework density 21.726376999999999
#
# number of rings (size 3 to 8) (size 9 to 14) (size 15 to 20)
#    0.000    0.667    3.333    4.750    0.000    4.000 
#    0.000    1.667    0.000    0.000    0.000    0.000 
#    0.000    0.000    0.000    0.000    0.000    0.000 
#
# Total GULP energy -134155.409222 kJ/mol
# GULP energy per Si atom -5589.808718 kJ/mol
# Density = 2.167693 g / cm^3
# Si number density = 21.726377 Si / 1000 Ang^3
#
#
#
# Elastic Constant Matrix: (Units=GPa)
#
#
# Indices 1 2 3 4 5 6 
#
# 1 74.5198 18.4284 14.0326 0.0000 0.0000 0.0000
# 2 18.4284 134.6492 14.8927 0.0000 0.0000 0.0000
# 3 14.0326 14.8927 75.4728 0.0000 0.0000 0.0000
# 4 0.0000 0.0000 0.0000 34.0694 0.0000 0.0000
# 5 0.0000 0.0000 0.0000 0.0000 28.5091 0.0000
# 6 0.0000 0.0000 0.0000 0.0000 0.0000 50.5640
#
#
#
# Elastic Compliance Matrix: (Units=1/GPa)
#
#
# Indices 1 2 3 4 5 6 
#
# 1 0.014276 -0.001697 -0.002319 0.000000 0.000000 0.000000
# 2 -0.001697 0.007794 -0.001222 0.000000 0.000000 0.000000
# 3 -0.002319 -0.001222 0.013922 0.000000 0.000000 0.000000
# 4 0.000000 0.000000 0.000000 0.029352 0.000000 0.000000
# 5 0.000000 0.000000 0.000000 0.000000 0.035077 0.000000
# 6 0.000000 0.000000 0.000000 0.000000 0.000000 0.019777
#
#
# Mechanical properties :
#
#
# Convention : Reuss Voigt Hill
#
# Bulk Modulus (GPa) = 39.19405 42.14991 40.67198
# Shear Modulus (GPa) = 35.92463 38.44770 37.18617
#
# Velocity S-wave (km/s) = 4.07074 4.21126 4.14160
# Velocity P-wave (km/s) = 6.33826 6.56420 6.45222
#
# Compressibility (1/GPa) = 0.02551408
#
# Stress axis : x y z
#
# Youngs Moduli (GPa) = 70.04893 128.30047 71.82744
#
# Poissons Ratio (x) = 0.21776 0.16659
# Poissons Ratio (y) = 0.11889 0.08780
# Poissons Ratio (z) = 0.16247 0.15684
#
# Static dielectric constant tensor:
#      x y z
#    x 1.819830 0.000000 0.000000 
#    y 0.000000 1.809020 0.000000 
#    z 0.000000 0.000000 1.774200 
# 
# From -- ./inp_files/8166.got.cif
#   From: 2010.05.17/outbox.cif.g08.bks.cpg/sg44_5_cif.got.tgz:8166.got - 2010.06.03 19:37:08.
