data_PCOD9375593
_publ_section_title
;
Structure prediction by ZEFSAII (Michael W. Deem and Ramdas Pophale) SiO2 
 PCOD9375593
Probable space group: I M M 2
;
_chemical_formula_sum "Si O2"
_cell_formula_units_Z 40
_cell_length_a 9.050689
_cell_length_b 7.488140
_cell_length_c 29.997931
_cell_angle_alpha 90.000000
_cell_angle_beta 90.000000
_cell_angle_gamma 90.000000
_cell_volume 2033.044568
_symmetry_space_group_name_H-M "I M M 2"
_symmetry_group_IT_number 44
_symmetry_cell_setting 'orthorhombic'
loop_
_space_group_symop_operation_xyz
x,y,z
-x,-y,z
-x,y,z
x,-y,z
1/2+x,1/2+y,1/2+z
1/2-x,1/2-y,1/2+z
1/2-x,1/2+y,1/2+z
1/2+x,1/2-y,1/2+z
loop_
_atom_site_type_symbol
_atom_site_label
_atom_site_fract_x
_atom_site_fract_y
_atom_site_fract_z
Si Si1 0.323377 0.000000 0.636081
Si Si2 0.331705 0.717392 0.482030
Si Si3 0.829310 0.283856 0.392885
Si Si4 0.673621 0.705300 0.792261
Si Si5 0.324511 0.500000 0.232810
Si Si6 0.674716 0.786693 0.073461
O O1 0.256035 0.000000 0.685372
O O2 0.263171 0.828063 0.609353
O O3 0.500000 0.000000 0.637420
O O4 0.500000 0.776544 0.488413
O O5 0.331956 0.500000 0.480701
O O6 0.266127 0.777563 0.434830
O O7 0.232070 0.766039 0.524288
O O8 0.825509 0.500000 0.391943
O O9 0.780879 0.220845 0.344122
O O10 0.000000 0.229480 0.399266
O O11 0.500000 0.760727 0.790387
O O12 0.683049 0.500000 0.778372
O O13 0.770312 0.830576 0.761347
O O14 0.500000 0.500000 0.227041
O O15 0.500000 0.752625 0.077294
O O16 0.698998 0.000000 0.078811
#
# Coordination Sequence:
#
# PCOD9375593 Si02
#       6
#     4   8   8   8   4   8
#     4  12  26  44  68  94 122 158 206 258 313 370
#     4   9  17  30  52  84 122 164 208 250 299 358
#     4   9  16  30  54  83 119 161 205 252 304 362
#     4  10  21  40  65  91 121 160 207 257 309 368
#     4  12  26  44  66  90 124 162 202 256 315 374
#     4  10  21  40  65  92 125 163 204 252 306 366
#
# _framework density 19.674925999999999
#
# number of rings (size 3 to 8) (size 9 to 14) (size 15 to 20)
#    0.000    2.000    1.000    3.000    0.000    5.600 
#    1.800    0.000    0.000    0.000    0.000    0.000 
#    0.000    0.000    0.000    0.000    0.000    0.000 
#
# Total GULP energy -111787.631865 kJ/mol
# GULP energy per Si atom -5589.381593 kJ/mol
# Density = 1.963014 g / cm^3
# Si number density = 19.674926 Si / 1000 Ang^3
#
#
#
# Elastic Constant Matrix: (Units=GPa)
#
#
# Indices 1 2 3 4 5 6 
#
# 1 153.4564 55.9022 98.7358 0.0000 0.0000 0.0000
# 2 55.9022 82.7229 52.5815 0.0000 0.0000 0.0000
# 3 98.7358 52.5815 160.4672 0.0000 0.0000 0.0000
# 4 0.0000 0.0000 0.0000 164.7318 0.0000 0.0000
# 5 0.0000 0.0000 0.0000 0.0000 38.9273 0.0000
# 6 0.0000 0.0000 0.0000 0.0000 0.0000 16.8422
#
#
#
# Elastic Compliance Matrix: (Units=1/GPa)
#
#
# Indices 1 2 3 4 5 6 
#
# 1 0.011871 -0.004268 -0.005906 0.000000 0.000000 0.000000
# 2 -0.004268 0.016804 -0.002880 0.000000 0.000000 0.000000
# 3 -0.005906 -0.002880 0.010809 0.000000 0.000000 0.000000
# 4 0.000000 0.000000 0.000000 0.006070 0.000000 0.000000
# 5 0.000000 0.000000 0.000000 0.000000 0.025689 0.000000
# 6 0.000000 0.000000 0.000000 0.000000 0.000000 0.059374
#
#
# Mechanical properties :
#
#
# Convention : Reuss Voigt Hill
#
# Bulk Modulus (GPa) = 74.75981 90.12062 82.44022
# Shear Modulus (GPa) = 31.02033 56.72873 43.87453
#
# Velocity S-wave (km/s) = 3.97500 5.37546 4.72738
# Velocity P-wave (km/s) = 7.69074 9.18867 8.47288
#
# Compressibility (1/GPa) = 0.01337617
#
# Stress axis : x y z
#
# Youngs Moduli (GPa) = 84.23692 59.51127 92.51321
#
# Poissons Ratio (x) = 0.25402 0.54636
# Poissons Ratio (y) = 0.35956 0.26642
# Poissons Ratio (z) = 0.49748 0.17138
#
# Static dielectric constant tensor:
#      x y z
#    x 1.661330 0.000000 0.000000 
#    y 0.000000 1.721520 0.000000 
#    z 0.000000 0.000000 1.652040 
# 
# From -- ./inp_files/25938.got.cif
#   From: 2010.05.17/outbox.cif.g08.bks.cpg/sg44_13_cif.got.tgz:25938.got - 2010.06.03 19:37:08.
