data_PCOD9375602
_publ_section_title
;
Structure prediction by ZEFSAII (Michael W. Deem and Ramdas Pophale) SiO2 
 PCOD9375602
Probable space group: I M M 2
;
_chemical_formula_sum "Si O2"
_cell_formula_units_Z 48
_cell_length_a 22.549187
_cell_length_b 17.808378
_cell_length_c 5.544706
_cell_angle_alpha 90.000000
_cell_angle_beta 90.000000
_cell_angle_gamma 90.000000
_cell_volume 2226.556791
_symmetry_space_group_name_H-M "I M M 2"
_symmetry_group_IT_number 44
_symmetry_cell_setting 'orthorhombic'
loop_
_space_group_symop_operation_xyz
x,y,z
-x,-y,z
-x,y,z
x,-y,z
1/2+x,1/2+y,1/2+z
1/2-x,1/2-y,1/2+z
1/2-x,1/2+y,1/2+z
1/2+x,1/2-y,1/2+z
loop_
_atom_site_type_symbol
_atom_site_label
_atom_site_fract_x
_atom_site_fract_y
_atom_site_fract_z
Si Si1 0.278556 0.634990 0.195740
Si Si2 0.159368 0.416755 0.387453
Si Si3 0.565356 0.310577 0.921180
Si Si4 0.841197 0.088037 0.196312
Si Si5 0.655122 0.226044 0.232383
Si Si6 0.434121 0.160247 0.618777
O O1 0.213399 0.599453 0.206928
O O2 0.312202 0.602074 0.433920
O O3 0.284873 0.724950 0.245651
O O4 0.302169 0.614847 0.927657
O O5 0.166021 0.500000 0.494265
O O6 0.164512 0.345851 0.564528
O O7 0.095683 0.408685 0.258336
O O8 0.500000 0.337272 0.994014
O O9 0.598099 0.365652 0.735802
O O10 0.559098 0.229099 0.802025
O O11 0.610315 0.291122 0.135376
O O12 0.851634 0.000000 0.223327
O O13 0.617807 0.191143 0.448531
O O14 0.500000 0.145855 0.512935
#
# Coordination Sequence:
#
# PCOD9375602 Si02
#       6
#     8   8   8   8   8   8
#     4  11  25  43  68  98 136 179 226 275 334 412
#     4  11  26  42  63  98 136 173 217 284 348 403
#     4   9  19  37  60  91 128 170 224 277 328 395
#     4  11  22  40  64  97 138 181 220 275 340 399
#     4  10  22  39  68  93 127 177 229 277 333 406
#     4  10  21  41  65  91 124 172 227 277 330 399
#
# _framework density 21.557950999999999
#
# number of rings (size 3 to 8) (size 9 to 14) (size 15 to 20)
#    0.000    1.667    1.667    2.000    4.667    2.000 
#    0.000    0.000    0.000    2.000    0.000    0.000 
#    0.000    0.000    0.000    0.000    0.000    0.000 
#
# Total GULP energy -133712.810666 kJ/mol
# GULP energy per Si atom -5571.367111 kJ/mol
# Density = 2.150888 g / cm^3
# Si number density = 21.557951 Si / 1000 Ang^3
#
#
#
# Elastic Constant Matrix: (Units=GPa)
#
#
# Indices 1 2 3 4 5 6 
#
# 1 65.0040 38.5845 12.0804 0.0000 0.0000 0.0000
# 2 38.5845 127.3771 12.3822 0.0000 0.0000 0.0000
# 3 12.0804 12.3822 57.9086 0.0000 0.0000 0.0000
# 4 0.0000 0.0000 0.0000 25.5290 0.0000 0.0000
# 5 0.0000 0.0000 0.0000 0.0000 -14.4744 0.0000
# 6 0.0000 0.0000 0.0000 0.0000 0.0000 543.8351
#
#
#
# Elastic Compliance Matrix: (Units=1/GPa)
#
#
# Indices 1 2 3 4 5 6 
#
# 1 0.019197 -0.005541 -0.002820 0.000000 0.000000 0.000000
# 2 -0.005541 0.009617 -0.000900 0.000000 0.000000 0.000000
# 3 -0.002820 -0.000900 0.018049 0.000000 0.000000 0.000000
# 4 0.000000 0.000000 0.000000 0.039171 0.000000 0.000000
# 5 0.000000 0.000000 0.000000 0.000000 -0.069088 0.000000
# 6 0.000000 0.000000 0.000000 0.000000 0.000000 0.001839
#
#
# Mechanical properties :
#
#
# Convention : Reuss Voigt Hill
#
# Bulk Modulus (GPa) = 35.28529 41.82044 38.55286
# Shear Modulus (GPa) = 106.94321 123.46080 115.20201
#
# Velocity S-wave (km/s) = 7.05089 7.57586 7.31808
# Velocity P-wave (km/s) = 9.09340 9.79622 9.45134
#
# Compressibility (1/GPa) = 0.02834042
#
# Stress axis : x y z
#
# Youngs Moduli (GPa) = 52.09256 103.98647 55.40364
#
# Poissons Ratio (x) = 0.57617 0.15623
# Poissons Ratio (y) = 0.28864 0.04988
# Poissons Ratio (z) = 0.14689 0.09363
#
# Static dielectric constant tensor:
#      x y z
#    x 1.957550 0.000000 0.000000 
#    y 0.000000 1.754170 0.000000 
#    z 0.000000 0.000000 1.851530 
# 
# From -- ./inp_files/2030.got.cif
#   From: 2010.05.17/outbox.cif.g08.bks.cpg/sg44_2_cif.got.tgz:2030.got - 2010.06.03 19:37:08.
