data_PCOD9375264
_publ_section_title
;
Structure prediction by ZEFSAII (Michael W. Deem and Ramdas Pophale) SiO2 
 PCOD9375264
Probable space group: I M M 2
;
_chemical_formula_sum "Si O2"
_cell_formula_units_Z 48
_cell_length_a 9.129079
_cell_length_b 7.860961
_cell_length_c 34.460271
_cell_angle_alpha 90.000000
_cell_angle_beta 90.000000
_cell_angle_gamma 90.000000
_cell_volume 2472.983937
_symmetry_space_group_name_H-M "I M M 2"
_symmetry_group_IT_number 44
_symmetry_cell_setting 'orthorhombic'
loop_
_space_group_symop_operation_xyz
x,y,z
-x,-y,z
-x,y,z
x,-y,z
1/2+x,1/2+y,1/2+z
1/2-x,1/2-y,1/2+z
1/2-x,1/2+y,1/2+z
1/2+x,1/2-y,1/2+z
loop_
_atom_site_type_symbol
_atom_site_label
_atom_site_fract_x
_atom_site_fract_y
_atom_site_fract_z
Si Si1 0.827827 0.000000 0.105150
Si Si2 0.668407 0.299099 0.299801
Si Si3 0.173774 0.191457 0.648685
Si Si4 0.172969 0.000000 0.012509
Si Si5 0.832568 0.801034 0.223998
Si Si6 0.831863 0.704484 0.885785
Si Si7 0.324870 0.701109 0.965483
O O1 0.753791 0.166487 0.123426
O O2 0.810683 0.000000 0.058862
O O3 0.000000 0.000000 0.114771
O O4 0.500000 0.234966 0.297372
O O5 0.666598 0.500000 0.292486
O O6 0.767581 0.217303 0.266920
O O7 0.719086 0.268887 0.343879
O O8 0.233577 0.207059 0.692496
O O9 0.000000 0.221330 0.648544
O O10 0.202191 0.000000 0.634368
O O11 0.247826 0.831650 0.994652
O O12 0.000000 0.000000 0.003068
O O13 0.000000 0.739765 0.222622
O O14 0.831087 0.000000 0.213358
O O15 0.834756 0.500000 0.883588
O O16 0.732607 0.748801 0.922450
O O17 0.000000 0.764472 0.891819
O O18 0.500000 0.717657 0.967669
O O19 0.288234 0.500000 0.972115
#
# Coordination Sequence:
#
# PCOD9375264 Si02
#       7
#     4   8   8   4   8   8   8
#     4  11  25  45  67  97 129 163 207 259 317 375
#     4  10  21  35  53  82 118 157 205 257 307 366
#     4  11  24  42  67  96 126 165 208 254 310 375
#     4  11  25  43  67  95 127 165 211 259 309 379
#     4  11  23  38  58  85 119 161 209 260 312 365
#     4   9  18  34  56  82 115 158 206 255 309 368
#     4  10  22  40  63  93 128 165 207 259 316 375
#
# _framework density 19.409749999999999
#
# number of rings (size 3 to 8) (size 9 to 14) (size 15 to 20)
#    0.000    1.667    0.833    3.000    1.167    9.000 
#    0.000    5.000    0.000    0.000    0.000    0.000 
#    0.000    0.000    0.000    0.000    0.000    0.000 
#
# Total GULP energy -134124.737647 kJ/mol
# GULP energy per Si atom -5588.530735 kJ/mol
# Density = 1.936557 g / cm^3
# Si number density = 19.409750 Si / 1000 Ang^3
#
#
#
# Elastic Constant Matrix: (Units=GPa)
#
#
# Indices 1 2 3 4 5 6 
#
# 1 116.3015 75.8836 72.2338 0.0000 0.0000 0.0000
# 2 75.8836 102.9636 61.5379 0.0000 0.0000 0.0000
# 3 72.2338 61.5379 104.9380 0.0000 0.0000 0.0000
# 4 0.0000 0.0000 0.0000 8.0886 0.0000 0.0000
# 5 0.0000 0.0000 0.0000 0.0000 32.3736 0.0000
# 6 0.0000 0.0000 0.0000 0.0000 0.0000 -110.0612
#
#
#
# Elastic Compliance Matrix: (Units=1/GPa)
#
#
# Indices 1 2 3 4 5 6 
#
# 1 0.020091 -0.010071 -0.007923 0.000000 0.000000 0.000000
# 2 -0.010071 0.020001 -0.004797 0.000000 0.000000 0.000000
# 3 -0.007923 -0.004797 0.017796 0.000000 0.000000 0.000000
# 4 0.000000 0.000000 0.000000 0.123630 0.000000 0.000000
# 5 0.000000 0.000000 0.000000 0.000000 0.030889 0.000000
# 6 0.000000 0.000000 0.000000 0.000000 0.000000 -0.009086
#
#
# Mechanical properties :
#
#
# Convention : Reuss Voigt Hill
#
# Bulk Modulus (GPa) = 81.26260 82.61264 81.93762
# Shear Modulus (GPa) = 19.76228 -6.28328 6.73950
#
# Velocity S-wave (km/s) = 3.19433 -1.80117 1.86541
# Velocity P-wave (km/s) = 7.45404 6.19106 6.85171
#
# Compressibility (1/GPa) = 0.01230578
#
# Stress axis : x y z
#
# Youngs Moduli (GPa) = 49.77436 49.99639 56.19091
#
# Poissons Ratio (x) = 0.50352 0.44522
# Poissons Ratio (y) = 0.50128 0.26954
# Poissons Ratio (z) = 0.39438 0.23982
#
# Static dielectric constant tensor:
#      x y z
#    x 1.661210 0.000000 0.000000 
#    y 0.000000 1.688300 0.000000 
#    z 0.000000 0.000000 1.651430 
# 
# From -- ./inp_files/26978.got.cif
#   From: 2010.05.17/outbox.cif.g08.bks.cpg/sg44_14_cif.got.tgz:26978.got - 2010.06.03 19:37:08.
