data_PCOD9375179
_publ_section_title
;
Structure prediction by ZEFSAII (Michael W. Deem and Ramdas Pophale) SiO2 
 PCOD9375179
Probable space group: I M M 2
;
_chemical_formula_sum "Si O2"
_cell_formula_units_Z 30
_cell_length_a 12.249287
_cell_length_b 7.498209
_cell_length_c 14.978035
_cell_angle_alpha 90.000000
_cell_angle_beta 90.000000
_cell_angle_gamma 90.000000
_cell_volume 1375.698275
_symmetry_space_group_name_H-M "I M M 2"
_symmetry_group_IT_number 44
_symmetry_cell_setting 'orthorhombic'
loop_
_space_group_symop_operation_xyz
x,y,z
-x,-y,z
-x,y,z
x,-y,z
1/2+x,1/2+y,1/2+z
1/2-x,1/2-y,1/2+z
1/2-x,1/2+y,1/2+z
1/2+x,1/2-y,1/2+z
loop_
_atom_site_type_symbol
_atom_site_label
_atom_site_fract_x
_atom_site_fract_y
_atom_site_fract_z
Si Si1 0.123421 0.208709 0.844130
Si Si2 0.160983 0.000000 0.116203
Si Si3 0.500000 0.209847 0.945404
Si Si4 0.613870 0.000000 0.194783
Si Si5 0.242864 0.799700 0.509560
Si Si6 0.000000 0.000000 0.284807
O O1 0.122777 0.325447 0.755397
O O2 0.214267 0.287685 0.908235
O O3 0.000000 0.227254 0.881383
O O4 0.143603 0.000000 0.828739
O O5 0.288888 0.000000 0.130321
O O6 0.098749 0.000000 0.210543
O O7 0.161490 0.179777 0.057614
O O8 0.613363 0.251237 0.999312
O O9 0.500000 0.332764 0.854357
O O10 0.500000 0.000000 0.922210
O O11 0.500000 0.000000 0.146673
O O12 0.247961 0.000000 0.545620
#
# Coordination Sequence:
#
# PCOD9375179 Si02
#       6
#     8   4   4   4   8   2
#     4  10  20  38  67  96 126 174 223 267 329 420
#     4  12  28  42  66 104 150 171 226 303 351 387
#     4  12  24  48  80 100 134 199 248 280 348 453
#     4  10  22  40  64  94 132 171 218 283 339 399
#     4  12  24  41  69 101 134 182 235 281 341 416
#     4  12  28  48  72 112 152 184 236 304 360 422
#
# _framework density 21.807106999999998
#
# number of rings (size 3 to 8) (size 9 to 14) (size 15 to 20)
#    0.000    0.800    5.333    1.600    3.733    2.133 
#    0.000    0.000    0.000    0.000    0.000    0.000 
#    0.000    0.000    0.000    0.000    0.000    0.000 
#
# Total GULP energy -83543.664162 kJ/mol
# GULP energy per Si atom -5569.577611 kJ/mol
# Density = 2.175747 g / cm^3
# Si number density = 21.807107 Si / 1000 Ang^3
#
#
#
# Elastic Constant Matrix: (Units=GPa)
#
#
# Indices 1 2 3 4 5 6 
#
# 1 35.0503 6.4260 -2.8439 0.0000 0.0000 0.0000
# 2 6.4260 147.6368 19.2204 0.0000 0.0000 0.0000
# 3 -2.8439 19.2204 41.2339 0.0000 0.0000 0.0000
# 4 0.0000 0.0000 0.0000 25.7928 0.0000 0.0000
# 5 0.0000 0.0000 0.0000 0.0000 82.8405 0.0000
# 6 0.0000 0.0000 0.0000 0.0000 0.0000 107.5075
#
#
#
# Elastic Compliance Matrix: (Units=1/GPa)
#
#
# Indices 1 2 3 4 5 6 
#
# 1 0.029052 -0.001624 0.002761 0.000000 0.000000 0.000000
# 2 -0.001624 0.007302 -0.003516 0.000000 0.000000 0.000000
# 3 0.002761 -0.003516 0.026081 0.000000 0.000000 0.000000
# 4 0.000000 0.000000 0.000000 0.038771 0.000000 0.000000
# 5 0.000000 0.000000 0.000000 0.000000 0.012071 0.000000
# 6 0.000000 0.000000 0.000000 0.000000 0.000000 0.009302
#
#
# Mechanical properties :
#
#
# Convention : Reuss Voigt Hill
#
# Bulk Modulus (GPa) = 17.33781 29.94733 23.64257
# Shear Modulus (GPa) = 34.11528 56.63606 45.37567
#
# Velocity S-wave (km/s) = 3.95955 5.10174 4.56650
# Velocity P-wave (km/s) = 5.37326 6.96178 6.21845
#
# Compressibility (1/GPa) = 0.05767740
#
# Stress axis : x y z
#
# Youngs Moduli (GPa) = 34.42084 136.95361 38.34202
#
# Poissons Ratio (x) = 0.22240 -0.10585
# Poissons Ratio (y) = 0.05590 0.13479
# Poissons Ratio (z) = -0.09503 0.48147
#
# Static dielectric constant tensor:
#      x y z
#    x 1.772030 0.000000 0.000000 
#    y 0.000000 1.801940 0.000000 
#    z 0.000000 0.000000 1.774110 
# 
# From -- ./inp_files/17305.got.cif
#   From: 2010.05.17/outbox.cif.g08.bks.cpg/sg44_9_cif.got.tgz:17305.got - 2010.06.03 19:37:08.
