data_PCOD9375712
_publ_section_title
;
Structure prediction by ZEFSAII (Michael W. Deem and Ramdas Pophale) SiO2 
 PCOD9375712
Probable space group: I M M 2
;
_chemical_formula_sum "Si O2"
_cell_formula_units_Z 64
_cell_length_a 22.626848
_cell_length_b 14.878404
_cell_length_c 8.014055
_cell_angle_alpha 90.000000
_cell_angle_beta 90.000000
_cell_angle_gamma 90.000000
_cell_volume 2697.942722
_symmetry_space_group_name_H-M "I M M 2"
_symmetry_group_IT_number 44
_symmetry_cell_setting 'orthorhombic'
loop_
_space_group_symop_operation_xyz
x,y,z
-x,-y,z
-x,y,z
x,-y,z
1/2+x,1/2+y,1/2+z
1/2-x,1/2-y,1/2+z
1/2-x,1/2+y,1/2+z
1/2+x,1/2-y,1/2+z
loop_
_atom_site_type_symbol
_atom_site_label
_atom_site_fract_x
_atom_site_fract_y
_atom_site_fract_z
Si Si1 0.570277 0.095297 0.346750
Si Si2 0.749392 0.775208 0.549169
Si Si3 0.432188 0.603193 0.177757
Si Si4 0.562664 0.292073 0.701349
Si Si5 0.345963 0.396548 0.870777
Si Si6 0.590601 0.096753 0.749232
Si Si7 0.775129 0.394935 0.372111
Si Si8 0.123571 0.242357 0.885440
O O1 0.500000 0.102918 0.333083
O O2 0.586823 0.092871 0.545598
O O3 0.605138 0.176551 0.264515
O O4 0.588884 0.000000 0.273763
O O5 0.793507 0.833047 0.432842
O O6 0.767786 0.669620 0.534440
O O7 0.750939 0.830582 0.722999
O O8 0.682560 0.771694 0.479298
O O9 0.500000 0.638964 0.179920
O O10 0.435856 0.500000 0.229494
O O11 0.382215 0.650920 0.287827
O O12 0.402043 0.607237 0.996831
O O13 0.500000 0.336815 0.736727
O O14 0.621514 0.351632 0.715351
O O15 0.566087 0.195626 0.794200
O O16 0.567418 0.265717 0.508354
O O17 0.327658 0.500000 0.852058
O O18 0.656985 0.098263 0.816423
O O19 0.564705 0.000000 0.804435
O O20 0.753317 0.500000 0.382909
#
# Coordination Sequence:
#
# PCOD9375712 Si02
#       8
#     8   8   8   8   8   8   8   8
#     4   9  16  28  51  84 115 143 183 236 296 360
#     4  12  22  41  64  94 130 171 220 274 329 400
#     4  10  22  41  63  87 119 164 212 257 317 391
#     4  11  21  37  60  92 124 155 204 268 324 378
#     4  11  24  41  60  87 123 169 218 261 317 394
#     4   9  16  32  56  84 117 151 191 243 307 374
#     4  11  23  41  66  92 129 172 214 269 329 392
#     4  11  21  35  60  90 119 152 200 256 318 374
#
# _framework density 23.721778
#
# number of rings (size 3 to 8) (size 9 to 14) (size 15 to 20)
#    0.000    1.500    3.750    3.750    0.000    4.000 
#    0.000    2.500    0.000    3.000    0.000    0.000 
#    0.000    0.000    0.000    0.000    0.000    0.000 
#
# Total GULP energy -178255.642356 kJ/mol
# GULP energy per Si atom -5570.488824 kJ/mol
# Density = 2.366779 g / cm^3
# Si number density = 23.721778 Si / 1000 Ang^3
#
#
#
# Elastic Constant Matrix: (Units=GPa)
#
#
# Indices 1 2 3 4 5 6 
#
# 1 122.1250 38.2272 13.9346 0.0000 0.0000 0.0000
# 2 38.2272 128.5199 22.0845 0.0000 0.0000 0.0000
# 3 13.9346 22.0845 18.9914 0.0000 0.0000 0.0000
# 4 0.0000 0.0000 0.0000 -24.7566 0.0000 0.0000
# 5 0.0000 0.0000 0.0000 0.0000 21.5335 0.0000
# 6 0.0000 0.0000 0.0000 0.0000 0.0000 8.0702
#
#
#
# Elastic Compliance Matrix: (Units=1/GPa)
#
#
# Indices 1 2 3 4 5 6 
#
# 1 0.009330 -0.001998 -0.004522 0.000000 0.000000 0.000000
# 2 -0.001998 0.010152 -0.010339 0.000000 0.000000 0.000000
# 3 -0.004522 -0.010339 0.067997 0.000000 0.000000 0.000000
# 4 0.000000 0.000000 0.000000 -0.040393 0.000000 0.000000
# 5 0.000000 0.000000 0.000000 0.000000 0.046439 0.000000
# 6 0.000000 0.000000 0.000000 0.000000 0.000000 0.123913
#
#
# Mechanical properties :
#
#
# Convention : Reuss Voigt Hill
#
# Bulk Modulus (GPa) = 18.60138 46.45876 32.53007
# Shear Modulus (GPa) = 18.58210 13.99542 16.28876
#
# Velocity S-wave (km/s) = 2.80185 2.43159 2.62326
# Velocity P-wave (km/s) = 4.28085 5.24508 4.78730
#
# Compressibility (1/GPa) = 0.05375944
#
# Stress axis : x y z
#
# Youngs Moduli (GPa) = 107.18448 98.50425 14.70661
#
# Poissons Ratio (x) = 0.19681 0.06651
# Poissons Ratio (y) = 0.21415 0.15206
# Poissons Ratio (z) = 0.48470 1.01846
#
# Static dielectric constant tensor:
#      x y z
#    x 1.909210 0.000000 0.000000 
#    y 0.000000 2.121330 0.000000 
#    z 0.000000 0.000000 1.999620 
# 
# From -- ./inp_files/9475.got.cif
#   From: 2010.05.17/outbox.cif.g08.bks.cpg/sg44_5_cif.got.tgz:9475.got - 2010.06.03 19:37:08.
