data_PCOD9375861
_publ_section_title
;
Structure prediction by ZEFSAII (Michael W. Deem and Ramdas Pophale) SiO2 
 PCOD9375861
Probable space group: I M M 2
;
_chemical_formula_sum "Si O2"
_cell_formula_units_Z 56
_cell_length_a 8.859148
_cell_length_b 19.460165
_cell_length_c 16.679035
_cell_angle_alpha 90.000000
_cell_angle_beta 90.000000
_cell_angle_gamma 90.000000
_cell_volume 2875.473671
_symmetry_space_group_name_H-M "I M M 2"
_symmetry_group_IT_number 44
_symmetry_cell_setting 'orthorhombic'
loop_
_space_group_symop_operation_xyz
x,y,z
-x,-y,z
-x,y,z
x,-y,z
1/2+x,1/2+y,1/2+z
1/2-x,1/2-y,1/2+z
1/2-x,1/2+y,1/2+z
1/2+x,1/2-y,1/2+z
loop_
_atom_site_type_symbol
_atom_site_label
_atom_site_fract_x
_atom_site_fract_y
_atom_site_fract_z
Si Si1 0.324563 0.573932 0.940070
Si Si2 0.818259 0.777251 0.463322
Si Si3 0.172783 0.670425 0.244111
Si Si4 0.833443 0.077788 0.632883
Si Si5 0.178106 0.137358 0.904178
Si Si6 0.321111 0.219371 0.140502
Si Si7 0.682216 0.077097 0.061669
O O1 0.500000 0.574123 0.913553
O O2 0.257271 0.500000 0.913969
O O3 0.263226 0.650429 0.926216
O O4 0.327846 0.573564 0.037034
O O5 0.729027 0.714751 0.425223
O O6 0.799539 0.765177 0.559273
O O7 0.000000 0.771676 0.449984
O O8 0.198742 0.621246 0.168266
O O9 0.261215 0.631239 0.314405
O O10 0.239954 0.743100 0.214178
O O11 0.000000 0.678490 0.267145
O O12 0.000000 0.107781 0.653835
O O13 0.828043 0.000000 0.663410
O O14 0.000000 0.128421 0.907801
O O15 0.254928 0.090858 0.972441
O O16 0.500000 0.216649 0.156141
O O17 0.269007 0.142074 0.116637
O O18 0.500000 0.080731 0.057832
O O19 0.724697 0.000000 0.088539
#
# Coordination Sequence:
#
# PCOD9375861 Si02
#       7
#     8   8   8   8   8   8   8
#     4   8  13  24  47  75  99 127 161 196 238 292
#     4   9  16  31  53  75 102 132 169 213 256 309
#     4  12  23  34  50  74 107 143 180 220 264 312
#     4   9  17  31  50  72 100 134 169 201 241 297
#     4  11  23  36  52  74 104 140 179 219 266 318
#     4   9  17  32  55  80 105 136 173 215 264 316
#     4   9  19  38  62  85 109 139 177 221 272 330
#
# _framework density 19.475052000000002
#
# number of rings (size 3 to 8) (size 9 to 14) (size 15 to 20)
#    0.000    2.429    1.429    4.286    0.000    3.429 
#    0.000    0.000    0.000    1.286    0.000    0.000 
#    0.000    0.000    0.000    0.000    0.000    0.000 
#
# Total GULP energy -155922.382182 kJ/mol
# GULP energy per Si atom -5568.656507 kJ/mol
# Density = 1.943073 g / cm^3
# Si number density = 19.475052 Si / 1000 Ang^3
#
#
#
# Elastic Constant Matrix: (Units=GPa)
#
#
# Indices 1 2 3 4 5 6 
#
# 1 24.2425 5.7335 0.7572 0.0000 0.0000 0.0000
# 2 5.7335 105.1526 -15.0806 0.0000 0.0000 0.0000
# 3 0.7572 -15.0806 8.4492 0.0000 0.0000 0.0000
# 4 0.0000 0.0000 0.0000 9.7061 0.0000 0.0000
# 5 0.0000 0.0000 0.0000 0.0000 20.0219 0.0000
# 6 0.0000 0.0000 0.0000 0.0000 0.0000 17.8242
#
#
#
# Elastic Compliance Matrix: (Units=1/GPa)
#
#
# Indices 1 2 3 4 5 6 
#
# 1 0.042493 -0.003848 -0.010677 0.000000 0.000000 0.000000
# 2 -0.003848 0.013130 0.023780 0.000000 0.000000 0.000000
# 3 -0.010677 0.023780 0.161755 0.000001 0.000000 0.000000
# 4 0.000000 0.000000 0.000001 0.103028 0.000000 0.000000
# 5 0.000000 0.000000 0.000000 0.000000 0.049945 0.000000
# 6 0.000000 0.000000 0.000000 0.000000 0.000000 0.056103
#
#
# Mechanical properties :
#
#
# Convention : Reuss Voigt Hill
#
# Bulk Modulus (GPa) = 4.23926 13.40718 8.82322
# Shear Modulus (GPa) = 10.27591 19.27273 14.77432
#
# Velocity S-wave (km/s) = 2.29954 3.14922 2.75731
# Velocity P-wave (km/s) = 3.03843 4.48583 3.83110
#
# Compressibility (1/GPa) = 0.23589014
#
# Stress axis : x y z
#
# Youngs Moduli (GPa) = 23.53303 76.15967 6.18218
#
# Poissons Ratio (x) = 0.29308 0.06601
# Poissons Ratio (y) = 0.09056 -0.14701
# Poissons Ratio (z) = 0.25125 -1.81111
#
# Static dielectric constant tensor:
#      x y z
#    x 1.658320 0.000000 0.000000 
#    y 0.000000 1.771400 0.000000 
#    z 0.000000 0.000000 1.726330 
# 
# From -- ./inp_files/16475.got.cif
#   From: 2010.05.17/outbox.cif.g08.bks.cpg/sg44_9_cif.got.tgz:16475.got - 2010.06.03 19:37:08.
