data_PCOD9375526
_publ_section_title
;
Structure prediction by ZEFSAII (Michael W. Deem and Ramdas Pophale) SiO2 
 PCOD9375526
Probable space group: I M M 2
;
_chemical_formula_sum "Si O2"
_cell_formula_units_Z 42
_cell_length_a 21.347013
_cell_length_b 12.771334
_cell_length_c 7.208576
_cell_angle_alpha 90.000000
_cell_angle_beta 90.000000
_cell_angle_gamma 90.000000
_cell_volume 1965.272871
_symmetry_space_group_name_H-M "I M M 2"
_symmetry_group_IT_number 44
_symmetry_cell_setting 'orthorhombic'
loop_
_space_group_symop_operation_xyz
x,y,z
-x,-y,z
-x,y,z
x,-y,z
1/2+x,1/2+y,1/2+z
1/2-x,1/2-y,1/2+z
1/2-x,1/2+y,1/2+z
1/2+x,1/2-y,1/2+z
loop_
_atom_site_type_symbol
_atom_site_label
_atom_site_fract_x
_atom_site_fract_y
_atom_site_fract_z
Si Si1 0.814630 0.874008 0.980090
Si Si2 0.800556 0.626718 0.757586
Si Si3 0.892785 0.318728 0.454539
Si Si4 0.000000 0.500000 0.425920
Si Si5 0.427341 0.377668 0.730958
Si Si6 0.721162 0.125533 0.681274
O O1 0.785971 0.842221 0.780975
O O2 0.818372 0.000000 0.967854
O O3 0.761976 0.851961 0.137403
O O4 0.881696 0.843072 0.062924
O O5 0.807564 0.500000 0.753747
O O6 0.862337 0.669767 0.657142
O O7 0.835415 0.657317 0.314658
O O8 0.915759 0.202884 0.399145
O O9 0.790476 0.341804 0.970593
O O10 0.945368 0.407015 0.427610
O O11 0.500000 0.371549 0.677029
O O12 0.413322 0.500000 0.778422
O O13 0.721748 0.000000 0.677236
#
# Coordination Sequence:
#
# PCOD9375526 Si02
#       6
#     8   8   8   2   8   8
#     4   8  16  34  58  86 119 160 216 274 325 381
#     4   9  17  34  61  93 127 162 213 273 338 392
#     4  11  20  37  60  92 136 172 217 269 329 393
#     4  12  20  36  64  96 140 182 206 274 338 396
#     4  10  21  38  63  91 129 185 234 272 322 393
#     4   9  17  34  61  92 125 161 211 276 336 397
#
# _framework density 21.371077
#
# number of rings (size 3 to 8) (size 9 to 14) (size 15 to 20)
#    0.000    2.476    2.857    1.143    0.000    0.000 
#    6.857    1.905    0.000    4.571    0.000   16.000 
#    0.000    0.000    0.000    0.000    0.000    0.000 
#
# Total GULP energy -117071.499537 kJ/mol
# GULP energy per Si atom -5574.833311 kJ/mol
# Density = 2.132244 g / cm^3
# Si number density = 21.371077 Si / 1000 Ang^3
#
#
#
# Elastic Constant Matrix: (Units=GPa)
#
#
# Indices 1 2 3 4 5 6 
#
# 1 139.2022 59.9011 57.9290 0.0000 0.0000 0.0000
# 2 59.9011 130.7333 48.1993 0.0000 0.0000 0.0000
# 3 57.9290 48.1993 125.7192 0.0000 0.0000 0.0000
# 4 0.0000 0.0000 0.0000 35.1233 0.0000 0.0000
# 5 0.0000 0.0000 0.0000 0.0000 18.4736 0.0000
# 6 0.0000 0.0000 0.0000 0.0000 0.0000 46.0466
#
#
#
# Elastic Compliance Matrix: (Units=1/GPa)
#
#
# Indices 1 2 3 4 5 6 
#
# 1 0.010015 -0.003363 -0.003325 0.000000 0.000000 0.000000
# 2 -0.003363 0.010037 -0.002299 0.000000 0.000000 0.000000
# 3 -0.003325 -0.002299 0.010368 0.000000 0.000000 0.000000
# 4 0.000000 0.000000 0.000000 0.028471 0.000000 0.000000
# 5 0.000000 0.000000 0.000000 0.000000 0.054131 0.000000
# 6 0.000000 0.000000 0.000000 0.000000 0.000000 0.021717
#
#
# Mechanical properties :
#
#
# Convention : Reuss Voigt Hill
#
# Bulk Modulus (GPa) = 80.34506 80.85706 80.60106
# Shear Modulus (GPa) = 31.87516 35.23704 33.55610
#
# Velocity S-wave (km/s) = 3.86620 4.06497 3.96683
# Velocity P-wave (km/s) = 7.58992 7.74267 7.66667
#
# Compressibility (1/GPa) = 0.01244632
#
# Stress axis : x y z
#
# Youngs Moduli (GPa) = 99.85375 99.62713 96.45214
#
# Poissons Ratio (x) = 0.33501 0.32074
# Poissons Ratio (y) = 0.33577 0.22172
# Poissons Ratio (z) = 0.33205 0.22902
#
# Static dielectric constant tensor:
#      x y z
#    x 1.729610 0.000000 0.000000 
#    y 0.000000 1.902760 0.000000 
#    z 0.000000 0.000000 1.764120 
# 
# From -- ./inp_files/12337.got.cif
#   From: 2010.05.17/outbox.cif.g08.bks.cpg/sg44_7_cif.got.tgz:12337.got - 2010.06.03 19:37:08.
