data_PCOD9375227
_publ_section_title
;
Structure prediction by ZEFSAII (Michael W. Deem and Ramdas Pophale) SiO2 
 PCOD9375227
Probable space group: I M M 2
;
_chemical_formula_sum "Si O2"
_cell_formula_units_Z 48
_cell_length_a 8.659007
_cell_length_b 17.282237
_cell_length_c 17.410100
_cell_angle_alpha 90.000000
_cell_angle_beta 90.000000
_cell_angle_gamma 90.000000
_cell_volume 2605.369429
_symmetry_space_group_name_H-M "I M M 2"
_symmetry_group_IT_number 44
_symmetry_cell_setting 'orthorhombic'
loop_
_space_group_symop_operation_xyz
x,y,z
-x,-y,z
-x,y,z
x,-y,z
1/2+x,1/2+y,1/2+z
1/2-x,1/2-y,1/2+z
1/2-x,1/2+y,1/2+z
1/2+x,1/2-y,1/2+z
loop_
_atom_site_type_symbol
_atom_site_label
_atom_site_fract_x
_atom_site_fract_y
_atom_site_fract_z
Si Si1 0.686643 0.355914 0.227650
Si Si2 0.685827 0.820475 0.259583
Si Si3 0.312090 0.320294 0.055827
Si Si4 0.313336 0.411017 0.904928
Si Si5 0.816434 0.000000 0.993515
Si Si6 0.186682 0.645264 0.586020
Si Si7 0.683525 0.000000 0.821804
O O1 0.500000 0.362714 0.230506
O O2 0.727981 0.270482 0.258804
O O3 0.733971 0.356374 0.137827
O O4 0.759220 0.424404 0.276186
O O5 0.500000 0.824415 0.264636
O O6 0.758311 0.866075 0.329775
O O7 0.729377 0.855095 0.176292
O O8 0.500000 0.320814 0.055899
O O9 0.266599 0.230040 0.054767
O O10 0.258707 0.367498 0.981973
O O11 0.500000 0.410738 0.906261
O O12 0.261335 0.500000 0.903830
O O13 0.750753 0.000000 0.907513
O O14 0.758436 0.924357 0.038808
O O15 0.000000 0.000000 0.990290
O O16 0.000000 0.640169 0.581581
O O17 0.500000 0.000000 0.826042
#
# Coordination Sequence:
#
# PCOD9375227 Si02
#       7
#     8   8   8   8   4   8   4
#     4   9  19  39  64  86 111 148 195 240 287 343
#     4   9  20  38  60  85 115 152 192 236 289 343
#     4   8  17  36  62  86 111 150 192 234 285 340
#     4  10  21  34  54  87 119 150 193 235 279 339
#     4  12  26  40  58  87 118 149 192 243 290 339
#     4   9  19  39  62  84 112 150 194 235 287 348
#     4  12  26  40  58  87 120 153 190 235 290 349
#
# _framework density 18.423490000000001
#
# number of rings (size 3 to 8) (size 9 to 14) (size 15 to 20)
#    0.000    2.500    0.000    3.500    4.667    1.667 
#    0.000    3.333    0.000    0.000    0.000    0.000 
#    0.000    0.000    0.000    0.000    0.000    0.000 
#
# Total GULP energy -133967.539515 kJ/mol
# GULP energy per Si atom -5581.980813 kJ/mol
# Density = 1.838156 g / cm^3
# Si number density = 18.423490 Si / 1000 Ang^3
#
#
#
# Elastic Constant Matrix: (Units=GPa)
#
#
# Indices 1 2 3 4 5 6 
#
# 1 38.3619 53.5332 50.7094 0.0000 0.0000 0.0000
# 2 53.5332 170.4680 153.3759 0.0000 0.0000 0.0000
# 3 50.7094 153.3759 192.9199 0.0000 0.0000 0.0000
# 4 0.0000 0.0000 0.0000 30.0998 0.0000 0.0000
# 5 0.0000 0.0000 0.0000 0.0000 32.4598 0.0000
# 6 0.0000 0.0000 0.0000 0.0000 0.0000 27.7778
#
#
#
# Elastic Compliance Matrix: (Units=1/GPa)
#
#
# Indices 1 2 3 4 5 6 
#
# 1 0.046658 -0.012708 -0.002161 0.000000 0.000000 0.000000
# 2 -0.012708 0.024067 -0.015793 0.000000 0.000000 0.000000
# 3 -0.002161 -0.015793 0.018308 0.000000 0.000000 0.000000
# 4 0.000000 0.000000 0.000000 0.033223 0.000000 0.000000
# 5 0.000000 0.000000 0.000000 0.000000 0.030807 0.000000
# 6 0.000000 0.000000 0.000000 0.000000 0.000000 0.036000
#
#
# Mechanical properties :
#
#
# Convention : Reuss Voigt Hill
#
# Bulk Modulus (GPa) = 36.09123 101.88742 68.98933
# Shear Modulus (GPa) = 19.25873 27.67623 23.46748
#
# Velocity S-wave (km/s) = 3.23667 3.88006 3.57288
# Velocity P-wave (km/s) = 5.79658 8.68886 7.38568
#
# Compressibility (1/GPa) = 0.02770756
#
# Stress axis : x y z
#
# Youngs Moduli (GPa) = 21.43271 41.55104 54.62216
#
# Poissons Ratio (x) = 0.52803 0.11803
# Poissons Ratio (y) = 0.27237 0.86267
# Poissons Ratio (z) = 0.04631 0.65623
#
# Static dielectric constant tensor:
#      x y z
#    x 1.629060 0.000000 0.000000 
#    y 0.000000 1.615060 0.000000 
#    z 0.000000 0.000000 1.614500 
# 
# From -- ./inp_files/16206.got.cif
#   From: 2010.05.17/outbox.cif.g08.bks.cpg/sg44_9_cif.got.tgz:16206.got - 2010.06.03 19:37:08.
