data_PCOD9375789
_publ_section_title
;
Structure prediction by ZEFSAII (Michael W. Deem and Ramdas Pophale) SiO2 
 PCOD9375789
Probable space group: I M M 2
;
_chemical_formula_sum "Si O2"
_cell_formula_units_Z 58
_cell_length_a 17.985559
_cell_length_b 21.757397
_cell_length_c 6.770778
_cell_angle_alpha 90.000000
_cell_angle_beta 90.000000
_cell_angle_gamma 90.000000
_cell_volume 2649.533720
_symmetry_space_group_name_H-M "I M M 2"
_symmetry_group_IT_number 44
_symmetry_cell_setting 'orthorhombic'
loop_
_space_group_symop_operation_xyz
x,y,z
-x,-y,z
-x,y,z
x,-y,z
1/2+x,1/2+y,1/2+z
1/2-x,1/2-y,1/2+z
1/2-x,1/2+y,1/2+z
1/2+x,1/2-y,1/2+z
loop_
_atom_site_type_symbol
_atom_site_label
_atom_site_fract_x
_atom_site_fract_y
_atom_site_fract_z
Si Si1 0.771455 0.068519 0.525360
Si Si2 0.914014 0.260997 0.283438
Si Si3 0.000000 0.500000 0.161164
Si Si4 0.688553 0.714562 0.535287
Si Si5 0.688029 0.883189 0.161148
Si Si6 0.326857 0.697341 0.041092
Si Si7 0.125934 0.594698 0.277262
Si Si8 0.409907 0.769272 0.287442
O O1 0.732466 0.075427 0.313308
O O2 0.830349 0.123569 0.539260
O O3 0.704703 0.083731 0.674050
O O4 0.800353 0.000000 0.557727
O O5 0.898009 0.334167 0.286471
O O6 0.898271 0.247808 0.539271
O O7 0.000000 0.242191 0.285756
O O8 0.898783 0.253026 0.032266
O O9 0.935227 0.446577 0.174769
O O10 0.749339 0.658208 0.548717
O O11 0.660040 0.708670 0.295333
O O12 0.744279 0.773553 0.537029
O O13 0.658528 0.708856 0.778953
O O14 0.632923 0.835011 0.269217
O O15 0.639535 0.921149 0.006611
O O16 0.500000 0.772412 0.283649
#
# Coordination Sequence:
#
# PCOD9375789 Si02
#       8
#     8   8   2   8   8   8   8   8
#     4  12  25  43  63  91 125 173 227 264 311 386
#     4  12  21  34  62  90 124 160 200 267 329 371
#     4  12  28  44  58  96 144 186 212 252 326 404
#     4  11  19  36  61  92 123 158 208 270 321 376
#     4  11  24  41  65  93 129 172 220 265 321 389
#     4  11  20  37  59  89 122 160 212 267 317 375
#     4  12  24  42  63  88 133 179 216 257 313 385
#     4  11  21  35  60  99 129 157 203 273 338 387
#
# _framework density 21.890644999999999
#
# number of rings (size 3 to 8) (size 9 to 14) (size 15 to 20)
#    0.000    0.552    8.276    2.483    1.931    0.000 
#    1.241    0.690    0.000    1.655    0.000    0.000 
#    0.000    0.000    0.000    0.000    0.000    0.000 
#
# Total GULP energy -161564.703081 kJ/mol
# GULP energy per Si atom -5571.196658 kJ/mol
# Density = 2.184082 g / cm^3
# Si number density = 21.890645 Si / 1000 Ang^3
#
#
#
# Elastic Constant Matrix: (Units=GPa)
#
#
# Indices 1 2 3 4 5 6 
#
# 1 117.9468 49.4677 39.4508 0.0000 0.0000 0.0000
# 2 49.4677 153.3808 30.4340 0.0000 0.0000 0.0000
# 3 39.4508 30.4340 150.6551 0.0000 0.0000 0.0000
# 4 0.0000 0.0000 0.0000 5.3341 0.0000 0.0000
# 5 0.0000 0.0000 0.0000 0.0000 60.8627 0.0000
# 6 0.0000 0.0000 0.0000 0.0000 0.0000 28.4635
#
#
#
# Elastic Compliance Matrix: (Units=1/GPa)
#
#
# Indices 1 2 3 4 5 6 
#
# 1 0.010425 -0.002938 -0.002136 0.000000 0.000000 0.000000
# 2 -0.002938 0.007620 -0.000770 0.000000 0.000000 0.000000
# 3 -0.002136 -0.000770 0.007353 0.000000 0.000000 0.000000
# 4 0.000000 0.000000 0.000000 0.187471 0.000000 0.000000
# 5 0.000000 0.000000 0.000000 0.000000 0.016430 0.000000
# 6 0.000000 0.000000 0.000000 0.000000 0.000000 0.035133
#
#
# Mechanical properties :
#
#
# Convention : Reuss Voigt Hill
#
# Bulk Modulus (GPa) = 72.94627 73.40974 73.17801
# Shear Modulus (GPa) = 17.81313 39.10742 28.46028
#
# Velocity S-wave (km/s) = 2.85569 4.23127 3.60962
# Velocity P-wave (km/s) = 6.65347 7.58150 7.13260
#
# Compressibility (1/GPa) = 0.01370872
#
# Stress axis : x y z
#
# Youngs Moduli (GPa) = 95.91974 131.23053 136.00539
#
# Poissons Ratio (x) = 0.38561 0.29056
# Poissons Ratio (y) = 0.28185 0.10471
# Poissons Ratio (z) = 0.20492 0.10103
#
# Static dielectric constant tensor:
#      x y z
#    x 1.737490 0.000000 0.000000 
#    y 0.000000 1.752370 0.000000 
#    z 0.000000 0.000000 2.111990 
# 
# From -- ./inp_files/2152.got.cif
#   From: 2010.05.17/outbox.cif.g08.bks.cpg/sg44_2_cif.got.tgz:2152.got - 2010.06.03 19:37:08.
