data_PCOD9375430
_publ_section_title
;
Structure prediction by ZEFSAII (Michael W. Deem and Ramdas Pophale) SiO2 
 PCOD9375430
Probable space group: I M M 2
;
_chemical_formula_sum "Si O2"
_cell_formula_units_Z 48
_cell_length_a 14.268369
_cell_length_b 24.560933
_cell_length_c 7.210522
_cell_angle_alpha 90.000000
_cell_angle_beta 90.000000
_cell_angle_gamma 90.000000
_cell_volume 2526.887453
_symmetry_space_group_name_H-M "I M M 2"
_symmetry_group_IT_number 44
_symmetry_cell_setting 'orthorhombic'
loop_
_space_group_symop_operation_xyz
x,y,z
-x,-y,z
-x,y,z
x,-y,z
1/2+x,1/2+y,1/2+z
1/2-x,1/2-y,1/2+z
1/2-x,1/2+y,1/2+z
1/2+x,1/2-y,1/2+z
loop_
_atom_site_type_symbol
_atom_site_label
_atom_site_fract_x
_atom_site_fract_y
_atom_site_fract_z
Si Si1 0.894313 0.563188 0.397620
Si Si2 0.106069 0.353374 0.738181
Si Si3 0.890028 0.226638 0.676940
Si Si4 0.703301 0.643389 0.910491
Si Si5 0.111081 0.148716 0.008355
Si Si6 0.805743 0.063586 0.723918
O O1 0.890111 0.500000 0.461946
O O2 0.882998 0.604431 0.569079
O O3 0.805899 0.570246 0.262857
O O4 0.000000 0.571645 0.320308
O O5 0.119432 0.291283 0.670464
O O6 0.185704 0.362619 0.888094
O O7 0.000000 0.358276 0.809432
O O8 0.826913 0.196003 0.527553
O O9 0.866899 0.201239 0.879001
O O10 0.000000 0.213158 0.641877
O O11 0.662153 0.647854 0.704781
O O12 0.668207 0.592210 0.030609
O O13 0.142905 0.097163 0.885732
O O14 0.000000 0.147835 0.038724
O O15 0.828032 0.000000 0.727185
#
# Coordination Sequence:
#
# PCOD9375430 Si02
#       6
#     8   8   8   8   8   8
#     4   9  18  36  60  83 115 155 189 229 284 341
#     4  10  21  37  58  89 119 149 194 240 282 338
#     4   9  21  39  57  83 120 152 189 236 281 340
#     4  11  22  35  61  87 114 155 191 236 289 342
#     4  10  21  40  60  83 116 154 191 234 289 340
#     4  10  22  39  58  85 116 149 192 239 286 341
#
# _framework density 18.995702000000001
#
# number of rings (size 3 to 8) (size 9 to 14) (size 15 to 20)
#    0.000    2.167    1.667    0.500    2.333    3.000 
#    0.000    0.000    0.000    0.000    0.000    0.000 
#    0.000    0.000    0.000    0.000    0.000    0.000 
#
# Total GULP energy -133915.315481 kJ/mol
# GULP energy per Si atom -5579.804812 kJ/mol
# Density = 1.895247 g / cm^3
# Si number density = 18.995702 Si / 1000 Ang^3
#
#
#
# Elastic Constant Matrix: (Units=GPa)
#
#
# Indices 1 2 3 4 5 6 
#
# 1 53.2674 24.3829 41.5535 -0.0002 0.0004 0.0001
# 2 24.3829 95.3609 47.0575 0.0003 0.0006 0.0001
# 3 41.5535 47.0575 112.4525 0.0019 0.0011 0.0002
# 4 -0.0002 0.0003 0.0019 11.5769 0.0006 0.0002
# 5 0.0004 0.0006 0.0011 0.0006 26.4531 0.0001
# 6 0.0001 0.0001 0.0002 0.0002 0.0001 27.7420
#
#
#
# Elastic Compliance Matrix: (Units=1/GPa)
#
#
# Indices 1 2 3 4 5 6 
#
# 1 0.026834 -0.002480 -0.008878 0.000002 0.000000 0.000000
# 2 -0.002480 0.013445 -0.004710 0.000000 0.000000 0.000000
# 3 -0.008878 -0.004710 0.014144 -0.000002 0.000000 0.000000
# 4 0.000002 0.000000 -0.000002 0.086379 -0.000002 -0.000001
# 5 0.000000 0.000000 0.000000 -0.000002 0.037803 0.000000
# 6 0.000000 0.000000 0.000000 -0.000001 0.000000 0.036046
#
#
# Mechanical properties :
#
#
# Convention : Reuss Voigt Hill
#
# Bulk Modulus (GPa) = 44.86864 54.11873 49.49368
# Shear Modulus (GPa) = 19.66834 23.02687 21.34761
#
# Velocity S-wave (km/s) = 3.22127 3.48546 3.35597
# Velocity P-wave (km/s) = 6.12431 6.68953 6.41315
#
# Compressibility (1/GPa) = 0.02228728
#
# Stress axis : x y z
#
# Youngs Moduli (GPa) = 37.26605 74.37871 70.70152
#
# Poissons Ratio (x) = 0.18448 0.62767
# Poissons Ratio (y) = 0.09243 0.33298
# Poissons Ratio (z) = 0.33084 0.35029
#
# Static dielectric constant tensor:
#      x y z
#    x 1.689900 0.000000 0.000000 
#    y 0.000000 1.642960 0.000000 
#    z 0.000000 0.000000 1.623360 
# 
# From -- ./inp_files/1589.got.cif
#   From: 2010.05.17/outbox.cif.g08.bks.cpg/sg44_1_cif.got.tgz:1589.got - 2010.06.03 19:37:08.
