data_PCOD9375537
_publ_section_title
;
Structure prediction by ZEFSAII (Michael W. Deem and Ramdas Pophale) SiO2 
 PCOD9375537
Probable space group: I M M 2
;
_chemical_formula_sum "Si O2"
_cell_formula_units_Z 64
_cell_length_a 28.448088
_cell_length_b 12.643130
_cell_length_c 9.311692
_cell_angle_alpha 90.000000
_cell_angle_beta 90.000000
_cell_angle_gamma 90.000000
_cell_volume 3349.163031
_symmetry_space_group_name_H-M "I M M 2"
_symmetry_group_IT_number 44
_symmetry_cell_setting 'orthorhombic'
loop_
_space_group_symop_operation_xyz
x,y,z
-x,-y,z
-x,y,z
x,-y,z
1/2+x,1/2+y,1/2+z
1/2-x,1/2-y,1/2+z
1/2-x,1/2+y,1/2+z
1/2+x,1/2-y,1/2+z
loop_
_atom_site_type_symbol
_atom_site_label
_atom_site_fract_x
_atom_site_fract_y
_atom_site_fract_z
Si Si1 0.770001 0.621252 0.694990
Si Si2 0.947400 0.380866 0.121642
Si Si3 0.155069 0.622476 0.231001
Si Si4 0.947898 0.240720 0.846939
Si Si5 0.291467 0.237697 0.478632
Si Si6 0.146143 0.124707 0.763076
Si Si7 0.348328 0.214590 0.025319
Si Si8 0.552680 0.875380 0.073597
O O1 0.754815 0.500000 0.684936
O O2 0.742023 0.697209 0.585673
O O3 0.823597 0.633298 0.636517
O O4 0.767791 0.663416 0.857859
O O5 0.945564 0.500000 0.057212
O O6 0.901588 0.374886 0.219736
O O7 0.000000 0.371822 0.186217
O O8 0.942495 0.289645 0.004050
O O9 0.169172 0.500000 0.252993
O O10 0.176013 0.667229 0.083197
O O11 0.171069 0.692380 0.366734
O O12 0.906538 0.162450 0.802542
O O13 0.946488 0.341410 0.740481
O O14 0.000000 0.192686 0.833191
O O15 0.321035 0.320098 0.382161
O O16 0.158078 0.174398 0.606700
O O17 0.151148 0.000000 0.764307
O O18 0.403550 0.189665 0.014457
O O19 0.500000 0.848196 0.021639
O O20 0.559785 0.000000 0.052470
#
# Coordination Sequence:
#
# PCOD9375537 Si02
#       8
#     8   8   8   8   8   8   8   8
#     4  11  23  41  63  86 115 150 187 237 291 344
#     4   9  17  29  50  83 121 157 188 226 283 345
#     4  11  21  36  58  87 122 156 186 227 285 350
#     4   9  16  29  50  80 113 148 190 236 279 330
#     4  11  23  41  61  89 113 145 189 239 287 351
#     4  10  21  39  59  82 111 150 197 244 286 329
#     4  10  22  37  56  83 117 152 191 233 281 341
#     4   9  16  27  48  79 114 149 184 223 273 333
#
# _framework density 19.109251
#
# number of rings (size 3 to 8) (size 9 to 14) (size 15 to 20)
#    0.000    2.000    1.250    3.000    0.000    2.250 
#    0.000   10.625    0.000    0.000    0.000    0.000 
#    0.000    0.000    0.000    0.000    0.000    0.000 
#
# Total GULP energy -178418.224195 kJ/mol
# GULP energy per Si atom -5575.569506 kJ/mol
# Density = 1.906576 g / cm^3
# Si number density = 19.109251 Si / 1000 Ang^3
#
#
#
# Elastic Constant Matrix: (Units=GPa)
#
#
# Indices 1 2 3 4 5 6 
#
# 1 61.2436 24.8885 24.5234 0.0000 0.0000 0.0000
# 2 24.8885 85.8085 43.4274 0.0000 0.0000 0.0000
# 3 24.5234 43.4274 119.0594 0.0000 0.0000 0.0000
# 4 0.0000 0.0000 0.0000 18.3722 0.0000 0.0000
# 5 0.0000 0.0000 0.0000 0.0000 9.8780 0.0000
# 6 0.0000 0.0000 0.0000 0.0000 0.0000 17.3329
#
#
#
# Elastic Compliance Matrix: (Units=1/GPa)
#
#
# Indices 1 2 3 4 5 6 
#
# 1 0.019026 -0.004335 -0.002338 0.000000 0.000000 0.000000
# 2 -0.004335 0.015280 -0.004680 0.000000 0.000000 0.000000
# 3 -0.002338 -0.004680 0.010588 0.000000 0.000000 0.000000
# 4 0.000000 0.000000 0.000000 0.054430 0.000000 0.000000
# 5 0.000000 0.000000 0.000000 0.000000 0.101235 0.000000
# 6 0.000000 0.000000 0.000000 0.000000 0.000000 0.057694
#
#
# Mechanical properties :
#
#
# Convention : Reuss Voigt Hill
#
# Bulk Modulus (GPa) = 45.07115 50.19890 47.63502
# Shear Modulus (GPa) = 17.33968 20.66809 19.00388
#
# Velocity S-wave (km/s) = 3.01557 3.29230 3.15697
# Velocity P-wave (km/s) = 5.98014 6.38582 6.18631
#
# Compressibility (1/GPa) = 0.02218714
#
# Stress axis : x y z
#
# Youngs Moduli (GPa) = 52.55933 65.44451 94.44759
#
# Poissons Ratio (x) = 0.28373 0.22078
# Poissons Ratio (y) = 0.22787 0.44206
# Poissons Ratio (z) = 0.12286 0.30631
#
# Static dielectric constant tensor:
#      x y z
#    x 1.726200 0.000000 0.000000 
#    y 0.000000 1.612710 0.000000 
#    z 0.000000 0.000000 1.676790 
# 
# From -- ./inp_files/6361.got.cif
#   From: 2010.05.17/outbox.cif.g08.bks.cpg/sg44_4_cif.got.tgz:6361.got - 2010.06.03 19:37:08.
