data_PCOD9375036
_publ_section_title
;
Structure prediction by ZEFSAII (Michael W. Deem and Ramdas Pophale) SiO2 
 PCOD9375036
Probable space group: I M M 2
;
_chemical_formula_sum "Si O2"
_cell_formula_units_Z 64
_cell_length_a 28.131173
_cell_length_b 8.841251
_cell_length_c 12.854888
_cell_angle_alpha 90.000000
_cell_angle_beta 90.000000
_cell_angle_gamma 90.000000
_cell_volume 3197.200402
_symmetry_space_group_name_H-M "I M M 2"
_symmetry_group_IT_number 44
_symmetry_cell_setting 'orthorhombic'
loop_
_space_group_symop_operation_xyz
x,y,z
-x,-y,z
-x,y,z
x,-y,z
1/2+x,1/2+y,1/2+z
1/2-x,1/2-y,1/2+z
1/2-x,1/2+y,1/2+z
1/2+x,1/2-y,1/2+z
loop_
_atom_site_type_symbol
_atom_site_label
_atom_site_fract_x
_atom_site_fract_y
_atom_site_fract_z
Si Si1 0.053502 0.675438 0.119480
Si Si2 0.445298 0.682731 0.973981
Si Si3 0.411314 0.180210 0.191401
Si Si4 0.070625 0.171951 0.905016
Si Si5 0.699577 0.822697 0.239850
Si Si6 0.682943 0.671607 0.449971
Si Si7 0.206084 0.678435 0.168489
Si Si8 0.377507 0.320026 0.783302
O O1 0.068295 0.500000 0.125702
O O2 0.089134 0.777055 0.185564
O O3 0.000000 0.689795 0.161757
O O4 0.052391 0.727880 0.000070
O O5 0.500000 0.724533 0.947667
O O6 0.443614 0.500000 0.981173
O O7 0.430911 0.753048 0.084336
O O8 0.407362 0.728102 0.885189
O O9 0.435937 0.256065 0.291688
O O10 0.354358 0.209217 0.202423
O O11 0.418131 0.000000 0.195178
O O12 0.127134 0.165866 0.925067
O O13 0.052987 0.000000 0.909602
O O14 0.703489 0.780235 0.361441
O O15 0.739239 0.722519 0.184945
O O16 0.709043 0.000000 0.223410
O O17 0.701962 0.500000 0.442135
O O18 0.689920 0.737651 0.563815
O O19 0.199971 0.500000 0.158398
O O20 0.172588 0.739163 0.261731
O O21 0.370240 0.500000 0.786956
#
# Coordination Sequence:
#
# PCOD9375036 Si02
#       8
#     8   8   8   8   8   8   8   8
#     4  11  23  37  57  88 123 156 196 249 307 368
#     4  10  23  43  66  91 123 167 216 265 319 384
#     4  10  22  40  64  91 123 161 205 260 317 373
#     4  10  20  36  61  87 116 156 198 246 304 366
#     4  10  22  40  61  89 124 163 209 261 316 378
#     4  10  20  37  60  86 117 154 198 250 309 370
#     4  12  24  38  61  91 125 165 209 259 318 380
#     4  11  23  41  63  88 121 163 211 263 316 376
#
# _framework density 20.017513000000001
#
# number of rings (size 3 to 8) (size 9 to 14) (size 15 to 20)
#    0.000    1.500    1.250    3.750    0.000    6.750 
#    0.000    2.500    0.000    0.000    0.000    0.000 
#    0.000    0.000    0.000    0.000    0.000    0.000 
#
# Total GULP energy -178821.875578 kJ/mol
# GULP energy per Si atom -5588.183612 kJ/mol
# Density = 1.997195 g / cm^3
# Si number density = 20.017513 Si / 1000 Ang^3
#
#
#
# Elastic Constant Matrix: (Units=GPa)
#
#
# Indices 1 2 3 4 5 6 
#
# 1 34.4560 8.0397 0.1344 0.0000 0.0000 0.0000
# 2 8.0397 41.6964 -4.9200 0.0000 0.0000 0.0000
# 3 0.1344 -4.9200 79.1286 0.0000 0.0000 0.0000
# 4 0.0000 0.0000 0.0000 27.7976 0.0000 0.0000
# 5 0.0000 0.0000 0.0000 0.0000 7.7014 0.0000
# 6 0.0000 0.0000 0.0000 0.0000 0.0000 8.5660
#
#
#
# Elastic Compliance Matrix: (Units=1/GPa)
#
#
# Indices 1 2 3 4 5 6 
#
# 1 0.030404 -0.005912 -0.000419 0.000000 0.000000 0.000000
# 2 -0.005912 0.025310 0.001584 0.000000 0.000000 0.000000
# 3 -0.000419 0.001584 0.012737 0.000000 0.000000 0.000000
# 4 0.000000 0.000000 0.000000 0.035974 0.000000 0.000000
# 5 0.000000 0.000000 0.000000 0.000000 0.129846 0.000000
# 6 0.000000 0.000000 0.000000 0.000000 0.000000 0.116741
#
#
# Mechanical properties :
#
#
# Convention : Reuss Voigt Hill
#
# Bulk Modulus (GPa) = 16.96190 17.97655 17.46923
# Shear Modulus (GPa) = 13.15245 18.94813 16.05029
#
# Velocity S-wave (km/s) = 2.56607 3.07999 2.83470
# Velocity P-wave (km/s) = 4.15591 4.65278 4.41134
#
# Compressibility (1/GPa) = 0.05895566
#
# Stress axis : x y z
#
# Youngs Moduli (GPa) = 32.89089 39.51065 78.51236
#
# Poissons Ratio (x) = 0.23358 0.03291
# Poissons Ratio (y) = 0.19444 -0.12434
# Poissons Ratio (z) = 0.01379 -0.06257
#
# Static dielectric constant tensor:
#      x y z
#    x 1.734490 0.000000 0.000000 
#    y 0.000000 1.673280 0.000000 
#    z 0.000000 0.000000 1.677270 
# 
# From -- ./inp_files/15092.got.cif
#   From: 2010.05.17/outbox.cif.g08.bks.cpg/sg44_8_cif.got.tgz:15092.got - 2010.06.03 19:37:08.
