data_PCOD9375277
_publ_section_title
;
Structure prediction by ZEFSAII (Michael W. Deem and Ramdas Pophale) SiO2 
 PCOD9375277
Probable space group: I M M 2
;
_chemical_formula_sum "Si O2"
_cell_formula_units_Z 58
_cell_length_a 7.428833
_cell_length_b 28.920477
_cell_length_c 11.404077
_cell_angle_alpha 90.000000
_cell_angle_beta 90.000000
_cell_angle_gamma 90.000000
_cell_volume 2450.113415
_symmetry_space_group_name_H-M "I M M 2"
_symmetry_group_IT_number 44
_symmetry_cell_setting 'orthorhombic'
loop_
_space_group_symop_operation_xyz
x,y,z
-x,-y,z
-x,y,z
x,-y,z
1/2+x,1/2+y,1/2+z
1/2-x,1/2-y,1/2+z
1/2-x,1/2+y,1/2+z
1/2+x,1/2-y,1/2+z
loop_
_atom_site_type_symbol
_atom_site_label
_atom_site_fract_x
_atom_site_fract_y
_atom_site_fract_z
Si Si1 0.784059 0.948075 0.449380
Si Si2 0.786121 0.285808 0.758569
Si Si3 0.000000 0.500000 0.298326
Si Si4 0.782043 0.925158 0.717621
Si Si5 0.705563 0.112016 0.239065
Si Si6 0.282836 0.736822 0.499257
Si Si7 0.793924 0.144137 0.885069
Si Si8 0.780447 0.552370 0.530990
O O1 0.742688 0.937065 0.583761
O O2 0.709115 0.907952 0.368786
O O3 0.000000 0.947909 0.437219
O O4 0.718990 0.000000 0.420694
O O5 0.709863 0.337257 0.733235
O O6 0.764123 0.256571 0.637360
O O7 0.721015 0.267132 0.885842
O O8 0.000000 0.290212 0.774633
O O9 0.841951 0.539617 0.288113
O O10 0.729232 0.873377 0.758466
O O11 0.000000 0.931104 0.734421
O O12 0.500000 0.117816 0.198371
O O13 0.776449 0.070176 0.159723
O O14 0.500000 0.738707 0.500104
O O15 0.214501 0.685613 0.459928
O O16 0.000000 0.158138 0.867032
O O17 0.784767 0.096277 0.956446
O O18 0.715501 0.500000 0.511170
O O19 0.000000 0.549136 0.521798
#
# Coordination Sequence:
#
# PCOD9375277 Si02
#       8
#     8   8   2   8   8   8   8   8
#     4  10  21  37  57  82 121 166 209 260 309 375
#     4  10  22  42  67  96 127 165 211 277 334 397
#     4  12  22  36  64  86 118 188 210 264 328 392
#     4  10  23  39  56  89 126 163 221 269 316 382
#     4  10  21  37  58  86 121 156 200 259 314 373
#     4  10  22  42  68  94 126 167 216 265 340 408
#     4  10  22  39  59  83 121 162 199 260 314 378
#     4  10  21  35  55  85 119 157 203 248 296 367
#
# _framework density 23.672374000000001
#
# number of rings (size 3 to 8) (size 9 to 14) (size 15 to 20)
#    0.000    1.931    2.069    0.621    2.897    3.862 
#    0.000    1.379    0.000    0.000    0.000    0.000 
#    0.000    0.000    0.000    0.000    0.000    0.000 
#
# Total GULP energy -161454.374599 kJ/mol
# GULP energy per Si atom -5567.392228 kJ/mol
# Density = 2.361849 g / cm^3
# Si number density = 23.672374 Si / 1000 Ang^3
#
#
#
# Elastic Constant Matrix: (Units=GPa)
#
#
# Indices 1 2 3 4 5 6 
#
# 1 72.9244 -5.5640 -1.1495 0.0001 0.0000 0.0000
# 2 -5.5640 75.3088 46.1118 0.0003 0.0000 0.0000
# 3 -1.1495 46.1118 99.1388 0.0005 -0.0001 -0.0001
# 4 0.0001 0.0003 0.0005 29.9085 0.0000 0.0000
# 5 0.0000 0.0000 -0.0001 0.0000 21.8506 0.0000
# 6 0.0000 0.0000 -0.0001 0.0000 0.0000 6.7092
#
#
#
# Elastic Compliance Matrix: (Units=1/GPa)
#
#
# Indices 1 2 3 4 5 6 
#
# 1 0.013804 0.001289 -0.000439 0.000000 0.000000 0.000000
# 2 0.001289 0.018687 -0.008677 0.000000 0.000000 0.000000
# 3 -0.000439 -0.008677 0.014118 0.000000 0.000000 0.000000
# 4 0.000000 0.000000 0.000000 0.033435 0.000000 0.000000
# 5 0.000000 0.000000 0.000000 0.000000 0.045765 0.000000
# 6 0.000000 0.000000 0.000000 0.000000 0.000000 0.149050
#
#
# Mechanical properties :
#
#
# Convention : Reuss Voigt Hill
#
# Bulk Modulus (GPa) = 32.30591 36.24096 34.27344
# Shear Modulus (GPa) = 16.62060 25.55856 21.08958
#
# Velocity S-wave (km/s) = 2.65261 3.28941 2.98802
# Velocity P-wave (km/s) = 4.80193 5.45615 5.13946
#
# Compressibility (1/GPa) = 0.03095409
#
# Stress axis : x y z
#
# Youngs Moduli (GPa) = 72.44141 53.51414 70.83405
#
# Poissons Ratio (x) = -0.06898 0.03113
# Poissons Ratio (y) = -0.09338 0.61460
# Poissons Ratio (z) = 0.03184 0.46432
#
# Static dielectric constant tensor:
#      x y z
#    x 1.958360 0.000000 0.000000 
#    y 0.000000 1.925900 0.000000 
#    z 0.000000 0.000000 2.017770 
# 
# From -- ./inp_files/11321.got.cif
#   From: 2010.05.17/outbox.cif.g08.bks.cpg/sg44_6_cif.got.tgz:11321.got - 2010.06.03 19:37:08.
