data_PCOD9375368
_publ_section_title
;
Structure prediction by ZEFSAII (Michael W. Deem and Ramdas Pophale) SiO2 
 PCOD9375368
Probable space group: I M M 2
;
_chemical_formula_sum "Si O2"
_cell_formula_units_Z 64
_cell_length_a 17.965853
_cell_length_b 8.961792
_cell_length_c 21.192121
_cell_angle_alpha 90.000000
_cell_angle_beta 90.000000
_cell_angle_gamma 90.000000
_cell_volume 3412.063671
_symmetry_space_group_name_H-M "I M M 2"
_symmetry_group_IT_number 44
_symmetry_cell_setting 'orthorhombic'
loop_
_space_group_symop_operation_xyz
x,y,z
-x,-y,z
-x,y,z
x,-y,z
1/2+x,1/2+y,1/2+z
1/2-x,1/2-y,1/2+z
1/2-x,1/2+y,1/2+z
1/2+x,1/2-y,1/2+z
loop_
_atom_site_type_symbol
_atom_site_label
_atom_site_fract_x
_atom_site_fract_y
_atom_site_fract_z
Si Si1 0.583720 0.177145 0.233360
Si Si2 0.081069 0.181519 0.208698
Si Si3 0.704558 0.681296 0.609235
Si Si4 0.869514 0.820261 0.345955
Si Si5 0.868234 0.822187 0.605928
Si Si6 0.804894 0.678557 0.842068
Si Si7 0.876179 0.672732 0.475767
Si Si8 0.694915 0.671846 0.470345
O O1 0.500000 0.193109 0.258927
O O2 0.590010 0.261736 0.167320
O O3 0.644537 0.231528 0.284042
O O4 0.596819 0.000000 0.221721
O O5 0.149208 0.227840 0.164716
O O6 0.090868 0.225791 0.281461
O O7 0.000000 0.229330 0.185146
O O8 0.082805 0.000000 0.208089
O O9 0.784037 0.760059 0.613923
O O10 0.670357 0.717250 0.540431
O O11 0.868699 0.000000 0.603129
O O12 0.782154 0.779831 0.336554
O O13 0.899517 0.747313 0.409984
O O14 0.873936 0.000000 0.352408
O O15 0.715673 0.500000 0.611155
O O16 0.898389 0.756448 0.539797
O O17 0.808165 0.500000 0.841263
O O18 0.830732 0.734963 0.910424
O O19 0.897890 0.500000 0.478716
O O20 0.785355 0.680020 0.473873
O O21 0.674679 0.500000 0.460005
#
# Coordination Sequence:
#
# PCOD9375368 Si02
#       8
#     8   8   8   8   8   8   8   8
#     4  10  21  37  54  72  99 136 173 206 246 300
#     4   9  17  30  50  75 103 137 175 212 249 293
#     4   9  17  32  53  76 103 135 172 209 248 299
#     4   9  16  28  49  76 102 128 164 210 254 295
#     4  11  21  33  53  79 103 128 164 210 257 301
#     4   9  17  30  50  73  96 126 164 204 246 296
#     4   9  17  31  51  74 100 129 164 206 252 302
#     4   8  15  27  46  73 100 125 158 205 252 291
#
# _framework density 18.756976000000002
#
# number of rings (size 3 to 8) (size 9 to 14) (size 15 to 20)
#    0.000    2.750    0.000    3.000    0.000    5.750 
#    0.000    4.375    0.000    4.500    0.000    0.000 
#    0.000    0.000    0.000    0.000    0.000    0.000 
#
# Total GULP energy -178429.250878 kJ/mol
# GULP energy per Si atom -5575.914090 kJ/mol
# Density = 1.871428 g / cm^3
# Si number density = 18.756976 Si / 1000 Ang^3
#
#
#
# Elastic Constant Matrix: (Units=GPa)
#
#
# Indices 1 2 3 4 5 6 
#
# 1 41.2634 16.5869 24.7999 0.0000 0.0000 0.0000
# 2 16.5869 36.4039 23.0778 0.0000 0.0000 0.0000
# 3 24.7999 23.0778 98.2399 0.0000 0.0000 0.0000
# 4 0.0000 0.0000 0.0000 32.3407 0.0000 0.0000
# 5 0.0000 0.0000 0.0000 0.0000 -12.7139 0.0000
# 6 0.0000 0.0000 0.0000 0.0000 0.0000 2.9084
#
#
#
# Elastic Compliance Matrix: (Units=1/GPa)
#
#
# Indices 1 2 3 4 5 6 
#
# 1 0.031984 -0.011109 -0.005465 0.000000 0.000000 0.000000
# 2 -0.011109 0.036135 -0.005684 0.000000 0.000000 0.000000
# 3 -0.005465 -0.005684 0.012894 0.000000 0.000000 0.000000
# 4 0.000000 0.000000 0.000000 0.030921 0.000000 0.000000
# 5 0.000000 0.000000 0.000000 0.000000 -0.078654 0.000000
# 6 0.000000 0.000000 0.000000 0.000000 0.000000 0.343832
#
#
# Mechanical properties :
#
#
# Convention : Reuss Voigt Hill
#
# Bulk Modulus (GPa) = 27.39910 33.87071 30.63490
# Shear Modulus (GPa) = 11.52625 11.93654 11.73139
#
# Velocity S-wave (km/s) = 2.48161 2.52539 2.50360
# Velocity P-wave (km/s) = 4.78020 5.15755 4.97246
#
# Compressibility (1/GPa) = 0.03649756
#
# Stress axis : x y z
#
# Youngs Moduli (GPa) = 31.26522 27.67428 77.55594
#
# Poissons Ratio (x) = 0.30743 0.42381
# Poissons Ratio (y) = 0.34733 0.44084
# Poissons Ratio (z) = 0.17085 0.15730
#
# Static dielectric constant tensor:
#      x y z
#    x 1.648690 0.000000 0.000000 
#    y 0.000000 1.632620 0.000000 
#    z 0.000000 0.000000 1.656230 
# 
# From -- ./inp_files/23330.got.cif
#   From: 2010.05.17/outbox.cif.g08.bks.cpg/sg44_12_cif.got.tgz:23330.got - 2010.06.03 19:37:08.
