data_PCOD9375936
_publ_section_title
;
Structure prediction by ZEFSAII (Michael W. Deem and Ramdas Pophale) SiO2 
 PCOD9375936
Probable space group: I M M 2
;
_chemical_formula_sum "Si O2"
_cell_formula_units_Z 48
_cell_length_a 8.257242
_cell_length_b 7.342217
_cell_length_c 35.218890
_cell_angle_alpha 90.000000
_cell_angle_beta 90.000000
_cell_angle_gamma 90.000000
_cell_volume 2135.196717
_symmetry_space_group_name_H-M "I M M 2"
_symmetry_group_IT_number 44
_symmetry_cell_setting 'orthorhombic'
loop_
_space_group_symop_operation_xyz
x,y,z
-x,-y,z
-x,y,z
x,-y,z
1/2+x,1/2+y,1/2+z
1/2-x,1/2-y,1/2+z
1/2-x,1/2+y,1/2+z
1/2+x,1/2-y,1/2+z
loop_
_atom_site_type_symbol
_atom_site_label
_atom_site_fract_x
_atom_site_fract_y
_atom_site_fract_z
Si Si1 0.177696 0.222165 0.308840
Si Si2 0.306706 0.211197 0.547101
Si Si3 0.690208 0.283904 0.967116
Si Si4 0.500000 0.221841 0.264574
Si Si5 0.000000 0.276774 0.676487
Si Si6 0.183532 0.278585 0.887263
Si Si7 0.816499 0.209411 0.133090
O O1 0.334669 0.281702 0.285202
O O2 0.202721 0.278050 0.352714
O O3 0.000000 0.279444 0.294995
O O4 0.179573 0.000000 0.308126
O O5 0.500000 0.219711 0.542116
O O6 0.232687 0.290635 0.508627
O O7 0.271979 0.290730 0.588391
O O8 0.255900 0.000000 0.549782
O O9 0.500000 0.267868 0.960718
O O10 0.732696 0.500000 0.969265
O O11 0.776155 0.211873 0.929445
O O12 0.500000 0.272879 0.220571
O O13 0.500000 0.000000 0.266480
O O14 0.165157 0.212398 0.656148
O O15 0.000000 0.500000 0.673911
O O16 0.194094 0.500000 0.888793
O O17 0.000000 0.231592 0.877131
O O18 0.000000 0.288404 0.136541
O O19 0.830180 0.000000 0.145474
#
# Coordination Sequence:
#
# PCOD9375936 Si02
#       7
#     8   8   8   4   4   8   8
#     4   9  15  22  33  49  71 101 136 173 212 253
#     4   9  17  29  44  63  87 115 148 186 227 264
#     4   9  16  23  33  53  79 108 143 180 216 257
#     4   9  16  26  36  53  75  99 137 181 217 255
#     4   9  18  30  45  61  81 109 147 189 227 269
#     4   9  14  21  32  46  71 106 141 174 209 252
#     4   9  18  32  48  65  86 116 151 184 223 271
#
# _framework density 22.480364999999999
#
# number of rings (size 3 to 8) (size 9 to 14) (size 15 to 20)
#    0.000    3.000    0.833    1.000    1.167    4.667 
#    0.000    3.333    0.000    0.000    0.000    0.000 
#    0.000    0.000    0.000    3.000    0.000   13.500 
#
# Total GULP energy -133915.708872 kJ/mol
# GULP energy per Si atom -5579.821203 kJ/mol
# Density = 2.242920 g / cm^3
# Si number density = 22.480365 Si / 1000 Ang^3
#
#
#
# Elastic Constant Matrix: (Units=GPa)
#
#
# Indices 1 2 3 4 5 6 
#
# 1 134.3357 17.1789 115.6347 0.0000 0.0000 0.0000
# 2 17.1789 78.0512 -3.0667 0.0000 0.0000 0.0000
# 3 115.6347 -3.0667 138.5565 0.0000 0.0000 0.0000
# 4 0.0000 0.0000 0.0000 -1.9849 0.0000 0.0000
# 5 0.0000 0.0000 0.0000 0.0000 28.4375 0.0000
# 6 0.0000 0.0000 0.0000 0.0000 0.0000 -11.6750
#
#
#
# Elastic Compliance Matrix: (Units=1/GPa)
#
#
# Indices 1 2 3 4 5 6 
#
# 1 0.030456 -0.007709 -0.025588 0.000000 0.000000 0.000000
# 2 -0.007709 0.014774 0.006760 0.000000 0.000000 0.000000
# 3 -0.025588 0.006760 0.028722 0.000000 0.000000 0.000000
# 4 0.000000 0.000000 0.000000 -0.503814 0.000000 0.000000
# 5 0.000000 0.000000 0.000000 0.000000 0.035165 0.000000
# 6 0.000000 0.000000 0.000000 0.000000 0.000000 -0.085653
#
#
# Mechanical properties :
#
#
# Convention : Reuss Voigt Hill
#
# Bulk Modulus (GPa) = 47.89402 67.82637 57.86020
# Shear Modulus (GPa) = -11.89573 17.70195 2.90311
#
# Velocity S-wave (km/s) = -2.30285 2.80918 1.13763
# Velocity P-wave (km/s) = 3.77893 6.38427 5.24591
#
# Compressibility (1/GPa) = 0.02087943
#
# Stress axis : x y z
#
# Youngs Moduli (GPa) = 32.83476 67.68480 34.81696
#
# Poissons Ratio (x) = 0.52175 0.89089
# Poissons Ratio (y) = 0.25311 -0.23537
# Poissons Ratio (z) = 0.84017 -0.45757
#
# Static dielectric constant tensor:
#      x y z
#    x 1.804000 0.000000 0.000000 
#    y 0.000000 1.710850 0.000000 
#    z 0.000000 0.000000 1.813890 
# 
# From -- ./inp_files/26962.got.cif
#   From: 2010.05.17/outbox.cif.g08.bks.cpg/sg44_14_cif.got.tgz:26962.got - 2010.06.03 19:37:08.
