data_PCOD9375934
_publ_section_title
;
Structure prediction by ZEFSAII (Michael W. Deem and Ramdas Pophale) SiO2 
 PCOD9375934
Probable space group: I M M 2
;
_chemical_formula_sum "Si O2"
_cell_formula_units_Z 48
_cell_length_a 7.325395
_cell_length_b 12.316782
_cell_length_c 26.508531
_cell_angle_alpha 90.000000
_cell_angle_beta 90.000000
_cell_angle_gamma 90.000000
_cell_volume 2391.739984
_symmetry_space_group_name_H-M "I M M 2"
_symmetry_group_IT_number 44
_symmetry_cell_setting 'orthorhombic'
loop_
_space_group_symop_operation_xyz
x,y,z
-x,-y,z
-x,y,z
x,-y,z
1/2+x,1/2+y,1/2+z
1/2-x,1/2-y,1/2+z
1/2-x,1/2+y,1/2+z
1/2+x,1/2-y,1/2+z
loop_
_atom_site_type_symbol
_atom_site_label
_atom_site_fract_x
_atom_site_fract_y
_atom_site_fract_z
Si Si1 0.721398 0.000000 0.823261
Si Si2 0.277802 0.000000 0.939198
Si Si3 0.777303 0.874829 0.360126
Si Si4 0.223129 0.740015 0.459622
Si Si5 0.717876 0.377024 0.054887
Si Si6 0.717377 0.874941 0.669102
Si Si7 0.222204 0.723370 0.270246
O O1 0.776993 0.109882 0.796082
O O2 0.500000 0.000000 0.822439
O O3 0.777967 0.000000 0.880884
O O4 0.218548 0.114809 0.961521
O O5 0.500000 0.000000 0.940549
O O6 0.721456 0.801294 0.408052
O O7 0.718212 0.819603 0.307439
O O8 0.000000 0.874489 0.360457
O O9 0.719968 0.000000 0.365146
O O10 0.285213 0.804152 0.509095
O O11 0.000000 0.740231 0.458832
O O12 0.500000 0.382714 0.048870
O O13 0.789586 0.500000 0.051572
O O14 0.750684 0.338178 0.111879
O O15 0.500000 0.883062 0.675981
O O16 0.782846 0.792721 0.712423
O O17 0.787556 0.000000 0.674531
O O18 0.000000 0.729310 0.270248
#
# Coordination Sequence:
#
# PCOD9375934 Si02
#       7
#     4   4   8   8   8   8   8
#     4   9  12  18  32  54  79  99 119 156 207 240
#     4   9  14  20  34  56  79 103 131 164 201 240
#     4   9  15  21  32  53  81 109 130 154 199 253
#     4   9  15  23  36  55  80 106 132 164 202 242
#     4   9  17  28  41  59  84 110 134 165 205 242
#     4   9  16  26  42  62  81 105 139 173 200 230
#     4   9  14  21  35  55  79 101 125 162 204 239
#
# _framework density 20.06907
#
# number of rings (size 3 to 8) (size 9 to 14) (size 15 to 20)
#    0.000    3.000    2.500    0.500    0.000    2.000 
#    0.000    0.000    1.833    0.000    0.000    1.167 
#    0.000    2.667    0.000    0.000    0.000    0.000 
#
# Total GULP energy -133858.564742 kJ/mol
# GULP energy per Si atom -5577.440198 kJ/mol
# Density = 2.002339 g / cm^3
# Si number density = 20.069070 Si / 1000 Ang^3
#
#
#
# Elastic Constant Matrix: (Units=GPa)
#
#
# Indices 1 2 3 4 5 6 
#
# 1 77.8580 3.7690 1.9737 0.0000 0.0000 0.0000
# 2 3.7690 147.7429 101.9978 0.0000 0.0000 0.0000
# 3 1.9737 101.9978 192.4611 0.0000 0.0000 0.0000
# 4 0.0000 0.0000 0.0000 26.8992 0.0000 0.0000
# 5 0.0000 0.0000 0.0000 0.0000 8.8453 0.0000
# 6 0.0000 0.0000 0.0000 0.0000 0.0000 36.0270
#
#
#
# Elastic Compliance Matrix: (Units=1/GPa)
#
#
# Indices 1 2 3 4 5 6 
#
# 1 0.012860 -0.000374 0.000066 0.000000 0.000000 0.000000
# 2 -0.000374 0.010685 -0.005659 0.000000 0.000000 0.000000
# 3 0.000066 -0.005659 0.008194 0.000000 0.000000 0.000000
# 4 0.000000 0.000000 0.000000 0.037176 0.000000 0.000000
# 5 0.000000 0.000000 0.000000 0.000000 0.113055 0.000000
# 6 0.000000 0.000000 0.000000 0.000000 0.000000 0.027757
#
#
# Mechanical properties :
#
#
# Convention : Reuss Voigt Hill
#
# Bulk Modulus (GPa) = 50.48834 70.39368 60.44101
# Shear Modulus (GPa) = 21.90473 35.04240 28.47357
#
# Velocity S-wave (km/s) = 3.30732 4.18316 3.77075
# Velocity P-wave (km/s) = 6.30844 7.64746 7.00999
#
# Compressibility (1/GPa) = 0.01980655
#
# Stress axis : x y z
#
# Youngs Moduli (GPa) = 77.75861 93.59229 122.03940
#
# Poissons Ratio (x) = 0.03498 -0.00808
# Poissons Ratio (y) = 0.02906 0.69058
# Poissons Ratio (z) = -0.00515 0.52961
#
# Static dielectric constant tensor:
#      x y z
#    x 1.817810 0.000000 0.000000 
#    y 0.000000 1.683570 0.000000 
#    z 0.000000 0.000000 1.702380 
# 
# From -- ./inp_files/23718.got.cif
#   From: 2010.05.17/outbox.cif.g08.bks.cpg/sg44_12_cif.got.tgz:23718.got - 2010.06.03 19:37:08.
