data_PCOD9375407
_publ_section_title
;
Structure prediction by ZEFSAII (Michael W. Deem and Ramdas Pophale) SiO2 
 PCOD9375407
Probable space group: I M M 2
;
_chemical_formula_sum "Si O2"
_cell_formula_units_Z 48
_cell_length_a 7.928081
_cell_length_b 9.251071
_cell_length_c 34.741301
_cell_angle_alpha 90.000000
_cell_angle_beta 90.000000
_cell_angle_gamma 90.000000
_cell_volume 2548.039585
_symmetry_space_group_name_H-M "I M M 2"
_symmetry_group_IT_number 44
_symmetry_cell_setting 'orthorhombic'
loop_
_space_group_symop_operation_xyz
x,y,z
-x,-y,z
-x,y,z
x,-y,z
1/2+x,1/2+y,1/2+z
1/2-x,1/2-y,1/2+z
1/2-x,1/2+y,1/2+z
1/2+x,1/2-y,1/2+z
loop_
_atom_site_type_symbol
_atom_site_label
_atom_site_fract_x
_atom_site_fract_y
_atom_site_fract_z
Si Si1 0.000000 0.173357 0.574630
Si Si2 0.203434 0.834138 0.937880
Si Si3 0.699880 0.664980 0.861303
Si Si4 0.000000 0.325783 0.656650
Si Si5 0.188288 0.828010 0.210834
Si Si6 0.697406 0.173037 0.517010
Si Si7 0.801822 0.165724 0.785813
O O1 0.000000 0.252365 0.615286
O O2 0.167921 0.209877 0.550020
O O3 0.000000 0.000000 0.580260
O O4 0.267597 0.745493 0.901364
O O5 0.000000 0.835679 0.935494
O O6 0.263165 0.000000 0.937147
O O7 0.245568 0.755896 0.977925
O O8 0.500000 0.660944 0.854545
O O9 0.763403 0.500000 0.862917
O O10 0.778434 0.751774 0.825899
O O11 0.165407 0.284686 0.681289
O O12 0.000000 0.500000 0.652464
O O13 0.209748 0.746238 0.251079
O O14 0.000000 0.802438 0.195387
O O15 0.207028 0.000000 0.217999
O O16 0.500000 0.206198 0.526241
O O17 0.707737 0.000000 0.510365
O O18 0.000000 0.165864 0.776273
O O19 0.744466 0.000000 0.789623
#
# Coordination Sequence:
#
# PCOD9375407 Si02
#       7
#     4   8   8   4   8   8   8
#     4  10  22  38  60  88 118 152 198 246 290 356
#     4  10  21  37  57  83 114 148 191 243 297 349
#     4  11  24  38  54  80 114 154 199 243 289 347
#     4  10  22  40  60  88 122 154 192 244 300 354
#     4  10  21  39  63  88 116 155 199 240 290 354
#     4   9  19  37  59  83 115 155 195 240 294 350
#     4  11  23  38  58  85 117 152 194 244 297 350
#
# _framework density 18.838011999999999
#
# number of rings (size 3 to 8) (size 9 to 14) (size 15 to 20)
#    0.000    1.833    0.833    2.500    1.167    9.667 
#    0.000    0.000    0.000    0.000    0.000    0.000 
#    0.000    0.000    0.000    0.000    0.000    0.000 
#
# Total GULP energy -134076.065155 kJ/mol
# GULP energy per Si atom -5586.502715 kJ/mol
# Density = 1.879514 g / cm^3
# Si number density = 18.838012 Si / 1000 Ang^3
#
#
#
# Elastic Constant Matrix: (Units=GPa)
#
#
# Indices 1 2 3 4 5 6 
#
# 1 95.6536 47.5853 64.7824 0.0000 0.0000 0.0000
# 2 47.5853 84.5392 68.4579 0.0000 0.0000 0.0000
# 3 64.7824 68.4579 144.2416 0.0000 0.0000 0.0000
# 4 0.0000 0.0000 0.0000 41.5951 0.0000 0.0000
# 5 0.0000 0.0000 0.0000 0.0000 9.2791 0.0000
# 6 0.0000 0.0000 0.0000 0.0000 0.0000 5.2186
#
#
#
# Elastic Compliance Matrix: (Units=1/GPa)
#
#
# Indices 1 2 3 4 5 6 
#
# 1 0.016364 -0.005294 -0.004837 0.000000 0.000000 0.000000
# 2 -0.005294 0.020926 -0.007554 0.000000 0.000000 0.000000
# 3 -0.004837 -0.007554 0.012690 0.000000 0.000000 0.000000
# 4 0.000000 0.000000 0.000000 0.024041 0.000000 0.000000
# 5 0.000000 0.000000 0.000000 0.000000 0.107769 0.000000
# 6 0.000000 0.000000 0.000000 0.000000 0.000000 0.191621
#
#
# Mechanical properties :
#
#
# Convention : Reuss Voigt Hill
#
# Bulk Modulus (GPa) = 68.44445 76.23175 72.33810
# Shear Modulus (GPa) = 12.08749 20.79249 16.43999
#
# Velocity S-wave (km/s) = 2.53584 3.32588 2.95736
# Velocity P-wave (km/s) = 6.70716 7.43663 7.08129
#
# Compressibility (1/GPa) = 0.01461039
#
# Stress axis : x y z
#
# Youngs Moduli (GPa) = 61.11039 47.78842 78.80136
#
# Poissons Ratio (x) = 0.25300 0.38114
# Poissons Ratio (y) = 0.32353 0.59524
# Poissons Ratio (z) = 0.29558 0.36098
#
# Static dielectric constant tensor:
#      x y z
#    x 1.682830 0.000000 0.000000 
#    y 0.000000 1.645540 0.000000 
#    z 0.000000 0.000000 1.591490 
# 
# From -- ./inp_files/26879.got.cif
#   From: 2010.05.17/outbox.cif.g08.bks.cpg/sg44_14_cif.got.tgz:26879.got - 2010.06.03 19:37:08.
