data_PCOD9375308
_publ_section_title
;
Structure prediction by ZEFSAII (Michael W. Deem and Ramdas Pophale) SiO2 
 PCOD9375308
Probable space group: I M M 2
;
_chemical_formula_sum "Si O2"
_cell_formula_units_Z 64
_cell_length_a 21.181743
_cell_length_b 8.829418
_cell_length_c 20.062277
_cell_angle_alpha 90.000000
_cell_angle_beta 90.000000
_cell_angle_gamma 90.000000
_cell_volume 3752.096456
_symmetry_space_group_name_H-M "I M M 2"
_symmetry_group_IT_number 44
_symmetry_cell_setting 'orthorhombic'
loop_
_space_group_symop_operation_xyz
x,y,z
-x,-y,z
-x,y,z
x,-y,z
1/2+x,1/2+y,1/2+z
1/2-x,1/2-y,1/2+z
1/2-x,1/2+y,1/2+z
1/2+x,1/2-y,1/2+z
loop_
_atom_site_type_symbol
_atom_site_label
_atom_site_fract_x
_atom_site_fract_y
_atom_site_fract_z
Si Si1 0.764285 0.320570 0.826570
Si Si2 0.071000 0.182027 0.610073
Si Si3 0.735946 0.679663 0.466360
Si Si4 0.613312 0.320888 0.819707
Si Si5 0.069555 0.682128 0.183802
Si Si6 0.191634 0.681440 0.680804
Si Si7 0.190801 0.317781 0.099426
Si Si8 0.375777 0.682122 0.967041
O O1 0.772825 0.500000 0.838838
O O2 0.783825 0.230578 0.892327
O O3 0.689108 0.297196 0.815558
O O4 0.799146 0.278237 0.758477
O O5 0.125474 0.262142 0.651849
O O6 0.082971 0.215020 0.531794
O O7 0.000000 0.226441 0.628818
O O8 0.077069 0.000000 0.617733
O O9 0.734756 0.500000 0.473007
O O10 0.695429 0.755686 0.524642
O O11 0.807872 0.739368 0.474753
O O12 0.600879 0.500000 0.812021
O O13 0.581263 0.234355 0.759423
O O14 0.595553 0.275104 0.895195
O O15 0.070401 0.500000 0.182131
O O16 0.127651 0.734086 0.137859
O O17 0.000000 0.734187 0.161834
O O18 0.196922 0.500000 0.674822
O O19 0.248317 0.756314 0.639052
O O20 0.193023 0.500000 0.098700
O O21 0.364924 0.500000 0.964282
#
# Coordination Sequence:
#
# PCOD9375308 Si02
#       8
#     8   8   8   8   8   8   8   8
#     4   9  19  35  54  78 110 140 173 219 271 323
#     4  10  21  36  54  77 109 150 188 221 266 324
#     4  11  21  32  53  83 110 135 175 225 271 319
#     4   9  17  31  51  76 106 140 179 218 257 310
#     4  10  22  37  52  75 107 143 182 222 266 318
#     4  11  21  35  57  83 108 138 182 230 269 315
#     4  11  21  35  56  78 107 145 180 220 272 323
#     4   9  18  33  51  74 107 146 183 216 259 314
#
# _framework density 17.057130999999998
#
# number of rings (size 3 to 8) (size 9 to 14) (size 15 to 20)
#    0.000    2.000    2.500    2.625    0.000    4.500 
#    0.000    1.250    0.000    0.750    0.000    1.750 
#    0.000    0.000    0.000    0.000    0.000    0.000 
#
# Total GULP energy -178600.545528 kJ/mol
# GULP energy per Si atom -5581.267048 kJ/mol
# Density = 1.701831 g / cm^3
# Si number density = 17.057131 Si / 1000 Ang^3
#
#
#
# Elastic Constant Matrix: (Units=GPa)
#
#
# Indices 1 2 3 4 5 6 
#
# 1 97.7198 34.9990 58.1027 0.0000 0.0000 0.0000
# 2 34.9990 37.8990 40.2892 0.0000 0.0000 0.0000
# 3 58.1027 40.2892 109.5911 0.0000 0.0000 0.0000
# 4 0.0000 0.0000 0.0000 30.1706 0.0000 0.0000
# 5 0.0000 0.0000 0.0000 0.0000 17.1590 0.0000
# 6 0.0000 0.0000 0.0000 0.0000 0.0000 1.5491
#
#
#
# Elastic Compliance Matrix: (Units=1/GPa)
#
#
# Indices 1 2 3 4 5 6 
#
# 1 0.016990 -0.010037 -0.005318 0.000000 0.000000 0.000000
# 2 -0.010037 0.049242 -0.012782 0.000000 0.000000 0.000000
# 3 -0.005318 -0.012782 0.016643 0.000000 0.000000 0.000000
# 4 0.000000 0.000000 0.000000 0.033145 0.000000 0.000000
# 5 0.000000 0.000000 0.000000 0.000000 0.058278 0.000000
# 6 0.000000 0.000000 0.000000 0.000000 0.000000 0.645534
#
#
# Mechanical properties :
#
#
# Convention : Reuss Voigt Hill
#
# Bulk Modulus (GPa) = 37.58990 56.88795 47.23892
# Shear Modulus (GPa) = 5.64989 17.23037 11.44013
#
# Velocity S-wave (km/s) = 1.82196 3.18174 2.59259
# Velocity P-wave (km/s) = 5.14893 6.84995 6.05943
#
# Compressibility (1/GPa) = 0.02660289
#
# Stress axis : x y z
#
# Youngs Moduli (GPa) = 58.85832 20.30767 60.08426
#
# Poissons Ratio (x) = 0.20382 0.31952
# Poissons Ratio (y) = 0.59074 0.76799
# Poissons Ratio (z) = 0.31300 0.25957
#
# Static dielectric constant tensor:
#      x y z
#    x 1.567810 0.000000 0.000000 
#    y 0.000000 1.572150 0.000000 
#    z 0.000000 0.000000 1.582200 
# 
# From -- ./inp_files/22304.got.cif
#   From: 2010.05.17/outbox.cif.g08.bks.cpg/sg44_12_cif.got.tgz:22304.got - 2010.06.03 19:37:08.
