data_PCOD9375595
_publ_section_title
;
Structure prediction by ZEFSAII (Michael W. Deem and Ramdas Pophale) SiO2 
 PCOD9375595
Probable space group: I M M 2
;
_chemical_formula_sum "Si O2"
_cell_formula_units_Z 32
_cell_length_a 13.621887
_cell_length_b 21.323902
_cell_length_c 4.842705
_cell_angle_alpha 90.000000
_cell_angle_beta 90.000000
_cell_angle_gamma 90.000000
_cell_volume 1406.669158
_symmetry_space_group_name_H-M "I M M 2"
_symmetry_group_IT_number 44
_symmetry_cell_setting 'orthorhombic'
loop_
_space_group_symop_operation_xyz
x,y,z
-x,-y,z
-x,y,z
x,-y,z
1/2+x,1/2+y,1/2+z
1/2-x,1/2-y,1/2+z
1/2-x,1/2+y,1/2+z
1/2+x,1/2-y,1/2+z
loop_
_atom_site_type_symbol
_atom_site_label
_atom_site_fract_x
_atom_site_fract_y
_atom_site_fract_z
Si Si1 0.278960 0.928787 0.381910
Si Si2 0.384499 0.875415 0.851022
Si Si3 0.388437 0.248226 0.515675
Si Si4 0.613530 0.334996 0.034780
O O1 0.360047 0.927613 0.623470
O O2 0.183810 0.894686 0.512936
O O3 0.258241 0.000000 0.295553
O O4 0.321834 0.889231 0.124299
O O5 0.500000 0.872202 0.918499
O O6 0.354683 0.812447 0.684120
O O7 0.500000 0.230511 0.438170
O O8 0.348652 0.279249 0.237035
O O9 0.388490 0.304412 0.733537
O O10 0.500000 0.349817 0.114253
#
# Coordination Sequence:
#
# PCOD9375595 Si02
#       4
#     8   8   8   8
#     4  12  26  41  62  95 132 179 228 259 315 401
#     4  11  24  43  66  93 129 170 219 280 329 380
#     4   9  19  38  65  94 121 157 207 264 334 390
#     4  10  21  40  65  94 129 162 204 269 327 383
#
# _framework density 22.748774000000001
#
# number of rings (size 3 to 8) (size 9 to 14) (size 15 to 20)
#    0.000    1.500    0.000    4.500    0.000   11.500 
#    0.000    0.000    0.000    7.500    0.000    1.750 
#    0.000    0.000    0.000    0.000    0.000    0.000 
#
# Total GULP energy -89383.837859 kJ/mol
# GULP energy per Si atom -5586.489866 kJ/mol
# Density = 2.269700 g / cm^3
# Si number density = 22.748774 Si / 1000 Ang^3
#
#
#
# Elastic Constant Matrix: (Units=GPa)
#
#
# Indices 1 2 3 4 5 6 
#
# 1 120.6115 66.4361 23.6388 0.0000 0.0000 0.0000
# 2 66.4361 108.3431 24.3321 0.0000 0.0000 0.0000
# 3 23.6388 24.3321 129.4540 0.0001 -0.0002 0.0000
# 4 0.0000 0.0000 0.0001 20.8652 0.0001 0.0000
# 5 0.0000 0.0000 -0.0002 0.0001 30.1742 0.0000
# 6 0.0000 0.0000 0.0000 0.0000 0.0000 10.3700
#
#
#
# Elastic Compliance Matrix: (Units=1/GPa)
#
#
# Indices 1 2 3 4 5 6 
#
# 1 0.012617 -0.007537 -0.000887 0.000000 0.000000 0.000000
# 2 -0.007537 0.014140 -0.001281 0.000000 0.000000 0.000000
# 3 -0.000887 -0.001281 0.008128 0.000000 0.000000 0.000000
# 4 0.000000 0.000000 0.000000 0.047927 0.000000 0.000000
# 5 0.000000 0.000000 0.000000 0.000000 0.033141 0.000000
# 6 0.000000 0.000000 0.000000 0.000000 0.000000 0.096432
#
#
# Mechanical properties :
#
#
# Convention : Reuss Voigt Hill
#
# Bulk Modulus (GPa) = 64.63170 65.24695 64.93933
# Shear Modulus (GPa) = 21.10127 28.54866 24.82496
#
# Velocity S-wave (km/s) = 3.04892 3.54638 3.30702
# Velocity P-wave (km/s) = 6.39275 6.74632 6.57192
#
# Compressibility (1/GPa) = 0.01547228
#
# Stress axis : x y z
#
# Youngs Moduli (GPa) = 79.25973 70.72324 123.03773
#
# Poissons Ratio (x) = 0.53307 0.10915
# Poissons Ratio (y) = 0.59741 0.15765
# Poissons Ratio (z) = 0.07032 0.09062
#
# Static dielectric constant tensor:
#      x y z
#    x 1.914970 0.000000 0.000000 
#    y 0.000000 1.879390 0.000000 
#    z 0.000000 0.000000 1.823730 
# 
# From -- ./inp_files/1357.got.cif
#   From: 2010.05.17/outbox.cif.g08.bks.cpg/sg44_1_cif.got.tgz:1357.got - 2010.06.03 19:37:08.
