data_PCOD9375880
_publ_section_title
;
Structure prediction by ZEFSAII (Michael W. Deem and Ramdas Pophale) SiO2 
 PCOD9375880
Probable space group: I M M 2
;
_chemical_formula_sum "Si O2"
_cell_formula_units_Z 58
_cell_length_a 25.798528
_cell_length_b 18.805544
_cell_length_c 5.041586
_cell_angle_alpha 90.000000
_cell_angle_beta 90.000000
_cell_angle_gamma 90.000000
_cell_volume 2445.952438
_symmetry_space_group_name_H-M "I M M 2"
_symmetry_group_IT_number 44
_symmetry_cell_setting 'orthorhombic'
loop_
_space_group_symop_operation_xyz
x,y,z
-x,-y,z
-x,y,z
x,-y,z
1/2+x,1/2+y,1/2+z
1/2-x,1/2-y,1/2+z
1/2-x,1/2+y,1/2+z
1/2+x,1/2-y,1/2+z
loop_
_atom_site_type_symbol
_atom_site_label
_atom_site_fract_x
_atom_site_fract_y
_atom_site_fract_z
Si Si1 0.307620 0.217737 0.569070
Si Si2 0.416347 0.794226 0.483061
Si Si3 0.620377 0.582946 0.074174
Si Si4 0.416471 0.882411 0.009999
Si Si5 0.216090 0.849738 0.327144
Si Si6 0.940523 0.133671 0.071765
Si Si7 0.000000 0.500000 0.370832
Si Si8 0.199169 0.419493 0.457253
O O1 0.356713 0.205984 0.379564
O O2 0.252731 0.213956 0.429191
O O3 0.320222 0.298177 0.656028
O O4 0.301936 0.146995 0.752656
O O5 0.440007 0.850168 0.279675
O O6 0.439774 0.716489 0.487966
O O7 0.412562 0.821542 0.784506
O O8 0.621085 0.500000 0.007112
O O9 0.678979 0.612026 0.035206
O O10 0.582856 0.622091 0.864143
O O11 0.596723 0.594030 0.363907
O O12 0.360042 0.917394 0.061607
O O13 0.454911 0.939085 0.887392
O O14 0.255126 0.900953 0.167235
O O15 0.000000 0.108001 0.060568
O O16 0.208300 0.500000 0.351268
#
# Coordination Sequence:
#
# PCOD9375880 Si02
#       8
#     8   8   8   8   8   8   2   8
#     4  11  24  41  73 100 147 191 240 296 367 438
#     4  11  25  48  72 108 143 191 247 311 353 445
#     4  12  29  49  75 111 151 191 244 307 377 455
#     4  11  26  45  71 103 149 196 252 299 370 421
#     4  12  24  43  72 106 142 195 241 300 365 447
#     4  12  28  50  79 109 144 190 252 307 375 436
#     4  12  28  50  76 110 152 210 250 322 350 454
#     4  11  24  44  64 103 144 192 238 297 369 439
#
# _framework density 23.712641999999999
#
# number of rings (size 3 to 8) (size 9 to 14) (size 15 to 20)
#    0.000    0.552    4.828    2.069    7.724    3.862 
#    1.241    0.000    0.000    0.000    0.000    0.000 
#    0.000    0.000    0.000    0.000    0.000    0.000 
#
# Total GULP energy -161682.705242 kJ/mol
# GULP energy per Si atom -5575.265698 kJ/mol
# Density = 2.365867 g / cm^3
# Si number density = 23.712642 Si / 1000 Ang^3
#
#
#
# Elastic Constant Matrix: (Units=GPa)
#
#
# Indices 1 2 3 4 5 6 
#
# 1 106.0278 5.9402 -9.0446 0.0000 0.0000 0.0000
# 2 5.9402 105.4319 -5.2935 0.0000 0.0000 0.0000
# 3 -9.0446 -5.2935 56.1819 0.0000 0.0000 0.0000
# 4 0.0000 0.0000 0.0000 -42.1334 0.0000 0.0000
# 5 0.0000 0.0000 0.0000 0.0000 -424.2451 0.0000
# 6 0.0000 0.0000 0.0000 0.0000 0.0000 22.8590
#
#
#
# Elastic Compliance Matrix: (Units=1/GPa)
#
#
# Indices 1 2 3 4 5 6 
#
# 1 0.009585 -0.000465 0.001499 0.000000 0.000000 0.000000
# 2 -0.000465 0.009552 0.000825 0.000000 0.000000 0.000000
# 3 0.001499 0.000825 0.018118 0.000000 0.000000 0.000000
# 4 0.000000 0.000000 0.000000 -0.023734 0.000000 0.000000
# 5 0.000000 0.000000 0.000000 0.000000 -0.002357 0.000000
# 6 0.000000 0.000000 0.000000 0.000000 0.000000 0.043746
#
#
# Mechanical properties :
#
#
# Convention : Reuss Voigt Hill
#
# Bulk Modulus (GPa) = 24.40462 27.87176 26.13819
# Shear Modulus (GPa) = 77.10037 -70.30126 3.39956
#
# Velocity S-wave (km/s) = 5.70833 -5.45083 1.19865
# Velocity P-wave (km/s) = 7.33218 5.27597 3.60035
#
# Compressibility (1/GPa) = 0.04097586
#
# Stress axis : x y z
#
# Youngs Moduli (GPa) = 104.32503 104.68557 55.19231
#
# Poissons Ratio (x) = 0.04866 -0.08275
# Poissons Ratio (y) = 0.04849 -0.04554
# Poissons Ratio (z) = -0.15642 -0.08639
#
# Static dielectric constant tensor:
#      x y z
#    x 4.614180 0.000000 0.000000 
#    y 0.000000 2.135650 0.000000 
#    z 0.000000 0.000000 1.983990 
# 
# From -- ./inp_files/3083.got.cif
#   From: 2010.05.17/outbox.cif.g08.bks.cpg/sg44_2_cif.got.tgz:3083.got - 2010.06.03 19:37:08.
