data_PCOD9375932
_publ_section_title
;
Structure prediction by ZEFSAII (Michael W. Deem and Ramdas Pophale) SiO2 
 PCOD9375932
Probable space group: I M M 2
;
_chemical_formula_sum "Si O2"
_cell_formula_units_Z 48
_cell_length_a 15.935729
_cell_length_b 15.935717
_cell_length_c 7.898567
_cell_angle_alpha 90.000000
_cell_angle_beta 90.000000
_cell_angle_gamma 90.000000
_cell_volume 2005.819507
_symmetry_space_group_name_H-M "I M M 2"
_symmetry_group_IT_number 44
_symmetry_cell_setting 'orthorhombic'
loop_
_space_group_symop_operation_xyz
x,y,z
-x,-y,z
-x,y,z
x,-y,z
1/2+x,1/2+y,1/2+z
1/2-x,1/2-y,1/2+z
1/2-x,1/2+y,1/2+z
1/2+x,1/2-y,1/2+z
loop_
_atom_site_type_symbol
_atom_site_label
_atom_site_fract_x
_atom_site_fract_y
_atom_site_fract_z
Si Si1 0.667380 0.094993 0.853680
Si Si2 0.839537 0.091211 0.674834
Si Si3 0.905007 0.667380 0.999568
Si Si4 0.591896 0.243824 0.040967
Si Si5 0.591211 0.339537 0.678414
Si Si6 0.756176 0.408103 0.812281
O O1 0.765495 0.095267 0.809951
O O2 0.621927 0.121927 0.676624
O O3 0.649621 0.164545 0.995890
O O4 0.641369 0.000000 0.895262
O O5 0.886607 0.179755 0.666422
O O6 0.791909 0.088070 0.493705
O O7 0.884333 0.000000 0.692738
O O8 0.835455 0.649621 0.857358
O O9 0.000000 0.641368 0.957986
O O10 0.904733 0.765495 0.043298
O O11 0.500000 0.210719 0.082201
O O12 0.588069 0.291909 0.859543
O O13 0.500000 0.384333 0.660511
O O14 0.679754 0.386606 0.686826
O O15 0.789281 0.500000 0.771047
#
# Coordination Sequence:
#
# PCOD9375932 Si02
#       6
#     8   8   8   8   8   8
#     4   9  16  26  42  65  92 121 154 194 239 285
#     4   8  15  27  41  61  90 121 153 192 239 287
#     4   9  16  26  42  65  92 121 154 194 239 285
#     4   9  16  25  41  67  93 117 150 196 246 284
#     4   8  15  27  41  61  90 121 153 192 239 287
#     4   9  16  25  41  67  93 117 150 196 246 284
#
# _framework density 23.930368999999999
#
# number of rings (size 3 to 8) (size 9 to 14) (size 15 to 20)
#    0.000    3.333    0.000    3.000    0.000    3.000 
#    0.000    3.333    0.000    2.000    0.000   51.333 
#    0.000    0.000    0.000    0.000    0.000    0.000 
#
# Total GULP energy -133893.544462 kJ/mol
# GULP energy per Si atom -5578.897686 kJ/mol
# Density = 2.387590 g / cm^3
# Si number density = 23.930369 Si / 1000 Ang^3
#
#
#
# Elastic Constant Matrix: (Units=GPa)
#
#
# Indices 1 2 3 4 5 6 
#
# 1 122.1230 42.8070 38.2229 0.0000 0.0000 0.0000
# 2 42.8070 122.1227 38.2227 0.0000 0.0000 0.0000
# 3 38.2229 38.2227 104.3815 0.0000 0.0000 0.0000
# 4 0.0000 0.0000 0.0000 4.0204 0.0000 0.0000
# 5 0.0000 0.0000 0.0000 0.0000 4.0200 0.0000
# 6 0.0000 0.0000 0.0000 0.0000 0.0000 -110.6903
#
#
#
# Elastic Compliance Matrix: (Units=1/GPa)
#
#
# Indices 1 2 3 4 5 6 
#
# 1 0.009955 -0.002653 -0.002674 0.000000 0.000000 0.000000
# 2 -0.002653 0.009955 -0.002674 0.000000 0.000000 0.000000
# 3 -0.002674 -0.002674 0.011539 0.000000 0.000000 0.000000
# 4 0.000000 0.000000 0.000000 0.248729 0.000000 0.000000
# 5 0.000000 0.000000 0.000000 0.000000 0.248753 0.000000
# 6 0.000000 0.000000 0.000000 0.000000 0.000000 -0.009034
#
#
# Mechanical properties :
#
#
# Convention : Reuss Voigt Hill
#
# Bulk Modulus (GPa) = 64.73529 65.23693 64.98611
# Shear Modulus (GPa) = 9.24132 -5.23833 2.00150
#
# Velocity S-wave (km/s) = 1.96727 -1.48113 0.91553
# Velocity P-wave (km/s) = 5.68071 4.93916 5.32286
#
# Compressibility (1/GPa) = 0.01544752
#
# Stress axis : x y z
#
# Youngs Moduli (GPa) = 100.44975 100.44962 86.66508
#
# Poissons Ratio (x) = 0.26645 0.23175
# Poissons Ratio (y) = 0.26645 0.23175
# Poissons Ratio (z) = 0.26861 0.26861
#
# Static dielectric constant tensor:
#      x y z
#    x 1.920410 0.000000 0.000000 
#    y 0.000000 1.920410 0.000000 
#    z 0.000000 0.000000 1.946080 
# 
# From -- ./inp_files/7135.got.cif
#   From: 2010.05.17/outbox.cif.g08.bks.cpg/sg44_4_cif.got.tgz:7135.got - 2010.06.03 19:37:08.
