data_PCOD9375447
_publ_section_title
;
Structure prediction by ZEFSAII (Michael W. Deem and Ramdas Pophale) SiO2 
 PCOD9375447
Probable space group: I M M 2
;
_chemical_formula_sum "Si O2"
_cell_formula_units_Z 40
_cell_length_a 13.652567
_cell_length_b 7.447171
_cell_length_c 19.485704
_cell_angle_alpha 90.000000
_cell_angle_beta 90.000000
_cell_angle_gamma 90.000000
_cell_volume 1981.170003
_symmetry_space_group_name_H-M "I M M 2"
_symmetry_group_IT_number 44
_symmetry_cell_setting 'orthorhombic'
loop_
_space_group_symop_operation_xyz
x,y,z
-x,-y,z
-x,y,z
x,-y,z
1/2+x,1/2+y,1/2+z
1/2-x,1/2-y,1/2+z
1/2-x,1/2+y,1/2+z
1/2+x,1/2-y,1/2+z
loop_
_atom_site_type_symbol
_atom_site_label
_atom_site_fract_x
_atom_site_fract_y
_atom_site_fract_z
Si Si1 0.728183 0.214758 0.484700
Si Si2 0.108197 0.000000 0.905554
Si Si3 0.769569 0.794749 0.250715
Si Si4 0.388187 0.500000 0.241834
Si Si5 0.610904 0.282423 0.884514
Si Si6 0.612014 0.217065 0.618888
O O1 0.660446 0.322402 0.432385
O O2 0.836579 0.259871 0.456872
O O3 0.689472 0.268573 0.559657
O O4 0.716017 0.000000 0.478911
O O5 0.104502 0.000000 0.824114
O O6 0.000000 0.000000 0.934740
O O7 0.679241 0.672465 0.225935
O O8 0.821089 0.724410 0.320559
O O9 0.851284 0.788842 0.191480
O O10 0.737948 0.000000 0.262473
O O11 0.500000 0.500000 0.214378
O O12 0.500000 0.216132 0.879354
O O13 0.607605 0.500000 0.879546
O O14 0.500000 0.271621 0.603241
O O15 0.612837 0.000000 0.622779
#
# Coordination Sequence:
#
# PCOD9375447 Si02
#       6
#     8   4   8   4   8   8
#     4  10  21  38  57  86 127 159 197 246 299 357
#     4  11  22  36  60  88 116 153 200 243 299 362
#     4  11  22  40  63  89 121 156 200 257 306 363
#     4  11  24  42  62  90 120 155 204 251 307 366
#     4   9  18  35  60  87 116 156 201 245 299 355
#     4  10  21  37  60  91 126 161 200 252 310 359
#
# _framework density 20.190090999999999
#
# number of rings (size 3 to 8) (size 9 to 14) (size 15 to 20)
#    0.000    1.800    3.000    1.200    1.400    2.800 
#    0.000    4.500    0.000    0.000    0.000    0.000 
#    0.000    0.000    0.000    0.000    0.000    0.000 
#
# Total GULP energy -111587.335426 kJ/mol
# GULP energy per Si atom -5579.366771 kJ/mol
# Density = 2.014414 g / cm^3
# Si number density = 20.190091 Si / 1000 Ang^3
#
#
#
# Elastic Constant Matrix: (Units=GPa)
#
#
# Indices 1 2 3 4 5 6 
#
# 1 143.0476 31.0166 29.0559 0.0000 0.0000 0.0000
# 2 31.0166 70.6912 1.0500 0.0000 0.0000 0.0000
# 3 29.0559 1.0500 88.3601 0.0000 0.0000 0.0000
# 4 0.0000 0.0000 0.0000 -48.2276 0.0000 0.0000
# 5 0.0000 0.0000 0.0000 0.0000 28.6370 0.0000
# 6 0.0000 0.0000 0.0000 0.0000 0.0000 16.9744
#
#
#
# Elastic Compliance Matrix: (Units=1/GPa)
#
#
# Indices 1 2 3 4 5 6 
#
# 1 0.008321 -0.003611 -0.002693 0.000000 0.000000 0.000000
# 2 -0.003611 0.015715 0.001001 0.000000 0.000000 0.000000
# 3 -0.002693 0.001001 0.012191 0.000000 0.000000 0.000000
# 4 0.000000 0.000000 0.000000 -0.020735 0.000000 0.000000
# 5 0.000000 0.000000 0.000000 0.000000 0.034920 0.000000
# 6 0.000000 0.000000 0.000000 0.000000 0.000000 0.058912
#
#
# Mechanical properties :
#
#
# Convention : Reuss Voigt Hill
#
# Bulk Modulus (GPa) = 39.03142 47.14929 43.09035
# Shear Modulus (GPa) = 38.91927 15.54186 27.23056
#
# Velocity S-wave (km/s) = 4.39526 2.77749 3.67646
# Velocity P-wave (km/s) = 6.71801 5.80425 6.27778
#
# Compressibility (1/GPa) = 0.02562039
#
# Stress axis : x y z
#
# Youngs Moduli (GPa) = 120.18307 63.63169 82.02731
#
# Poissons Ratio (x) = 0.22976 0.22092
# Poissons Ratio (y) = 0.43395 -0.08208
# Poissons Ratio (z) = 0.32368 -0.06367
#
# Static dielectric constant tensor:
#      x y z
#    x 1.728500 0.000000 0.000000 
#    y 0.000000 1.850820 0.000000 
#    z 0.000000 0.000000 1.701800 
# 
# From -- ./inp_files/22797.got.cif
#   From: 2010.05.17/outbox.cif.g08.bks.cpg/sg44_12_cif.got.tgz:22797.got - 2010.06.03 19:37:08.
