data_PCOD9375385
_publ_section_title
;
Structure prediction by ZEFSAII (Michael W. Deem and Ramdas Pophale) SiO2 
 PCOD9375385
Probable space group: I M M 2
;
_chemical_formula_sum "Si O2"
_cell_formula_units_Z 64
_cell_length_a 21.157057
_cell_length_b 8.656932
_cell_length_c 20.319665
_cell_angle_alpha 90.000000
_cell_angle_beta 90.000000
_cell_angle_gamma 90.000000
_cell_volume 3721.652384
_symmetry_space_group_name_H-M "I M M 2"
_symmetry_group_IT_number 44
_symmetry_cell_setting 'orthorhombic'
loop_
_space_group_symop_operation_xyz
x,y,z
-x,-y,z
-x,y,z
x,-y,z
1/2+x,1/2+y,1/2+z
1/2-x,1/2-y,1/2+z
1/2-x,1/2+y,1/2+z
1/2+x,1/2-y,1/2+z
loop_
_atom_site_type_symbol
_atom_site_label
_atom_site_fract_x
_atom_site_fract_y
_atom_site_fract_z
Si Si1 0.190066 0.684932 0.309800
Si Si2 0.812413 0.685762 0.885408
Si Si3 0.429357 0.315295 0.303834
Si Si4 0.381160 0.314118 0.029053
Si Si5 0.429302 0.313466 0.886655
Si Si6 0.619042 0.816371 0.169274
Si Si7 0.732914 0.186783 0.524710
Si Si8 0.261253 0.186842 0.669611
O O1 0.193695 0.500000 0.315141
O O2 0.250102 0.756723 0.347331
O O3 0.125861 0.743524 0.342503
O O4 0.197287 0.727423 0.232847
O O5 0.812832 0.500000 0.884042
O O6 0.874463 0.746633 0.849236
O O7 0.805257 0.740854 0.961098
O O8 0.500000 0.271649 0.325794
O O9 0.423881 0.500000 0.304156
O O10 0.418794 0.256792 0.229535
O O11 0.384360 0.500000 0.036595
O O12 0.402816 0.238893 0.097173
O O13 0.307176 0.272205 0.018263
O O14 0.417814 0.269979 0.963064
O O15 0.500000 0.268099 0.866463
O O16 0.424388 0.500000 0.883850
O O17 0.691568 0.758680 0.176668
O O18 0.616715 0.000000 0.173594
O O19 0.712729 0.235326 0.598026
O O20 0.730315 0.000000 0.523263
O O21 0.253561 0.000000 0.668846
#
# Coordination Sequence:
#
# PCOD9375385 Si02
#       8
#     8   8   8   8   8   8   8   8
#     4  11  21  33  55  82 111 144 179 224 272 322
#     4  11  20  34  58  84 108 136 178 229 273 318
#     4  11  24  40  55  74 106 148 186 220 269 330
#     4   9  17  33  52  73 107 147 185 217 261 324
#     4  10  21  37  56  77 106 147 190 228 271 323
#     4  11  21  32  51  80 110 140 178 223 269 315
#     4   8  15  30  53  78 104 136 173 217 263 315
#     4   9  18  34  54  77 107 143 180 215 263 324
#
# _framework density 17.196662
#
# number of rings (size 3 to 8) (size 9 to 14) (size 15 to 20)
#    0.000    2.000    2.500    3.000    0.000    2.750 
#    0.000    1.875    0.000    0.750    0.000    5.250 
#    0.000    0.000    0.000    0.000    0.000    0.000 
#
# Total GULP energy -178569.837861 kJ/mol
# GULP energy per Si atom -5580.307433 kJ/mol
# Density = 1.715752 g / cm^3
# Si number density = 17.196662 Si / 1000 Ang^3
#
#
#
# Elastic Constant Matrix: (Units=GPa)
#
#
# Indices 1 2 3 4 5 6 
#
# 1 117.0103 37.6590 76.8003 0.0000 0.0000 0.0000
# 2 37.6590 37.1237 36.9840 0.0000 0.0000 0.0000
# 3 76.8003 36.9840 136.3880 0.0000 0.0000 0.0000
# 4 0.0000 0.0000 0.0000 26.8560 0.0000 0.0000
# 5 0.0000 0.0000 0.0000 0.0000 21.4770 0.0000
# 6 0.0000 0.0000 0.0000 0.0000 0.0000 22.2651
#
#
#
# Elastic Compliance Matrix: (Units=1/GPa)
#
#
# Indices 1 2 3 4 5 6 
#
# 1 0.015796 -0.009814 -0.006234 0.000000 0.000000 0.000000
# 2 -0.009814 0.043004 -0.006135 0.000000 0.000000 0.000000
# 3 -0.006234 -0.006135 0.012506 0.000000 0.000000 0.000000
# 4 0.000000 0.000000 0.000000 0.037236 0.000000 0.000000
# 5 0.000000 0.000000 0.000000 0.000000 0.046561 0.000000
# 6 0.000000 0.000000 0.000000 0.000000 0.000000 0.044913
#
#
# Mechanical properties :
#
#
# Convention : Reuss Voigt Hill
#
# Bulk Modulus (GPa) = 37.11800 65.93428 51.52614
# Shear Modulus (GPa) = 19.73454 23.39155 21.56304
#
# Velocity S-wave (km/s) = 3.39127 3.69214 3.54490
# Velocity P-wave (km/s) = 6.07993 7.52333 6.83981
#
# Compressibility (1/GPa) = 0.02694111
#
# Stress axis : x y z
#
# Youngs Moduli (GPa) = 63.30591 23.25343 79.96208
#
# Poissons Ratio (x) = 0.22820 0.49846
# Poissons Ratio (y) = 0.62127 0.49059
# Poissons Ratio (z) = 0.39463 0.14267
#
# Static dielectric constant tensor:
#      x y z
#    x 1.561940 0.000000 0.000000 
#    y 0.000000 1.583500 0.000000 
#    z 0.000000 0.000000 1.604460 
# 
# From -- ./inp_files/20748.got.cif
#   From: 2010.05.17/outbox.cif.g08.bks.cpg/sg44_11_cif.got.tgz:20748.got - 2010.06.03 19:37:08.
