data_PCOD9375248
_publ_section_title
;
Structure prediction by ZEFSAII (Michael W. Deem and Ramdas Pophale) SiO2 
 PCOD9375248
Probable space group: I M M 2
;
_chemical_formula_sum "Si O2"
_cell_formula_units_Z 64
_cell_length_a 8.153521
_cell_length_b 29.070714
_cell_length_c 13.081562
_cell_angle_alpha 90.000000
_cell_angle_beta 90.000000
_cell_angle_gamma 90.000000
_cell_volume 3100.705335
_symmetry_space_group_name_H-M "I M M 2"
_symmetry_group_IT_number 44
_symmetry_cell_setting 'orthorhombic'
loop_
_space_group_symop_operation_xyz
x,y,z
-x,-y,z
-x,y,z
x,-y,z
1/2+x,1/2+y,1/2+z
1/2-x,1/2-y,1/2+z
1/2-x,1/2+y,1/2+z
1/2+x,1/2-y,1/2+z
loop_
_atom_site_type_symbol
_atom_site_label
_atom_site_fract_x
_atom_site_fract_y
_atom_site_fract_z
Si Si1 0.700734 0.407895 0.015680
Si Si2 0.689525 0.678818 0.744468
Si Si3 0.804293 0.620116 0.414129
Si Si4 0.197962 0.947644 0.733943
Si Si5 0.304646 0.294277 0.525480
Si Si6 0.805393 0.548659 0.576697
Si Si7 0.687984 0.570699 0.795577
Si Si8 0.800961 0.804306 0.462859
O O1 0.500000 0.408538 0.012360
O O2 0.752634 0.431834 0.120480
O O3 0.754633 0.433167 0.910784
O O4 0.750203 0.353966 0.008046
O O5 0.500000 0.694768 0.738022
O O6 0.764749 0.687167 0.633914
O O7 0.685806 0.625138 0.771988
O O8 0.763478 0.700731 0.846305
O O9 0.748195 0.591042 0.315906
O O10 0.753705 0.672736 0.433565
O O11 0.737650 0.591279 0.512459
O O12 0.000000 0.451303 0.559623
O O13 0.000000 0.948876 0.732671
O O14 0.255836 0.000000 0.757097
O O15 0.500000 0.298084 0.525573
O O16 0.254693 0.241275 0.519178
O O17 0.736590 0.500000 0.538030
O O18 0.777656 0.550909 0.697573
O O19 0.000000 0.619709 0.413536
O O20 0.500000 0.554218 0.794350
O O21 0.000000 0.805450 0.459753
#
# Coordination Sequence:
#
# PCOD9375248 Si02
#       8
#     8   8   8   8   8   8   8   8
#     4   8  17  35  59  84 115 150 188 234 284 338
#     4   8  16  32  53  74 105 141 174 220 273 328
#     4  11  23  39  57  78 109 152 196 238 287 346
#     4  10  21  38  60  86 118 156 198 247 296 342
#     4  11  21  35  56  83 112 143 188 243 292 341
#     4  10  21  35  51  76 110 141 173 223 281 332
#     4   9  16  32  57  81 104 139 180 220 271 331
#     4   9  18  35  56  80 111 151 190 228 283 347
#
# _framework density 20.640466
#
# number of rings (size 3 to 8) (size 9 to 14) (size 15 to 20)
#    0.000    2.500    1.250    2.625    0.000    3.000 
#    0.000    8.750    0.000    0.000    0.000    0.000 
#    0.000    0.000    0.000    0.000    0.000    0.000 
#
# Total GULP energy -178342.014629 kJ/mol
# GULP energy per Si atom -5573.187957 kJ/mol
# Density = 2.059349 g / cm^3
# Si number density = 20.640466 Si / 1000 Ang^3
#
#
#
# Elastic Constant Matrix: (Units=GPa)
#
#
# Indices 1 2 3 4 5 6 
#
# 1 20.0270 4.4969 1.6813 0.0000 -0.0001 0.0000
# 2 4.4969 53.8642 14.9873 0.0003 -0.0010 0.0000
# 3 1.6813 14.9873 90.2284 -0.0005 -0.0045 0.0001
# 4 0.0000 0.0003 -0.0005 112.2322 0.0367 -0.0003
# 5 -0.0001 -0.0010 -0.0045 0.0367 -523.3810 0.0022
# 6 0.0000 0.0000 0.0001 -0.0003 0.0022 7.5975
#
#
#
# Elastic Compliance Matrix: (Units=1/GPa)
#
#
# Indices 1 2 3 4 5 6 
#
# 1 0.050892 -0.004178 -0.000254 0.000000 0.000000 0.000000
# 2 -0.004178 0.019808 -0.003212 0.000000 0.000000 0.000000
# 3 -0.000254 -0.003212 0.011621 0.000000 0.000000 0.000000
# 4 0.000000 0.000000 0.000000 0.008910 0.000001 0.000000
# 5 0.000000 0.000000 0.000000 0.000001 -0.001911 0.000001
# 6 0.000000 0.000000 0.000000 0.000000 0.000001 0.131623
#
#
# Mechanical properties :
#
#
# Convention : Reuss Voigt Hill
#
# Bulk Modulus (GPa) = 14.91827 22.93896 18.92862
# Shear Modulus (GPa) = 19.33663 -71.17999 -25.92168
#
# Velocity S-wave (km/s) = 3.06409 -5.87882 -3.54767
# Velocity P-wave (km/s) = 4.44540 5.91126 2.75512
#
# Compressibility (1/GPa) = 0.06703188
#
# Stress axis : x y z
#
# Youngs Moduli (GPa) = 19.64945 50.48516 86.04888
#
# Poissons Ratio (x) = 0.21093 0.02189
# Poissons Ratio (y) = 0.08209 0.27642
# Poissons Ratio (z) = 0.00500 0.16217
#
# Static dielectric constant tensor:
#      x y z
#    x 1.757520 0.000010 0.000000 
#    y 0.000010 1.733770 0.000000 
#    z 0.000000 0.000000 1.771380 
# 
# From -- ./inp_files/11559.got.cif
#   From: 2010.05.17/outbox.cif.g08.bks.cpg/sg44_6_cif.got.tgz:11559.got - 2010.06.03 19:37:08.
