data_PCOD9375478
_publ_section_title
;
Structure prediction by ZEFSAII (Michael W. Deem and Ramdas Pophale) SiO2 
 PCOD9375478
Probable space group: I M M 2
;
_chemical_formula_sum "Si O2"
_cell_formula_units_Z 34
_cell_length_a 14.127112
_cell_length_b 7.306955
_cell_length_c 12.648930
_cell_angle_alpha 90.000000
_cell_angle_beta 90.000000
_cell_angle_gamma 90.000000
_cell_volume 1305.700620
_symmetry_space_group_name_H-M "I M M 2"
_symmetry_group_IT_number 44
_symmetry_cell_setting 'orthorhombic'
loop_
_space_group_symop_operation_xyz
x,y,z
-x,-y,z
-x,y,z
x,-y,z
1/2+x,1/2+y,1/2+z
1/2-x,1/2-y,1/2+z
1/2-x,1/2+y,1/2+z
1/2+x,1/2-y,1/2+z
loop_
_atom_site_type_symbol
_atom_site_label
_atom_site_fract_x
_atom_site_fract_y
_atom_site_fract_z
Si Si1 0.325510 0.216998 0.149980
Si Si2 0.634797 0.211866 0.380987
Si Si3 0.147541 0.279484 0.423564
Si Si4 0.000000 0.000000 0.985071
Si Si5 0.897773 0.279765 0.189471
O O1 0.370011 0.283111 0.259914
O O2 0.210073 0.239602 0.151453
O O3 0.339964 0.000000 0.152699
O O4 0.373520 0.285901 0.042178
O O5 0.744581 0.222992 0.407754
O O6 0.581437 0.341409 0.460150
O O7 0.605255 0.000000 0.387729
O O8 0.138556 0.500000 0.424797
O O9 0.101355 0.223392 0.313387
O O10 0.903445 0.500000 0.180400
O O11 0.000000 0.200543 0.148354
#
# Coordination Sequence:
#
# PCOD9375478 Si02
#       5
#     8   8   8   2   8
#     4   9  19  35  58  82 112 152 190 231 294 350
#     4  10  21  38  59  86 116 155 194 238 291 352
#     4   9  17  36  59  80 113 156 191 235 296 344
#     4  12  22  40  60  82 122 150 194 244 296 338
#     4   9  18  33  55  81 109 145 192 238 282 338
#
# _framework density 26.039659
#
# number of rings (size 3 to 8) (size 9 to 14) (size 15 to 20)
#    0.000    2.588    1.176    0.353    1.647    1.412 
#    4.235    0.000    0.000    0.000    0.000    0.000 
#    0.000    0.000    0.000    0.000    0.000    0.000 
#
# Total GULP energy -94688.602547 kJ/mol
# GULP energy per Si atom -5569.917797 kJ/mol
# Density = 2.598039 g / cm^3
# Si number density = 26.039659 Si / 1000 Ang^3
#
#
#
# Elastic Constant Matrix: (Units=GPa)
#
#
# Indices 1 2 3 4 5 6 
#
# 1 95.6983 -18.5757 -0.2696 0.0000 0.0000 0.0000
# 2 -18.5757 90.2838 -34.0976 0.0000 0.0000 0.0000
# 3 -0.2696 -34.0976 143.3328 0.0000 0.0000 0.0000
# 4 0.0000 0.0000 0.0000 -585.8891 0.0000 0.0000
# 5 0.0000 0.0000 0.0000 0.0000 43.6267 0.0000
# 6 0.0000 0.0000 0.0000 0.0000 0.0000 47.9872
#
#
#
# Elastic Compliance Matrix: (Units=1/GPa)
#
#
# Indices 1 2 3 4 5 6 
#
# 1 0.010933 0.002480 0.000611 0.000000 0.000000 0.000000
# 2 0.002480 0.012732 0.003034 0.000000 0.000000 0.000000
# 3 0.000611 0.003034 0.007700 0.000000 0.000000 0.000000
# 4 0.000000 0.000000 0.000000 -0.001707 0.000000 0.000000
# 5 0.000000 0.000000 0.000000 0.000000 0.022922 0.000000
# 6 0.000000 0.000000 0.000000 0.000000 0.000000 0.020839
#
#
# Mechanical properties :
#
#
# Convention : Reuss Voigt Hill
#
# Bulk Modulus (GPa) = 22.92936 24.82546 23.87741
# Shear Modulus (GPa) = 66.04361 -73.37119 -3.66379
#
# Velocity S-wave (km/s) = 5.04160 -5.31393 -1.18746
# Velocity P-wave (km/s) = 6.53567 5.30058 2.70360
#
# Compressibility (1/GPa) = 0.04361221
#
# Stress axis : x y z
#
# Youngs Moduli (GPa) = 91.46955 78.54161 129.87743
#
# Poissons Ratio (x) = -0.19478 -0.07929
# Poissons Ratio (y) = -0.22684 -0.39399
# Poissons Ratio (z) = -0.05584 -0.23826
#
# Static dielectric constant tensor:
#      x y z
#    x 2.016790 0.000000 0.000000 
#    y 0.000000 2.056050 0.000000 
#    z 0.000000 0.000000 2.211810 
# 
# From -- ./inp_files/15647.got.cif
#   From: 2010.05.17/outbox.cif.g08.bks.cpg/sg44_8_cif.got.tgz:15647.got - 2010.06.03 19:37:08.
