data_PCOD9375089
_publ_section_title
;
Structure prediction by ZEFSAII (Michael W. Deem and Ramdas Pophale) SiO2 
 PCOD9375089
Probable space group: I M M 2
;
_chemical_formula_sum "Si O2"
_cell_formula_units_Z 48
_cell_length_a 10.318835
_cell_length_b 7.744207
_cell_length_c 28.783962
_cell_angle_alpha 90.000000
_cell_angle_beta 90.000000
_cell_angle_gamma 90.000000
_cell_volume 2300.160778
_symmetry_space_group_name_H-M "I M M 2"
_symmetry_group_IT_number 44
_symmetry_cell_setting 'orthorhombic'
loop_
_space_group_symop_operation_xyz
x,y,z
-x,-y,z
-x,y,z
x,-y,z
1/2+x,1/2+y,1/2+z
1/2-x,1/2-y,1/2+z
1/2-x,1/2+y,1/2+z
1/2+x,1/2-y,1/2+z
loop_
_atom_site_type_symbol
_atom_site_label
_atom_site_fract_x
_atom_site_fract_y
_atom_site_fract_z
Si Si1 0.747182 0.701413 0.506940
Si Si2 0.755016 0.209285 0.728620
Si Si3 0.500000 0.792003 0.674810
Si Si4 0.500000 0.708559 0.564997
Si Si5 0.500000 0.291210 0.063677
Si Si6 0.148987 0.796617 0.407114
Si Si7 0.000000 0.210531 0.669721
Si Si8 0.149495 0.706040 0.830953
O O1 0.721752 0.500000 0.498023
O O2 0.625901 0.771526 0.536498
O O3 0.784777 0.781116 0.457507
O O4 0.873188 0.723447 0.538480
O O5 0.625212 0.270509 0.703195
O O6 0.874106 0.268186 0.697050
O O7 0.785268 0.264971 0.780885
O O8 0.752431 0.000000 0.728879
O O9 0.500000 0.752347 0.619776
O O10 0.500000 0.000000 0.677370
O O11 0.500000 0.500000 0.563580
O O12 0.500000 0.500000 0.061095
O O13 0.500000 0.234960 0.116804
O O14 0.250502 0.722747 0.369532
O O15 0.000000 0.726388 0.407299
O O16 0.136372 0.000000 0.396778
O O17 0.000000 0.000000 0.669776
O O18 0.139422 0.500000 0.838403
O O19 0.000000 0.773367 0.832078
#
# Coordination Sequence:
#
# PCOD9375089 Si02
#       8
#     8   8   4   4   4   8   4   8
#     4  11  23  40  60  87 122 156 196 247 297 353
#     4  10  20  37  58  84 117 152 192 240 290 343
#     4  10  22  38  59  88 119 154 201 248 287 342
#     4  10  24  42  59  86 125 163 199 243 299 354
#     4  11  21  37  62  89 116 155 199 241 296 353
#     4  10  22  40  61  86 116 152 195 241 294 357
#     4   9  18  33  56  81 110 148 189 232 282 343
#     4  10  22  39  59  87 118 150 193 242 292 349
#
# _framework density 20.868106999999998
#
# number of rings (size 3 to 8) (size 9 to 14) (size 15 to 20)
#    0.000    1.833    1.667    1.750    2.333    4.000 
#    0.000    1.667    0.000    0.000    0.000    0.000 
#    0.000    0.000    0.000    0.000    0.000    0.000 
#
# Total GULP energy -134007.675222 kJ/mol
# GULP energy per Si atom -5583.653134 kJ/mol
# Density = 2.082061 g / cm^3
# Si number density = 20.868107 Si / 1000 Ang^3
#
#
#
# Elastic Constant Matrix: (Units=GPa)
#
#
# Indices 1 2 3 4 5 6 
#
# 1 231.0648 1.9442 122.8614 0.0000 0.0000 0.0000
# 2 1.9442 32.3467 -11.3730 0.0000 0.0000 0.0000
# 3 122.8614 -11.3730 203.3872 0.0000 0.0000 0.0000
# 4 0.0000 0.0000 0.0000 28.0642 0.0000 0.0000
# 5 0.0000 0.0000 0.0000 0.0000 48.9992 0.0000
# 6 0.0000 0.0000 0.0000 0.0000 0.0000 15.7319
#
#
#
# Elastic Compliance Matrix: (Units=1/GPa)
#
#
# Indices 1 2 3 4 5 6 
#
# 1 0.006477 -0.001800 -0.004013 0.000000 0.000000 0.000000
# 2 -0.001800 0.032035 0.002879 0.000000 0.000000 0.000000
# 3 -0.004013 0.002879 0.007502 0.000000 0.000000 0.000000
# 4 0.000000 0.000000 0.000000 0.035633 0.000000 0.000000
# 5 0.000000 0.000000 0.000000 0.000000 0.020409 0.000000
# 6 0.000000 0.000000 0.000000 0.000000 0.000000 0.063565
#
#
# Mechanical properties :
#
#
# Convention : Reuss Voigt Hill
#
# Bulk Modulus (GPa) = 24.90967 77.07376 50.99171
# Shear Modulus (GPa) = 27.04584 42.11679 34.58131
#
# Velocity S-wave (km/s) = 3.60396 4.49735 4.07521
# Velocity P-wave (km/s) = 5.41116 7.99889 6.82872
#
# Compressibility (1/GPa) = 0.04014505
#
# Stress axis : x y z
#
# Youngs Moduli (GPa) = 154.39707 31.21544 133.29840
#
# Poissons Ratio (x) = 0.05620 0.53495
# Poissons Ratio (y) = 0.27796 -0.38375
# Poissons Ratio (z) = 0.61962 -0.08987
#
# Static dielectric constant tensor:
#      x y z
#    x 1.746720 0.000000 0.000000 
#    y 0.000000 1.788620 0.000000 
#    z 0.000000 0.000000 1.707720 
# 
# From -- ./inp_files/27069.got.cif
#   From: 2010.05.17/outbox.cif.g08.bks.cpg/sg44_14_cif.got.tgz:27069.got - 2010.06.03 19:37:08.
