data_PCOD9375666
_publ_section_title
;
Structure prediction by ZEFSAII (Michael W. Deem and Ramdas Pophale) SiO2 
 PCOD9375666
Probable space group: I M M 2
;
_chemical_formula_sum "Si O2"
_cell_formula_units_Z 48
_cell_length_a 31.230787
_cell_length_b 10.189294
_cell_length_c 8.162157
_cell_angle_alpha 90.000000
_cell_angle_beta 90.000000
_cell_angle_gamma 90.000000
_cell_volume 2597.358912
_symmetry_space_group_name_H-M "I M M 2"
_symmetry_group_IT_number 44
_symmetry_cell_setting 'orthorhombic'
loop_
_space_group_symop_operation_xyz
x,y,z
-x,-y,z
-x,y,z
x,-y,z
1/2+x,1/2+y,1/2+z
1/2-x,1/2-y,1/2+z
1/2-x,1/2+y,1/2+z
1/2+x,1/2-y,1/2+z
loop_
_atom_site_type_symbol
_atom_site_label
_atom_site_fract_x
_atom_site_fract_y
_atom_site_fract_z
Si Si1 0.449141 0.762081 0.412380
Si Si2 0.047259 0.843985 0.269798
Si Si3 0.382819 0.000000 0.445949
Si Si4 0.763579 0.000000 0.536319
Si Si5 0.817466 0.500000 0.256676
Si Si6 0.815527 0.270830 0.521488
Si Si7 0.404633 0.343105 0.094124
Si Si8 0.299655 0.000000 0.239648
O O1 0.500000 0.796995 0.405639
O O2 0.442118 0.681542 0.580689
O O3 0.415330 0.878947 0.432712
O O4 0.436064 0.688711 0.244877
O O5 0.077042 0.798314 0.417453
O O6 0.000000 0.786657 0.297305
O O7 0.045278 0.000000 0.290284
O O8 0.352818 0.000000 0.609812
O O9 0.349069 0.000000 0.296654
O O10 0.791176 0.132197 0.509987
O O11 0.732400 0.000000 0.695801
O O12 0.728665 0.000000 0.396662
O O13 0.823283 0.365360 0.363151
O O14 0.860042 0.232193 0.607726
O O15 0.790112 0.369976 0.637791
O O16 0.397440 0.500000 0.090594
#
# Coordination Sequence:
#
# PCOD9375666 Si02
#       8
#     8   8   4   4   4   8   8   4
#     4  11  22  37  59  87 120 163 212 257 308 371
#     4   9  19  35  55  82 118 155 196 250 308 363
#     4  11  21  40  56  82 117 159 205 244 306 365
#     4  11  22  40  65  91 120 153 206 258 310 379
#     4  10  24  39  65  88 123 172 197 254 325 379
#     4  11  21  40  61  91 121 157 206 252 311 382
#     4  11  21  36  61  89 122 160 208 261 315 368
#     4  10  22  39  62  81 122 158 188 248 310 371
#
# _framework density 18.480311
#
# number of rings (size 3 to 8) (size 9 to 14) (size 15 to 20)
#    0.000    1.500    2.500    3.250    0.000    1.667 
#    0.000    0.000    0.000    2.000    0.000    0.000 
#    0.000    0.000    0.000    0.000    0.000    0.000 
#
# Total GULP energy -133626.174441 kJ/mol
# GULP energy per Si atom -5567.757268 kJ/mol
# Density = 1.843825 g / cm^3
# Si number density = 18.480311 Si / 1000 Ang^3
#
#
#
# Elastic Constant Matrix: (Units=GPa)
#
#
# Indices 1 2 3 4 5 6 
#
# 1 73.4329 39.9224 23.3750 0.0000 0.0000 0.0000
# 2 39.9224 107.4013 27.8803 0.0000 0.0000 0.0000
# 3 23.3750 27.8803 79.8548 0.0000 0.0000 0.0000
# 4 0.0000 0.0000 0.0000 31.1903 0.0000 0.0000
# 5 0.0000 0.0000 0.0000 0.0000 27.1499 0.0000
# 6 0.0000 0.0000 0.0000 0.0000 0.0000 21.0942
#
#
#
# Elastic Compliance Matrix: (Units=1/GPa)
#
#
# Indices 1 2 3 4 5 6 
#
# 1 0.017774 -0.005780 -0.003185 0.000000 0.000000 0.000000
# 2 -0.005780 0.012119 -0.002539 0.000000 0.000000 0.000000
# 3 -0.003185 -0.002539 0.014341 0.000000 0.000000 0.000000
# 4 0.000000 0.000000 0.000000 0.032061 0.000000 0.000000
# 5 0.000000 0.000000 0.000000 0.000000 0.036833 0.000000
# 6 0.000000 0.000000 0.000000 0.000000 0.000000 0.047406
#
#
# Mechanical properties :
#
#
# Convention : Reuss Voigt Hill
#
# Bulk Modulus (GPa) = 47.11170 49.22717 48.16944
# Shear Modulus (GPa) = 26.23055 27.18764 26.70910
#
# Velocity S-wave (km/s) = 3.77155 3.83974 3.80580
# Velocity P-wave (km/s) = 6.67191 6.80835 6.74047
#
# Compressibility (1/GPa) = 0.02122615
#
# Stress axis : x y z
#
# Youngs Moduli (GPa) = 56.26182 82.51824 69.72800
#
# Poissons Ratio (x) = 0.47696 0.22207
# Poissons Ratio (y) = 0.32520 0.17705
# Poissons Ratio (z) = 0.17918 0.20952
#
# Static dielectric constant tensor:
#      x y z
#    x 1.662880 0.000000 0.000000 
#    y 0.000000 1.630090 0.000000 
#    z 0.000000 0.000000 1.664640 
# 
# From -- ./inp_files/5010.got.cif
#   From: 2010.05.17/outbox.cif.g08.bks.cpg/sg44_3_cif.got.tgz:5010.got - 2010.06.03 19:37:08.
