data_PCOD9375266
_publ_section_title
;
Structure prediction by ZEFSAII (Michael W. Deem and Ramdas Pophale) SiO2 
 PCOD9375266
Probable space group: I M M 2
;
_chemical_formula_sum "Si O2"
_cell_formula_units_Z 58
_cell_length_a 17.995775
_cell_length_b 14.683474
_cell_length_c 12.425471
_cell_angle_alpha 90.000000
_cell_angle_beta 90.000000
_cell_angle_gamma 90.000000
_cell_volume 3283.312599
_symmetry_space_group_name_H-M "I M M 2"
_symmetry_group_IT_number 44
_symmetry_cell_setting 'orthorhombic'
loop_
_space_group_symop_operation_xyz
x,y,z
-x,-y,z
-x,y,z
x,-y,z
1/2+x,1/2+y,1/2+z
1/2-x,1/2-y,1/2+z
1/2-x,1/2+y,1/2+z
1/2+x,1/2-y,1/2+z
loop_
_atom_site_type_symbol
_atom_site_label
_atom_site_fract_x
_atom_site_fract_y
_atom_site_fract_z
Si Si1 0.197224 0.711628 0.034680
Si Si2 0.583909 0.891877 0.384376
Si Si3 0.917592 0.898661 0.332304
Si Si4 0.807546 0.898592 0.133373
Si Si5 0.870565 0.395909 0.642268
Si Si6 0.500000 0.000000 0.711547
Si Si7 0.347096 0.898209 0.744851
Si Si8 0.857722 0.733098 0.450981
O O1 0.171479 0.814747 0.058373
O O2 0.190717 0.654746 0.145725
O O3 0.144666 0.663003 0.949422
O O4 0.280358 0.722417 0.990190
O O5 0.500000 0.869804 0.418790
O O6 0.593187 0.876557 0.257075
O O7 0.594951 0.000000 0.403562
O O8 0.854319 0.889847 0.242354
O O9 0.908290 0.815970 0.413254
O O10 0.000000 0.894109 0.282590
O O11 0.909848 0.000000 0.381150
O O12 0.719197 0.891245 0.155694
O O13 0.820908 0.000000 0.088804
O O14 0.889327 0.500000 0.611224
O O15 0.890234 0.326421 0.548362
O O16 0.566899 0.078275 0.715951
O O17 0.344033 0.835823 0.851104
O O18 0.313814 0.000000 0.763102
#
# Coordination Sequence:
#
# PCOD9375266 Si02
#       8
#     8   8   8   8   8   2   8   8
#     4  11  22  34  61  86 118 155 199 242 298 362
#     4  10  22  37  56  84 118 155 193 238 295 361
#     4  10  21  35  54  80 110 144 189 240 288 342
#     4   9  18  35  57  81 111 143 187 239 291 339
#     4   9  19  37  58  83 113 149 187 236 287 357
#     4   8  24  40  64  92 140 152 190 260 344 382
#     4  10  22  39  60  96 123 154 196 251 321 373
#     4  11  22  36  61  84 119 155 199 241 299 362
#
# _framework density 17.665087
#
# number of rings (size 3 to 8) (size 9 to 14) (size 15 to 20)
#    0.414    1.655    1.379    1.655    3.862    3.862 
#    0.000    0.000    0.000    0.000    0.000    0.000 
#    0.000    0.000    0.000    0.000    0.000    0.000 
#
# Total GULP energy -161437.766617 kJ/mol
# GULP energy per Si atom -5566.819539 kJ/mol
# Density = 1.762488 g / cm^3
# Si number density = 17.665087 Si / 1000 Ang^3
#
#
#
# Elastic Constant Matrix: (Units=GPa)
#
#
# Indices 1 2 3 4 5 6 
#
# 1 29.9507 16.4872 7.4219 0.0000 0.0000 0.0000
# 2 16.4872 81.2546 28.4633 0.0000 0.0000 0.0000
# 3 7.4219 28.4633 28.5951 0.0000 0.0000 0.0000
# 4 0.0000 0.0000 0.0000 30.9025 0.0000 0.0000
# 5 0.0000 0.0000 0.0000 0.0000 -174.5793 0.0000
# 6 0.0000 0.0000 0.0000 0.0000 0.0000 20.7665
#
#
#
# Elastic Compliance Matrix: (Units=1/GPa)
#
#
# Indices 1 2 3 4 5 6 
#
# 1 0.037793 -0.006498 -0.003341 0.000000 0.000000 0.000000
# 2 -0.006498 0.020013 -0.018234 0.000000 0.000000 0.000000
# 3 -0.003341 -0.018234 0.053988 0.000000 0.000000 0.000000
# 4 0.000000 0.000000 0.000000 0.032360 0.000000 0.000000
# 5 0.000000 0.000000 0.000000 0.000000 -0.005728 0.000000
# 6 0.000000 0.000000 0.000000 0.000000 0.000000 0.048155
#
#
# Mechanical properties :
#
#
# Convention : Reuss Voigt Hill
#
# Bulk Modulus (GPa) = 17.97018 27.17168 22.57093
# Shear Modulus (GPa) = 19.13684 -18.75352 0.19166
#
# Velocity S-wave (km/s) = 3.29495 -3.26178 0.32975
# Velocity P-wave (km/s) = 4.96693 1.10877 3.59859
#
# Compressibility (1/GPa) = 0.05564774
#
# Stress axis : x y z
#
# Youngs Moduli (GPa) = 26.45983 49.96783 18.52260
#
# Poissons Ratio (x) = 0.32470 0.06188
# Poissons Ratio (y) = 0.17194 0.33774
# Poissons Ratio (z) = 0.08840 0.91111
#
# Static dielectric constant tensor:
#      x y z
#    x 1.626080 0.000000 0.000000 
#    y 0.000000 1.616860 0.000000 
#    z 0.000000 0.000000 1.598610 
# 
# From -- ./inp_files/13957.got.cif
#   From: 2010.05.17/outbox.cif.g08.bks.cpg/sg44_7_cif.got.tgz:13957.got - 2010.06.03 19:37:08.
