data_PCOD9375237
_publ_section_title
;
Structure prediction by ZEFSAII (Michael W. Deem and Ramdas Pophale) SiO2 
 PCOD9375237
Probable space group: I M M 2
;
_chemical_formula_sum "Si O2"
_cell_formula_units_Z 64
_cell_length_a 7.610151
_cell_length_b 14.588067
_cell_length_c 29.426563
_cell_angle_alpha 90.000000
_cell_angle_beta 90.000000
_cell_angle_gamma 90.000000
_cell_volume 3266.860299
_symmetry_space_group_name_H-M "I M M 2"
_symmetry_group_IT_number 44
_symmetry_cell_setting 'orthorhombic'
loop_
_space_group_symop_operation_xyz
x,y,z
-x,-y,z
-x,y,z
x,-y,z
1/2+x,1/2+y,1/2+z
1/2-x,1/2-y,1/2+z
1/2-x,1/2+y,1/2+z
1/2+x,1/2-y,1/2+z
loop_
_atom_site_type_symbol
_atom_site_label
_atom_site_fract_x
_atom_site_fract_y
_atom_site_fract_z
Si Si1 0.210649 0.252776 0.980180
Si Si2 0.708840 0.759114 0.730084
Si Si3 0.790334 0.258866 0.877940
Si Si4 0.790231 0.895995 0.556971
Si Si5 0.215587 0.105161 0.052793
Si Si6 0.787669 0.395678 0.307496
Si Si7 0.793444 0.242889 0.128891
Si Si8 0.712726 0.104511 0.300372
O O1 0.280684 0.258976 0.929067
O O2 0.000000 0.243220 0.977215
O O3 0.246522 0.342082 0.010686
O O4 0.273578 0.165583 0.009552
O O5 0.500000 0.775981 0.726482
O O6 0.778528 0.838290 0.763765
O O7 0.782437 0.755350 0.679174
O O8 0.735476 0.663809 0.756542
O O9 0.759426 0.163596 0.851749
O O10 0.722823 0.338686 0.844400
O O11 0.000000 0.272437 0.881005
O O12 0.722354 0.834080 0.598465
O O13 0.000000 0.898396 0.561034
O O14 0.723262 0.000000 0.557301
O O15 0.276717 0.160269 0.097568
O O16 0.000000 0.106287 0.052972
O O17 0.271303 0.000000 0.051490
O O18 0.724346 0.500000 0.308674
O O19 0.000000 0.397650 0.305217
O O20 0.000000 0.222965 0.134780
O O21 0.500000 0.103455 0.301859
O O22 0.774454 0.000000 0.299378
#
# Coordination Sequence:
#
# PCOD9375237 Si02
#       8
#     8   8   8   8   8   8   8   8
#     4   9  18  32  51  73  95 125 164 202 241 283
#     4   9  18  32  50  72  96 124 163 206 242 282
#     4   9  18  32  50  72  96 124 163 206 242 282
#     4  10  21  35  50  71 100 131 161 196 240 288
#     4   8  14  26  44  67  94 119 147 190 240 284
#     4   9  18  32  48  68  97 130 161 197 244 293
#     4   9  18  32  51  73  95 125 164 202 241 283
#     4   9  18  32  48  68  97 130 161 197 244 293
#
# _framework density 19.590675000000001
#
# number of rings (size 3 to 8) (size 9 to 14) (size 15 to 20)
#    0.000    3.000    0.000    1.125    0.000    4.500 
#    0.000    5.000    0.000    6.000    0.000    0.000 
#    0.000    0.000    0.000    0.000    0.000    0.000 
#
# Total GULP energy -178441.793396 kJ/mol
# GULP energy per Si atom -5576.306044 kJ/mol
# Density = 1.954609 g / cm^3
# Si number density = 19.590675 Si / 1000 Ang^3
#
#
#
# Elastic Constant Matrix: (Units=GPa)
#
#
# Indices 1 2 3 4 5 6 
#
# 1 32.1469 -23.6485 -6.8308 0.0000 0.0000 0.0000
# 2 -23.6485 139.8183 60.2862 0.0000 0.0000 0.0000
# 3 -6.8308 60.2862 162.4230 0.0000 0.0000 0.0000
# 4 0.0000 0.0000 0.0000 -16.2673 0.0000 0.0000
# 5 0.0000 0.0000 0.0000 0.0000 -27.4282 0.0000
# 6 0.0000 0.0000 0.0000 0.0000 0.0000 13.8526
#
#
#
# Elastic Compliance Matrix: (Units=1/GPa)
#
#
# Indices 1 2 3 4 5 6 
#
# 1 0.035633 0.006406 -0.000879 0.000000 0.000000 0.000000
# 2 0.006406 0.009666 -0.003318 0.000000 0.000000 0.000000
# 3 -0.000879 -0.003318 0.007352 0.000000 0.000000 0.000000
# 4 0.000000 0.000000 0.000000 -0.061473 0.000000 0.000000
# 5 0.000000 0.000000 0.000000 0.000000 -0.036459 0.000000
# 6 0.000000 0.000000 0.000000 0.000000 0.000000 0.072189
#
#
# Mechanical properties :
#
#
# Convention : Reuss Voigt Hill
#
# Bulk Modulus (GPa) = 17.52311 43.77799 30.65055
# Shear Modulus (GPa) = 120.44343 14.33686 67.39015
#
# Velocity S-wave (km/s) = 7.84942 2.70815 5.87144
# Velocity P-wave (km/s) = 9.54543 5.67218 7.85140
#
# Compressibility (1/GPa) = 0.05706749
#
# Stress axis : x y z
#
# Youngs Moduli (GPa) = 28.06397 103.45052 136.02660
#
# Poissons Ratio (x) = -0.66269 0.11958
# Poissons Ratio (y) = -0.17977 0.45140
# Poissons Ratio (z) = 0.02467 0.34330
#
# Static dielectric constant tensor:
#      x y z
#    x 1.730370 0.000000 0.000000 
#    y 0.000000 1.660890 0.000000 
#    z 0.000000 0.000000 1.686730 
# 
# From -- ./inp_files/27275.got.cif
#   From: 2010.05.17/outbox.cif.g08.bks.cpg/sg44_14_cif.got.tgz:27275.got - 2010.06.03 19:37:08.
