data_PCOD9375747
_publ_section_title
;
Structure prediction by ZEFSAII (Michael W. Deem and Ramdas Pophale) SiO2 
 PCOD9375747
Probable space group: I M M 2
;
_chemical_formula_sum "Si O2"
_cell_formula_units_Z 56
_cell_length_a 20.846415
_cell_length_b 8.582583
_cell_length_c 16.064981
_cell_angle_alpha 90.000000
_cell_angle_beta 90.000000
_cell_angle_gamma 90.000000
_cell_volume 2874.283538
_symmetry_space_group_name_H-M "I M M 2"
_symmetry_group_IT_number 44
_symmetry_cell_setting 'orthorhombic'
loop_
_space_group_symop_operation_xyz
x,y,z
-x,-y,z
-x,y,z
x,-y,z
1/2+x,1/2+y,1/2+z
1/2-x,1/2-y,1/2+z
1/2-x,1/2+y,1/2+z
1/2+x,1/2-y,1/2+z
loop_
_atom_site_type_symbol
_atom_site_label
_atom_site_fract_x
_atom_site_fract_y
_atom_site_fract_z
Si Si1 0.304466 0.185529 0.647930
Si Si2 0.425685 0.314167 0.062914
Si Si3 0.791305 0.687194 0.503898
Si Si4 0.573887 0.311967 0.562916
Si Si5 0.248490 0.187654 0.819536
Si Si6 0.926846 0.174157 0.883951
Si Si7 0.620436 0.821994 0.235560
O O1 0.251700 0.254687 0.582620
O O2 0.375534 0.235569 0.623438
O O3 0.295423 0.233892 0.744238
O O4 0.296371 0.000000 0.643120
O O5 0.500000 0.261968 0.046796
O O6 0.424244 0.500000 0.051865
O O7 0.365681 0.240308 0.013139
O O8 0.406955 0.272649 0.158058
O O9 0.788883 0.500000 0.505694
O O10 0.764629 0.741303 0.413291
O O11 0.500000 0.259415 0.574501
O O12 0.574870 0.500000 0.570128
O O13 0.603425 0.276895 0.470897
O O14 0.182539 0.250850 0.780797
O O15 0.246721 0.000000 0.823296
O O16 0.926956 0.299457 0.812230
O O17 0.000000 0.153084 0.909798
O O18 0.904226 0.000000 0.857574
O O19 0.630661 0.000000 0.210521
#
# Coordination Sequence:
#
# PCOD9375747 Si02
#       7
#     8   8   8   8   8   8   8
#     4  11  22  38  61  88 120 158 198 247 305 367
#     4  11  24  42  63  87 122 167 209 258 323 383
#     4  11  23  41  65  92 121 161 210 259 312 373
#     4   9  19  36  57  82 115 156 199 246 302 360
#     4  10  23  41  60  84 120 160 198 246 311 373
#     4   9  18  33  52  75 109 153 191 227 287 359
#     4  12  23  34  55  88 119 152 199 251 303 362
#
# _framework density 19.483117
#
# number of rings (size 3 to 8) (size 9 to 14) (size 15 to 20)
#    0.000    1.571    1.429    4.714    0.000    9.143 
#    0.000    2.143    0.000    4.286    0.000    0.000 
#    0.000    0.000    0.000    0.000    0.000    0.000 
#
# Total GULP energy -156013.189929 kJ/mol
# GULP energy per Si atom -5571.899640 kJ/mol
# Density = 1.943877 g / cm^3
# Si number density = 19.483117 Si / 1000 Ang^3
#
#
#
# Elastic Constant Matrix: (Units=GPa)
#
#
# Indices 1 2 3 4 5 6 
#
# 1 108.0455 11.3401 38.4141 0.0000 0.0000 0.0000
# 2 11.3401 28.0134 15.5587 0.0000 0.0000 0.0000
# 3 38.4141 15.5587 93.3062 0.0000 0.0000 0.0000
# 4 0.0000 0.0000 0.0000 25.4548 0.0000 0.0000
# 5 0.0000 0.0000 0.0000 0.0000 28.7681 0.0000
# 6 0.0000 0.0000 0.0000 0.0000 0.0000 32.4436
#
#
#
# Elastic Compliance Matrix: (Units=1/GPa)
#
#
# Indices 1 2 3 4 5 6 
#
# 1 0.010956 -0.002127 -0.004156 0.000000 0.000000 0.000000
# 2 -0.002127 0.039754 -0.005753 0.000000 0.000000 0.000000
# 3 -0.004156 -0.005753 0.013388 0.000000 0.000000 0.000000
# 4 0.000000 0.000000 0.000000 0.039285 0.000000 0.000000
# 5 0.000000 0.000000 0.000000 0.000000 0.034761 0.000000
# 6 0.000000 0.000000 0.000000 0.000000 0.000000 0.030823
#
#
# Mechanical properties :
#
#
# Convention : Reuss Voigt Hill
#
# Bulk Modulus (GPa) = 24.98418 39.99897 32.49158
# Shear Modulus (GPa) = 24.22711 28.27011 26.24861
#
# Velocity S-wave (km/s) = 3.53014 3.81334 3.67447
# Velocity P-wave (km/s) = 5.42837 6.32166 5.89197
#
# Compressibility (1/GPa) = 0.04002532
#
# Stress axis : x y z
#
# Youngs Moduli (GPa) = 91.27243 25.15495 74.69501
#
# Poissons Ratio (x) = 0.05350 0.31043
# Poissons Ratio (y) = 0.19413 0.42974
# Poissons Ratio (z) = 0.37933 0.14472
#
# Static dielectric constant tensor:
#      x y z
#    x 1.684850 0.000000 0.000000 
#    y 0.000000 1.697600 0.000000 
#    z 0.000000 0.000000 1.719870 
# 
# From -- ./inp_files/16444.got.cif
#   From: 2010.05.17/outbox.cif.g08.bks.cpg/sg44_9_cif.got.tgz:16444.got - 2010.06.03 19:37:08.
