data_PCOD9375075
_publ_section_title
;
Structure prediction by ZEFSAII (Michael W. Deem and Ramdas Pophale) SiO2 
 PCOD9375075
Probable space group: I M M 2
;
_chemical_formula_sum "Si O2"
_cell_formula_units_Z 64
_cell_length_a 14.181593
_cell_length_b 26.862923
_cell_length_c 9.106910
_cell_angle_alpha 90.000000
_cell_angle_beta 90.000000
_cell_angle_gamma 90.000000
_cell_volume 3469.359698
_symmetry_space_group_name_H-M "I M M 2"
_symmetry_group_IT_number 44
_symmetry_cell_setting 'orthorhombic'
loop_
_space_group_symop_operation_xyz
x,y,z
-x,-y,z
-x,y,z
x,-y,z
1/2+x,1/2+y,1/2+z
1/2-x,1/2-y,1/2+z
1/2-x,1/2+y,1/2+z
1/2+x,1/2-y,1/2+z
loop_
_atom_site_type_symbol
_atom_site_label
_atom_site_fract_x
_atom_site_fract_y
_atom_site_fract_z
Si Si1 0.388345 0.351666 0.307050
Si Si2 0.890861 0.442895 0.729164
Si Si3 0.387481 0.558751 0.093096
Si Si4 0.888237 0.659691 0.376491
Si Si5 0.385801 0.947311 0.885073
Si Si6 0.755776 0.874455 0.388995
Si Si7 0.227445 0.177630 0.087510
Si Si8 0.767895 0.705886 0.135083
O O1 0.500000 0.342354 0.306883
O O2 0.372334 0.406781 0.238044
O O3 0.342933 0.345332 0.467035
O O4 0.331349 0.311568 0.207811
O O5 0.884990 0.500000 0.780572
O O6 0.860603 0.443788 0.557603
O O7 0.828420 0.408115 0.828462
O O8 0.000000 0.427570 0.730698
O O9 0.500000 0.560581 0.062582
O O10 0.361829 0.500000 0.106104
O O11 0.329908 0.588722 0.968337
O O12 0.859842 0.604873 0.314376
O O13 0.832850 0.665265 0.528968
O O14 0.846039 0.697783 0.260655
O O15 0.000000 0.662824 0.393470
O O16 0.500000 0.949133 0.880241
O O17 0.349920 0.000000 0.825051
O O18 0.793589 0.845329 0.245919
O O19 0.720118 0.832536 0.501863
O O20 0.225424 0.237285 0.087720
#
# Coordination Sequence:
#
# PCOD9375075 Si02
#       8
#     8   8   8   8   8   8   8   8
#     4   9  20  40  62  81 108 149 191 229 279 336
#     4   9  17  30  50  79 113 144 175 215 266 329
#     4   9  19  38  61  84 112 146 185 231 283 341
#     4  10  20  37  57  81 111 148 190 228 276 335
#     4   8  14  28  51  77 105 137 175 217 259 315
#     4  11  20  34  58  82 115 151 181 227 289 336
#     4  11  22  38  57  83 113 144 191 244 278 322
#     4  10  23  39  54  79 116 150 186 236 281 328
#
# _framework density 18.447209000000001
#
# number of rings (size 3 to 8) (size 9 to 14) (size 15 to 20)
#    0.000    2.375    1.250    2.625    0.000    2.000 
#    0.000   11.250    0.000    3.000    0.000    0.000 
#    0.000    0.000    0.000    0.000    0.000    0.000 
#
# Total GULP energy -178344.938490 kJ/mol
# GULP energy per Si atom -5573.279328 kJ/mol
# Density = 1.840522 g / cm^3
# Si number density = 18.447209 Si / 1000 Ang^3
#
#
#
# Elastic Constant Matrix: (Units=GPa)
#
#
# Indices 1 2 3 4 5 6 
#
# 1 70.2699 32.1647 15.0859 -0.0005 0.0001 0.0001
# 2 32.1647 131.8465 26.6968 0.0004 0.0001 0.0000
# 3 15.0859 26.6968 64.1858 -0.0007 -0.0001 0.0001
# 4 -0.0005 0.0004 -0.0007 35.7243 -0.0001 -0.0001
# 5 0.0001 0.0001 -0.0001 -0.0001 14.9281 0.0000
# 6 0.0001 0.0000 0.0001 -0.0001 0.0000 19.9040
#
#
#
# Elastic Compliance Matrix: (Units=1/GPa)
#
#
# Indices 1 2 3 4 5 6 
#
# 1 0.016347 -0.003505 -0.002384 0.000000 0.000000 0.000000
# 2 -0.003505 0.009034 -0.002934 0.000000 0.000000 0.000000
# 3 -0.002384 -0.002934 0.017360 0.000000 0.000000 0.000000
# 4 0.000000 0.000000 0.000000 0.027992 0.000000 0.000000
# 5 0.000000 0.000000 0.000000 0.000000 0.066988 0.000000
# 6 0.000000 0.000000 0.000000 0.000000 0.000000 0.050241
#
#
# Mechanical properties :
#
#
# Convention : Reuss Voigt Hill
#
# Bulk Modulus (GPa) = 39.84827 46.02189 42.93508
# Shear Modulus (GPa) = 23.36743 26.93494 25.15119
#
# Velocity S-wave (km/s) = 3.56296 3.82528 3.69645
# Velocity P-wave (km/s) = 6.21083 6.67176 6.44542
#
# Compressibility (1/GPa) = 0.02509519
#
# Stress axis : x y z
#
# Youngs Moduli (GPa) = 61.17280 110.69673 57.60270
#
# Poissons Ratio (x) = 0.38802 0.13734
# Poissons Ratio (y) = 0.21442 0.16898
# Poissons Ratio (z) = 0.14585 0.32473
#
# Static dielectric constant tensor:
#      x y z
#    x 1.623350 0.000000 0.000000 
#    y 0.000000 1.649380 0.000000 
#    z 0.000000 0.000000 1.635040 
# 
# From -- ./inp_files/7563.got.cif
#   From: 2010.05.17/outbox.cif.g08.bks.cpg/sg44_4_cif.got.tgz:7563.got - 2010.06.03 19:37:08.
