data_PCOD9375078
_publ_section_title
;
Structure prediction by ZEFSAII (Michael W. Deem and Ramdas Pophale) SiO2 
 PCOD9375078
Probable space group: I M M 2
;
_chemical_formula_sum "Si O2"
_cell_formula_units_Z 58
_cell_length_a 12.650039
_cell_length_b 17.295470
_cell_length_c 14.307221
_cell_angle_alpha 90.000000
_cell_angle_beta 90.000000
_cell_angle_gamma 90.000000
_cell_volume 3130.253562
_symmetry_space_group_name_H-M "I M M 2"
_symmetry_group_IT_number 44
_symmetry_cell_setting 'orthorhombic'
loop_
_space_group_symop_operation_xyz
x,y,z
-x,-y,z
-x,y,z
x,-y,z
1/2+x,1/2+y,1/2+z
1/2-x,1/2-y,1/2+z
1/2-x,1/2+y,1/2+z
1/2+x,1/2-y,1/2+z
loop_
_atom_site_type_symbol
_atom_site_label
_atom_site_fract_x
_atom_site_fract_y
_atom_site_fract_z
Si Si1 0.626067 0.646055 0.814700
Si Si2 0.000000 0.000000 0.051181
Si Si3 0.678751 0.381333 0.612390
Si Si4 0.622350 0.409617 0.207813
Si Si5 0.756504 0.305098 0.344799
Si Si6 0.624033 0.768732 0.509535
Si Si7 0.121206 0.409480 0.490807
Si Si8 0.721304 0.411511 0.008150
O O1 0.500000 0.650791 0.812028
O O2 0.663832 0.602089 0.721660
O O3 0.678498 0.730729 0.811779
O O4 0.662825 0.606567 0.910855
O O5 0.906479 0.067091 0.056934
O O6 0.651547 0.292046 0.591174
O O7 0.796416 0.396685 0.575205
O O8 0.500000 0.391488 0.228309
O O9 0.640180 0.500000 0.233495
O O10 0.700207 0.354411 0.264717
O O11 0.644511 0.402486 0.097312
O O12 0.667787 0.272866 0.416142
O O13 0.833818 0.358973 0.405872
O O14 0.500000 0.781316 0.505212
O O15 0.686778 0.848578 0.519709
O O16 0.123742 0.500000 0.466401
O O17 0.000000 0.388164 0.513118
O O18 0.759476 0.500000 0.007946
#
# Coordination Sequence:
#
# PCOD9375078 Si02
#       8
#     8   2   8   8   8   8   8   8
#     4  11  22  37  58  84 115 155 194 246 295 348
#     4  12  20  36  58 100 118 150 192 254 284 364
#     4  11  22  36  60  91 120 153 194 242 300 349
#     4  10  20  37  57  84 115 151 194 248 300 353
#     4  10  21  36  57  84 113 150 195 236 294 357
#     4  10  20  38  57  82 115 149 190 244 299 355
#     4  10  21  38  59  86 120 153 188 236 293 361
#     4  10  23  38  58  83 114 153 201 245 292 352
#
# _framework density 18.528852000000001
#
# number of rings (size 3 to 8) (size 9 to 14) (size 15 to 20)
#    0.000    1.655    2.069    2.483    0.966    1.103 
#    0.000    8.966    0.000    1.655    0.000    0.000 
#    0.000    0.000    0.000    0.000    0.000    0.000 
#
# Total GULP energy -161687.954960 kJ/mol
# GULP energy per Si atom -5575.446723 kJ/mol
# Density = 1.848668 g / cm^3
# Si number density = 18.528852 Si / 1000 Ang^3
#
#
#
# Elastic Constant Matrix: (Units=GPa)
#
#
# Indices 1 2 3 4 5 6 
#
# 1 133.5423 49.5791 27.0755 0.0000 0.0000 0.0000
# 2 49.5791 102.0859 27.8405 0.0000 0.0000 0.0000
# 3 27.0755 27.8405 60.5929 0.0001 0.0000 0.0000
# 4 0.0000 0.0000 0.0001 15.5226 0.0000 0.0000
# 5 0.0000 0.0000 0.0000 0.0000 9.3786 0.0000
# 6 0.0000 0.0000 0.0000 0.0000 0.0000 28.7219
#
#
#
# Elastic Compliance Matrix: (Units=1/GPa)
#
#
# Indices 1 2 3 4 5 6 
#
# 1 0.009434 -0.003924 -0.002413 0.000000 0.000000 0.000000
# 2 -0.003924 0.012831 -0.004142 0.000000 0.000000 0.000000
# 3 -0.002413 -0.004142 0.019485 0.000000 0.000000 0.000000
# 4 0.000000 0.000000 0.000000 0.064422 0.000000 0.000000
# 5 0.000000 0.000000 0.000000 0.000000 0.106625 0.000000
# 6 0.000000 0.000000 0.000000 0.000000 0.000000 0.034817
#
#
# Mechanical properties :
#
#
# Convention : Reuss Voigt Hill
#
# Bulk Modulus (GPa) = 48.09375 56.13459 52.11417
# Shear Modulus (GPa) = 18.14868 23.50637 20.82752
#
# Velocity S-wave (km/s) = 3.13306 3.56566 3.35634
# Velocity P-wave (km/s) = 6.25305 6.87847 6.57320
#
# Compressibility (1/GPa) = 0.02079272
#
# Stress axis : x y z
#
# Youngs Moduli (GPa) = 105.99719 77.93668 51.32197
#
# Poissons Ratio (x) = 0.30581 0.12383
# Poissons Ratio (y) = 0.41592 0.21258
# Poissons Ratio (z) = 0.25574 0.32282
#
# Static dielectric constant tensor:
#      x y z
#    x 1.599270 0.000000 0.000000 
#    y 0.000000 1.639460 0.000000 
#    z 0.000000 0.000000 1.658600 
# 
# From -- ./inp_files/17910.got.cif
#   From: 2010.05.17/outbox.cif.g08.bks.cpg/sg44_9_cif.got.tgz:17910.got - 2010.06.03 19:37:08.
