data_PCOD9375992
_publ_section_title
;
Structure prediction by ZEFSAII (Michael W. Deem and Ramdas Pophale) SiO2 
 PCOD9375992
Probable space group: I M M 2
;
_chemical_formula_sum "Si O2"
_cell_formula_units_Z 32
_cell_length_a 9.000000
_cell_length_b 18.000000
_cell_length_c 21.000000
_cell_angle_alpha 90.000000
_cell_angle_beta 90.000000
_cell_angle_gamma 90.000000
_cell_volume 3402.000000
_symmetry_space_group_name_H-M "I M M 2"
_symmetry_group_IT_number 44
_symmetry_cell_setting 'orthorhombic'
loop_
_space_group_symop_operation_xyz
x,y,z
-x,-y,z
-x,y,z
x,-y,z
1/2+x,1/2+y,1/2+z
1/2-x,1/2-y,1/2+z
1/2-x,1/2+y,1/2+z
1/2+x,1/2-y,1/2+z
loop_
_atom_site_type_symbol
_atom_site_label
_atom_site_fract_x
_atom_site_fract_y
_atom_site_fract_z
Si Si1 0.832817 0.873339 0.569570
Si Si2 0.331529 0.194463 0.070332
Si Si3 0.666667 0.912390 0.440523
Si Si4 0.169166 0.412721 0.336618
Si Si5 0.823653 0.186099 0.933730
Si Si6 0.677685 0.314834 0.845733
Si Si7 0.330156 0.124702 0.695621
Si Si8 0.170073 0.803513 0.199277
O O1 0.839339 0.784064 0.575026
O O2 0.732787 0.889090 0.508447
O O3 0.763251 0.902332 0.635403
O O4 0.000000 0.901348 0.559737
O O5 0.500000 0.166145 0.063777
O O6 0.259416 0.168453 0.137305
O O7 0.241174 0.180757 0.005203
O O8 0.500000 0.880925 0.432500
O O9 0.772155 0.887526 0.383307
O O10 0.657038 0.000000 0.440910
O O11 0.156911 0.500000 0.340678
O O12 0.272689 0.384028 0.392416
O O13 0.227296 0.393913 0.265941
O O14 0.000000 0.380475 0.341558
O O15 0.750796 0.251788 0.890816
O O16 0.000000 0.194581 0.936591
O O17 0.500000 0.305054 0.845589
O O18 0.727131 0.316337 0.771631
O O19 0.500000 0.096790 0.691378
O O20 0.334861 0.214089 0.692740
O O21 0.000000 0.831121 0.196065
#
# Coordination Sequence:
#
# PCOD9375992 Si02
#       8
#     8   8   8   8   8   8   8   8
#     4  10  20  33  52  79 111 148 188 229 273 325
#     4  10  20  34  55  83 114 144 183 230 277 329
#     4  11  24  39  55  79 112 150 190 230 277 332
#     4  10  21  38  58  80 111 151 191 230 277 331
#     4  12  23  35  57  84 114 148 186 232 280 328
#     4  11  21  37  60  85 112 144 186 231 277 330
#     4   9  17  32  52  77 112 149 186 225 271 328
#     4   9  18  33  55  82 113 143 178 227 280 331
#
# _framework density 9.4062319999999993
#
# number of rings (size 3 to 8) (size 9 to 14) (size 15 to 20)
#    0.000    1.750    2.500    2.625    0.000    4.250 
#    0.000    1.250    0.000    0.750    0.000    3.500 
#    0.000    0.000    0.000    0.000    0.000    0.000 
#
# Total GULP energy -178434.294957 kJ/mol
# GULP energy per Si atom -5576.071717 kJ/mol
# Density = 0.938482 g / cm^3
# Si number density = 9.406232 Si / 1000 Ang^3
#
#
#
# Elastic Constant Matrix: (Units=GPa)
#
#
# Indices 1 2 3 4 5 6 
#
# 1 101.1659 8.1262 79.9434 0.0000 0.0000 0.0000
# 2 8.1262 9.7357 11.9427 0.0000 0.0000 0.0000
# 3 79.9434 11.9427 181.4193 0.0000 0.0000 0.0000
# 4 0.0000 0.0000 0.0000 2.2940 0.0000 0.0000
# 5 0.0000 0.0000 0.0000 0.0000 39.8869 0.0000
# 6 0.0000 0.0000 0.0000 0.0000 0.0000 14.1454
#
#
#
# Elastic Compliance Matrix: (Units=1/GPa)
#
#
# Indices 1 2 3 4 5 6 
#
# 1 0.015379 -0.004921 -0.006453 0.000000 0.000000 0.000000
# 2 -0.004921 0.113312 -0.005291 0.000000 0.000000 0.000000
# 3 -0.006453 -0.005291 0.008704 0.000000 0.000000 0.000000
# 4 0.000000 0.000000 0.000000 0.435928 0.000000 0.000000
# 5 0.000000 0.000000 0.000000 0.000000 0.025071 0.000000
# 6 0.000000 0.000000 0.000000 0.000000 0.000000 0.070694
#
#
# Mechanical properties :
#
#
# Convention : Reuss Voigt Hill
#
# Bulk Modulus (GPa) = 9.60930 54.70505 32.15718
# Shear Modulus (GPa) = 6.78328 24.08583 15.43456
#
# Velocity S-wave (km/s) = 1.90094 3.58203 2.86745
# Velocity P-wave (km/s) = 3.15232 6.80075 5.30034
#
# Compressibility (1/GPa) = 0.10406584
#
# Stress axis : x y z
#
# Youngs Moduli (GPa) = 65.02218 8.82518 114.89024
#
# Poissons Ratio (x) = 0.04343 0.74139
# Poissons Ratio (y) = 0.31997 0.60786
# Poissons Ratio (z) = 0.41959 0.04669
#
# Static dielectric constant tensor:
#      x y z
#    x 1.686570 0.000000 0.000000 
#    y 0.000000 1.687540 0.000000 
#    z 0.000000 0.000000 1.651070 
# 
# From -- ./inp_files/23281.got.cif
#   From: 2010.05.17/outbox.ucp.g08.bks.cvg/sg44_12_cif.got.tgz:23281.got - 2010.06.11 16:32:36.
