data_PCOD9375099
_publ_section_title
;
Structure prediction by ZEFSAII (Michael W. Deem and Ramdas Pophale) SiO2 
 PCOD9375099
Probable space group: I M M 2
;
_chemical_formula_sum "Si O2"
_cell_formula_units_Z 58
_cell_length_a 15.508343
_cell_length_b 7.843710
_cell_length_c 24.592054
_cell_angle_alpha 90.000000
_cell_angle_beta 90.000000
_cell_angle_gamma 90.000000
_cell_volume 2991.449874
_symmetry_space_group_name_H-M "I M M 2"
_symmetry_group_IT_number 44
_symmetry_cell_setting 'orthorhombic'
loop_
_space_group_symop_operation_xyz
x,y,z
-x,-y,z
-x,y,z
x,-y,z
1/2+x,1/2+y,1/2+z
1/2-x,1/2-y,1/2+z
1/2-x,1/2+y,1/2+z
1/2+x,1/2-y,1/2+z
loop_
_atom_site_type_symbol
_atom_site_label
_atom_site_fract_x
_atom_site_fract_y
_atom_site_fract_z
Si Si1 0.767994 0.700548 0.986360
Si Si2 0.651628 0.790727 0.372082
Si Si3 0.000000 0.000000 0.872899
Si Si4 0.770478 0.699481 0.754994
Si Si5 0.902827 0.801239 0.663325
Si Si6 0.597182 0.205587 0.699373
Si Si7 0.403132 0.801990 0.043196
Si Si8 0.401391 0.791556 0.575444
O O1 0.784447 0.500000 0.987758
O O2 0.791975 0.751492 0.925499
O O3 0.670745 0.726931 0.005636
O O4 0.833643 0.775173 0.031473
O O5 0.574201 0.654543 0.372371
O O6 0.703888 0.759854 0.316483
O O7 0.629836 0.000000 0.373481
O O8 0.783674 0.500000 0.747543
O O9 0.835705 0.782369 0.711806
O O10 0.672613 0.740937 0.739409
O O11 0.877824 0.713532 0.606799
O O12 0.000000 0.743467 0.679089
O O13 0.907044 0.000000 0.649748
O O14 0.500000 0.263901 0.712904
O O15 0.617301 0.262724 0.637402
O O16 0.595752 0.000000 0.698390
O O17 0.500000 0.727736 0.038121
O O18 0.408064 0.000000 0.029803
O O19 0.500000 0.743364 0.561808
O O20 0.399143 0.000000 0.576047
#
# Coordination Sequence:
#
# PCOD9375099 Si02
#       8
#     8   8   2   8   8   8   8   8
#     4  10  20  37  60  84 118 157 200 251 298 357
#     4  10  26  44  63  95 125 161 210 254 304 365
#     4  12  26  44  72  86 126 168 206 252 312 356
#     4  11  23  38  57  83 121 158 198 254 306 358
#     4  10  21  35  57  86 116 154 202 243 298 372
#     4   9  18  34  58  87 115 149 198 247 293 356
#     4  10  21  37  57  85 120 155 196 251 307 359
#     4   8  15  29  53  83 112 147 187 234 297 358
#
# _framework density 19.388591000000002
#
# number of rings (size 3 to 8) (size 9 to 14) (size 15 to 20)
#    0.000    2.207    0.000    3.103    4.828    3.034 
#    0.000    0.690    0.000    4.966    0.000    0.000 
#    0.000    0.000    0.000    0.000    0.000    0.000 
#
# Total GULP energy -161457.620528 kJ/mol
# GULP energy per Si atom -5567.504156 kJ/mol
# Density = 1.934446 g / cm^3
# Si number density = 19.388591 Si / 1000 Ang^3
#
#
#
# Elastic Constant Matrix: (Units=GPa)
#
#
# Indices 1 2 3 4 5 6 
#
# 1 119.5208 18.6830 90.1658 0.0000 0.0000 0.0000
# 2 18.6830 31.2769 24.7938 0.0000 0.0000 0.0000
# 3 90.1658 24.7938 107.8355 0.0000 0.0000 0.0000
# 4 0.0000 0.0000 0.0000 16.6941 0.0000 0.0000
# 5 0.0000 0.0000 0.0000 0.0000 -19.0081 0.0000
# 6 0.0000 0.0000 0.0000 0.0000 0.0000 28.6897
#
#
#
# Elastic Compliance Matrix: (Units=1/GPa)
#
#
# Indices 1 2 3 4 5 6 
#
# 1 0.022745 0.001821 -0.019437 0.000000 0.000000 0.000000
# 2 0.001821 0.039245 -0.010546 0.000000 0.000000 0.000000
# 3 -0.019437 -0.010546 0.027950 0.000000 0.000000 0.000000
# 4 0.000000 0.000000 0.000000 0.059901 0.000000 0.000000
# 5 0.000000 0.000000 0.000000 0.000000 -0.052609 0.000000
# 6 0.000000 0.000000 0.000000 0.000000 0.000000 0.034856
#
#
# Mechanical properties :
#
#
# Convention : Reuss Voigt Hill
#
# Bulk Modulus (GPa) = 29.74725 58.43540 44.09133
# Shear Modulus (GPa) = 25.04796 13.60786 19.32791
#
# Velocity S-wave (km/s) = 3.59819 2.65212 3.16075
# Velocity P-wave (km/s) = 5.71302 6.29149 6.00922
#
# Compressibility (1/GPa) = 0.03361655
#
# Stress axis : x y z
#
# Youngs Moduli (GPa) = 43.96533 25.48121 35.77778
#
# Poissons Ratio (x) = -0.04641 0.69541
# Poissons Ratio (y) = -0.08008 0.37732
# Poissons Ratio (z) = 0.85455 0.26873
#
# Static dielectric constant tensor:
#      x y z
#    x 1.705020 0.000000 0.000000 
#    y 0.000000 1.718520 0.000000 
#    z 0.000000 0.000000 1.664740 
# 
# From -- ./inp_files/25725.got.cif
#   From: 2010.05.17/outbox.cif.g08.bks.cpg/sg44_13_cif.got.tgz:25725.got - 2010.06.03 19:37:08.
