data_PCOD9375083
_publ_section_title
;
Structure prediction by ZEFSAII (Michael W. Deem and Ramdas Pophale) SiO2 
 PCOD9375083
Probable space group: I M M 2
;
_chemical_formula_sum "Si O2"
_cell_formula_units_Z 64
_cell_length_a 8.040791
_cell_length_b 29.981912
_cell_length_c 13.345629
_cell_angle_alpha 90.000000
_cell_angle_beta 90.000000
_cell_angle_gamma 90.000000
_cell_volume 3217.341394
_symmetry_space_group_name_H-M "I M M 2"
_symmetry_group_IT_number 44
_symmetry_cell_setting 'orthorhombic'
loop_
_space_group_symop_operation_xyz
x,y,z
-x,-y,z
-x,y,z
x,-y,z
1/2+x,1/2+y,1/2+z
1/2-x,1/2-y,1/2+z
1/2-x,1/2+y,1/2+z
1/2+x,1/2-y,1/2+z
loop_
_atom_site_type_symbol
_atom_site_label
_atom_site_fract_x
_atom_site_fract_y
_atom_site_fract_z
Si Si1 0.300288 0.122775 0.902420
Si Si2 0.691463 0.884545 0.338919
Si Si3 0.699272 0.449074 0.015260
Si Si4 0.690044 0.709219 0.887765
Si Si5 0.200440 0.948109 0.738039
Si Si6 0.797649 0.351794 0.623417
Si Si7 0.798755 0.707342 0.278102
Si Si8 0.803565 0.750332 0.082477
O O1 0.500000 0.126101 0.906047
O O2 0.259246 0.081116 0.831625
O O3 0.234854 0.166313 0.842391
O O4 0.244778 0.124866 0.018473
O O5 0.500000 0.896657 0.326051
O O6 0.763144 0.919528 0.418278
O O7 0.710481 0.836197 0.390293
O O8 0.760256 0.876420 0.225656
O O9 0.500000 0.450936 0.023082
O O10 0.760514 0.500000 0.002577
O O11 0.757949 0.432676 0.126146
O O12 0.500000 0.698036 0.859973
O O13 0.767921 0.744904 0.812775
O O14 0.693984 0.737681 0.988363
O O15 0.000000 0.946313 0.738874
O O16 0.249807 0.000000 0.747994
O O17 0.735908 0.300575 0.618300
O O18 0.000000 0.350533 0.626482
O O19 0.770211 0.710240 0.160708
O O20 0.000000 0.708988 0.292352
O O21 0.000000 0.749207 0.058397
#
# Coordination Sequence:
#
# PCOD9375083 Si02
#       8
#     8   8   8   8   8   8   8   8
#     4  10  20  37  58  81 111 149 190 227 276 338
#     4  11  23  37  57  87 116 147 193 240 281 332
#     4   9  20  41  65  86 112 147 183 225 287 352
#     4  11  21  37  55  76 111 155 192 229 282 333
#     4   9  20  40  62  86 114 140 176 230 285 338
#     4  10  21  38  56  78 114 156 191 231 281 333
#     4   9  19  34  52  75 109 147 185 230 273 320
#     4  11  21  34  52  79 111 147 193 240 280 327
#
# _framework density 19.892201
#
# number of rings (size 3 to 8) (size 9 to 14) (size 15 to 20)
#    0.000    2.000    2.500    1.875    1.750    2.000 
#    0.000    2.500    0.000    3.750    0.000    0.000 
#    0.000    0.000    0.000    0.000    0.000    0.000 
#
# Total GULP energy -178306.303722 kJ/mol
# GULP energy per Si atom -5572.071991 kJ/mol
# Density = 1.984693 g / cm^3
# Si number density = 19.892201 Si / 1000 Ang^3
#
#
#
# Elastic Constant Matrix: (Units=GPa)
#
#
# Indices 1 2 3 4 5 6 
#
# 1 20.4680 0.1544 14.5537 0.0000 0.0000 0.0000
# 2 0.1544 78.6617 67.9443 0.0001 0.0000 0.0000
# 3 14.5537 67.9443 153.1923 0.0001 0.0001 0.0000
# 4 0.0000 0.0001 0.0001 37.6195 0.0000 0.0000
# 5 0.0000 0.0000 0.0001 0.0000 19.6486 0.0000
# 6 0.0000 0.0000 0.0000 0.0000 0.0000 23.4887
#
#
#
# Elastic Compliance Matrix: (Units=1/GPa)
#
#
# Indices 1 2 3 4 5 6 
#
# 1 0.054742 0.007108 -0.008353 0.000000 0.000000 0.000000
# 2 0.007108 0.021530 -0.010224 0.000000 0.000000 0.000000
# 3 -0.008353 -0.010224 0.011856 0.000000 0.000000 0.000000
# 4 0.000000 0.000000 0.000000 0.026582 0.000000 0.000000
# 5 0.000000 0.000000 0.000000 0.000000 0.050894 0.000000
# 6 0.000000 0.000000 0.000000 0.000000 0.000000 0.042574
#
#
# Mechanical properties :
#
#
# Convention : Reuss Voigt Hill
#
# Bulk Modulus (GPa) = 15.34005 46.40296 30.87151
# Shear Modulus (GPa) = 19.77479 27.46269 23.61874
#
# Velocity S-wave (km/s) = 3.15635 3.71964 3.44951
# Velocity P-wave (km/s) = 4.58386 6.46726 5.60523
#
# Compressibility (1/GPa) = 0.06518885
#
# Stress axis : x y z
#
# Youngs Moduli (GPa) = 18.26736 46.44699 84.34561
#
# Poissons Ratio (x) = -0.33012 0.70454
# Poissons Ratio (y) = -0.12984 0.86237
# Poissons Ratio (z) = 0.15259 0.47489
#
# Static dielectric constant tensor:
#      x y z
#    x 1.705910 0.000000 0.000000 
#    y 0.000000 1.671140 0.000000 
#    z 0.000000 0.000000 1.779210 
# 
# From -- ./inp_files/11494.got.cif
#   From: 2010.05.17/outbox.cif.g08.bks.cpg/sg44_6_cif.got.tgz:11494.got - 2010.06.03 19:37:08.
