data_PCOD9375380
_publ_section_title
;
Structure prediction by ZEFSAII (Michael W. Deem and Ramdas Pophale) SiO2 
 PCOD9375380
Probable space group: I M M 2
;
_chemical_formula_sum "Si O2"
_cell_formula_units_Z 56
_cell_length_a 8.556922
_cell_length_b 25.429505
_cell_length_c 14.552488
_cell_angle_alpha 90.000000
_cell_angle_beta 90.000000
_cell_angle_gamma 90.000000
_cell_volume 3166.596515
_symmetry_space_group_name_H-M "I M M 2"
_symmetry_group_IT_number 44
_symmetry_cell_setting 'orthorhombic'
loop_
_space_group_symop_operation_xyz
x,y,z
-x,-y,z
-x,y,z
x,-y,z
1/2+x,1/2+y,1/2+z
1/2-x,1/2-y,1/2+z
1/2-x,1/2+y,1/2+z
1/2+x,1/2-y,1/2+z
loop_
_atom_site_type_symbol
_atom_site_label
_atom_site_fract_x
_atom_site_fract_y
_atom_site_fract_z
Si Si1 0.812499 0.289538 0.326430
Si Si2 0.686978 0.614196 0.442730
Si Si3 0.680875 0.163700 0.121704
Si Si4 0.314240 0.224507 0.611741
Si Si5 0.183994 0.500000 0.682176
Si Si6 0.810507 0.818406 0.432143
Si Si7 0.182826 0.897623 0.281263
Si Si8 0.312736 0.500000 0.473352
O O1 0.735972 0.340518 0.372414
O O2 0.778942 0.288836 0.217642
O O3 0.762986 0.234869 0.376166
O O4 0.000000 0.293120 0.338120
O O5 0.500000 0.617175 0.456865
O O6 0.774521 0.626827 0.537494
O O7 0.731891 0.553893 0.422160
O O8 0.500000 0.158023 0.147132
O O9 0.719532 0.222411 0.090834
O O10 0.790237 0.148082 0.206127
O O11 0.500000 0.234050 0.604358
O O12 0.261110 0.184191 0.533516
O O13 0.233542 0.551424 0.740061
O O14 0.257026 0.500000 0.579711
O O15 0.000000 0.500000 0.669860
O O16 0.762449 0.870323 0.375394
O O17 0.000000 0.818074 0.436348
O O18 0.000000 0.909846 0.288915
O O19 0.500000 0.500000 0.478656
#
# Coordination Sequence:
#
# PCOD9375380 Si02
#       8
#     8   8   8   8   4   8   8   4
#     4  10  21  37  55  81 115 148 183 231 280 330
#     4  11  22  36  56  81 111 151 190 226 277 336
#     4  12  22  32  52  83 117 148 186 232 274 330
#     4  11  22  37  56  80 114 153 189 226 282 340
#     4  12  24  36  56  87 116 147 188 233 278 332
#     4  10  21  37  57  82 114 147 186 232 280 331
#     4  11  22  39  58  79 114 155 189 228 282 338
#     4  10  22  38  56  79 114 151 186 229 278 334
#
# _framework density 17.684602000000002
#
# number of rings (size 3 to 8) (size 9 to 14) (size 15 to 20)
#    0.000    1.143    4.286    3.214    0.000    2.857 
#    0.000    0.000    0.000    0.857    0.000    3.000 
#    0.000    0.000    0.000    0.000    0.000    0.000 
#
# Total GULP energy -156317.200876 kJ/mol
# GULP energy per Si atom -5582.757174 kJ/mol
# Density = 1.764435 g / cm^3
# Si number density = 17.684602 Si / 1000 Ang^3
#
#
#
# Elastic Constant Matrix: (Units=GPa)
#
#
# Indices 1 2 3 4 5 6 
#
# 1 14.9474 9.1699 5.1993 0.0000 0.0000 0.0000
# 2 9.1699 71.5408 8.2891 0.0000 0.0000 0.0000
# 3 5.1993 8.2891 59.4480 0.0000 0.0000 0.0000
# 4 0.0000 0.0000 0.0000 27.2356 0.0000 0.0000
# 5 0.0000 0.0000 0.0000 0.0000 26.1288 0.0000
# 6 0.0000 0.0000 0.0000 0.0000 0.0000 24.9964
#
#
#
# Elastic Compliance Matrix: (Units=1/GPa)
#
#
# Indices 1 2 3 4 5 6 
#
# 1 0.074187 -0.008901 -0.005247 0.000000 0.000000 0.000000
# 2 -0.008901 0.015276 -0.001351 0.000000 0.000000 0.000000
# 3 -0.005247 -0.001351 0.017469 0.000000 0.000000 0.000000
# 4 0.000000 0.000000 0.000000 0.036717 0.000000 0.000000
# 5 0.000000 0.000000 0.000000 0.000000 0.038272 0.000000
# 6 0.000000 0.000000 0.000000 0.000000 0.000000 0.040006
#
#
# Mechanical properties :
#
#
# Convention : Reuss Voigt Hill
#
# Bulk Modulus (GPa) = 13.16975 21.25033 17.21004
# Shear Modulus (GPa) = 17.97037 23.89070 20.93053
#
# Velocity S-wave (km/s) = 3.19118 3.67949 3.44400
# Velocity P-wave (km/s) = 4.58709 5.48579 5.05645
#
# Compressibility (1/GPa) = 0.07593160
#
# Stress axis : x y z
#
# Youngs Moduli (GPa) = 13.47946 65.46418 57.24493
#
# Poissons Ratio (x) = 0.58270 0.30038
# Poissons Ratio (y) = 0.11998 0.07736
# Poissons Ratio (z) = 0.07073 0.08847
#
# Static dielectric constant tensor:
#      x y z
#    x 1.601170 0.000000 0.000000 
#    y 0.000000 1.626700 0.000000 
#    z 0.000000 0.000000 1.597850 
# 
# From -- ./inp_files/16593.got.cif
#   From: 2010.05.17/outbox.cif.g08.bks.cpg/sg44_9_cif.got.tgz:16593.got - 2010.06.03 19:37:08.
