data_PCOD9375044
_publ_section_title
;
Structure prediction by ZEFSAII (Michael W. Deem and Ramdas Pophale) SiO2 
 PCOD9375044
Probable space group: I M M 2
;
_chemical_formula_sum "Si O2"
_cell_formula_units_Z 40
_cell_length_a 18.360649
_cell_length_b 12.301549
_cell_length_c 8.314225
_cell_angle_alpha 90.000000
_cell_angle_beta 90.000000
_cell_angle_gamma 90.000000
_cell_volume 1877.887635
_symmetry_space_group_name_H-M "I M M 2"
_symmetry_group_IT_number 44
_symmetry_cell_setting 'orthorhombic'
loop_
_space_group_symop_operation_xyz
x,y,z
-x,-y,z
-x,y,z
x,-y,z
1/2+x,1/2+y,1/2+z
1/2-x,1/2-y,1/2+z
1/2-x,1/2+y,1/2+z
1/2+x,1/2-y,1/2+z
loop_
_atom_site_type_symbol
_atom_site_label
_atom_site_fract_x
_atom_site_fract_y
_atom_site_fract_z
Si Si1 0.280454 0.379330 0.479860
Si Si2 0.318361 0.811351 0.692023
Si Si3 0.412991 0.227096 0.976694
Si Si4 0.919259 0.873499 0.779201
Si Si5 0.087744 0.500000 0.633903
Si Si6 0.410185 0.000000 0.514880
O O1 0.270555 0.500000 0.552388
O O2 0.270613 0.274365 0.591075
O O3 0.235516 0.372820 0.314297
O O4 0.363990 0.364169 0.424388
O O5 0.369145 0.895342 0.592469
O O6 0.372037 0.747172 0.812861
O O7 0.500000 0.225074 0.951196
O O8 0.397238 0.307978 0.121836
O O9 0.388848 0.107941 0.040211
O O10 0.000000 0.834494 0.825267
O O11 0.922082 0.000000 0.736263
O O12 0.000000 0.500000 0.627655
O O13 0.104965 0.500000 0.823058
O O14 0.500000 0.000000 0.540063
#
# Coordination Sequence:
#
# PCOD9375044 Si02
#       6
#     8   8   8   8   4   4
#     4  11  25  44  63  93 134 178 232 276 342 411
#     4  12  24  43  64  95 135 184 222 287 341 409
#     4  10  20  36  61  92 126 163 213 271 332 394
#     4   9  19  38  63  87 119 163 214 270 323 390
#     4   9  19  35  59  93 129 165 206 267 338 399
#     4  11  23  41  71 107 138 175 230 289 351 409
#
# _framework density 21.300529000000001
#
# number of rings (size 3 to 8) (size 9 to 14) (size 15 to 20)
#    0.000    1.600    1.000    3.600    0.000    4.800 
#    1.800    0.000    0.000    0.000    0.000    0.000 
#    0.000    0.000    0.000    0.000    0.000    0.000 
#
# Total GULP energy -111700.922498 kJ/mol
# GULP energy per Si atom -5585.046125 kJ/mol
# Density = 2.125205 g / cm^3
# Si number density = 21.300529 Si / 1000 Ang^3
#
#
#
# Elastic Constant Matrix: (Units=GPa)
#
#
# Indices 1 2 3 4 5 6 
#
# 1 77.3888 19.4474 21.2464 0.0000 0.0000 0.0000
# 2 19.4474 71.2793 24.0331 0.0000 0.0000 0.0000
# 3 21.2464 24.0331 55.2945 0.0000 0.0000 0.0000
# 4 0.0000 0.0000 0.0000 9.0551 0.0000 0.0000
# 5 0.0000 0.0000 0.0000 0.0000 34.2703 0.0000
# 6 0.0000 0.0000 0.0000 0.0000 0.0000 27.2305
#
#
#
# Elastic Compliance Matrix: (Units=1/GPa)
#
#
# Indices 1 2 3 4 5 6 
#
# 1 0.014813 -0.002487 -0.004611 0.000000 0.000000 0.000000
# 2 -0.002487 0.016856 -0.006371 0.000000 0.000000 0.000000
# 3 -0.004611 -0.006371 0.022626 0.000000 0.000000 0.000000
# 4 0.000000 0.000000 0.000000 0.110435 0.000000 0.000000
# 5 0.000000 0.000000 0.000000 0.000000 0.029180 0.000000
# 6 0.000000 0.000000 0.000000 0.000000 0.000000 0.036724
#
#
# Mechanical properties :
#
#
# Convention : Reuss Voigt Hill
#
# Bulk Modulus (GPa) = 36.55300 37.04628 36.79964
# Shear Modulus (GPa) = 18.74854 23.39355 21.07105
#
# Velocity S-wave (km/s) = 2.97002 3.31760 3.14861
# Velocity P-wave (km/s) = 5.38138 5.66615 5.52560
#
# Compressibility (1/GPa) = 0.02735754
#
# Stress axis : x y z
#
# Youngs Moduli (GPa) = 67.51048 59.32692 44.19789
#
# Poissons Ratio (x) = 0.14753 0.20378
# Poissons Ratio (y) = 0.16788 0.28157
# Poissons Ratio (z) = 0.31127 0.37795
#
# Static dielectric constant tensor:
#      x y z
#    x 1.846590 0.000000 0.000000 
#    y 0.000000 1.848920 0.000000 
#    z 0.000000 0.000000 1.728280 
# 
# From -- ./inp_files/8785.got.cif
#   From: 2010.05.17/outbox.cif.g08.bks.cpg/sg44_5_cif.got.tgz:8785.got - 2010.06.03 19:37:08.
