data_PCOD9375955
_publ_section_title
;
Structure prediction by ZEFSAII (Michael W. Deem and Ramdas Pophale) SiO2 
 PCOD9375955
Probable space group: I M M 2
;
_chemical_formula_sum "Si O2"
_cell_formula_units_Z 24
_cell_length_a 9.000000
_cell_length_b 18.000000
_cell_length_c 18.000000
_cell_angle_alpha 90.000000
_cell_angle_beta 90.000000
_cell_angle_gamma 90.000000
_cell_volume 2916.000000
_symmetry_space_group_name_H-M "I M M 2"
_symmetry_group_IT_number 44
_symmetry_cell_setting 'orthorhombic'
loop_
_space_group_symop_operation_xyz
x,y,z
-x,-y,z
-x,y,z
x,-y,z
1/2+x,1/2+y,1/2+z
1/2-x,1/2-y,1/2+z
1/2-x,1/2+y,1/2+z
1/2+x,1/2-y,1/2+z
loop_
_atom_site_type_symbol
_atom_site_label
_atom_site_fract_x
_atom_site_fract_y
_atom_site_fract_z
Si Si1 0.677261 0.190254 0.438620
Si Si2 0.823994 0.196846 0.060898
Si Si3 0.323927 0.587279 0.834926
Si Si4 0.323140 0.806008 0.822694
Si Si5 0.824918 0.913287 0.925204
Si Si6 0.176824 0.699161 0.717834
O O1 0.500000 0.190635 0.424903
O O2 0.700855 0.223822 0.520246
O O3 0.748997 0.113542 0.412221
O O4 0.757869 0.248697 0.383938
O O5 0.727358 0.187574 0.133729
O O6 0.000000 0.190873 0.078677
O O7 0.789294 0.134350 0.998895
O O8 0.500000 0.604197 0.835863
O O9 0.304586 0.500000 0.823158
O O10 0.246093 0.634445 0.769653
O O11 0.500000 0.801683 0.818066
O O12 0.268661 0.884004 0.855401
O O13 0.247821 0.776127 0.747853
O O14 0.000000 0.899323 0.909977
O O15 0.803005 0.000000 0.938531
O O16 0.000000 0.700231 0.726035
#
# Coordination Sequence:
#
# PCOD9375955 Si02
#       6
#     8   8   8   8   8   8
#     4   9  17  31  51  71  93 124 162 200 237 282
#     4   9  18  32  49  72 100 129 160 195 240 289
#     4  10  20  33  50  72  99 130 161 196 240 288
#     4  10  18  30  49  70  95 126 162 202 238 280
#     4   9  18  33  52  73  99 130 161 195 238 288
#     4  11  21  32  49  72  98 129 164 202 241 282
#
# _framework density 8.2304530000000007
#
# number of rings (size 3 to 8) (size 9 to 14) (size 15 to 20)
#    0.000    2.333    0.000    7.000    0.000    5.667 
#    0.000    1.667    0.000    1.000    0.000    4.667 
#    0.000    0.000    0.000    0.000    0.000    0.000 
#
# Total GULP energy -133708.697052 kJ/mol
# GULP energy per Si atom -5571.195711 kJ/mol
# Density = 0.821172 g / cm^3
# Si number density = 8.230453 Si / 1000 Ang^3
#
#
#
# Elastic Constant Matrix: (Units=GPa)
#
#
# Indices 1 2 3 4 5 6 
#
# 1 124.3510 62.0234 53.2433 0.0000 0.0000 0.0000
# 2 62.0234 61.6331 74.4397 0.0000 0.0000 0.0000
# 3 53.2433 74.4397 36.8634 0.0000 0.0000 0.0000
# 4 0.0000 0.0000 0.0000 16.0764 0.0000 0.0000
# 5 0.0000 0.0000 0.0000 0.0000 29.1257 0.0000
# 6 0.0000 0.0000 0.0000 0.0000 0.0000 25.2896
#
#
#
# Elastic Compliance Matrix: (Units=1/GPa)
#
#
# Indices 1 2 3 4 5 6 
#
# 1 0.014127 -0.007247 -0.005771 0.000000 0.000000 0.000000
# 2 -0.007247 -0.007558 0.025730 0.000000 0.000000 0.000000
# 3 -0.005771 0.025730 -0.016495 0.000000 0.000000 0.000000
# 4 0.000000 0.000000 0.000000 0.062203 0.000000 0.000000
# 5 0.000000 0.000000 0.000000 0.000000 0.034334 0.000000
# 6 0.000000 0.000000 0.000000 0.000000 0.000000 0.039542
#
#
# Mechanical properties :
#
#
# Convention : Reuss Voigt Hill
#
# Bulk Modulus (GPa) = 64.52345 66.91782 65.72064
# Shear Modulus (GPa) = 47.21704 16.30775 31.76240
#
# Velocity S-wave (km/s) = 5.36159 3.15095 4.39745
# Velocity P-wave (km/s) = 8.80976 7.34703 8.11143
#
# Compressibility (1/GPa) = 0.01549824
#
# Stress axis : x y z
#
# Youngs Moduli (GPa) = 70.78589 -132.30240 -60.62440
#
# Poissons Ratio (x) = -0.95876 -0.34985
# Poissons Ratio (y) = 0.51297 1.55985
# Poissons Ratio (z) = 0.40849 3.40411
#
# Static dielectric constant tensor:
#      x y z
#    x 1.548580 0.000000 0.000000 
#    y 0.000000 1.591230 0.000000 
#    z 0.000000 0.000000 1.559110 
# 
# From -- ./inp_files/20459.got.cif
#   From: 2010.05.17/outbox.ucp.g08.bks.cvg/sg44_11_cif.got.tgz:20459.got - 2010.06.11 16:32:36.
