data_PCOD9375182
_publ_section_title
;
Structure prediction by ZEFSAII (Michael W. Deem and Ramdas Pophale) SiO2 
 PCOD9375182
Probable space group: I M M 2
;
_chemical_formula_sum "Si O2"
_cell_formula_units_Z 48
_cell_length_a 27.807989
_cell_length_b 8.147095
_cell_length_c 11.369566
_cell_angle_alpha 90.000000
_cell_angle_beta 90.000000
_cell_angle_gamma 90.000000
_cell_volume 2575.824386
_symmetry_space_group_name_H-M "I M M 2"
_symmetry_group_IT_number 44
_symmetry_cell_setting 'orthorhombic'
loop_
_space_group_symop_operation_xyz
x,y,z
-x,-y,z
-x,y,z
x,-y,z
1/2+x,1/2+y,1/2+z
1/2-x,1/2-y,1/2+z
1/2-x,1/2+y,1/2+z
1/2+x,1/2-y,1/2+z
loop_
_atom_site_type_symbol
_atom_site_label
_atom_site_fract_x
_atom_site_fract_y
_atom_site_fract_z
Si Si1 0.233294 0.311803 0.149990
Si Si2 0.942806 0.810635 0.912509
Si Si3 0.214855 0.695410 0.413828
Si Si4 0.607559 0.317317 0.891636
Si Si5 0.129639 0.185806 0.123634
Si Si6 0.558149 0.000000 0.257915
Si Si7 0.557484 0.000000 0.993871
O O1 0.249787 0.500000 0.148003
O O2 0.238919 0.251568 0.287163
O O3 0.175992 0.300467 0.126992
O O4 0.257413 0.226013 0.036518
O O5 0.928466 0.668504 0.822216
O O6 0.000000 0.794452 0.937471
O O7 0.935165 0.000000 0.872761
O O8 0.910155 0.781554 0.026231
O O9 0.206521 0.500000 0.401211
O O10 0.163549 0.785315 0.421290
O O11 0.593178 0.500000 0.932336
O O12 0.605380 0.311895 0.750632
O O13 0.576728 0.166753 0.937588
O O14 0.148493 0.000000 0.104003
O O15 0.500000 0.000000 0.254111
O O16 0.576544 0.000000 0.126654
O O17 0.500000 0.000000 0.991844
#
# Coordination Sequence:
#
# PCOD9375182 Si02
#       7
#     8   8   8   8   8   4   4
#     4  10  21  35  57  85 115 154 197 244 296 357
#     4   9  18  34  56  81 111 147 188 239 297 353
#     4  10  20  39  61  84 120 157 198 246 301 356
#     4  10  21  39  62  85 118 159 191 240 304 352
#     4   9  19  35  57  84 114 147 188 241 302 355
#     4   9  20  37  55  77 111 152 193 237 287 338
#     4  11  24  41  59  87 119 156 209 247 286 354
#
# _framework density 18.634810999999999
#
# number of rings (size 3 to 8) (size 9 to 14) (size 15 to 20)
#    0.000    2.333    0.833    1.000    2.333    3.667 
#    3.000    4.167    0.000    0.000    0.000    0.000 
#    0.000    0.000    0.000    0.000    0.000    0.000 
#
# Total GULP energy -133707.194770 kJ/mol
# GULP energy per Si atom -5571.133115 kJ/mol
# Density = 1.859240 g / cm^3
# Si number density = 18.634811 Si / 1000 Ang^3
#
#
#
# Elastic Constant Matrix: (Units=GPa)
#
#
# Indices 1 2 3 4 5 6 
#
# 1 35.5262 35.2516 41.4525 0.0000 0.0000 0.0000
# 2 35.2516 106.5718 53.4209 0.0000 0.0000 0.0000
# 3 41.4525 53.4209 88.3569 0.0000 0.0000 0.0000
# 4 0.0000 0.0000 0.0000 -131.3709 0.0000 0.0000
# 5 0.0000 0.0000 0.0000 0.0000 27.0948 0.0000
# 6 0.0000 0.0000 0.0000 0.0000 0.0000 16.5627
#
#
#
# Elastic Compliance Matrix: (Units=1/GPa)
#
#
# Indices 1 2 3 4 5 6 
#
# 1 0.068115 -0.009344 -0.026306 0.000000 0.000000 0.000000
# 2 -0.009344 0.014746 -0.004531 0.000000 0.000000 0.000000
# 3 -0.026306 -0.004531 0.026399 0.000000 0.000000 0.000000
# 4 0.000000 0.000000 0.000000 -0.007612 0.000000 0.000000
# 5 0.000000 0.000000 0.000000 0.000000 0.036908 0.000000
# 6 0.000000 0.000000 0.000000 0.000000 0.000000 0.060377
#
#
# Mechanical properties :
#
#
# Convention : Reuss Voigt Hill
#
# Bulk Modulus (GPa) = 34.60763 54.52277 44.56520
# Shear Modulus (GPa) = 17.30537 -10.85402 3.22567
#
# Velocity S-wave (km/s) = 3.05070 -2.41604 1.31710
# Velocity P-wave (km/s) = 5.56963 4.64102 5.12640
#
# Compressibility (1/GPa) = 0.02889536
#
# Stress axis : x y z
#
# Youngs Moduli (GPa) = 14.68106 67.81628 37.88030
#
# Poissons Ratio (x) = 0.63371 0.99649
# Poissons Ratio (y) = 0.13719 0.17165
# Poissons Ratio (z) = 0.38620 0.30730
#
# Static dielectric constant tensor:
#      x y z
#    x 1.612480 0.000000 0.000000 
#    y 0.000000 1.762010 0.000000 
#    z 0.000000 0.000000 1.650770 
# 
# From -- ./inp_files/9977.got.cif
#   From: 2010.05.17/outbox.cif.g08.bks.cpg/sg44_5_cif.got.tgz:9977.got - 2010.06.03 19:37:08.
