data_PCOD9375026
_publ_section_title
;
Structure prediction by ZEFSAII (Michael W. Deem and Ramdas Pophale) SiO2 
 PCOD9375026
Probable space group: I M M 2
;
_chemical_formula_sum "Si O2"
_cell_formula_units_Z 58
_cell_length_a 15.712074
_cell_length_b 10.511426
_cell_length_c 17.696858
_cell_angle_alpha 90.000000
_cell_angle_beta 90.000000
_cell_angle_gamma 90.000000
_cell_volume 2922.747645
_symmetry_space_group_name_H-M "I M M 2"
_symmetry_group_IT_number 44
_symmetry_cell_setting 'orthorhombic'
loop_
_space_group_symop_operation_xyz
x,y,z
-x,-y,z
-x,y,z
x,-y,z
1/2+x,1/2+y,1/2+z
1/2-x,1/2-y,1/2+z
1/2-x,1/2+y,1/2+z
1/2+x,1/2-y,1/2+z
loop_
_atom_site_type_symbol
_atom_site_label
_atom_site_fract_x
_atom_site_fract_y
_atom_site_fract_z
Si Si1 0.500000 0.500000 0.247680
Si Si2 0.840611 0.858072 0.971322
Si Si3 0.900484 0.856899 0.137750
Si Si4 0.357037 0.853384 0.927286
Si Si5 0.656168 0.704358 0.232128
Si Si6 0.401207 0.860639 0.366442
Si Si7 0.150024 0.353767 0.257979
Si Si8 0.401207 0.149029 0.090751
O O1 0.576343 0.610559 0.245396
O O2 0.846772 0.841512 0.061069
O O3 0.874718 0.000000 0.953209
O O4 0.744066 0.852737 0.942348
O O5 0.889311 0.747361 0.928797
O O6 0.883461 0.745899 0.196952
O O7 0.000000 0.853127 0.115523
O O8 0.883043 0.000000 0.167869
O O9 0.372519 0.805415 0.842738
O O10 0.386351 0.000000 0.924987
O O11 0.395646 0.800156 0.004683
O O12 0.648088 0.818687 0.291984
O O13 0.747591 0.643351 0.248390
O O14 0.650046 0.764156 0.148718
O O15 0.500000 0.865950 0.346278
O O16 0.374013 0.000000 0.393699
O O17 0.119415 0.500000 0.248674
O O18 0.500000 0.150593 0.114425
O O19 0.372595 0.000000 0.091536
#
# Coordination Sequence:
#
# PCOD9375026 Si02
#       8
#     2   8   8   8   8   8   8   8
#     4  12  24  36  62  92 126 172 208 252 300 380
#     4  10  20  38  63  85 115 158 203 250 303 366
#     4  10  23  43  65  92 123 163 214 260 313 373
#     4   9  19  36  59  88 117 150 200 252 302 367
#     4  12  22  38  60  88 126 163 205 250 306 372
#     4  11  23  35  54  87 125 157 194 244 302 364
#     4  11  23  39  64  93 123 160 208 259 310 369
#     4  10  20  36  60  87 115 152 199 254 310 364
#
# _framework density 19.844339999999999
#
# number of rings (size 3 to 8) (size 9 to 14) (size 15 to 20)
#    0.000    1.517    3.448    1.655    0.966    5.517 
#    0.000    1.379    1.517    0.000    0.000    0.000 
#    0.000    0.000    0.000    0.000    0.000    0.000 
#
# Total GULP energy -161591.310987 kJ/mol
# GULP energy per Si atom -5572.114172 kJ/mol
# Density = 1.979917 g / cm^3
# Si number density = 19.844340 Si / 1000 Ang^3
#
#
#
# Elastic Constant Matrix: (Units=GPa)
#
#
# Indices 1 2 3 4 5 6 
#
# 1 23.0743 5.2547 -8.6211 0.0000 0.0000 0.0000
# 2 5.2547 106.9243 55.8578 0.0000 0.0000 0.0000
# 3 -8.6211 55.8578 113.8996 0.0000 0.0000 0.0000
# 4 0.0000 0.0000 0.0000 13.3540 0.0000 0.0000
# 5 0.0000 0.0000 0.0000 0.0000 22.8446 0.0000
# 6 0.0000 0.0000 0.0000 0.0000 0.0000 24.8903
#
#
#
# Elastic Compliance Matrix: (Units=1/GPa)
#
#
# Indices 1 2 3 4 5 6 
#
# 1 0.046968 -0.005600 0.006301 0.000000 0.000000 0.000000
# 2 -0.005600 0.013241 -0.006918 0.000000 0.000000 0.000000
# 3 0.006301 -0.006918 0.012649 0.000000 0.000000 0.000000
# 4 0.000000 0.000000 0.000000 0.074884 0.000000 0.000000
# 5 0.000000 0.000000 0.000000 0.000000 0.043774 0.000000
# 6 0.000000 0.000000 0.000000 0.000000 0.000000 0.040176
#
#
# Mechanical properties :
#
#
# Convention : Reuss Voigt Hill
#
# Bulk Modulus (GPa) = 16.54923 38.76454 27.65689
# Shear Modulus (GPa) = 18.92026 24.97825 21.94926
#
# Velocity S-wave (km/s) = 3.09112 3.55168 3.32937
# Velocity P-wave (km/s) = 4.59322 6.03290 5.36160
#
# Compressibility (1/GPa) = 0.06042576
#
# Stress axis : x y z
#
# Youngs Moduli (GPa) = 21.29115 75.52058 79.05697
#
# Poissons Ratio (x) = 0.42292 -0.49817
# Poissons Ratio (y) = 0.11923 0.54689
# Poissons Ratio (z) = -0.13416 0.52242
#
# Static dielectric constant tensor:
#      x y z
#    x 1.718480 0.000000 0.000000 
#    y 0.000000 1.708230 0.000000 
#    z 0.000000 0.000000 1.709120 
# 
# From -- ./inp_files/20588.got.cif
#   From: 2010.05.17/outbox.cif.g08.bks.cpg/sg44_11_cif.got.tgz:20588.got - 2010.06.03 19:37:08.
