data_PCOD9375064
_publ_section_title
;
Structure prediction by ZEFSAII (Michael W. Deem and Ramdas Pophale) SiO2 
 PCOD9375064
Probable space group: I M M 2
;
_chemical_formula_sum "Si O2"
_cell_formula_units_Z 64
_cell_length_a 19.829153
_cell_length_b 27.448538
_cell_length_c 5.675084
_cell_angle_alpha 90.000000
_cell_angle_beta 90.000000
_cell_angle_gamma 90.000000
_cell_volume 3088.841868
_symmetry_space_group_name_H-M "I M M 2"
_symmetry_group_IT_number 44
_symmetry_cell_setting 'orthorhombic'
loop_
_space_group_symop_operation_xyz
x,y,z
-x,-y,z
-x,y,z
x,-y,z
1/2+x,1/2+y,1/2+z
1/2-x,1/2-y,1/2+z
1/2-x,1/2+y,1/2+z
1/2+x,1/2-y,1/2+z
loop_
_atom_site_type_symbol
_atom_site_label
_atom_site_fract_x
_atom_site_fract_y
_atom_site_fract_z
Si Si1 0.866343 0.244739 0.629400
Si Si2 0.232991 0.552857 0.288114
Si Si3 0.700070 0.376327 0.611144
Si Si4 0.075614 0.855301 0.769436
Si Si5 0.732055 0.204885 0.429991
Si Si6 0.630261 0.444258 0.997759
Si Si7 0.078470 0.650345 0.576046
Si Si8 0.645089 0.124868 0.585695
O O1 0.908355 0.194940 0.630885
O O2 0.796672 0.236338 0.492177
O O3 0.832416 0.261396 0.876737
O O4 0.907277 0.291719 0.550207
O O5 0.213678 0.500000 0.377405
O O6 0.241361 0.592974 0.486929
O O7 0.181945 0.572986 0.094243
O O8 0.307507 0.550689 0.177876
O O9 0.639159 0.358298 0.445541
O O10 0.737808 0.331399 0.732169
O O11 0.662891 0.415247 0.780526
O O12 0.080169 0.904742 0.614184
O O13 0.000000 0.852256 0.872234
O O14 0.704153 0.165711 0.616047
O O15 0.606295 0.500000 0.947470
O O16 0.100663 0.628206 0.322938
O O17 0.000000 0.641067 0.607885
O O18 0.113058 0.634570 0.826923
#
# Coordination Sequence:
#
# PCOD9375064 Si02
#       8
#     8   8   8   8   8   8   8   8
#     4  11  21  37  60  92 124 164 209 271 329 394
#     4  10  20  36  63  98 127 154 204 274 343 401
#     4  11  20  39  60  93 126 166 210 275 344 394
#     4  11  24  40  56  83 125 171 220 266 315 389
#     4  11  20  37  62  97 125 162 209 273 349 401
#     4  10  21  39  62  86 118 159 207 270 330 386
#     4  11  25  43  64  90 131 181 226 261 313 396
#     4  11  22  41  66  97 130 172 213 271 333 396
#
# _framework density 20.719739000000001
#
# number of rings (size 3 to 8) (size 9 to 14) (size 15 to 20)
#    0.000    1.250    2.500    4.875    0.000    2.250 
#    0.000    2.500    0.000    2.250    0.000    0.000 
#    0.000    0.000    0.000    0.000    0.000    0.000 
#
# Total GULP energy -178325.149993 kJ/mol
# GULP energy per Si atom -5572.660937 kJ/mol
# Density = 2.067258 g / cm^3
# Si number density = 20.719739 Si / 1000 Ang^3
#
#
#
# Elastic Constant Matrix: (Units=GPa)
#
#
# Indices 1 2 3 4 5 6 
#
# 1 97.1198 24.8781 21.4930 0.0000 0.0000 0.0000
# 2 24.8781 89.5334 7.8887 0.0000 0.0000 0.0000
# 3 21.4930 7.8887 55.9227 0.0000 0.0000 0.0000
# 4 0.0000 0.0000 0.0000 19.6201 0.0000 0.0000
# 5 0.0000 0.0000 0.0000 0.0000 25.7924 0.0000
# 6 0.0000 0.0000 0.0000 0.0000 0.0000 -1.0146
#
#
#
# Elastic Compliance Matrix: (Units=1/GPa)
#
#
# Indices 1 2 3 4 5 6 
#
# 1 0.011982 -0.002960 -0.004187 0.000000 0.000000 0.000000
# 2 -0.002960 0.012041 -0.000561 0.000000 0.000000 0.000000
# 3 -0.004187 -0.000561 0.019570 0.000000 0.000000 0.000000
# 4 0.000000 0.000000 0.000000 0.050968 0.000000 0.000000
# 5 0.000000 0.000000 0.000000 0.000000 0.038771 0.000000
# 6 0.000000 0.000000 0.000000 0.000000 0.000000 -0.985642
#
#
# Mechanical properties :
#
#
# Convention : Reuss Voigt Hill
#
# Bulk Modulus (GPa) = 35.49128 39.01061 37.25095
# Shear Modulus (GPa) = -6.04229 21.43399 7.69585
#
# Velocity S-wave (km/s) = -1.70954 3.21981 1.92933
# Velocity P-wave (km/s) = 3.64276 5.71765 4.79381
#
# Compressibility (1/GPa) = 0.02817593
#
# Stress axis : x y z
#
# Youngs Moduli (GPa) = 83.46175 83.04963 51.09796
#
# Poissons Ratio (x) = 0.24585 0.21396
# Poissons Ratio (y) = 0.24707 0.02866
# Poissons Ratio (z) = 0.34948 0.04658
#
# Static dielectric constant tensor:
#      x y z
#    x 1.716940 0.000000 0.000000 
#    y 0.000000 1.777730 0.000000 
#    z 0.000000 0.000000 1.876070 
# 
# From -- ./inp_files/2540.got.cif
#   From: 2010.05.17/outbox.cif.g08.bks.cpg/sg44_2_cif.got.tgz:2540.got - 2010.06.03 19:37:08.
