data_PCOD9375949
_publ_section_title
;
Structure prediction by ZEFSAII (Michael W. Deem and Ramdas Pophale) SiO2 
 PCOD9375949
Probable space group: I M M 2
;
_chemical_formula_sum "Si O2"
_cell_formula_units_Z 32
_cell_length_a 18.000000
_cell_length_b 9.000000
_cell_length_c 27.000000
_cell_angle_alpha 90.000000
_cell_angle_beta 90.000000
_cell_angle_gamma 90.000000
_cell_volume 4374.000000
_symmetry_space_group_name_H-M "I M M 2"
_symmetry_group_IT_number 44
_symmetry_cell_setting 'orthorhombic'
loop_
_space_group_symop_operation_xyz
x,y,z
-x,-y,z
-x,y,z
x,-y,z
1/2+x,1/2+y,1/2+z
1/2-x,1/2-y,1/2+z
1/2-x,1/2+y,1/2+z
1/2+x,1/2-y,1/2+z
loop_
_atom_site_type_symbol
_atom_site_label
_atom_site_fract_x
_atom_site_fract_y
_atom_site_fract_z
Si Si1 0.582868 0.322168 0.753450
Si Si2 0.084250 0.323530 0.543799
Si Si3 0.302875 0.829010 0.690486
Si Si4 0.088100 0.330345 0.719061
Si Si5 0.315991 0.322666 0.846954
Si Si6 0.415845 0.177018 0.926451
Si Si7 0.669778 0.677632 0.128611
Si Si8 0.694287 0.328902 0.287065
O O1 0.500000 0.262208 0.754824
O O2 0.580907 0.500000 0.753203
O O3 0.627449 0.267012 0.705949
O O4 0.627117 0.278321 0.802864
O O5 0.091103 0.500000 0.553001
O O6 0.091579 0.299407 0.485214
O O7 0.142908 0.236322 0.576270
O O8 0.000000 0.279730 0.558205
O O9 0.252784 0.776788 0.644845
O O10 0.247859 0.824060 0.738325
O O11 0.324490 0.000000 0.683255
O O12 0.115378 0.500000 0.715908
O O13 0.116010 0.244391 0.670564
O O14 0.122093 0.255387 0.767789
O O15 0.000000 0.329259 0.720323
O O16 0.309567 0.500000 0.847795
O O17 0.353238 0.261815 0.896371
O O18 0.238335 0.250193 0.831099
O O19 0.500000 0.224186 0.912022
O O20 0.410399 0.000000 0.917420
O O21 0.666703 0.500000 0.131279
O O22 0.679759 0.500000 0.298489
#
# Coordination Sequence:
#
# PCOD9375949 Si02
#       8
#     8   8   8   8   8   8   8   8
#     4   9  17  27  39  58  82 106 134 167 200 236
#     4   9  18  31  44  59  81 109 141 176 212 248
#     4   8  16  28  39  55  78 104 134 166 200 239
#     4  10  19  29  42  61  85 112 141 172 207 248
#     4  10  18  28  43  61  83 111 141 172 208 248
#     4   9  18  31  44  59  82 111 142 176 211 246
#     4  10  19  29  42  60  82 109 142 176 208 246
#     4   9  17  29  43  59  81 108 139 173 206 243
#
# _framework density 7.3159580000000002
#
# number of rings (size 3 to 8) (size 9 to 14) (size 15 to 20)
#    0.000    2.750    0.000    3.750    0.000    8.250 
#    0.000    1.250    0.000    0.000    0.000    0.000 
#    0.000    1.000    0.000    7.000    0.000    5.500 
#
# Total GULP energy -178203.392472 kJ/mol
# GULP energy per Si atom -5568.856015 kJ/mol
# Density = 0.729931 g / cm^3
# Si number density = 7.315958 Si / 1000 Ang^3
#
#
#
# Elastic Constant Matrix: (Units=GPa)
#
#
# Indices 1 2 3 4 5 6 
#
# 1 25.7664 15.7927 9.5577 0.0000 0.0000 0.0000
# 2 15.7927 28.4415 20.2478 0.0000 0.0000 0.0000
# 3 9.5577 20.2478 27.4265 0.0000 0.0000 0.0000
# 4 0.0000 0.0000 0.0000 22.5925 0.0000 0.0000
# 5 0.0000 0.0000 0.0000 0.0000 24.7256 0.0000
# 6 0.0000 0.0000 0.0000 0.0000 0.0000 17.8862
#
#
#
# Elastic Compliance Matrix: (Units=1/GPa)
#
#
# Indices 1 2 3 4 5 6 
#
# 1 0.059598 -0.038588 0.007719 0.000000 0.000000 0.000000
# 2 -0.038588 0.099095 -0.059710 0.000000 0.000000 0.000000
# 3 0.007719 -0.059710 0.077853 0.000000 0.000000 0.000000
# 4 0.000000 0.000000 0.000000 0.044262 0.000000 0.000000
# 5 0.000000 0.000000 0.000000 0.000000 0.040444 0.000000
# 6 0.000000 0.000000 0.000000 0.000000 0.000000 0.055909
#
#
# Mechanical properties :
#
#
# Convention : Reuss Voigt Hill
#
# Bulk Modulus (GPa) = 18.05478 19.20343 18.62911
# Shear Modulus (GPa) = 8.66877 15.44327 12.05602
#
# Velocity S-wave (km/s) = 2.43668 3.25230 2.87357
# Velocity P-wave (km/s) = 4.50363 5.22073 4.87538
#
# Compressibility (1/GPa) = 0.05538699
#
# Stress axis : x y z
#
# Youngs Moduli (GPa) = 16.77895 10.09132 12.84479
#
# Poissons Ratio (x) = 0.38941 -0.09915
# Poissons Ratio (y) = 0.64747 0.76696
# Poissons Ratio (z) = -0.12952 0.60255
#
# Static dielectric constant tensor:
#      x y z
#    x 1.493590 0.000000 0.000000 
#    y 0.000000 1.494590 0.000000 
#    z 0.000000 0.000000 1.470090 
# 
# From -- ./inp_files/25216.got.cif
#   From: 2010.05.17/outbox.ucp.g08.bks.cvg/sg44_13_cif.got.tgz:25216.got - 2010.06.11 16:32:36.
