data_PCOD9375003
_publ_section_title
;
Structure prediction by ZEFSAII (Michael W. Deem and Ramdas Pophale) SiO2 
 PCOD9375003
Probable space group: I M M 2
;
_chemical_formula_sum "Si O2"
_cell_formula_units_Z 58
_cell_length_a 16.090558
_cell_length_b 7.411732
_cell_length_c 19.555467
_cell_angle_alpha 90.000000
_cell_angle_beta 90.000000
_cell_angle_gamma 90.000000
_cell_volume 2332.163554
_symmetry_space_group_name_H-M "I M M 2"
_symmetry_group_IT_number 44
_symmetry_cell_setting 'orthorhombic'
loop_
_space_group_symop_operation_xyz
x,y,z
-x,-y,z
-x,y,z
x,-y,z
1/2+x,1/2+y,1/2+z
1/2-x,1/2-y,1/2+z
1/2-x,1/2+y,1/2+z
1/2+x,1/2-y,1/2+z
loop_
_atom_site_type_symbol
_atom_site_label
_atom_site_fract_x
_atom_site_fract_y
_atom_site_fract_z
Si Si1 0.780302 0.285126 0.477920
Si Si2 0.875661 0.718095 0.201339
Si Si3 0.909817 0.700823 0.998648
Si Si4 0.500000 0.500000 0.639351
Si Si5 0.093770 0.281108 0.361076
Si Si6 0.188370 0.216141 0.718174
Si Si7 0.090971 0.785290 0.842612
Si Si8 0.590588 0.787200 0.086390
O O1 0.784852 0.500000 0.471073
O O2 0.685877 0.259008 0.504715
O O3 0.827448 0.220389 0.407754
O O4 0.839586 0.211804 0.537095
O O5 0.887182 0.500000 0.193460
O O6 0.898185 0.764670 0.280585
O O7 0.779174 0.767028 0.194009
O O8 0.928215 0.840269 0.150581
O O9 0.914223 0.500000 0.027360
O O10 0.911792 0.696702 0.915943
O O11 0.000000 0.795507 0.016244
O O12 0.094284 0.500000 0.363293
O O13 0.000000 0.225266 0.384580
O O14 0.161718 0.282839 0.792631
O O15 0.119813 0.268245 0.663636
O O16 0.188693 0.000000 0.723870
O O17 0.000000 0.763562 0.809630
O O18 0.102798 0.000000 0.855660
O O19 0.500000 0.709272 0.075397
O O20 0.586493 0.000000 0.070796
#
# Coordination Sequence:
#
# PCOD9375003 Si02
#       8
#     8   8   8   2   8   8   8   8
#     4  10  20  36  59  83 109 150 198 236 282 346
#     4  10  21  37  58  87 120 160 198 244 302 361
#     4  10  21  36  54  80 115 147 180 233 294 343
#     4  12  22  36  60  86 122 160 194 248 304 360
#     4   9  16  32  56  80 115 153 187 231 285 349
#     4  10  21  37  59  82 114 153 195 239 289 348
#     4   9  17  32  55  83 111 148 190 227 276 348
#     4  10  22  39  60  87 118 150 189 238 288 345
#
# _framework density 24.869609000000001
#
# number of rings (size 3 to 8) (size 9 to 14) (size 15 to 20)
#    0.000    2.207    0.690    2.276    0.966    6.621 
#    3.724    1.379    1.517    0.828    0.000    0.000 
#    0.000    0.000    0.000    0.000    0.000    0.000 
#
# Total GULP energy -161641.640125 kJ/mol
# GULP energy per Si atom -5573.849659 kJ/mol
# Density = 2.481300 g / cm^3
# Si number density = 24.869609 Si / 1000 Ang^3
#
#
#
# Elastic Constant Matrix: (Units=GPa)
#
#
# Indices 1 2 3 4 5 6 
#
# 1 201.6785 15.9180 42.3878 0.0000 0.0000 0.0000
# 2 15.9180 70.9480 -20.1118 0.0000 0.0000 0.0000
# 3 42.3878 -20.1118 71.4509 0.0000 0.0000 0.0000
# 4 0.0000 0.0000 0.0000 33.5049 0.0000 0.0000
# 5 0.0000 0.0000 0.0000 0.0000 17.2325 0.0000
# 6 0.0000 0.0000 0.0000 0.0000 0.0000 120.5216
#
#
#
# Elastic Compliance Matrix: (Units=1/GPa)
#
#
# Indices 1 2 3 4 5 6 
#
# 1 0.006073 -0.002591 -0.004332 0.000000 0.000000 0.000000
# 2 -0.002591 0.016422 0.006159 0.000000 0.000000 0.000000
# 3 -0.004332 0.006159 0.018299 0.000000 0.000000 0.000000
# 4 0.000000 0.000000 0.000000 0.029846 0.000000 0.000000
# 5 0.000000 0.000000 0.000000 0.000000 0.058030 0.000000
# 6 0.000000 0.000000 0.000000 0.000000 0.000000 0.008297
#
#
# Mechanical properties :
#
#
# Convention : Reuss Voigt Hill
#
# Bulk Modulus (GPa) = 25.46619 46.71838 36.09229
# Shear Modulus (GPa) = 32.98485 54.64403 43.81444
#
# Velocity S-wave (km/s) = 3.64581 4.69254 4.20189
# Velocity P-wave (km/s) = 5.29005 6.94161 6.17133
#
# Compressibility (1/GPa) = 0.03926775
#
# Stress axis : x y z
#
# Youngs Moduli (GPa) = 164.65270 60.89361 54.64659
#
# Poissons Ratio (x) = 0.15776 0.23674
# Poissons Ratio (y) = 0.42657 -0.33659
# Poissons Ratio (z) = 0.71331 -0.37507
#
# Static dielectric constant tensor:
#      x y z
#    x 2.016400 0.000000 0.000000 
#    y 0.000000 2.022520 0.000000 
#    z 0.000000 0.000000 1.981420 
# 
# From -- ./inp_files/25703.got.cif
#   From: 2010.05.17/outbox.cif.g08.bks.cpg/sg44_13_cif.got.tgz:25703.got - 2010.06.03 19:37:08.
