data_PCOD9375102
_publ_section_title
;
Structure prediction by ZEFSAII (Michael W. Deem and Ramdas Pophale) SiO2 
 PCOD9375102
Probable space group: I M M 2
;
_chemical_formula_sum "Si O2"
_cell_formula_units_Z 64
_cell_length_a 18.001761
_cell_length_b 13.529621
_cell_length_c 13.965115
_cell_angle_alpha 90.000000
_cell_angle_beta 90.000000
_cell_angle_gamma 90.000000
_cell_volume 3401.301565
_symmetry_space_group_name_H-M "I M M 2"
_symmetry_group_IT_number 44
_symmetry_cell_setting 'orthorhombic'
loop_
_space_group_symop_operation_xyz
x,y,z
-x,-y,z
-x,y,z
x,-y,z
1/2+x,1/2+y,1/2+z
1/2-x,1/2-y,1/2+z
1/2-x,1/2+y,1/2+z
1/2+x,1/2-y,1/2+z
loop_
_atom_site_type_symbol
_atom_site_label
_atom_site_fract_x
_atom_site_fract_y
_atom_site_fract_z
Si Si1 0.782289 0.616571 0.021460
Si Si2 0.087460 0.235267 0.037289
Si Si3 0.910969 0.115052 0.229381
Si Si4 0.587426 0.314247 0.326142
Si Si5 0.228407 0.888857 0.736149
Si Si6 0.088640 0.616174 0.511508
Si Si7 0.910225 0.391180 0.733258
Si Si8 0.816527 0.758257 0.375582
O O1 0.786900 0.500000 0.000700
O O2 0.862389 0.667592 0.033248
O O3 0.741721 0.629433 0.124110
O O4 0.737531 0.676253 0.941125
O O5 0.106446 0.170431 0.129830
O O6 0.000000 0.260148 0.040050
O O7 0.099815 0.174316 0.939357
O O8 0.869223 0.170388 0.314301
O O9 0.000000 0.120995 0.242757
O O10 0.890156 0.000000 0.224376
O O11 0.500000 0.328757 0.305617
O O12 0.642103 0.380124 0.264184
O O13 0.608131 0.200711 0.299759
O O14 0.271230 0.810270 0.801649
O O15 0.255396 0.000000 0.756980
O O16 0.099848 0.500000 0.488681
O O17 0.111205 0.629232 0.623084
O O18 0.134859 0.687050 0.443405
O O19 0.000000 0.635759 0.504273
O O20 0.881814 0.500000 0.761922
O O21 0.000000 0.396838 0.733168
#
# Coordination Sequence:
#
# PCOD9375102 Si02
#       8
#     8   8   8   8   8   8   8   8
#     4  11  24  42  61  90 128 160 199 253 303 356
#     4  10  21  40  63  89 121 161 202 248 302 355
#     4  10  22  41  65  93 121 153 202 256 302 359
#     4  10  20  37  60  86 115 155 204 246 298 361
#     4  11  24  40  58  84 122 160 199 252 303 356
#     4   9  18  33  56  88 121 155 201 252 301 358
#     4   8  15  30  53  82 115 145 180 236 292 340
#     4  12  21  39  64  85 118 164 200 245 306 366
#
# _framework density 18.816327000000001
#
# number of rings (size 3 to 8) (size 9 to 14) (size 15 to 20)
#    0.000    1.875    2.500    2.625    0.000    1.500 
#    0.000    3.125    0.000    1.500    0.000    0.000 
#    0.000    0.000    0.000    0.000    0.000    0.000 
#
# Total GULP energy -178690.884417 kJ/mol
# GULP energy per Si atom -5584.090138 kJ/mol
# Density = 1.877350 g / cm^3
# Si number density = 18.816327 Si / 1000 Ang^3
#
#
#
# Elastic Constant Matrix: (Units=GPa)
#
#
# Indices 1 2 3 4 5 6 
#
# 1 45.7560 32.2135 31.8271 0.0000 0.0000 0.0000
# 2 32.2135 102.2786 55.8149 0.0000 0.0000 0.0000
# 3 31.8271 55.8149 98.9296 0.0000 0.0000 0.0000
# 4 0.0000 0.0000 0.0000 16.2240 0.0000 0.0000
# 5 0.0000 0.0000 0.0000 0.0000 26.3805 0.0000
# 6 0.0000 0.0000 0.0000 0.0000 0.0000 30.0045
#
#
#
# Elastic Compliance Matrix: (Units=1/GPa)
#
#
# Indices 1 2 3 4 5 6 
#
# 1 0.030632 -0.006169 -0.006374 0.000000 0.000000 0.000000
# 2 -0.006169 0.015369 -0.006686 0.000000 0.000000 0.000000
# 3 -0.006374 -0.006686 0.015931 0.000000 0.000000 0.000000
# 4 0.000000 0.000000 0.000000 0.061637 0.000000 0.000000
# 5 0.000000 0.000000 0.000000 0.000000 0.037907 0.000000
# 6 0.000000 0.000000 0.000000 0.000000 0.000000 0.033328
#
#
# Mechanical properties :
#
#
# Convention : Reuss Voigt Hill
#
# Bulk Modulus (GPa) = 42.60237 54.07502 48.33869
# Shear Modulus (GPa) = 20.73926 22.99572 21.86749
#
# Velocity S-wave (km/s) = 3.32353 3.49967 3.41274
# Velocity P-wave (km/s) = 6.11704 6.71796 6.42453
#
# Compressibility (1/GPa) = 0.02347287
#
# Stress axis : x y z
#
# Youngs Moduli (GPa) = 32.64533 65.06554 62.76997
#
# Poissons Ratio (x) = 0.40142 0.40011
# Poissons Ratio (y) = 0.20140 0.41970
# Poissons Ratio (z) = 0.20809 0.43505
#
# Static dielectric constant tensor:
#      x y z
#    x 1.642500 0.000000 0.000000 
#    y 0.000000 1.641840 0.000000 
#    z 0.000000 0.000000 1.638870 
# 
# From -- ./inp_files/13433.got.cif
#   From: 2010.05.17/outbox.cif.g08.bks.cpg/sg44_7_cif.got.tgz:13433.got - 2010.06.03 19:37:08.
