data_PCOD9375317
_publ_section_title
;
Structure prediction by ZEFSAII (Michael W. Deem and Ramdas Pophale) SiO2 
 PCOD9375317
Probable space group: I M M 2
;
_chemical_formula_sum "Si O2"
_cell_formula_units_Z 58
_cell_length_a 15.707616
_cell_length_b 7.369460
_cell_length_c 24.657144
_cell_angle_alpha 90.000000
_cell_angle_beta 90.000000
_cell_angle_gamma 90.000000
_cell_volume 2854.228334
_symmetry_space_group_name_H-M "I M M 2"
_symmetry_group_IT_number 44
_symmetry_cell_setting 'orthorhombic'
loop_
_space_group_symop_operation_xyz
x,y,z
-x,-y,z
-x,y,z
x,-y,z
1/2+x,1/2+y,1/2+z
1/2-x,1/2-y,1/2+z
1/2-x,1/2+y,1/2+z
1/2+x,1/2-y,1/2+z
loop_
_atom_site_type_symbol
_atom_site_label
_atom_site_fract_x
_atom_site_fract_y
_atom_site_fract_z
Si Si1 0.403196 0.281479 0.941580
Si Si2 0.766681 0.214500 0.354823
Si Si3 0.404774 0.785358 0.066998
Si Si4 0.402923 0.720950 0.539136
Si Si5 0.095400 0.782815 0.916155
Si Si6 0.340836 0.721074 0.739992
Si Si7 0.738086 0.720513 0.624864
Si Si8 0.500000 0.000000 0.738571
O O1 0.500000 0.217720 0.930306
O O2 0.404931 0.500000 0.938620
O O3 0.333968 0.211219 0.899013
O O4 0.381454 0.235006 0.003576
O O5 0.670830 0.242070 0.375021
O O6 0.789325 0.273056 0.294334
O O7 0.780537 0.000000 0.354681
O O8 0.500000 0.709420 0.074260
O O9 0.329546 0.712866 0.104371
O O10 0.410159 0.000000 0.077509
O O11 0.500000 0.775252 0.552189
O O12 0.401723 0.500000 0.539395
O O13 0.383478 0.780111 0.477500
O O14 0.334911 0.782904 0.583050
O O15 0.000000 0.717352 0.902133
O O16 0.090638 0.000000 0.919295
O O17 0.356800 0.500000 0.740310
O O18 0.287439 0.763834 0.685907
O O19 0.425711 0.839839 0.738834
O O20 0.739337 0.500000 0.621269
#
# Coordination Sequence:
#
# PCOD9375317 Si02
#       8
#     8   8   8   8   8   8   8   2
#     4   9  18  32  50  76 111 149 183 224 288 352
#     4  10  21  36  55  79 112 151 193 235 286 349
#     4   9  17  31  52  82 111 142 188 239 283 341
#     4   8  14  25  47  78 104 139 188 229 284 353
#     4   9  18  33  55  82 112 145 187 240 290 342
#     4  10  24  43  62  87 119 157 196 241 294 347
#     4   9  17  32  55  78 110 151 188 232 288 340
#     4  12  26  44  64  90 118 152 202 244 288 348
#
# _framework density 20.320729
#
# number of rings (size 3 to 8) (size 9 to 14) (size 15 to 20)
#    0.000    2.759    0.000    1.862    2.897    1.931 
#    1.241    0.690    1.517    2.483    0.000    0.000 
#    0.000    0.000    0.000    0.000    0.000    0.000 
#
# Total GULP energy -161572.081434 kJ/mol
# GULP energy per Si atom -5571.451084 kJ/mol
# Density = 2.027448 g / cm^3
# Si number density = 20.320729 Si / 1000 Ang^3
#
#
#
# Elastic Constant Matrix: (Units=GPa)
#
#
# Indices 1 2 3 4 5 6 
#
# 1 180.8794 19.0036 149.0680 0.0000 0.0000 0.0000
# 2 19.0036 83.7670 20.1546 0.0000 0.0000 0.0000
# 3 149.0680 20.1546 164.6305 0.0000 0.0000 0.0000
# 4 0.0000 0.0000 0.0000 57.8719 0.0000 0.0000
# 5 0.0000 0.0000 0.0000 0.0000 -12.0542 0.0000
# 6 0.0000 0.0000 0.0000 0.0000 0.0000 8.4394
#
#
#
# Elastic Compliance Matrix: (Units=1/GPa)
#
#
# Indices 1 2 3 4 5 6 
#
# 1 0.021789 -0.000202 -0.019704 0.000000 0.000000 0.000000
# 2 -0.000202 0.012302 -0.001323 0.000000 0.000000 0.000000
# 3 -0.019704 -0.001323 0.024078 0.000000 0.000000 0.000000
# 4 0.000000 0.000000 0.000000 0.017280 0.000000 0.000000
# 5 0.000000 0.000000 0.000000 0.000000 -0.082958 0.000000
# 6 0.000000 0.000000 0.000000 0.000000 0.000000 0.118491
#
#
# Mechanical properties :
#
#
# Convention : Reuss Voigt Hill
#
# Bulk Modulus (GPa) = 63.65497 89.52548 76.59023
# Shear Modulus (GPa) = 31.51080 26.92147 29.21614
#
# Velocity S-wave (km/s) = 3.94213 3.64377 3.79588
# Velocity P-wave (km/s) = 7.21898 7.86477 7.54878
#
# Compressibility (1/GPa) = 0.01570969
#
# Stress axis : x y z
#
# Youngs Moduli (GPa) = 45.89573 81.28720 41.53226
#
# Poissons Ratio (x) = 0.01643 0.81836
# Poissons Ratio (y) = 0.00928 0.05495
# Poissons Ratio (z) = 0.90433 0.10755
#
# Static dielectric constant tensor:
#      x y z
#    x 1.735130 0.000000 0.000000 
#    y 0.000000 1.783340 0.000000 
#    z 0.000000 0.000000 1.693930 
# 
# From -- ./inp_files/25709.got.cif
#   From: 2010.05.17/outbox.cif.g08.bks.cpg/sg44_13_cif.got.tgz:25709.got - 2010.06.03 19:37:08.
