data_PCOD9375611
_publ_section_title
;
Structure prediction by ZEFSAII (Michael W. Deem and Ramdas Pophale) SiO2 
 PCOD9375611
Probable space group: I M M 2
;
_chemical_formula_sum "Si O2"
_cell_formula_units_Z 34
_cell_length_a 7.465693
_cell_length_b 18.865924
_cell_length_c 9.639549
_cell_angle_alpha 90.000000
_cell_angle_beta 90.000000
_cell_angle_gamma 90.000000
_cell_volume 1357.703455
_symmetry_space_group_name_H-M "I M M 2"
_symmetry_group_IT_number 44
_symmetry_cell_setting 'orthorhombic'
loop_
_space_group_symop_operation_xyz
x,y,z
-x,-y,z
-x,y,z
x,-y,z
1/2+x,1/2+y,1/2+z
1/2-x,1/2-y,1/2+z
1/2-x,1/2+y,1/2+z
1/2+x,1/2-y,1/2+z
loop_
_atom_site_type_symbol
_atom_site_label
_atom_site_fract_x
_atom_site_fract_y
_atom_site_fract_z
Si Si1 0.211113 0.079453 0.096630
Si Si2 0.216178 0.208772 0.287653
Si Si3 0.500000 0.500000 0.868963
Si Si4 0.716512 0.870145 0.790127
Si Si5 0.292936 0.899716 0.490418
O O1 0.282198 0.149134 0.177371
O O2 0.000000 0.071970 0.132187
O O3 0.288344 0.000000 0.120922
O O4 0.222396 0.095946 0.933251
O O5 0.279299 0.289092 0.272896
O O6 0.275563 0.181044 0.438792
O O7 0.000000 0.210676 0.277913
O O8 0.657739 0.440166 0.892395
O O9 0.500000 0.869881 0.793353
O O10 0.766504 0.909710 0.648616
O O11 0.500000 0.920169 0.476464
#
# Coordination Sequence:
#
# PCOD9375611 Si02
#       5
#     8   8   2   8   8
#     4  10  23  39  64  94 129 171 220 274 338 395
#     4  10  21  42  67  96 133 176 223 280 333 396
#     4  12  26  44  68  96 144 172 224 274 344 390
#     4  10  23  41  63  96 135 173 224 278 331 402
#     4  11  25  43  69 101 132 177 228 274 331 406
#
# _framework density 25.042285
#
# number of rings (size 3 to 8) (size 9 to 14) (size 15 to 20)
#    0.000    1.647    1.176    1.765    4.941    4.235 
#    0.000    0.000    0.000    0.000    0.000    0.000 
#    0.000    0.000    0.000    0.000    0.000    0.000 
#
# Total GULP energy -94867.887640 kJ/mol
# GULP energy per Si atom -5580.463979 kJ/mol
# Density = 2.498529 g / cm^3
# Si number density = 25.042285 Si / 1000 Ang^3
#
#
#
# Elastic Constant Matrix: (Units=GPa)
#
#
# Indices 1 2 3 4 5 6 
#
# 1 102.2374 15.5827 5.4967 0.0000 0.0000 0.0000
# 2 15.5827 130.7925 29.4473 -0.0001 0.0000 0.0000
# 3 5.4967 29.4473 146.1079 -0.0001 0.0001 0.0001
# 4 0.0000 -0.0001 -0.0001 49.1660 0.0001 0.0001
# 5 0.0000 0.0000 0.0001 0.0001 30.2222 0.0000
# 6 0.0000 0.0000 0.0001 0.0001 0.0000 45.1909
#
#
#
# Elastic Compliance Matrix: (Units=1/GPa)
#
#
# Indices 1 2 3 4 5 6 
#
# 1 0.009965 -0.001155 -0.000142 0.000000 0.000000 0.000000
# 2 -0.001155 0.008143 -0.001598 0.000000 0.000000 0.000000
# 3 -0.000142 -0.001598 0.007172 0.000000 0.000000 0.000000
# 4 0.000000 0.000000 0.000000 0.020339 0.000000 0.000000
# 5 0.000000 0.000000 0.000000 0.000000 0.033088 0.000000
# 6 0.000000 0.000000 0.000000 0.000000 0.000000 0.022128
#
#
# Mechanical properties :
#
#
# Convention : Reuss Voigt Hill
#
# Bulk Modulus (GPa) = 51.30968 53.35457 52.33213
# Shear Modulus (GPa) = 44.20009 46.82323 45.51166
#
# Velocity S-wave (km/s) = 4.20577 4.32877 4.26771
# Velocity P-wave (km/s) = 6.64217 6.80708 6.72513
#
# Compressibility (1/GPa) = 0.01948950
#
# Stress axis : x y z
#
# Youngs Moduli (GPa) = 100.35250 122.80401 139.43855
#
# Poissons Ratio (x) = 0.14187 0.01981
# Poissons Ratio (y) = 0.11593 0.22279
# Poissons Ratio (z) = 0.01426 0.19621
#
# Static dielectric constant tensor:
#      x y z
#    x 1.941820 0.000000 0.000000 
#    y 0.000000 1.851720 0.000000 
#    z 0.000000 0.000000 2.070960 
# 
# From -- ./inp_files/4288.got.cif
#   From: 2010.05.17/outbox.cif.g08.bks.cpg/sg44_3_cif.got.tgz:4288.got - 2010.06.03 19:37:08.
