data_PCOD9375810
_publ_section_title
;
Structure prediction by ZEFSAII (Michael W. Deem and Ramdas Pophale) SiO2 
 PCOD9375810
Probable space group: I M M 2
;
_chemical_formula_sum "Si O2"
_cell_formula_units_Z 56
_cell_length_a 14.176498
_cell_length_b 8.468664
_cell_length_c 30.413304
_cell_angle_alpha 90.000000
_cell_angle_beta 90.000000
_cell_angle_gamma 90.000000
_cell_volume 3651.299572
_symmetry_space_group_name_H-M "I M M 2"
_symmetry_group_IT_number 44
_symmetry_cell_setting 'orthorhombic'
loop_
_space_group_symop_operation_xyz
x,y,z
-x,-y,z
-x,y,z
x,-y,z
1/2+x,1/2+y,1/2+z
1/2-x,1/2-y,1/2+z
1/2-x,1/2+y,1/2+z
1/2+x,1/2-y,1/2+z
loop_
_atom_site_type_symbol
_atom_site_label
_atom_site_fract_x
_atom_site_fract_y
_atom_site_fract_z
Si Si1 0.609672 0.691553 0.592280
Si Si2 0.614620 0.317239 0.496101
Si Si3 0.891116 0.809027 0.900352
Si Si4 0.892646 0.309100 0.724674
Si Si5 0.393564 0.309035 0.764365
Si Si6 0.210024 0.690286 0.814469
Si Si7 0.289312 0.187544 0.678250
O O1 0.500000 0.738295 0.599559
O O2 0.611014 0.500000 0.591291
O O3 0.640619 0.750834 0.543723
O O4 0.673919 0.750194 0.631737
O O5 0.500000 0.319473 0.495857
O O6 0.646353 0.500000 0.496299
O O7 0.641396 0.248598 0.448588
O O8 0.827210 0.756649 0.860072
O O9 0.000000 0.757821 0.893030
O O10 0.892102 0.000000 0.902522
O O11 0.889213 0.500000 0.722809
O O12 0.857718 0.263140 0.773680
O O13 0.815749 0.243702 0.690860
O O14 0.000000 0.258076 0.717049
O O15 0.500000 0.254353 0.772725
O O16 0.393449 0.500000 0.763937
O O17 0.314983 0.258632 0.799829
O O18 0.356556 0.253870 0.716919
O O19 0.208733 0.500000 0.816908
O O20 0.293268 0.000000 0.678999
#
# Coordination Sequence:
#
# PCOD9375810 Si02
#       7
#     8   8   8   8   8   8   8
#     4   9  16  28  46  63  82 113 149 179 207 246
#     4   7  12  24  41  60  81 108 143 176 203 239
#     4   9  16  26  41  62  88 115 140 167 204 251
#     4   9  18  33  49  62  81 113 151 182 203 237
#     4   9  18  33  48  59  78 113 153 184 207 242
#     4   9  17  28  43  64  85 106 137 175 212 247
#     4  11  21  29  41  65  93 114 135 171 219 262
#
# _framework density 15.337006000000001
#
# number of rings (size 3 to 8) (size 9 to 14) (size 15 to 20)
#    0.000    3.000    0.000    4.714    0.000    5.714 
#    0.000    0.714    0.000    2.571    0.000    1.000 
#    0.000    5.714    0.000    0.000    0.000    0.000 
#
# Total GULP energy -155907.743104 kJ/mol
# GULP energy per Si atom -5568.133682 kJ/mol
# Density = 1.530210 g / cm^3
# Si number density = 15.337006 Si / 1000 Ang^3
#
#
#
# Elastic Constant Matrix: (Units=GPa)
#
#
# Indices 1 2 3 4 5 6 
#
# 1 110.3262 18.9117 77.3892 0.0000 0.0000 0.0000
# 2 18.9117 7.0485 18.0192 0.0000 0.0000 0.0000
# 3 77.3892 18.0192 162.3942 0.0000 0.0000 0.0000
# 4 0.0000 0.0000 0.0000 20.1602 0.0000 0.0000
# 5 0.0000 0.0000 0.0000 0.0000 23.8561 0.0000
# 6 0.0000 0.0000 0.0000 0.0000 0.0000 9.8947
#
#
#
# Elastic Compliance Matrix: (Units=1/GPa)
#
#
# Indices 1 2 3 4 5 6 
#
# 1 0.019108 -0.039073 -0.004770 0.000000 0.000000 0.000000
# 2 -0.039073 0.277956 -0.012221 0.000000 0.000000 0.000000
# 3 -0.004770 -0.012221 0.009787 0.000000 0.000000 0.000000
# 4 0.000000 0.000000 0.000000 0.049603 0.000000 0.000000
# 5 0.000000 0.000000 0.000000 0.000000 0.041918 0.000000
# 6 0.000000 0.000000 0.000000 0.000000 0.000000 0.101064
#
#
# Mechanical properties :
#
#
# Convention : Reuss Voigt Hill
#
# Bulk Modulus (GPa) = 5.13556 56.48990 30.81273
# Shear Modulus (GPa) = 7.39128 21.81212 14.60170
#
# Velocity S-wave (km/s) = 2.19766 3.77528 3.08889
# Velocity P-wave (km/s) = 3.12975 7.47770 5.73199
#
# Compressibility (1/GPa) = 0.19472081
#
# Stress axis : x y z
#
# Youngs Moduli (GPa) = 52.33383 3.59770 102.17336
#
# Poissons Ratio (x) = 0.14057 0.48741
# Poissons Ratio (y) = 2.04486 1.24869
# Poissons Ratio (z) = 0.24966 0.04397
#
# Static dielectric constant tensor:
#      x y z
#    x 1.499380 0.000000 0.000000 
#    y 0.000000 1.531920 0.000000 
#    z 0.000000 0.000000 1.522110 
# 
# From -- ./inp_files/27203.got.cif
#   From: 2010.05.17/outbox.cif.g08.bks.cpg/sg44_14_cif.got.tgz:27203.got - 2010.06.03 19:37:08.
