data_PCOD9375907
_publ_section_title
;
Structure prediction by ZEFSAII (Michael W. Deem and Ramdas Pophale) SiO2 
 PCOD9375907
Probable space group: I M M 2
;
_chemical_formula_sum "Si O2"
_cell_formula_units_Z 48
_cell_length_a 14.400451
_cell_length_b 7.384282
_cell_length_c 24.720439
_cell_angle_alpha 90.000000
_cell_angle_beta 90.000000
_cell_angle_gamma 90.000000
_cell_volume 2628.697102
_symmetry_space_group_name_H-M "I M M 2"
_symmetry_group_IT_number 44
_symmetry_cell_setting 'orthorhombic'
loop_
_space_group_symop_operation_xyz
x,y,z
-x,-y,z
-x,y,z
x,-y,z
1/2+x,1/2+y,1/2+z
1/2-x,1/2-y,1/2+z
1/2-x,1/2+y,1/2+z
1/2+x,1/2-y,1/2+z
loop_
_atom_site_type_symbol
_atom_site_label
_atom_site_fract_x
_atom_site_fract_y
_atom_site_fract_z
Si Si1 0.395187 0.221100 0.586350
Si Si2 0.104708 0.216453 0.299282
Si Si3 0.895259 0.779184 0.633774
Si Si4 0.213991 0.715165 0.191655
Si Si5 0.892677 0.220660 0.420534
Si Si6 0.213291 0.779619 0.525768
O O1 0.500000 0.282188 0.576515
O O2 0.357262 0.280433 0.645263
O O3 0.316674 0.276900 0.543311
O O4 0.396678 0.000000 0.586221
O O5 0.175312 0.254010 0.251165
O O6 0.130983 0.280577 0.359526
O O7 0.000000 0.283316 0.286488
O O8 0.098664 0.000000 0.303019
O O9 0.817094 0.718446 0.676637
O O10 0.855676 0.728069 0.574727
O O11 0.000000 0.716045 0.642742
O O12 0.897867 0.000000 0.634691
O O13 0.217820 0.500000 0.184225
O O14 0.825666 0.282987 0.468361
O O15 0.000000 0.271339 0.431190
O O16 0.890247 0.000000 0.421039
O O17 0.213755 0.000000 0.524885
#
# Coordination Sequence:
#
# PCOD9375907 Si02
#       6
#     8   8   8   8   8   8
#     4   8  13  20  31  51  77  98 117 147 186 223
#     4   9  17  27  38  54  77 103 128 155 187 221
#     4   8  13  21  35  57  80  97 119 155 193 226
#     4   9  16  25  39  58  78 101 126 153 187 223
#     4   8  13  21  33  49  69  93 121 152 184 217
#     4   8  12  18  31  51  73  96 119 147 187 226
#
# _framework density 18.259995
#
# number of rings (size 3 to 8) (size 9 to 14) (size 15 to 20)
#    0.000    3.667    0.000    4.000    0.000    3.000 
#    0.000    0.000    0.000    1.500    0.000    7.000 
#    0.000    5.333    0.000    0.000    0.000    0.000 
#
# Total GULP energy -133724.755834 kJ/mol
# GULP energy per Si atom -5571.864826 kJ/mol
# Density = 1.821843 g / cm^3
# Si number density = 18.259995 Si / 1000 Ang^3
#
#
#
# Elastic Constant Matrix: (Units=GPa)
#
#
# Indices 1 2 3 4 5 6 
#
# 1 187.2873 6.4067 121.0651 0.0000 0.0000 0.0000
# 2 6.4067 60.0224 1.7242 0.0000 0.0000 0.0000
# 3 121.0651 1.7242 163.1052 0.0000 0.0000 0.0000
# 4 0.0000 0.0000 0.0000 9.4841 0.0000 0.0000
# 5 0.0000 0.0000 0.0000 0.0000 27.4893 0.0000
# 6 0.0000 0.0000 0.0000 0.0000 0.0000 -2.7395
#
#
#
# Elastic Compliance Matrix: (Units=1/GPa)
#
#
# Indices 1 2 3 4 5 6 
#
# 1 0.010310 -0.000881 -0.007644 0.000000 0.000000 0.000000
# 2 -0.000881 0.016741 0.000477 0.000000 0.000000 0.000000
# 3 -0.007644 0.000477 0.011799 0.000000 0.000000 0.000000
# 4 0.000000 0.000000 0.000000 0.105439 0.000000 0.000000
# 5 0.000000 0.000000 0.000000 0.000000 0.036378 0.000000
# 6 0.000000 0.000000 0.000000 0.000000 0.000000 -0.365032
#
#
# Mechanical properties :
#
#
# Convention : Reuss Voigt Hill
#
# Bulk Modulus (GPa) = 43.94571 74.31187 59.12879
# Shear Modulus (GPa) = -31.11697 25.59471 -2.76113
#
# Velocity S-wave (km/s) = -4.13256 3.74797 -1.23102
# Velocity P-wave (km/s) = 1.16110 7.71457 5.51646
#
# Compressibility (1/GPa) = 0.02275535
#
# Stress axis : x y z
#
# Youngs Moduli (GPa) = 96.98854 59.73442 84.74942
#
# Poissons Ratio (x) = 0.05262 0.64780
# Poissons Ratio (y) = 0.08544 -0.04042
# Poissons Ratio (z) = 0.74135 -0.02849
#
# Static dielectric constant tensor:
#      x y z
#    x 1.624920 0.000000 0.000000 
#    y 0.000000 1.734570 0.000000 
#    z 0.000000 0.000000 1.618050 
# 
# From -- ./inp_files/21293.got.cif
#   From: 2010.05.17/outbox.cif.g08.bks.cpg/sg44_11_cif.got.tgz:21293.got - 2010.06.03 19:37:08.
