data_PCOD9375490
_publ_section_title
;
Structure prediction by ZEFSAII (Michael W. Deem and Ramdas Pophale) SiO2 
 PCOD9375490
Probable space group: I M M 2
;
_chemical_formula_sum "Si O2"
_cell_formula_units_Z 40
_cell_length_a 26.435915
_cell_length_b 8.697260
_cell_length_c 9.152906
_cell_angle_alpha 90.000000
_cell_angle_beta 90.000000
_cell_angle_gamma 90.000000
_cell_volume 2104.436386
_symmetry_space_group_name_H-M "I M M 2"
_symmetry_group_IT_number 44
_symmetry_cell_setting 'orthorhombic'
loop_
_space_group_symop_operation_xyz
x,y,z
-x,-y,z
-x,y,z
x,-y,z
1/2+x,1/2+y,1/2+z
1/2-x,1/2-y,1/2+z
1/2-x,1/2+y,1/2+z
1/2+x,1/2-y,1/2+z
loop_
_atom_site_type_symbol
_atom_site_label
_atom_site_fract_x
_atom_site_fract_y
_atom_site_fract_z
Si Si1 0.300935 0.684366 0.897380
Si Si2 0.702449 0.685641 0.556897
Si Si3 0.101231 0.315501 0.560538
Si Si4 0.500000 0.685704 0.563281
Si Si5 0.399758 0.314251 0.386839
Si Si6 0.000000 0.685529 0.389460
O O1 0.303418 0.500000 0.904407
O O2 0.299632 0.730385 0.727002
O O3 0.349867 0.752790 0.976683
O O4 0.250579 0.741910 0.977644
O O5 0.706813 0.500000 0.550332
O O6 0.650780 0.730028 0.474774
O O7 0.102839 0.500000 0.562150
O O8 0.100584 0.254751 0.725552
O O9 0.050302 0.265730 0.476316
O O10 0.500000 0.500000 0.571325
O O11 0.550248 0.733507 0.475659
O O12 0.500000 0.750247 0.726255
O O13 0.400333 0.500000 0.375759
O O14 0.000000 0.500000 0.383150
#
# Coordination Sequence:
#
# PCOD9375490 Si02
#       6
#     8   8   8   4   8   4
#     4  11  23  39  60  85 114 150 191 237 288 339
#     4  10  22  39  58  84 117 151 190 235 284 342
#     4  11  23  39  59  85 117 152 192 236 283 339
#     4  10  21  38  62  90 118 150 191 238 284 336
#     4  10  21  38  60  87 118 151 190 236 285 338
#     4  10  23  40  58  84 118 154 191 234 284 340
#
# _framework density 19.007465
#
# number of rings (size 3 to 8) (size 9 to 14) (size 15 to 20)
#    0.000    1.600    0.000    4.200    0.000    9.600 
#    0.000    0.000    0.000    0.000    0.000    0.000 
#    0.000    0.000    0.000    0.000    0.000    0.000 
#
# Total GULP energy -111844.017454 kJ/mol
# GULP energy per Si atom -5592.200873 kJ/mol
# Density = 1.896420 g / cm^3
# Si number density = 19.007465 Si / 1000 Ang^3
#
#
#
# Elastic Constant Matrix: (Units=GPa)
#
#
# Indices 1 2 3 4 5 6 
#
# 1 238.2565 53.7877 147.3588 0.0000 0.0000 0.0000
# 2 53.7877 23.8220 54.0989 0.0000 0.0000 0.0000
# 3 147.3588 54.0989 240.3998 0.0000 0.0000 0.0000
# 4 0.0000 0.0000 0.0000 35.9030 0.0000 0.0000
# 5 0.0000 0.0000 0.0000 0.0000 45.4603 0.0000
# 6 0.0000 0.0000 0.0000 0.0000 0.0000 -7.2833
#
#
#
# Elastic Compliance Matrix: (Units=1/GPa)
#
#
# Indices 1 2 3 4 5 6 
#
# 1 0.008976 -0.015896 -0.001925 0.000000 0.000000 0.000000
# 2 -0.015896 0.114004 -0.015911 0.000000 0.000000 0.000000
# 3 -0.001925 -0.015911 0.008920 0.000000 0.000000 0.000000
# 4 0.000000 0.000000 0.000000 0.027853 0.000000 0.000000
# 5 0.000000 0.000000 0.000000 0.000000 0.021997 0.000000
# 6 0.000000 0.000000 0.000000 0.000000 0.000000 -0.137301
#
#
# Mechanical properties :
#
#
# Convention : Reuss Voigt Hill
#
# Bulk Modulus (GPa) = 15.51934 112.55210 64.03572
# Shear Modulus (GPa) = 37.48341 31.29820 34.39080
#
# Velocity S-wave (km/s) = 4.44558 4.06227 4.25824
# Velocity P-wave (km/s) = 5.87652 9.01920 7.61181
#
# Compressibility (1/GPa) = 0.06443571
#
# Stress axis : x y z
#
# Youngs Moduli (GPa) = 111.40275 8.77166 112.10262
#
# Poissons Ratio (x) = 0.13943 0.21581
# Poissons Ratio (y) = 1.77086 1.78369
# Poissons Ratio (z) = 0.21446 0.13957
#
# Static dielectric constant tensor:
#      x y z
#    x 1.631790 0.000000 0.000000 
#    y 0.000000 1.643380 0.000000 
#    z 0.000000 0.000000 1.615220 
# 
# From -- ./inp_files/9604.got.cif
#   From: 2010.05.17/outbox.cif.g08.bks.cpg/sg44_5_cif.got.tgz:9604.got - 2010.06.03 19:37:08.
