data_PCOD9375265
_publ_section_title
;
Structure prediction by ZEFSAII (Michael W. Deem and Ramdas Pophale) SiO2 
 PCOD9375265
Probable space group: I M M 2
;
_chemical_formula_sum "Si O2"
_cell_formula_units_Z 40
_cell_length_a 7.516601
_cell_length_b 9.023890
_cell_length_c 30.143090
_cell_angle_alpha 90.000000
_cell_angle_beta 90.000000
_cell_angle_gamma 90.000000
_cell_volume 2044.575067
_symmetry_space_group_name_H-M "I M M 2"
_symmetry_group_IT_number 44
_symmetry_cell_setting 'orthorhombic'
loop_
_space_group_symop_operation_xyz
x,y,z
-x,-y,z
-x,y,z
x,-y,z
1/2+x,1/2+y,1/2+z
1/2-x,1/2-y,1/2+z
1/2-x,1/2+y,1/2+z
1/2+x,1/2-y,1/2+z
loop_
_atom_site_type_symbol
_atom_site_label
_atom_site_fract_x
_atom_site_fract_y
_atom_site_fract_z
Si Si1 0.500000 0.177233 0.793601
Si Si2 0.213342 0.174766 0.634593
Si Si3 0.787000 0.667106 0.955260
Si Si4 0.500000 0.677111 0.696828
Si Si5 0.787866 0.334202 0.545319
Si Si6 0.210924 0.678438 0.856000
O O1 0.500000 0.249450 0.745123
O O2 0.670864 0.236180 0.820708
O O3 0.500000 0.000000 0.790822
O O4 0.327787 0.265878 0.669813
O O5 0.270443 0.228966 0.585485
O O6 0.000000 0.198235 0.639627
O O7 0.247686 0.000000 0.639404
O O8 0.718735 0.500000 0.963383
O O9 0.729176 0.717599 0.906319
O O10 0.000000 0.657538 0.951973
O O11 0.746690 0.769366 0.996808
O O12 0.500000 0.500000 0.699850
O O13 0.714362 0.500000 0.550109
O O14 0.000000 0.342894 0.549714
O O15 0.234185 0.500000 0.851671
O O16 0.000000 0.709137 0.851195
#
# Coordination Sequence:
#
# PCOD9375265 Si02
#       6
#     4   8   8   4   8   8
#     4  12  26  42  64  94 126 160 204 256 313 374
#     4  10  22  42  66  91 123 162 204 253 308 367
#     4   9  19  35  56  83 115 156 203 249 299 358
#     4  12  26  44  68  94 122 160 206 256 313 370
#     4  10  21  35  53  83 122 161 202 245 296 359
#     4   9  20  41  65  89 121 162 208 257 308 366
#
# _framework density 19.563966000000001
#
# number of rings (size 3 to 8) (size 9 to 14) (size 15 to 20)
#    0.000    2.000    0.000    4.200    2.800    4.800 
#    0.000    2.000    0.000    0.000    0.000    0.000 
#    0.000    0.000    0.000    0.000    0.000    0.000 
#
# Total GULP energy -111715.926699 kJ/mol
# GULP energy per Si atom -5585.796335 kJ/mol
# Density = 1.951944 g / cm^3
# Si number density = 19.563966 Si / 1000 Ang^3
#
#
#
# Elastic Constant Matrix: (Units=GPa)
#
#
# Indices 1 2 3 4 5 6 
#
# 1 81.4285 55.8715 53.4835 0.0000 0.0000 0.0000
# 2 55.8715 132.8315 95.5395 0.0000 0.0000 0.0000
# 3 53.4835 95.5395 171.1069 0.0000 0.0000 0.0000
# 4 0.0000 0.0000 0.0000 36.4898 0.0000 0.0000
# 5 0.0000 0.0000 0.0000 0.0000 32.7267 0.0000
# 6 0.0000 0.0000 0.0000 0.0000 0.0000 29.2267
#
#
#
# Elastic Compliance Matrix: (Units=1/GPa)
#
#
# Indices 1 2 3 4 5 6 
#
# 1 0.017793 -0.005822 -0.002311 0.000000 0.000000 0.000000
# 2 -0.005822 0.014486 -0.006269 0.000000 0.000000 0.000000
# 3 -0.002311 -0.006269 0.010067 0.000000 0.000000 0.000000
# 4 0.000000 0.000000 0.000000 0.027405 0.000000 0.000000
# 5 0.000000 0.000000 0.000000 0.000000 0.030556 0.000000
# 6 0.000000 0.000000 0.000000 0.000000 0.000000 0.034215
#
#
# Mechanical properties :
#
#
# Convention : Reuss Voigt Hill
#
# Bulk Modulus (GPa) = 73.83942 88.35066 81.09504
# Shear Modulus (GPa) = 29.79037 31.72014 30.75525
#
# Velocity S-wave (km/s) = 3.90643 4.03097 3.96919
# Velocity P-wave (km/s) = 7.62702 8.18064 7.90868
#
# Compressibility (1/GPa) = 0.01354290
#
# Stress axis : x y z
#
# Youngs Moduli (GPa) = 56.20087 69.03276 99.33726
#
# Poissons Ratio (x) = 0.40192 0.22956
# Poissons Ratio (y) = 0.32721 0.62270
# Poissons Ratio (z) = 0.12987 0.43273
#
# Static dielectric constant tensor:
#      x y z
#    x 1.703080 0.000000 0.000000 
#    y 0.000000 1.680470 0.000000 
#    z 0.000000 0.000000 1.667060 
# 
# From -- ./inp_files/25961.got.cif
#   From: 2010.05.17/outbox.cif.g08.bks.cpg/sg44_13_cif.got.tgz:25961.got - 2010.06.03 19:37:08.
