data_PCOD9375126
_publ_section_title
;
Structure prediction by ZEFSAII (Michael W. Deem and Ramdas Pophale) SiO2 
 PCOD9375126
Probable space group: I M M 2
;
_chemical_formula_sum "Si O2"
_cell_formula_units_Z 56
_cell_length_a 7.641762
_cell_length_b 19.437679
_cell_length_c 15.967245
_cell_angle_alpha 90.000000
_cell_angle_beta 90.000000
_cell_angle_gamma 90.000000
_cell_volume 2371.744502
_symmetry_space_group_name_H-M "I M M 2"
_symmetry_group_IT_number 44
_symmetry_cell_setting 'orthorhombic'
loop_
_space_group_symop_operation_xyz
x,y,z
-x,-y,z
-x,y,z
x,-y,z
1/2+x,1/2+y,1/2+z
1/2-x,1/2-y,1/2+z
1/2-x,1/2+y,1/2+z
1/2+x,1/2-y,1/2+z
loop_
_atom_site_type_symbol
_atom_site_label
_atom_site_fract_x
_atom_site_fract_y
_atom_site_fract_z
Si Si1 0.206192 0.076599 0.432270
Si Si2 0.800773 0.851226 0.279621
Si Si3 0.705220 0.233090 0.116341
Si Si4 0.208087 0.000000 0.018849
Si Si5 0.289331 0.000000 0.213976
Si Si6 0.697977 0.112560 0.618011
Si Si7 0.715032 0.922566 0.800168
Si Si8 0.299679 0.851332 0.956142
O O1 0.276638 0.138847 0.373569
O O2 0.219865 0.091312 0.530390
O O3 0.000000 0.073881 0.412624
O O4 0.281989 0.000000 0.416128
O O5 0.718726 0.809142 0.203062
O O6 0.789832 0.930719 0.251334
O O7 0.000000 0.825645 0.285363
O O8 0.500000 0.246925 0.102443
O O9 0.799650 0.305281 0.123676
O O10 0.773777 0.191834 0.034287
O O11 0.239742 0.000000 0.117393
O O12 0.294862 0.069675 0.986448
O O13 0.000000 0.000000 0.001601
O O14 0.500000 0.000000 0.223514
O O15 0.500000 0.086270 0.614895
O O16 0.776731 0.086820 0.705218
O O17 0.500000 0.919453 0.800476
O O18 0.777655 0.862227 0.863024
O O19 0.764660 0.000000 0.827229
O O20 0.500000 0.827810 0.945477
#
# Coordination Sequence:
#
# PCOD9375126 Si02
#       8
#     8   8   8   4   4   8   8   8
#     4  10  22  42  66  92 123 162 206 258 321 373
#     4  11  22  39  63  92 125 160 203 258 313 370
#     4  11  24  40  60  90 126 168 207 244 303 378
#     4  12  22  32  54  89 126 157 194 245 304 364
#     4  12  22  34  56  89 126 163 200 245 306 374
#     4  11  24  41  62  89 122 166 214 260 303 358
#     4   9  18  36  64  91 114 147 200 258 309 359
#     4  10  20  37  62  87 117 156 201 247 302 368
#
# _framework density 23.611312000000002
#
# number of rings (size 3 to 8) (size 9 to 14) (size 15 to 20)
#    0.000    1.429    2.857    3.000    0.000    3.714 
#    0.000    4.286    0.000    0.000    0.000    0.000 
#    0.000    0.000    0.000    0.000    0.000    0.000 
#
# Total GULP energy -156341.013969 kJ/mol
# GULP energy per Si atom -5583.607642 kJ/mol
# Density = 2.355757 g / cm^3
# Si number density = 23.611312 Si / 1000 Ang^3
#
#
#
# Elastic Constant Matrix: (Units=GPa)
#
#
# Indices 1 2 3 4 5 6 
#
# 1 76.1082 -6.8272 7.6967 0.0000 0.0000 0.0000
# 2 -6.8272 70.8801 22.4381 0.0000 0.0000 0.0000
# 3 7.6967 22.4381 170.8411 0.0000 0.0000 0.0000
# 4 0.0000 0.0000 0.0000 23.3817 0.0000 0.0000
# 5 0.0000 0.0000 0.0000 0.0000 20.1269 0.0000
# 6 0.0000 0.0000 0.0000 0.0000 0.0000 13.0076
#
#
#
# Elastic Compliance Matrix: (Units=1/GPa)
#
#
# Indices 1 2 3 4 5 6 
#
# 1 0.013359 0.001541 -0.000804 0.000000 0.000000 0.000000
# 2 0.001541 0.014898 -0.002026 0.000000 0.000000 0.000000
# 3 -0.000804 -0.002026 0.006156 0.000000 0.000000 0.000000
# 4 0.000000 0.000000 0.000000 0.042768 0.000000 0.000000
# 5 0.000000 0.000000 0.000000 0.000000 0.049685 0.000000
# 6 0.000000 0.000000 0.000000 0.000000 0.000000 0.076878
#
#
# Mechanical properties :
#
#
# Convention : Reuss Voigt Hill
#
# Bulk Modulus (GPa) = 31.41244 40.49385 35.95314
# Shear Modulus (GPa) = 23.04850 30.93804 26.99327
#
# Velocity S-wave (km/s) = 3.12775 3.62374 3.38484
# Velocity P-wave (km/s) = 5.13582 5.89034 5.52597
#
# Compressibility (1/GPa) = 0.03183453
#
# Stress axis : x y z
#
# Youngs Moduli (GPa) = 74.85711 67.12224 162.45008
#
# Poissons Ratio (x) = -0.10346 0.13065
# Poissons Ratio (y) = -0.11538 0.32915
# Poissons Ratio (z) = 0.06021 0.13600
#
# Static dielectric constant tensor:
#      x y z
#    x 1.889720 0.000000 0.000000 
#    y 0.000000 1.853550 0.000000 
#    z 0.000000 0.000000 2.013120 
# 
# From -- ./inp_files/16523.got.cif
#   From: 2010.05.17/outbox.cif.g08.bks.cpg/sg44_9_cif.got.tgz:16523.got - 2010.06.03 19:37:08.
