data_PCOD9375619
_publ_section_title
;
Structure prediction by ZEFSAII (Michael W. Deem and Ramdas Pophale) SiO2 
 PCOD9375619
Probable space group: I M M 2
;
_chemical_formula_sum "Si O2"
_cell_formula_units_Z 32
_cell_length_a 17.483504
_cell_length_b 13.930294
_cell_length_c 5.302489
_cell_angle_alpha 90.000000
_cell_angle_beta 90.000000
_cell_angle_gamma 90.000000
_cell_volume 1291.423056
_symmetry_space_group_name_H-M "I M M 2"
_symmetry_group_IT_number 44
_symmetry_cell_setting 'orthorhombic'
loop_
_space_group_symop_operation_xyz
x,y,z
-x,-y,z
-x,y,z
x,-y,z
1/2+x,1/2+y,1/2+z
1/2-x,1/2-y,1/2+z
1/2-x,1/2+y,1/2+z
1/2+x,1/2-y,1/2+z
loop_
_atom_site_type_symbol
_atom_site_label
_atom_site_fract_x
_atom_site_fract_y
_atom_site_fract_z
Si Si1 0.583118 0.105181 0.970820
Si Si2 0.263861 0.500000 0.756003
Si Si3 0.796898 0.660936 0.078026
Si Si4 0.368174 0.500000 0.254517
Si Si5 0.873261 0.207447 0.766260
O O1 0.500000 0.109553 0.834816
O O2 0.655645 0.104575 0.786064
O O3 0.582557 0.000000 0.102033
O O4 0.587202 0.202911 0.132624
O O5 0.305978 0.500000 0.486464
O O6 0.215192 0.405300 0.830290
O O7 0.327180 0.500000 0.981328
O O8 0.712122 0.692395 0.152191
O O9 0.850476 0.753485 0.039880
O O10 0.409574 0.602504 0.271325
#
# Coordination Sequence:
#
# PCOD9375619 Si02
#       5
#     8   4   8   4   8
#     4  11  26  46  67 106 155 202 249 311 390 466
#     4  10  22  36  67 104 145 182 234 311 374 425
#     4  11  21  37  68 102 147 187 251 314 376 445
#     4  10  24  40  65 108 143 178 244 315 364 425
#     4  11  23  39  69 101 140 192 251 313 374 442
#
# _framework density 24.778869
#
# number of rings (size 3 to 8) (size 9 to 14) (size 15 to 20)
#    0.000    1.250    3.750    1.500    8.750    1.000 
#    0.000    3.125    0.000    0.000    0.000    0.000 
#    0.000    0.000    0.000    0.000    0.000    0.000 
#
# Total GULP energy -89274.538090 kJ/mol
# GULP energy per Si atom -5579.658631 kJ/mol
# Density = 2.472247 g / cm^3
# Si number density = 24.778869 Si / 1000 Ang^3
#
#
#
# Elastic Constant Matrix: (Units=GPa)
#
#
# Indices 1 2 3 4 5 6 
#
# 1 119.6842 36.1204 28.4202 0.0000 0.0000 0.0000
# 2 36.1204 242.0125 20.8669 0.0000 0.0000 0.0000
# 3 28.4202 20.8669 68.3982 0.0000 0.0000 0.0000
# 4 0.0000 0.0000 0.0000 43.9763 0.0000 0.0000
# 5 0.0000 0.0000 0.0000 0.0000 9.6798 0.0000
# 6 0.0000 0.0000 0.0000 0.0000 0.0000 12.4913
#
#
#
# Elastic Compliance Matrix: (Units=1/GPa)
#
#
# Indices 1 2 3 4 5 6 
#
# 1 0.009553 -0.001113 -0.003630 0.000000 0.000000 0.000000
# 2 -0.001113 0.004373 -0.000872 0.000000 0.000000 0.000000
# 3 -0.003630 -0.000872 0.016395 0.000000 0.000000 0.000000
# 4 0.000000 0.000000 0.000000 0.022740 0.000000 0.000000
# 5 0.000000 0.000000 0.000000 0.000000 0.103308 0.000000
# 6 0.000000 0.000000 0.000000 0.000000 0.000000 0.080056
#
#
# Mechanical properties :
#
#
# Convention : Reuss Voigt Hill
#
# Bulk Modulus (GPa) = 52.37854 66.76778 59.57316
# Shear Modulus (GPa) = 19.68375 36.20865 27.94620
#
# Velocity S-wave (km/s) = 2.82153 3.82681 3.36195
# Velocity P-wave (km/s) = 5.63906 6.82128 6.25815
#
# Compressibility (1/GPa) = 0.01909179
#
# Stress axis : x y z
#
# Youngs Moduli (GPa) = 104.67773 228.66150 60.99603
#
# Poissons Ratio (x) = 0.25446 0.22141
# Poissons Ratio (y) = 0.11649 0.05318
# Poissons Ratio (z) = 0.37997 0.19935
#
# Static dielectric constant tensor:
#      x y z
#    x 1.969840 0.000000 0.000000 
#    y 0.000000 2.074630 0.000000 
#    z 0.000000 0.000000 1.997730 
# 
# From -- ./inp_files/1369.got.cif
#   From: 2010.05.17/outbox.cif.g08.bks.cpg/sg44_1_cif.got.tgz:1369.got - 2010.06.03 19:37:08.
