data_PCOD9375479
_publ_section_title
;
Structure prediction by ZEFSAII (Michael W. Deem and Ramdas Pophale) SiO2 
 PCOD9375479
Probable space group: I M M 2
;
_chemical_formula_sum "Si O2"
_cell_formula_units_Z 64
_cell_length_a 8.279579
_cell_length_b 31.906771
_cell_length_c 12.308971
_cell_angle_alpha 90.000000
_cell_angle_beta 90.000000
_cell_angle_gamma 90.000000
_cell_volume 3251.717874
_symmetry_space_group_name_H-M "I M M 2"
_symmetry_group_IT_number 44
_symmetry_cell_setting 'orthorhombic'
loop_
_space_group_symop_operation_xyz
x,y,z
-x,-y,z
-x,y,z
x,-y,z
1/2+x,1/2+y,1/2+z
1/2-x,1/2-y,1/2+z
1/2-x,1/2+y,1/2+z
1/2+x,1/2-y,1/2+z
loop_
_atom_site_type_symbol
_atom_site_label
_atom_site_fract_x
_atom_site_fract_y
_atom_site_fract_z
Si Si1 0.804672 0.297028 0.307370
Si Si2 0.194057 0.568763 0.078795
Si Si3 0.805264 0.625718 0.454820
Si Si4 0.692915 0.454060 0.840656
Si Si5 0.192915 0.954060 0.816933
Si Si6 0.305264 0.125718 0.202770
Si Si7 0.695328 0.202972 0.350219
Si Si8 0.196548 0.666222 0.078795
O O1 0.748803 0.331851 0.394472
O O2 0.750000 0.250000 0.328795
O O3 0.747931 0.311710 0.188549
O O4 0.000000 0.297866 0.307898
O O5 0.258143 0.549811 0.190691
O O6 0.242185 0.617652 0.078795
O O7 0.000000 0.565718 0.078795
O O8 0.258143 0.549811 0.966898
O O9 0.760542 0.585001 0.384479
O O10 0.745637 0.622990 0.578795
O O11 0.000000 0.627627 0.457841
O O12 0.500000 0.452530 0.833253
O O13 0.748491 0.500000 0.800591
O O14 0.760542 0.414999 0.773110
O O15 0.000000 0.952530 0.824336
O O16 0.248491 0.000000 0.856998
O O17 0.500000 0.127626 0.199748
O O18 0.248803 0.168149 0.263117
O O19 0.500000 0.202134 0.349691
O O20 0.752069 0.188290 0.469040
O O21 0.000000 0.667223 0.078795
#
# Coordination Sequence:
#
# PCOD9375479 Si02
#       8
#     8   8   8   8   8   8   8   8
#     4  10  21  38  59  86 118 152 193 243 296 349
#     4  11  20  38  65  90 120 158 198 243 295 351
#     4  10  22  41  63  86 116 156 204 251 294 351
#     4  11  24  40  59  88 124 157 194 245 303 359
#     4  11  24  40  59  88 124 157 194 245 303 359
#     4  10  22  41  63  86 116 156 204 251 294 351
#     4  10  21  38  59  86 118 152 193 243 296 349
#     4   9  18  36  60  83 114 152 191 239 290 343
#
# _framework density 19.681902999999998
#
# number of rings (size 3 to 8) (size 9 to 14) (size 15 to 20)
#    0.000    1.750    2.500    1.500    1.750    5.500 
#    0.000    2.500    0.000    0.000    0.000    0.000 
#    0.000    0.000    0.000    0.000    0.000    0.000 
#
# Total GULP energy -178747.101052 kJ/mol
# GULP energy per Si atom -5585.846908 kJ/mol
# Density = 1.963711 g / cm^3
# Si number density = 19.681903 Si / 1000 Ang^3
#
#
#
# Elastic Constant Matrix: (Units=GPa)
#
#
# Indices 1 2 3 4 5 6 
#
# 1 10.6527 13.5974 12.5488 0.0000 0.0000 0.0000
# 2 13.5974 193.5384 88.5794 0.0047 0.0000 0.0000
# 3 12.5488 88.5794 156.5784 0.0130 0.0001 0.0000
# 4 0.0000 0.0047 0.0130 466.9307 0.0006 0.0004
# 5 0.0000 0.0000 0.0001 0.0006 13.3452 0.0000
# 6 0.0000 0.0000 0.0000 0.0004 0.0000 32.5536
#
#
#
# Elastic Compliance Matrix: (Units=1/GPa)
#
#
# Indices 1 2 3 4 5 6 
#
# 1 0.106922 -0.004844 -0.005829 0.000000 0.000000 0.000000
# 2 -0.004844 0.007192 -0.003680 0.000000 0.000000 0.000000
# 3 -0.005829 -0.003680 0.008936 0.000000 0.000000 0.000000
# 4 0.000000 0.000000 0.000000 0.002142 0.000000 0.000000
# 5 0.000000 0.000000 0.000000 0.000000 0.074933 0.000000
# 6 0.000000 0.000000 0.000000 0.000000 0.000000 0.030719
#
#
# Mechanical properties :
#
#
# Convention : Reuss Voigt Hill
#
# Bulk Modulus (GPa) = 10.59961 65.58010 38.08985
# Shear Modulus (GPa) = 17.18231 118.96883 68.07557
#
# Velocity S-wave (km/s) = 2.95786 7.78312 5.88753
# Velocity P-wave (km/s) = 4.13067 10.68465 8.10013
#
# Compressibility (1/GPa) = 0.09434312
#
# Stress axis : x y z
#
# Youngs Moduli (GPa) = 9.35260 139.05000 111.91096
#
# Poissons Ratio (x) = 0.67361 0.65229
# Poissons Ratio (y) = 0.04531 0.41186
# Poissons Ratio (z) = 0.05451 0.51173
#
# Static dielectric constant tensor:
#      x y z
#    x 1.685990 0.000000 0.000000 
#    y 0.000000 1.676510 0.000000 
#    z 0.000000 0.000000 1.680370 
# 
# From -- ./inp_files/11548.got.cif
#   From: 2010.05.17/outbox.cif.g08.bks.cpg/sg44_6_cif.got.tgz:11548.got - 2010.06.03 19:37:08.
