data_PCOD9375218
_publ_section_title
;
Structure prediction by ZEFSAII (Michael W. Deem and Ramdas Pophale) SiO2 
 PCOD9375218
Probable space group: I M M 2
;
_chemical_formula_sum "Si O2"
_cell_formula_units_Z 64
_cell_length_a 8.677504
_cell_length_b 18.123112
_cell_length_c 21.304398
_cell_angle_alpha 90.000000
_cell_angle_beta 90.000000
_cell_angle_gamma 90.000000
_cell_volume 3350.401572
_symmetry_space_group_name_H-M "I M M 2"
_symmetry_group_IT_number 44
_symmetry_cell_setting 'orthorhombic'
loop_
_space_group_symop_operation_xyz
x,y,z
-x,-y,z
-x,y,z
x,-y,z
1/2+x,1/2+y,1/2+z
1/2-x,1/2-y,1/2+z
1/2-x,1/2+y,1/2+z
1/2+x,1/2-y,1/2+z
loop_
_atom_site_type_symbol
_atom_site_label
_atom_site_fract_x
_atom_site_fract_y
_atom_site_fract_z
Si Si1 0.813826 0.368292 0.769650
Si Si2 0.185308 0.080873 0.398903
Si Si3 0.811706 0.798887 0.499732
Si Si4 0.321387 0.693804 0.135952
Si Si5 0.183863 0.581671 0.371417
Si Si6 0.686771 0.696218 0.272428
Si Si7 0.682896 0.633281 0.499884
Si Si8 0.321526 0.126410 0.131880
O O1 0.751009 0.410646 0.829314
O O2 0.768871 0.282214 0.778915
O O3 0.762056 0.396121 0.700773
O O4 0.000000 0.371148 0.768430
O O5 0.236998 0.146795 0.444289
O O6 0.000000 0.085130 0.395665
O O7 0.227031 0.000000 0.424252
O O8 0.758066 0.828332 0.568148
O O9 0.746019 0.716942 0.492521
O O10 0.000000 0.794023 0.500666
O O11 0.500000 0.670400 0.136526
O O12 0.255161 0.671071 0.203247
O O13 0.320037 0.783591 0.135075
O O14 0.225290 0.500000 0.347271
O O15 0.252334 0.645208 0.327545
O O16 0.245304 0.589487 0.442051
O O17 0.000000 0.588750 0.372355
O O18 0.500000 0.694150 0.272188
O O19 0.500000 0.633064 0.495291
O O20 0.733022 0.605448 0.568854
O O21 0.500000 0.103715 0.125427
#
# Coordination Sequence:
#
# PCOD9375218 Si02
#       8
#     8   8   8   8   8   8   8   8
#     4   9  18  33  55  80 103 132 169 207 250 303
#     4  10  21  34  48  71 104 140 177 215 251 290
#     4   9  17  33  55  76 103 138 172 206 249 301
#     4   7  12  26  50  77 101 126 158 201 250 296
#     4  11  24  39  52  69  99 139 176 207 247 303
#     4   9  17  32  55  81 104 125 160 211 258 299
#     4  11  21  33  54  82 105 126 162 211 258 302
#     4   8  15  31  53  76 103 132 164 202 247 302
#
# _framework density 19.102187000000001
#
# number of rings (size 3 to 8) (size 9 to 14) (size 15 to 20)
#    0.000    2.750    0.000    4.500    0.000    4.750 
#    0.000    6.250    0.000    3.000    0.000    0.000 
#    0.000    0.000    0.000    0.000    0.000    0.000 
#
# Total GULP energy -178384.663474 kJ/mol
# GULP energy per Si atom -5574.520734 kJ/mol
# Density = 1.905871 g / cm^3
# Si number density = 19.102187 Si / 1000 Ang^3
#
#
#
# Elastic Constant Matrix: (Units=GPa)
#
#
# Indices 1 2 3 4 5 6 
#
# 1 14.6863 11.2351 4.8359 0.0000 0.0000 0.0000
# 2 11.2351 39.8504 18.8495 0.0000 0.0000 0.0000
# 3 4.8359 18.8495 97.8916 0.0000 0.0000 0.0000
# 4 0.0000 0.0000 0.0000 -12.6271 0.0000 0.0000
# 5 0.0000 0.0000 0.0000 0.0000 28.1753 0.0000
# 6 0.0000 0.0000 0.0000 0.0000 0.0000 8.8125
#
#
#
# Elastic Compliance Matrix: (Units=1/GPa)
#
#
# Indices 1 2 3 4 5 6 
#
# 1 0.086834 -0.024702 0.000467 0.000000 0.000000 0.000000
# 2 -0.024702 0.034635 -0.005449 0.000000 0.000000 0.000000
# 3 0.000467 -0.005449 0.011242 0.000000 0.000000 0.000000
# 4 0.000000 0.000000 0.000000 -0.079195 0.000000 0.000000
# 5 0.000000 0.000000 0.000000 0.000000 0.035492 0.000000
# 6 0.000000 0.000000 0.000000 0.000000 0.000000 0.113475
#
#
# Mechanical properties :
#
#
# Convention : Reuss Voigt Hill
#
# Bulk Modulus (GPa) = 13.63457 24.69657 19.16557
# Shear Modulus (GPa) = 17.46418 12.70598 15.08508
#
# Velocity S-wave (km/s) = 3.02694 2.58186 2.81322
# Velocity P-wave (km/s) = 4.40110 4.67384 4.53952
#
# Compressibility (1/GPa) = 0.07334297
#
# Stress axis : x y z
#
# Youngs Moduli (GPa) = 11.51619 28.87212 88.95579
#
# Poissons Ratio (x) = 0.71320 -0.04152
# Poissons Ratio (y) = 0.28447 0.48471
# Poissons Ratio (z) = -0.00538 0.15732
#
# Static dielectric constant tensor:
#      x y z
#    x 1.648210 0.000000 0.000000 
#    y 0.000000 1.658100 0.000000 
#    z 0.000000 0.000000 1.697250 
# 
# From -- ./inp_files/23325.got.cif
#   From: 2010.05.17/outbox.cif.g08.bks.cpg/sg44_12_cif.got.tgz:23325.got - 2010.06.03 19:37:08.
