data_PCOD9375902
_publ_section_title
;
Structure prediction by ZEFSAII (Michael W. Deem and Ramdas Pophale) SiO2 
 PCOD9375902
Probable space group: I M M 2
;
_chemical_formula_sum "Si O2"
_cell_formula_units_Z 48
_cell_length_a 7.398210
_cell_length_b 9.765397
_cell_length_c 32.559216
_cell_angle_alpha 90.000000
_cell_angle_beta 90.000000
_cell_angle_gamma 90.000000
_cell_volume 2352.288023
_symmetry_space_group_name_H-M "I M M 2"
_symmetry_group_IT_number 44
_symmetry_cell_setting 'orthorhombic'
loop_
_space_group_symop_operation_xyz
x,y,z
-x,-y,z
-x,y,z
x,-y,z
1/2+x,1/2+y,1/2+z
1/2-x,1/2-y,1/2+z
1/2-x,1/2+y,1/2+z
1/2+x,1/2-y,1/2+z
loop_
_atom_site_type_symbol
_atom_site_label
_atom_site_fract_x
_atom_site_fract_y
_atom_site_fract_z
Si Si1 0.279759 0.841522 0.754050
Si Si2 0.721227 0.158440 0.601204
Si Si3 0.784279 0.345485 0.922852
Si Si4 0.290838 0.166786 0.511121
Si Si5 0.720906 0.342316 0.677910
Si Si6 0.283591 0.154421 0.845722
O O1 0.500000 0.840011 0.753391
O O2 0.219754 0.739816 0.718428
O O3 0.221000 0.802085 0.800200
O O4 0.226908 0.000000 0.746681
O O5 0.500000 0.158157 0.600196
O O6 0.785486 0.202919 0.555764
O O7 0.777439 0.258145 0.637613
O O8 0.774160 0.000000 0.608553
O O9 0.715655 0.500000 0.915925
O O10 0.712948 0.291051 0.966893
O O11 0.756016 0.252633 0.883429
O O12 0.000000 0.355310 0.928461
O O13 0.500000 0.212230 0.512107
O O14 0.289146 0.000000 0.510134
O O15 0.500000 0.342186 0.678018
O O16 0.778583 0.500000 0.677611
O O17 0.500000 0.147496 0.842924
O O18 0.216762 0.000000 0.853375
#
# Coordination Sequence:
#
# PCOD9375902 Si02
#       6
#     8   8   8   8   8   8
#     4   8  14  25  38  50  69 101 137 168 200 242
#     4   8  12  19  32  47  66  98 134 160 188 234
#     4   9  17  29  45  65  88 113 143 179 216 254
#     4   7  11  21  36  53  74 102 135 167 198 237
#     4   9  15  20  28  47  74  99 125 161 202 242
#     4   9  18  31  45  62  85 113 146 182 216 252
#
# _framework density 20.405664999999999
#
# number of rings (size 3 to 8) (size 9 to 14) (size 15 to 20)
#    0.000    3.667    0.000    3.500    0.000    3.333 
#    0.000    2.500    0.000    3.000    0.000    0.000 
#    0.000    1.333    0.000   12.667    0.000   17.333 
#
# Total GULP energy -133720.557114 kJ/mol
# GULP energy per Si atom -5571.689880 kJ/mol
# Density = 2.035922 g / cm^3
# Si number density = 20.405665 Si / 1000 Ang^3
#
#
#
# Elastic Constant Matrix: (Units=GPa)
#
#
# Indices 1 2 3 4 5 6 
#
# 1 66.8893 3.9794 8.3181 0.0000 0.0000 0.0000
# 2 3.9794 114.6942 138.2638 0.0000 0.0000 0.0000
# 3 8.3181 138.2638 265.7340 0.0000 0.0000 0.0000
# 4 0.0000 0.0000 0.0000 33.9092 0.0000 0.0000
# 5 0.0000 0.0000 0.0000 0.0000 7.6394 0.0000
# 6 0.0000 0.0000 0.0000 0.0000 0.0000 1.6041
#
#
#
# Elastic Compliance Matrix: (Units=1/GPa)
#
#
# Indices 1 2 3 4 5 6 
#
# 1 0.015009 0.000122 -0.000533 0.000000 0.000000 0.000000
# 2 0.000122 0.023390 -0.012174 0.000000 0.000000 0.000000
# 3 -0.000533 -0.012174 0.010114 0.000000 0.000000 0.000000
# 4 0.000000 0.000000 0.000000 0.029491 0.000000 0.000000
# 5 0.000000 0.000000 0.000000 0.000000 0.130900 0.000000
# 6 0.000000 0.000000 0.000000 0.000000 0.000000 0.623414
#
#
# Mechanical properties :
#
#
# Convention : Reuss Voigt Hill
#
# Bulk Modulus (GPa) = 42.83881 83.16002 62.99942
# Shear Modulus (GPa) = 5.77854 28.41428 17.09641
#
# Velocity S-wave (km/s) = 1.68463 3.73563 2.89766
# Velocity P-wave (km/s) = 4.98228 7.71028 6.49121
#
# Compressibility (1/GPa) = 0.02334332
#
# Stress axis : x y z
#
# Youngs Moduli (GPa) = 66.62606 42.75245 98.87130
#
# Poissons Ratio (x) = -0.00523 0.05275
# Poissons Ratio (y) = -0.00815 1.20367
# Poissons Ratio (z) = 0.03554 0.52047
#
# Static dielectric constant tensor:
#      x y z
#    x 1.907730 0.000000 0.000000 
#    y 0.000000 1.681480 0.000000 
#    z 0.000000 0.000000 1.750930 
# 
# From -- ./inp_files/26320.got.cif
#   From: 2010.05.17/outbox.cif.g08.bks.cpg/sg44_14_cif.got.tgz:26320.got - 2010.06.03 19:37:08.
