data_PCOD9375884
_publ_section_title
;
Structure prediction by ZEFSAII (Michael W. Deem and Ramdas Pophale) SiO2 
 PCOD9375884
Probable space group: I M M 2
;
_chemical_formula_sum "Si O2"
_cell_formula_units_Z 58
_cell_length_a 26.065517
_cell_length_b 18.121211
_cell_length_c 5.148841
_cell_angle_alpha 90.000000
_cell_angle_beta 90.000000
_cell_angle_gamma 90.000000
_cell_volume 2431.997036
_symmetry_space_group_name_H-M "I M M 2"
_symmetry_group_IT_number 44
_symmetry_cell_setting 'orthorhombic'
loop_
_space_group_symop_operation_xyz
x,y,z
-x,-y,z
-x,y,z
x,-y,z
1/2+x,1/2+y,1/2+z
1/2-x,1/2-y,1/2+z
1/2-x,1/2+y,1/2+z
1/2+x,1/2-y,1/2+z
loop_
_atom_site_type_symbol
_atom_site_label
_atom_site_fract_x
_atom_site_fract_y
_atom_site_fract_z
Si Si1 0.138005 0.916544 0.949700
Si Si2 0.312290 0.775029 0.945188
Si Si3 0.766682 0.135076 0.228932
Si Si4 0.922618 0.287959 0.624083
Si Si5 0.172539 0.417038 0.076341
Si Si6 0.084157 0.129176 0.439753
Si Si7 0.943029 0.377451 0.106661
Si Si8 0.500000 0.500000 0.942012
O O1 0.196841 0.911859 0.042016
O O2 0.125536 0.895690 0.657166
O O3 0.120093 0.000000 0.992343
O O4 0.106207 0.865935 0.148366
O O5 0.259708 0.801959 0.061024
O O6 0.303414 0.688868 0.894606
O O7 0.360626 0.783802 0.134965
O O8 0.322634 0.839233 0.731648
O O9 0.719360 0.092652 0.367274
O O10 0.937953 0.207569 0.525940
O O11 0.943500 0.310493 0.901282
O O12 0.936684 0.347367 0.400729
O O13 0.181694 0.500000 0.194850
O O14 0.110542 0.417568 0.022187
O O15 0.043637 0.064445 0.443155
O O16 0.000000 0.413149 0.087790
#
# Coordination Sequence:
#
# PCOD9375884 Si02
#       8
#     8   8   8   8   8   8   8   2
#     4  12  26  46  65 101 144 187 238 286 371 428
#     4  11  24  42  73 105 142 188 238 296 357 429
#     4  12  24  42  73 103 145 191 237 298 354 435
#     4  11  24  47  71 106 139 179 246 299 352 429
#     4  11  26  46  69 108 148 187 239 295 369 439
#     4  12  27  46  70  99 136 192 241 302 355 417
#     4  11  25  47  74 104 141 183 242 299 358 425
#     4  12  28  50  72  98 152 186 254 302 362 418
#
# _framework density 23.848714999999999
#
# number of rings (size 3 to 8) (size 9 to 14) (size 15 to 20)
#    0.000    0.552    5.517    1.655    7.724    2.483 
#    0.000    0.000    0.000    1.655    0.000    0.000 
#    0.000    0.000    0.000    0.000    0.000    0.000 
#
# Total GULP energy -161466.917978 kJ/mol
# GULP energy per Si atom -5567.824758 kJ/mol
# Density = 2.379443 g / cm^3
# Si number density = 23.848715 Si / 1000 Ang^3
#
#
#
# Elastic Constant Matrix: (Units=GPa)
#
#
# Indices 1 2 3 4 5 6 
#
# 1 147.3052 31.0922 29.2933 0.0000 0.0000 0.0000
# 2 31.0922 90.1198 -7.2317 0.0000 0.0000 0.0000
# 3 29.2933 -7.2317 43.3961 0.0000 0.0000 0.0000
# 4 0.0000 0.0000 0.0000 11.0639 0.0000 0.0000
# 5 0.0000 0.0000 0.0000 0.0000 114.0608 0.0000
# 6 0.0000 0.0000 0.0000 0.0000 0.0000 41.6538
#
#
#
# Elastic Compliance Matrix: (Units=1/GPa)
#
#
# Indices 1 2 3 4 5 6 
#
# 1 0.008851 -0.003581 -0.006572 0.000000 0.000000 0.000000
# 2 -0.003581 0.012696 0.004533 0.000000 0.000000 0.000000
# 3 -0.006572 0.004533 0.028235 0.000000 0.000000 0.000000
# 4 0.000000 0.000000 0.000000 0.090384 0.000000 0.000000
# 5 0.000000 0.000000 0.000000 0.000000 0.008767 0.000000
# 6 0.000000 0.000000 0.000000 0.000000 0.000000 0.024007
#
#
# Mechanical properties :
#
#
# Convention : Reuss Voigt Hill
#
# Bulk Modulus (GPa) = 25.94546 43.01430 34.47988
# Shear Modulus (GPa) = 25.37715 48.53353 36.95534
#
# Velocity S-wave (km/s) = 3.26558 4.51606 3.94073
# Velocity P-wave (km/s) = 5.01213 6.72819 5.93254
#
# Compressibility (1/GPa) = 0.03854239
#
# Stress axis : x y z
#
# Youngs Moduli (GPa) = 112.97698 78.76731 35.41707
#
# Poissons Ratio (x) = 0.28208 0.23275
# Poissons Ratio (y) = 0.40459 -0.16055
# Poissons Ratio (z) = 0.74244 -0.35705
#
# Static dielectric constant tensor:
#      x y z
#    x 1.976210 0.000000 0.000000 
#    y 0.000000 2.120460 0.000000 
#    z 0.000000 0.000000 2.017020 
# 
# From -- ./inp_files/3080.got.cif
#   From: 2010.05.17/outbox.cif.g08.bks.cpg/sg44_2_cif.got.tgz:3080.got - 2010.06.03 19:37:08.
