data_PCOD9375272
_publ_section_title
;
Structure prediction by ZEFSAII (Michael W. Deem and Ramdas Pophale) SiO2 
 PCOD9375272
Probable space group: I M M 2
;
_chemical_formula_sum "Si O2"
_cell_formula_units_Z 48
_cell_length_a 14.268652
_cell_length_b 22.823195
_cell_length_c 7.285063
_cell_angle_alpha 90.000000
_cell_angle_beta 90.000000
_cell_angle_gamma 90.000000
_cell_volume 2372.426130
_symmetry_space_group_name_H-M "I M M 2"
_symmetry_group_IT_number 44
_symmetry_cell_setting 'orthorhombic'
loop_
_space_group_symop_operation_xyz
x,y,z
-x,-y,z
-x,y,z
x,-y,z
1/2+x,1/2+y,1/2+z
1/2-x,1/2-y,1/2+z
1/2-x,1/2+y,1/2+z
1/2+x,1/2-y,1/2+z
loop_
_atom_site_type_symbol
_atom_site_label
_atom_site_fract_x
_atom_site_fract_y
_atom_site_fract_z
Si Si1 0.390416 0.825608 0.669670
Si Si2 0.889486 0.218538 0.439720
Si Si3 0.756653 0.566060 0.104496
Si Si4 0.110528 0.705330 0.754780
Si Si5 0.893253 0.069941 0.900949
Si Si6 0.771821 0.120227 0.231568
O O1 0.500000 0.842129 0.678167
O O2 0.372543 0.778463 0.827057
O O3 0.327410 0.883391 0.668991
O O4 0.375569 0.793408 0.473187
O O5 0.863335 0.235236 0.648324
O O6 0.831012 0.168472 0.343927
O O7 0.000000 0.204759 0.430271
O O8 0.786106 0.500000 0.155299
O O9 0.657983 0.577688 0.205964
O O10 0.747168 0.571202 0.885129
O O11 0.174402 0.652146 0.683780
O O12 0.000000 0.695355 0.718738
O O13 0.829900 0.098987 0.057736
O O14 0.000000 0.092235 0.901655
O O15 0.895927 0.000000 0.935788
#
# Coordination Sequence:
#
# PCOD9375272 Si02
#       6
#     8   8   8   8   8   8
#     4   9  19  37  59  84 116 151 188 238 293 349
#     4  10  21  35  54  83 117 151 191 237 289 352
#     4  10  22  39  59  85 114 153 201 244 291 349
#     4   9  20  36  54  80 116 153 186 231 289 342
#     4  10  22  40  59  82 116 154 195 246 296 343
#     4  11  22  35  62  85 116 154 199 238 290 350
#
# _framework density 20.232453
#
# number of rings (size 3 to 8) (size 9 to 14) (size 15 to 20)
#    0.000    2.167    0.000    2.000    4.667    3.000 
#    0.000    3.333    0.000    2.500    0.000    4.667 
#    0.000    0.000    0.000    0.000    0.000    0.000 
#
# Total GULP energy -134076.384718 kJ/mol
# GULP energy per Si atom -5586.516030 kJ/mol
# Density = 2.018640 g / cm^3
# Si number density = 20.232453 Si / 1000 Ang^3
#
#
#
# Elastic Constant Matrix: (Units=GPa)
#
#
# Indices 1 2 3 4 5 6 
#
# 1 47.2327 13.1409 15.4427 0.0002 0.0000 0.0001
# 2 13.1409 52.0293 8.6855 -0.0001 0.0000 0.0000
# 3 15.4427 8.6855 43.1808 -0.0002 0.0003 0.0002
# 4 0.0002 -0.0001 -0.0002 28.0657 0.0000 0.0000
# 5 0.0000 0.0000 0.0003 0.0000 29.4391 0.0000
# 6 0.0001 0.0000 0.0002 0.0000 0.0000 28.2169
#
#
#
# Elastic Compliance Matrix: (Units=1/GPa)
#
#
# Indices 1 2 3 4 5 6 
#
# 1 0.025184 -0.005026 -0.007996 0.000000 0.000000 0.000000
# 2 -0.005026 0.020891 -0.002405 0.000000 0.000000 0.000000
# 3 -0.007996 -0.002405 0.026502 0.000000 0.000000 0.000000
# 4 0.000000 0.000000 0.000000 0.035631 0.000000 0.000000
# 5 0.000000 0.000000 0.000000 0.000000 0.033968 0.000000
# 6 0.000000 0.000000 0.000000 0.000000 0.000000 0.035440
#
#
# Mechanical properties :
#
#
# Convention : Reuss Voigt Hill
#
# Bulk Modulus (GPa) = 23.96694 24.10899 24.03797
# Shear Modulus (GPa) = 22.48444 24.15591 23.32018
#
# Velocity S-wave (km/s) = 3.33724 3.45906 3.39870
# Velocity P-wave (km/s) = 5.16924 5.28160 5.22573
#
# Compressibility (1/GPa) = 0.04172414
#
# Stress axis : x y z
#
# Youngs Moduli (GPa) = 39.70739 47.86817 37.73353
#
# Poissons Ratio (x) = 0.24058 0.30171
# Poissons Ratio (y) = 0.19957 0.09073
# Poissons Ratio (z) = 0.31749 0.11510
#
# Static dielectric constant tensor:
#      x y z
#    x 1.725450 0.000000 0.000000 
#    y 0.000000 1.700180 0.000000 
#    z 0.000000 0.000000 1.725550 
# 
# From -- ./inp_files/7265.got.cif
#   From: 2010.05.17/outbox.cif.g08.bks.cpg/sg44_4_cif.got.tgz:7265.got - 2010.06.03 19:37:08.
