data_PCOD9375477
_publ_section_title
;
Structure prediction by ZEFSAII (Michael W. Deem and Ramdas Pophale) SiO2 
 PCOD9375477
Probable space group: I M M 2
;
_chemical_formula_sum "Si O2"
_cell_formula_units_Z 64
_cell_length_a 8.682417
_cell_length_b 25.577610
_cell_length_c 15.225866
_cell_angle_alpha 90.000000
_cell_angle_beta 90.000000
_cell_angle_gamma 90.000000
_cell_volume 3381.291438
_symmetry_space_group_name_H-M "I M M 2"
_symmetry_group_IT_number 44
_symmetry_cell_setting 'orthorhombic'
loop_
_space_group_symop_operation_xyz
x,y,z
-x,-y,z
-x,y,z
x,-y,z
1/2+x,1/2+y,1/2+z
1/2-x,1/2-y,1/2+z
1/2-x,1/2+y,1/2+z
1/2+x,1/2-y,1/2+z
loop_
_atom_site_type_symbol
_atom_site_label
_atom_site_fract_x
_atom_site_fract_y
_atom_site_fract_z
Si Si1 0.183813 0.370464 0.962630
Si Si2 0.316903 0.889883 0.130785
Si Si3 0.182702 0.779729 0.155298
Si Si4 0.813427 0.152316 0.837264
Si Si5 0.814608 0.730693 0.849193
Si Si6 0.813694 0.941175 0.961285
Si Si7 0.183752 0.061601 0.308122
Si Si8 0.184538 0.833017 0.636280
O O1 0.220435 0.313823 0.919358
O O2 0.256286 0.413091 0.898073
O O3 0.000000 0.376154 0.963991
O O4 0.249890 0.369714 0.060457
O O5 0.500000 0.887550 0.129531
O O6 0.248449 0.832340 0.113167
O O7 0.261190 0.909336 0.225958
O O8 0.253860 0.928517 0.056572
O O9 0.230049 0.781889 0.258057
O O10 0.255027 0.725895 0.121035
O O11 0.000000 0.778051 0.144774
O O12 0.772581 0.209826 0.874194
O O13 0.758156 0.103747 0.894575
O O14 0.765399 0.151385 0.735077
O O15 0.000000 0.149938 0.837522
O O16 0.000000 0.729610 0.832693
O O17 0.000000 0.938274 0.966694
O O18 0.772883 0.000000 0.933592
O O19 0.000000 0.068471 0.301799
O O20 0.218806 0.000000 0.304427
O O21 0.000000 0.832835 0.633952
#
# Coordination Sequence:
#
# PCOD9375477 Si02
#       8
#     8   8   8   8   8   8   8   8
#     4  11  22  36  59  90 122 159 201 246 299 358
#     4  12  24  38  57  86 121 158 195 238 301 367
#     4  11  21  35  57  85 118 156 197 241 296 353
#     4   8  17  36  59  82 114 154 195 244 295 344
#     4   9  18  34  55  82 115 153 193 237 295 355
#     4  10  21  38  61  87 113 150 203 252 294 348
#     4  11  24  42  63  87 117 157 203 249 298 357
#     4  10  21  38  59  85 122 161 200 248 301 356
#
# _framework density 18.927679000000001
#
# number of rings (size 3 to 8) (size 9 to 14) (size 15 to 20)
#    0.000    1.750    1.250    4.500    1.750    3.250 
#    0.000    3.750    0.000    2.250    0.000    0.000 
#    0.000    0.000    0.000    0.000    0.000    0.000 
#
# Total GULP energy -178792.744670 kJ/mol
# GULP energy per Si atom -5587.273271 kJ/mol
# Density = 1.888460 g / cm^3
# Si number density = 18.927679 Si / 1000 Ang^3
#
#
#
# Elastic Constant Matrix: (Units=GPa)
#
#
# Indices 1 2 3 4 5 6 
#
# 1 45.2986 25.9677 10.8637 0.0000 0.0000 0.0000
# 2 25.9677 83.5275 18.2200 0.0001 0.0000 0.0000
# 3 10.8637 18.2200 41.4069 0.0001 0.0000 -0.0001
# 4 0.0000 0.0001 0.0001 32.7114 0.0000 0.0000
# 5 0.0000 0.0000 0.0000 0.0000 24.4339 0.0000
# 6 0.0000 0.0000 -0.0001 0.0000 0.0000 21.8756
#
#
#
# Elastic Compliance Matrix: (Units=1/GPa)
#
#
# Indices 1 2 3 4 5 6 
#
# 1 0.027395 -0.007687 -0.003805 0.000000 0.000000 0.000000
# 2 -0.007687 0.015400 -0.004760 0.000000 0.000000 0.000000
# 3 -0.003805 -0.004760 0.027243 0.000000 0.000000 0.000000
# 4 0.000000 0.000000 0.000000 0.030570 0.000000 0.000000
# 5 0.000000 0.000000 0.000000 0.000000 0.040927 0.000000
# 6 0.000000 0.000000 0.000000 0.000000 0.000000 0.045713
#
#
# Mechanical properties :
#
#
# Convention : Reuss Voigt Hill
#
# Bulk Modulus (GPa) = 26.64169 31.14843 28.89506
# Shear Modulus (GPa) = 21.52734 23.48294 22.50514
#
# Velocity S-wave (km/s) = 3.37612 3.52613 3.45194
# Velocity P-wave (km/s) = 5.41328 5.75069 5.58453
#
# Compressibility (1/GPa) = 0.03753516
#
# Stress axis : x y z
#
# Youngs Moduli (GPa) = 36.50338 64.93488 36.70636
#
# Poissons Ratio (x) = 0.49914 0.13967
# Poissons Ratio (y) = 0.28059 0.17471
# Poissons Ratio (z) = 0.13890 0.30907
#
# Static dielectric constant tensor:
#      x y z
#    x 1.628810 0.000000 0.000000 
#    y 0.000000 1.654550 0.000000 
#    z 0.000000 0.000000 1.651460 
# 
# From -- ./inp_files/16769.got.cif
#   From: 2010.05.17/outbox.cif.g08.bks.cpg/sg44_9_cif.got.tgz:16769.got - 2010.06.03 19:37:08.
