data_PCOD9375460
_publ_section_title
;
Structure prediction by ZEFSAII (Michael W. Deem and Ramdas Pophale) SiO2 
 PCOD9375460
Probable space group: I M M 2
;
_chemical_formula_sum "Si O2"
_cell_formula_units_Z 64
_cell_length_a 33.021254
_cell_length_b 8.062200
_cell_length_c 12.215504
_cell_angle_alpha 90.000000
_cell_angle_beta 90.000000
_cell_angle_gamma 90.000000
_cell_volume 3252.059775
_symmetry_space_group_name_H-M "I M M 2"
_symmetry_group_IT_number 44
_symmetry_cell_setting 'orthorhombic'
loop_
_space_group_symop_operation_xyz
x,y,z
-x,-y,z
-x,y,z
x,-y,z
1/2+x,1/2+y,1/2+z
1/2-x,1/2-y,1/2+z
1/2-x,1/2+y,1/2+z
1/2+x,1/2-y,1/2+z
loop_
_atom_site_type_symbol
_atom_site_label
_atom_site_fract_x
_atom_site_fract_y
_atom_site_fract_z
Si Si1 0.681834 0.806217 0.660930
Si Si2 0.121523 0.805828 0.975287
Si Si3 0.152178 0.194814 0.742822
Si Si4 0.182200 0.307294 0.401588
Si Si5 0.548333 0.196354 0.855140
Si Si6 0.229565 0.697870 0.605698
Si Si7 0.398671 0.807950 0.046429
Si Si8 0.953701 0.699233 0.113920
O O1 0.655271 0.720781 0.568223
O O2 0.675854 0.733001 0.782489
O O3 0.729403 0.786770 0.638618
O O4 0.669570 0.000000 0.660094
O O5 0.138284 0.735858 0.860299
O O6 0.115253 0.000000 0.956949
O O7 0.079242 0.738297 0.022328
O O8 0.192336 0.275301 0.689719
O O9 0.115662 0.218524 0.656183
O O10 0.161419 0.000000 0.753834
O O11 0.236778 0.500000 0.598720
O O12 0.214874 0.237900 0.486527
O O13 0.140681 0.307749 0.468337
O O14 0.500000 0.206932 0.858520
O O15 0.560368 0.262083 0.734785
O O16 0.559835 0.000000 0.856900
O O17 0.567341 0.266380 0.966363
O O18 0.306058 0.000000 0.882514
O O19 0.408214 0.000000 0.075093
O O20 0.955897 0.500000 0.123881
O O21 0.000000 0.757802 0.093099
#
# Coordination Sequence:
#
# PCOD9375460 Si02
#       8
#     8   8   8   8   8   8   8   8
#     4  11  22  36  57  83 109 141 180 224 274 329
#     4  11  24  39  55  79 113 153 191 232 280 331
#     4  10  22  39  55  73 105 149 190 228 275 326
#     4   8  17  33  52  73 101 135 168 212 270 321
#     4   8  14  27  52  85 115 140 169 215 277 335
#     4  10  21  38  57  79 107 140 178 223 277 331
#     4   9  16  31  55  78 102 137 177 219 267 320
#     4   9  18  35  60  87 114 145 184 231 282 337
#
# _framework density 19.679834
#
# number of rings (size 3 to 8) (size 9 to 14) (size 15 to 20)
#    0.000    2.500    0.000    3.750    1.750    4.250 
#    0.000    9.375    0.000    3.375    0.000    0.000 
#    0.000    0.000    0.000    0.000    0.000    0.000 
#
# Total GULP energy -178391.233377 kJ/mol
# GULP energy per Si atom -5574.726043 kJ/mol
# Density = 1.963504 g / cm^3
# Si number density = 19.679834 Si / 1000 Ang^3
#
#
#
# Elastic Constant Matrix: (Units=GPa)
#
#
# Indices 1 2 3 4 5 6 
#
# 1 57.5089 -4.9354 43.9006 0.0000 0.0000 0.0000
# 2 -4.9354 17.1092 -5.2178 0.0000 0.0000 0.0000
# 3 43.9006 -5.2178 142.7842 0.0000 0.0000 0.0000
# 4 0.0000 0.0000 0.0000 7.7942 0.0000 0.0000
# 5 0.0000 0.0000 0.0000 0.0000 20.1910 0.0000
# 6 0.0000 0.0000 0.0000 0.0000 0.0000 22.0368
#
#
#
# Elastic Compliance Matrix: (Units=1/GPa)
#
#
# Indices 1 2 3 4 5 6 
#
# 1 0.023065 0.004541 -0.006926 0.000000 0.000000 0.000000
# 2 0.004541 0.060001 0.000796 0.000000 0.000000 0.000000
# 3 -0.006926 0.000796 0.009162 0.000000 0.000000 0.000000
# 4 0.000000 0.000000 0.000000 0.128301 0.000000 0.000000
# 5 0.000000 0.000000 0.000000 0.000000 0.049527 0.000000
# 6 0.000000 0.000000 0.000000 0.000000 0.000000 0.045379
#
#
# Mechanical properties :
#
#
# Convention : Reuss Voigt Hill
#
# Bulk Modulus (GPa) = 11.22938 31.65524 21.44231
# Shear Modulus (GPa) = 14.35566 22.24806 18.30186
#
# Velocity S-wave (km/s) = 2.70378 3.36594 3.05287
# Velocity P-wave (km/s) = 3.93264 5.58803 4.83176
#
# Compressibility (1/GPa) = 0.08905214
#
# Stress axis : x y z
#
# Youngs Moduli (GPa) = 43.35531 16.66643 109.14567
#
# Poissons Ratio (x) = -0.07569 0.75591
# Poissons Ratio (y) = -0.19689 -0.08692
# Poissons Ratio (z) = 0.30027 -0.01327
#
# Static dielectric constant tensor:
#      x y z
#    x 1.681140 0.000000 0.000000 
#    y 0.000000 1.703980 0.000000 
#    z 0.000000 0.000000 1.734140 
# 
# From -- ./inp_files/15025.got.cif
#   From: 2010.05.17/outbox.cif.g08.bks.cpg/sg44_8_cif.got.tgz:15025.got - 2010.06.03 19:37:08.
