data_PCOD9375591
_publ_section_title
;
Structure prediction by ZEFSAII (Michael W. Deem and Ramdas Pophale) SiO2 
 PCOD9375591
Probable space group: I M M 2
;
_chemical_formula_sum "Si O2"
_cell_formula_units_Z 48
_cell_length_a 17.151185
_cell_length_b 18.483637
_cell_length_c 7.453339
_cell_angle_alpha 90.000000
_cell_angle_beta 90.000000
_cell_angle_gamma 90.000000
_cell_volume 2362.829786
_symmetry_space_group_name_H-M "I M M 2"
_symmetry_group_IT_number 44
_symmetry_cell_setting 'orthorhombic'
loop_
_space_group_symop_operation_xyz
x,y,z
-x,-y,z
-x,y,z
x,-y,z
1/2+x,1/2+y,1/2+z
1/2-x,1/2-y,1/2+z
1/2-x,1/2+y,1/2+z
1/2+x,1/2-y,1/2+z
loop_
_atom_site_type_symbol
_atom_site_label
_atom_site_fract_x
_atom_site_fract_y
_atom_site_fract_z
Si Si1 0.841622 0.332646 0.602010
Si Si2 0.000000 0.418326 0.679573
Si Si3 0.500000 0.082515 0.605479
Si Si4 0.139927 0.308329 0.184854
Si Si5 0.306630 0.417143 0.508195
Si Si6 0.186791 0.826346 0.642939
Si Si7 0.591013 0.348077 0.778503
O O1 0.921712 0.375213 0.630775
O O2 0.839086 0.312234 0.393617
O O3 0.764669 0.380842 0.620103
O O4 0.837534 0.255479 0.699696
O O5 0.000000 0.500000 0.604650
O O6 0.000000 0.423611 0.892640
O O7 0.424325 0.130180 0.653245
O O8 0.500000 0.000000 0.678579
O O9 0.221745 0.322179 0.087112
O O10 0.107814 0.227174 0.170084
O O11 0.287078 0.500000 0.471775
O O12 0.319961 0.377412 0.317232
O O13 0.379266 0.408477 0.641356
O O14 0.136723 0.848551 0.468687
O O15 0.500000 0.351903 0.817008
#
# Coordination Sequence:
#
# PCOD9375591 Si02
#       7
#     8   4   4   8   8   8   8
#     4  10  22  40  67  94 129 174 224 268 333 407
#     4  11  25  37  57  99 143 174 211 274 344 406
#     4  11  25  37  59  99 139 176 213 270 346 408
#     4  10  21  40  64  93 129 174 220 266 328 401
#     4  11  25  44  69  99 131 174 225 281 341 396
#     4  10  24  42  69 101 130 174 227 274 330 406
#     4  11  24  42  68  99 130 173 226 275 330 393
#
# _framework density 20.314624999999999
#
# number of rings (size 3 to 8) (size 9 to 14) (size 15 to 20)
#    0.000    1.500    2.500    1.000    8.167    5.667 
#    0.000    0.000    0.000    0.000    0.000    0.000 
#    0.000    0.000    0.000    0.000    0.000    0.000 
#
# Total GULP energy -133990.505047 kJ/mol
# GULP energy per Si atom -5582.937710 kJ/mol
# Density = 2.026839 g / cm^3
# Si number density = 20.314625 Si / 1000 Ang^3
#
#
#
# Elastic Constant Matrix: (Units=GPa)
#
#
# Indices 1 2 3 4 5 6 
#
# 1 138.2931 24.8988 25.9888 0.0000 0.0000 0.0000
# 2 24.8988 119.7508 22.9478 0.0000 0.0000 0.0000
# 3 25.9888 22.9478 82.9439 0.0000 0.0000 0.0000
# 4 0.0000 0.0000 0.0000 23.7926 0.0000 0.0000
# 5 0.0000 0.0000 0.0000 0.0000 40.1405 0.0000
# 6 0.0000 0.0000 0.0000 0.0000 0.0000 21.5138
#
#
#
# Elastic Compliance Matrix: (Units=1/GPa)
#
#
# Indices 1 2 3 4 5 6 
#
# 1 0.007850 -0.001226 -0.002121 0.000000 0.000000 0.000000
# 2 -0.001226 0.009010 -0.002109 0.000000 0.000000 0.000000
# 3 -0.002121 -0.002109 0.013304 0.000000 0.000000 0.000000
# 4 0.000000 0.000000 0.000000 0.042030 0.000000 0.000000
# 5 0.000000 0.000000 0.000000 0.000000 0.024913 0.000000
# 6 0.000000 0.000000 0.000000 0.000000 0.000000 0.046482
#
#
# Mechanical properties :
#
#
# Convention : Reuss Voigt Hill
#
# Bulk Modulus (GPa) = 51.93720 54.29541 53.11630
# Shear Modulus (GPa) = 31.07209 34.89954 32.98581
#
# Velocity S-wave (km/s) = 3.91518 4.14931 4.03395
# Velocity P-wave (km/s) = 6.78676 7.05273 6.92102
#
# Compressibility (1/GPa) = 0.01925402
#
# Stress axis : x y z
#
# Youngs Moduli (GPa) = 127.38468 110.99246 75.16455
#
# Poissons Ratio (x) = 0.13606 0.15939
# Poissons Ratio (y) = 0.15616 0.15849
# Poissons Ratio (z) = 0.27013 0.23403
#
# Static dielectric constant tensor:
#      x y z
#    x 1.308290 0.000000 0.000000 
#    y 0.000000 1.773000 0.000000 
#    z 0.000000 0.000000 1.723440 
# 
# From -- ./inp_files/7151.got.cif
#   From: 2010.05.17/outbox.cif.g08.bks.cpg/sg44_4_cif.got.tgz:7151.got - 2010.06.03 19:37:08.
