data_PCOD9375410
_publ_section_title
;
Structure prediction by ZEFSAII (Michael W. Deem and Ramdas Pophale) SiO2 
 PCOD9375410
Probable space group: I M M 2
;
_chemical_formula_sum "Si O2"
_cell_formula_units_Z 64
_cell_length_a 31.971070
_cell_length_b 11.206441
_cell_length_c 8.929767
_cell_angle_alpha 90.000000
_cell_angle_beta 90.000000
_cell_angle_gamma 90.000000
_cell_volume 3199.373974
_symmetry_space_group_name_H-M "I M M 2"
_symmetry_group_IT_number 44
_symmetry_cell_setting 'orthorhombic'
loop_
_space_group_symop_operation_xyz
x,y,z
-x,-y,z
-x,y,z
x,-y,z
1/2+x,1/2+y,1/2+z
1/2-x,1/2-y,1/2+z
1/2-x,1/2+y,1/2+z
1/2+x,1/2-y,1/2+z
loop_
_atom_site_type_symbol
_atom_site_label
_atom_site_fract_x
_atom_site_fract_y
_atom_site_fract_z
Si Si1 0.324733 0.180999 0.316170
Si Si2 0.913083 0.373524 0.952227
Si Si3 0.270242 0.367376 0.834935
Si Si4 0.184081 0.363665 0.470071
Si Si5 0.049024 0.138801 0.456062
Si Si6 0.449822 0.366214 0.310007
Si Si7 0.111298 0.708059 0.257235
Si Si8 0.325206 0.363857 0.559037
O O1 0.365137 0.125656 0.394679
O O2 0.279353 0.128599 0.354109
O O3 0.322327 0.310474 0.393599
O O4 0.329167 0.167212 0.139283
O O5 0.932759 0.500000 0.902657
O O6 0.932061 0.249645 0.892469
O O7 0.912281 0.367228 0.131575
O O8 0.287265 0.500000 0.880377
O O9 0.288083 0.249364 0.915670
O O10 0.283163 0.352576 0.659892
O O11 0.201877 0.500000 0.465539
O O12 0.143661 0.361134 0.362606
O O13 0.059171 0.146944 0.632859
O O14 0.079112 0.219992 0.359013
O O15 0.000000 0.169612 0.437388
O O16 0.054056 0.000000 0.412892
O O17 0.500000 0.366204 0.327123
O O18 0.435083 0.500000 0.357387
O O19 0.140182 0.796397 0.157801
O O20 0.336512 0.500000 0.550009
#
# Coordination Sequence:
#
# PCOD9375410 Si02
#       8
#     8   8   8   8   8   8   8   8
#     4  11  22  36  58  84 114 152 193 236 286 342
#     4  11  23  38  58  85 118 156 193 232 282 339
#     4  10  21  39  60  84 114 148 190 240 291 342
#     4  11  23  40  61  84 113 152 195 239 287 339
#     4   9  18  35  61  90 118 149 188 236 287 339
#     4   9  20  40  64  90 118 148 187 235 285 338
#     4  10  21  37  57  83 116 154 193 235 283 338
#     4   9  20  37  56  81 115 152 192 240 289 339
#
# _framework density 20.003913000000001
#
# number of rings (size 3 to 8) (size 9 to 14) (size 15 to 20)
#    0.000    2.000    0.000    4.125    0.000    5.750 
#    0.000    6.875    0.000    2.625    0.000    0.000 
#    0.000    0.000    0.000    0.000    0.000    0.000 
#
# Total GULP energy -178420.090720 kJ/mol
# GULP energy per Si atom -5575.627835 kJ/mol
# Density = 1.995838 g / cm^3
# Si number density = 20.003913 Si / 1000 Ang^3
#
#
#
# Elastic Constant Matrix: (Units=GPa)
#
#
# Indices 1 2 3 4 5 6 
#
# 1 52.8242 44.5676 29.5709 0.0000 0.0000 0.0000
# 2 44.5676 180.7499 73.7343 0.0000 0.0000 0.0000
# 3 29.5709 73.7343 91.4918 0.0000 0.0000 0.0000
# 4 0.0000 0.0000 0.0000 12.4234 0.0000 0.0000
# 5 0.0000 0.0000 0.0000 0.0000 24.5470 0.0000
# 6 0.0000 0.0000 0.0000 0.0000 0.0000 -66.0918
#
#
#
# Elastic Compliance Matrix: (Units=1/GPa)
#
#
# Indices 1 2 3 4 5 6 
#
# 1 0.025175 -0.004303 -0.004669 0.000000 0.000000 0.000000
# 2 -0.004303 0.008978 -0.005844 0.000000 0.000000 0.000000
# 3 -0.004669 -0.005844 0.017149 0.000000 0.000000 0.000000
# 4 0.000000 0.000000 0.000000 0.080493 0.000000 0.000000
# 5 0.000000 0.000000 0.000000 0.000000 0.040738 0.000000
# 6 0.000000 0.000000 0.000000 0.000000 0.000000 -0.015130
#
#
# Mechanical properties :
#
#
# Convention : Reuss Voigt Hill
#
# Bulk Modulus (GPa) = 46.14904 68.97903 57.56404
# Shear Modulus (GPa) = 25.73903 5.98861 15.86382
#
# Velocity S-wave (km/s) = 3.59095 1.73211 2.81914
# Velocity P-wave (km/s) = 6.34928 6.20950 6.27978
#
# Compressibility (1/GPa) = 0.02166892
#
# Stress axis : x y z
#
# Youngs Moduli (GPa) = 39.72260 111.38862 58.31183
#
# Poissons Ratio (x) = 0.47926 0.27226
# Poissons Ratio (y) = 0.17091 0.34080
# Poissons Ratio (z) = 0.18547 0.65101
#
# Static dielectric constant tensor:
#      x y z
#    x 1.720180 0.000000 0.000000 
#    y 0.000000 1.748760 0.000000 
#    z 0.000000 0.000000 1.692910 
# 
# From -- ./inp_files/10117.got.cif
#   From: 2010.05.17/outbox.cif.g08.bks.cpg/sg44_6_cif.got.tgz:10117.got - 2010.06.03 19:37:08.
