data_PCOD9375274
_publ_section_title
;
Structure prediction by ZEFSAII (Michael W. Deem and Ramdas Pophale) SiO2 
 PCOD9375274
Probable space group: I M M 2
;
_chemical_formula_sum "Si O2"
_cell_formula_units_Z 56
_cell_length_a 27.348660
_cell_length_b 18.977106
_cell_length_c 5.398001
_cell_angle_alpha 90.000000
_cell_angle_beta 90.000000
_cell_angle_gamma 90.000000
_cell_volume 2801.553989
_symmetry_space_group_name_H-M "I M M 2"
_symmetry_group_IT_number 44
_symmetry_cell_setting 'orthorhombic'
loop_
_space_group_symop_operation_xyz
x,y,z
-x,-y,z
-x,y,z
x,-y,z
1/2+x,1/2+y,1/2+z
1/2-x,1/2-y,1/2+z
1/2-x,1/2+y,1/2+z
1/2+x,1/2-y,1/2+z
loop_
_atom_site_type_symbol
_atom_site_label
_atom_site_fract_x
_atom_site_fract_y
_atom_site_fract_z
Si Si1 0.554985 0.576809 0.026000
Si Si2 0.442722 0.734921 0.191132
Si Si3 0.791122 0.815398 0.696679
Si Si4 0.384885 0.764286 0.687268
Si Si5 0.848481 0.113919 0.317829
Si Si6 0.249226 0.422878 0.576021
Si Si7 0.195735 0.326408 0.910115
O O1 0.500000 0.580364 0.918339
O O2 0.559143 0.500000 0.153648
O O3 0.560483 0.649061 0.179765
O O4 0.598462 0.580128 0.826223
O O5 0.500000 0.752871 0.171697
O O6 0.421076 0.760922 0.451991
O O7 0.414341 0.764120 0.946660
O O8 0.831572 0.869662 0.598694
O O9 0.758696 0.858160 0.892576
O O10 0.817401 0.741646 0.745111
O O11 0.750430 0.802863 0.487872
O O12 0.354541 0.690570 0.693529
O O13 0.344516 0.824368 0.626407
O O14 0.802372 0.074316 0.207036
O O15 0.238982 0.500000 0.467191
O O16 0.206628 0.397891 0.763771
#
# Coordination Sequence:
#
# PCOD9375274 Si02
#       7
#     8   8   8   8   8   8   8
#     4   9  18  33  51  71 102 148 197 243 292 342
#     4  10  22  38  57  85 120 151 191 253 309 356
#     4  11  20  35  56  80 112 155 204 253 294 360
#     4  11  21  36  63  88 111 155 202 247 298 357
#     4  10  21  35  55  79 109 152 209 251 297 351
#     4  11  24  36  54  84 120 156 199 255 308 360
#     4  11  20  35  59  82 112 153 205 247 296 368
#
# _framework density 19.988907000000001
#
# number of rings (size 3 to 8) (size 9 to 14) (size 15 to 20)
#    0.000    1.571    2.857    3.429    2.000    3.429 
#    0.000    2.857    0.000   10.286    0.000    0.000 
#    0.000    3.429    0.000    0.000    0.000    0.000 
#
# Total GULP energy -155968.491659 kJ/mol
# GULP energy per Si atom -5570.303274 kJ/mol
# Density = 1.994341 g / cm^3
# Si number density = 19.988907 Si / 1000 Ang^3
#
#
#
# Elastic Constant Matrix: (Units=GPa)
#
#
# Indices 1 2 3 4 5 6 
#
# 1 115.1631 18.3577 37.0657 0.0000 0.0000 0.0000
# 2 18.3577 49.1311 11.4288 0.0000 0.0000 0.0000
# 3 37.0657 11.4288 71.2267 0.0000 0.0000 0.0000
# 4 0.0000 0.0000 0.0000 -0.2850 0.0000 0.0000
# 5 0.0000 0.0000 0.0000 0.0000 26.0207 0.0000
# 6 0.0000 0.0000 0.0000 0.0000 0.0000 -0.9895
#
#
#
# Elastic Compliance Matrix: (Units=1/GPa)
#
#
# Indices 1 2 3 4 5 6 
#
# 1 0.010797 -0.002833 -0.005164 0.000000 0.000000 0.000000
# 2 -0.002833 0.021886 -0.002038 0.000000 0.000000 0.000000
# 3 -0.005164 -0.002038 0.017054 0.000000 0.000000 0.000000
# 4 0.000000 0.000000 0.000000 -3.508405 0.000000 0.000000
# 5 0.000000 0.000000 0.000000 0.000000 0.038431 0.000000
# 6 0.000000 0.000000 0.000000 0.000000 0.000000 -1.010584
#
#
# Mechanical properties :
#
#
# Convention : Reuss Voigt Hill
#
# Bulk Modulus (GPa) = 33.70641 41.02504 37.36572
# Shear Modulus (GPa) = -1.13614 16.19380 7.52883
#
# Velocity S-wave (km/s) = -0.75473 2.84938 1.94285
# Velocity P-wave (km/s) = 4.01742 5.60301 4.87511
#
# Compressibility (1/GPa) = 0.02966795
#
# Stress axis : x y z
#
# Youngs Moduli (GPa) = 92.61816 45.69081 58.63747
#
# Poissons Ratio (x) = 0.12944 0.30281
# Poissons Ratio (y) = 0.26239 0.11948
# Poissons Ratio (z) = 0.47829 0.09310
#
# Static dielectric constant tensor:
#      x y z
#    x 1.742640 0.000000 0.000000 
#    y 0.000000 1.760270 0.000000 
#    z 0.000000 0.000000 1.855590 
# 
# From -- ./inp_files/3096.got.cif
#   From: 2010.05.17/outbox.cif.g08.bks.cpg/sg44_2_cif.got.tgz:3096.got - 2010.06.03 19:37:08.
