data_PCOD9375618
_publ_section_title
;
Structure prediction by ZEFSAII (Michael W. Deem and Ramdas Pophale) SiO2 
 PCOD9375618
Probable space group: I M M 2
;
_chemical_formula_sum "Si O2"
_cell_formula_units_Z 28
_cell_length_a 14.348608
_cell_length_b 12.302599
_cell_length_c 8.615390
_cell_angle_alpha 90.000000
_cell_angle_beta 90.000000
_cell_angle_gamma 90.000000
_cell_volume 1520.833188
_symmetry_space_group_name_H-M "I M M 2"
_symmetry_group_IT_number 44
_symmetry_cell_setting 'orthorhombic'
loop_
_space_group_symop_operation_xyz
x,y,z
-x,-y,z
-x,y,z
x,-y,z
1/2+x,1/2+y,1/2+z
1/2-x,1/2-y,1/2+z
1/2-x,1/2+y,1/2+z
1/2+x,1/2-y,1/2+z
loop_
_atom_site_type_symbol
_atom_site_label
_atom_site_fract_x
_atom_site_fract_y
_atom_site_fract_z
Si Si1 0.500000 0.870513 0.531311
Si Si2 0.801668 0.123784 0.900947
Si Si3 0.000000 0.803440 0.777617
Si Si4 0.500000 0.370362 0.927896
Si Si5 0.654954 0.264813 0.713113
O O1 0.500000 0.814203 0.361438
O O2 0.410964 0.822027 0.623416
O O3 0.500000 0.000000 0.525971
O O4 0.734692 0.203401 0.806663
O O5 0.907105 0.137794 0.839199
O O6 0.771474 0.000000 0.881210
O O7 0.803148 0.158292 0.080475
O O8 0.000000 0.808915 0.592457
O O9 0.500000 0.500000 0.953275
O O10 0.589328 0.333335 0.828166
#
# Coordination Sequence:
#
# PCOD9375618 Si02
#       5
#     4   8   4   4   8
#     4   9  19  39  58  80 112 147 181 233 284 328
#     4  11  21  38  58  83 115 149 184 233 279 325
#     4  10  22  36  58  84 112 148 194 226 272 338
#     4  11  21  39  60  84 114 147 183 233 280 328
#     4  10  22  36  58  86 112 144 191 227 275 342
#
# _framework density 18.410961
#
# number of rings (size 3 to 8) (size 9 to 14) (size 15 to 20)
#    0.000    1.714    0.000    5.571    0.000    0.000 
#    0.000   22.857    0.000    0.000    0.000    0.000 
#    0.000    0.000    0.000    0.000    0.000    0.000 
#
# Total GULP energy -78217.018450 kJ/mol
# GULP energy per Si atom -5586.929889 kJ/mol
# Density = 1.836906 g / cm^3
# Si number density = 18.410961 Si / 1000 Ang^3
#
#
#
# Elastic Constant Matrix: (Units=GPa)
#
#
# Indices 1 2 3 4 5 6 
#
# 1 95.8184 13.7880 36.7173 0.0000 0.0000 0.0000
# 2 13.7880 61.6847 20.1307 0.0000 0.0000 0.0000
# 3 36.7173 20.1307 138.5048 0.0000 0.0000 0.0000
# 4 0.0000 0.0000 0.0000 13.6825 0.0000 0.0000
# 5 0.0000 0.0000 0.0000 0.0000 35.4970 0.0000
# 6 0.0000 0.0000 0.0000 0.0000 0.0000 11.7240
#
#
#
# Elastic Compliance Matrix: (Units=1/GPa)
#
#
# Indices 1 2 3 4 5 6 
#
# 1 0.011783 -0.001695 -0.002877 0.000000 0.000000 0.000000
# 2 -0.001695 0.017262 -0.002060 0.000000 0.000000 0.000000
# 3 -0.002877 -0.002060 0.008282 0.000000 0.000000 0.000000
# 4 0.000000 0.000000 0.000000 0.073086 0.000000 0.000000
# 5 0.000000 0.000000 0.000000 0.000000 0.028171 0.000000
# 6 0.000000 0.000000 0.000000 0.000000 0.000000 0.085295
#
#
# Mechanical properties :
#
#
# Convention : Reuss Voigt Hill
#
# Bulk Modulus (GPa) = 41.55596 48.58666 45.07131
# Shear Modulus (GPa) = 20.39441 27.20547 23.79994
#
# Velocity S-wave (km/s) = 3.33187 3.84823 3.59932
# Velocity P-wave (km/s) = 6.11736 6.79651 6.46586
#
# Compressibility (1/GPa) = 0.02406394
#
# Stress axis : x y z
#
# Youngs Moduli (GPa) = 84.86908 57.92912 120.74243
#
# Poissons Ratio (x) = 0.09818 0.34741
# Poissons Ratio (y) = 0.14383 0.24869
# Poissons Ratio (z) = 0.24419 0.11932
#
# Static dielectric constant tensor:
#      x y z
#    x 1.621580 0.000000 0.000000 
#    y 0.000000 1.591600 0.000000 
#    z 0.000000 0.000000 1.620980 
# 
# From -- ./inp_files/5520.got.cif
#   From: 2010.05.17/outbox.cif.g08.bks.cpg/sg44_3_cif.got.tgz:5520.got - 2010.06.03 19:37:08.
