data_PCOD9375148
_publ_section_title
;
Structure prediction by ZEFSAII (Michael W. Deem and Ramdas Pophale) SiO2 
 PCOD9375148
Probable space group: I M M 2
;
_chemical_formula_sum "Si O2"
_cell_formula_units_Z 40
_cell_length_a 9.032975
_cell_length_b 7.694392
_cell_length_c 30.624111
_cell_angle_alpha 90.000000
_cell_angle_beta 90.000000
_cell_angle_gamma 90.000000
_cell_volume 2128.475261
_symmetry_space_group_name_H-M "I M M 2"
_symmetry_group_IT_number 44
_symmetry_cell_setting 'orthorhombic'
loop_
_space_group_symop_operation_xyz
x,y,z
-x,-y,z
-x,y,z
x,-y,z
1/2+x,1/2+y,1/2+z
1/2-x,1/2-y,1/2+z
1/2-x,1/2+y,1/2+z
1/2+x,1/2-y,1/2+z
loop_
_atom_site_type_symbol
_atom_site_label
_atom_site_fract_x
_atom_site_fract_y
_atom_site_fract_z
Si Si1 0.822493 0.500000 0.876271
Si Si2 0.328709 0.289645 0.131927
Si Si3 0.819970 0.000000 0.471498
Si Si4 0.679980 0.806954 0.036199
Si Si5 0.830292 0.288262 0.219531
Si Si6 0.679329 0.793946 0.817202
O O1 0.758050 0.500000 0.925092
O O2 0.758747 0.669013 0.851205
O O3 0.000000 0.500000 0.876026
O O4 0.500000 0.237217 0.133847
O O5 0.322881 0.500000 0.130959
O O6 0.265678 0.227568 0.085538
O O7 0.252578 0.228178 0.176288
O O8 0.776251 0.834909 0.500926
O O9 0.000000 0.000000 0.465961
O O10 0.500000 0.795745 0.038772
O O11 0.721040 0.000000 0.022477
O O12 0.828576 0.500000 0.218858
O O13 0.773624 0.242153 0.267752
O O14 0.000000 0.232019 0.216871
O O15 0.500000 0.773600 0.819714
O O16 0.709903 0.000000 0.823556
#
# Coordination Sequence:
#
# PCOD9375148 Si02
#       6
#     4   8   4   8   8   8
#     4  12  26  40  58  88 120 150 186 240 311 360
#     4   9  15  26  47  75 108 145 179 217 269 325
#     4  10  20  38  60  78 102 142 194 240 279 334
#     4   9  17  31  53  79 105 137 181 231 274 321
#     4   8  15  29  51  79 109 144 183 223 271 325
#     4   9  19  39  64  85 111 152 200 243 280 335
#
# _framework density 18.792795000000002
#
# number of rings (size 3 to 8) (size 9 to 14) (size 15 to 20)
#    0.000    2.800    1.000    2.100    0.000    2.000 
#    1.800    5.000    0.000    1.200    0.000    0.000 
#    0.000    0.000    0.000    0.000    0.000    0.000 
#
# Total GULP energy -111518.830570 kJ/mol
# GULP energy per Si atom -5575.941529 kJ/mol
# Density = 1.875002 g / cm^3
# Si number density = 18.792795 Si / 1000 Ang^3
#
#
#
# Elastic Constant Matrix: (Units=GPa)
#
#
# Indices 1 2 3 4 5 6 
#
# 1 40.1900 39.1066 62.2926 0.0000 0.0000 0.0000
# 2 39.1066 104.3853 94.0349 0.0000 0.0000 0.0000
# 3 62.2926 94.0349 213.1692 0.0000 0.0000 0.0000
# 4 0.0000 0.0000 0.0000 -37.0292 0.0000 0.0000
# 5 0.0000 0.0000 0.0000 0.0000 31.2558 0.0000
# 6 0.0000 0.0000 0.0000 0.0000 0.0000 12.2202
#
#
#
# Elastic Compliance Matrix: (Units=1/GPa)
#
#
# Indices 1 2 3 4 5 6 
#
# 1 0.050410 -0.009318 -0.010620 0.000000 0.000000 0.000000
# 2 -0.009318 0.017620 -0.005050 0.000000 0.000000 0.000000
# 3 -0.010620 -0.005050 0.010022 0.000000 0.000000 0.000000
# 4 0.000000 0.000000 0.000000 -0.027006 0.000000 0.000000
# 5 0.000000 0.000000 0.000000 0.000000 0.031994 0.000000
# 6 0.000000 0.000000 0.000000 0.000000 0.000000 0.081832
#
#
# Mechanical properties :
#
#
# Convention : Reuss Voigt Hill
#
# Bulk Modulus (GPa) = 35.61823 83.17919 59.39871
# Shear Modulus (GPa) = 22.30090 12.11007 17.20548
#
# Velocity S-wave (km/s) = 3.44855 2.54126 3.02907
# Velocity P-wave (km/s) = 5.90347 7.27791 6.62642
#
# Compressibility (1/GPa) = 0.02807551
#
# Stress axis : x y z
#
# Youngs Moduli (GPa) = 19.83741 56.75463 99.77932
#
# Poissons Ratio (x) = 0.52885 1.05969
# Poissons Ratio (y) = 0.18485 0.50384
# Poissons Ratio (z) = 0.21068 0.28659
#
# Static dielectric constant tensor:
#      x y z
#    x 1.636890 0.000000 0.000000 
#    y 0.000000 1.672010 0.000000 
#    z 0.000000 0.000000 1.642730 
# 
# From -- ./inp_files/25952.got.cif
#   From: 2010.05.17/outbox.cif.g08.bks.cpg/sg44_13_cif.got.tgz:25952.got - 2010.06.03 19:37:08.
