data_PCOD9375065
_publ_section_title
;
Structure prediction by ZEFSAII (Michael W. Deem and Ramdas Pophale) SiO2 
 PCOD9375065
Probable space group: I M M 2
;
_chemical_formula_sum "Si O2"
_cell_formula_units_Z 36
_cell_length_a 11.208276
_cell_length_b 23.404529
_cell_length_c 7.701524
_cell_angle_alpha 90.000000
_cell_angle_beta 90.000000
_cell_angle_gamma 90.000000
_cell_volume 2020.297822
_symmetry_space_group_name_H-M "I M M 2"
_symmetry_group_IT_number 44
_symmetry_cell_setting 'orthorhombic'
loop_
_space_group_symop_operation_xyz
x,y,z
-x,-y,z
-x,y,z
x,-y,z
1/2+x,1/2+y,1/2+z
1/2-x,1/2-y,1/2+z
1/2-x,1/2+y,1/2+z
1/2+x,1/2-y,1/2+z
loop_
_atom_site_type_symbol
_atom_site_label
_atom_site_fract_x
_atom_site_fract_y
_atom_site_fract_z
Si Si1 0.500000 0.000000 0.306510
Si Si2 0.260245 0.826191 0.472346
Si Si3 0.141836 0.792646 0.833246
Si Si4 0.000000 0.500000 0.306286
Si Si5 0.000000 0.393790 0.055571
Si Si6 0.278299 0.000000 0.057086
Si Si7 0.642513 0.384223 0.638493
O O1 0.500000 0.059728 0.404018
O O2 0.624045 0.000000 0.207858
O O3 0.181946 0.815337 0.644655
O O4 0.291333 0.765757 0.382625
O O5 0.382471 0.855481 0.537914
O O6 0.198349 0.864135 0.322240
O O7 0.000000 0.782076 0.831149
O O8 0.167247 0.837830 0.987173
O O9 0.000000 0.562191 0.215239
O O10 0.870104 0.500000 0.397054
O O11 0.198745 0.943721 0.075557
O O12 0.500000 0.389031 0.657570
#
# Coordination Sequence:
#
# PCOD9375065 Si02
#       7
#     2   8   8   2   4   4   8
#     4  10  20  36  64  84 124 152 204 260 302 368
#     4  12  22  40  65  93 129 169 210 260 316 381
#     4  11  24  41  61  93 129 164 212 261 315 379
#     4  10  24  40  66  98 126 164 214 274 324 372
#     4  11  22  40  62  96 126 165 210 261 318 374
#     4  11  21  42  63  91 122 165 211 260 318 383
#     4  11  24  42  64  93 128 169 212 260 320 384
#
# _framework density 17.819154999999999
#
# number of rings (size 3 to 8) (size 9 to 14) (size 15 to 20)
#    0.000    0.889    5.556    2.333    0.000    0.000 
#    2.000    0.000    0.000    2.667    0.000    0.000 
#    0.000    0.000    0.000    0.000    0.000    0.000 
#
# Total GULP energy -100404.980553 kJ/mol
# GULP energy per Si atom -5578.054475 kJ/mol
# Density = 1.777860 g / cm^3
# Si number density = 17.819155 Si / 1000 Ang^3
#
#
#
# Elastic Constant Matrix: (Units=GPa)
#
#
# Indices 1 2 3 4 5 6 
#
# 1 100.7849 59.0465 48.0667 0.0005 0.0000 0.0002
# 2 59.0465 119.6376 41.2523 0.0010 -0.0003 0.0006
# 3 48.0667 41.2523 108.9686 0.0034 -0.0004 0.0020
# 4 0.0005 0.0010 0.0034 34.3560 -0.0003 0.0009
# 5 0.0000 -0.0003 -0.0004 -0.0003 38.8237 -0.0001
# 6 0.0002 0.0006 0.0020 0.0009 -0.0001 41.6022
#
#
#
# Elastic Compliance Matrix: (Units=1/GPa)
#
#
# Indices 1 2 3 4 5 6 
#
# 1 0.015738 -0.006180 -0.004602 0.000000 0.000000 0.000000
# 2 -0.006180 0.012041 -0.001832 0.000000 0.000000 0.000000
# 3 -0.004602 -0.001832 0.011901 -0.000001 0.000000 -0.000001
# 4 0.000000 0.000000 -0.000001 0.029107 0.000000 -0.000001
# 5 0.000000 0.000000 0.000000 0.000000 0.025757 0.000000
# 6 0.000000 0.000000 -0.000001 -0.000001 0.000000 0.024037
#
#
# Mechanical properties :
#
#
# Convention : Reuss Voigt Hill
#
# Bulk Modulus (GPa) = 69.20615 69.56914 69.38764
# Shear Modulus (GPa) = 33.64125 35.02477 34.33301
#
# Velocity S-wave (km/s) = 4.34974 4.43828 4.39424
# Velocity P-wave (km/s) = 8.00933 8.08647 8.04799
#
# Compressibility (1/GPa) = 0.01444958
#
# Stress axis : x y z
#
# Youngs Moduli (GPa) = 63.54033 83.05240 84.02908
#
# Poissons Ratio (x) = 0.51330 0.38674
# Poissons Ratio (y) = 0.39271 0.15394
# Poissons Ratio (z) = 0.29244 0.15215
#
# Static dielectric constant tensor:
#      x y z
#    x 1.573640 0.000000 0.000000 
#    y 0.000000 1.589990 0.000000 
#    z 0.000000 0.000000 1.627890 
# 
# From -- ./inp_files/5803.got.cif
#   From: 2010.05.17/outbox.cif.g08.bks.cpg/sg44_3_cif.got.tgz:5803.got - 2010.06.03 19:37:08.
