data_PCOD9375051
_publ_section_title
;
Structure prediction by ZEFSAII (Michael W. Deem and Ramdas Pophale) SiO2 
 PCOD9375051
Probable space group: I M M 2
;
_chemical_formula_sum "Si O2"
_cell_formula_units_Z 48
_cell_length_a 14.768845
_cell_length_b 8.866348
_cell_length_c 20.839765
_cell_angle_alpha 90.000000
_cell_angle_beta 90.000000
_cell_angle_gamma 90.000000
_cell_volume 2728.878019
_symmetry_space_group_name_H-M "I M M 2"
_symmetry_group_IT_number 44
_symmetry_cell_setting 'orthorhombic'
loop_
_space_group_symop_operation_xyz
x,y,z
-x,-y,z
-x,y,z
x,-y,z
1/2+x,1/2+y,1/2+z
1/2-x,1/2-y,1/2+z
1/2-x,1/2+y,1/2+z
1/2+x,1/2-y,1/2+z
loop_
_atom_site_type_symbol
_atom_site_label
_atom_site_fract_x
_atom_site_fract_y
_atom_site_fract_z
Si Si1 0.500000 0.180366 0.390530
Si Si2 0.696380 0.319489 0.949493
Si Si3 0.000000 0.181673 0.499574
Si Si4 0.000000 0.679416 0.641440
Si Si5 0.000000 0.179464 0.033114
Si Si6 0.315814 0.680760 0.192478
Si Si7 0.684822 0.181072 0.576507
Si Si8 0.684654 0.679689 0.339152
O O1 0.500000 0.243701 0.462936
O O2 0.410134 0.240626 0.355973
O O3 0.500000 0.000000 0.392282
O O4 0.701973 0.500000 0.939371
O O5 0.592052 0.279187 0.962458
O O6 0.741698 0.236545 0.889901
O O7 0.753555 0.285759 0.014012
O O8 0.000000 0.258512 0.568879
O O9 0.000000 0.000000 0.509607
O O10 0.910275 0.740880 0.675768
O O11 0.000000 0.500000 0.641462
O O12 0.090161 0.234912 0.068849
O O13 0.000000 0.000000 0.025719
O O14 0.329057 0.500000 0.186389
O O15 0.240769 0.723786 0.139941
O O16 0.289492 0.713651 0.265684
O O17 0.669526 0.000000 0.577495
O O18 0.672609 0.500000 0.345443
#
# Coordination Sequence:
#
# PCOD9375051 Si02
#       8
#     4   8   4   4   4   8   8   8
#     4  12  23  37  58  84 119 157 192 232 285 350
#     4  10  20  36  62  86 113 154 195 235 280 338
#     4  10  20  39  62  85 114 155 198 231 276 346
#     4  12  23  33  56  92 123 149 182 242 297 334
#     4  12  24  37  58  89 120 147 188 245 294 334
#     4  10  22  41  61  82 115 159 196 230 281 350
#     4  10  20  38  63  85 111 153 199 234 277 342
#     4  11  23  38  59  87 119 152 190 239 291 338
#
# _framework density 17.589645999999998
#
# number of rings (size 3 to 8) (size 9 to 14) (size 15 to 20)
#    0.000    1.333    3.333    3.250    0.000    4.667 
#    0.000    0.833    0.000    3.000    0.000    0.000 
#    0.000    0.000    0.000    0.000    0.000    0.000 
#
# Total GULP energy -134143.105546 kJ/mol
# GULP energy per Si atom -5589.296064 kJ/mol
# Density = 1.754961 g / cm^3
# Si number density = 17.589646 Si / 1000 Ang^3
#
#
#
# Elastic Constant Matrix: (Units=GPa)
#
#
# Indices 1 2 3 4 5 6 
#
# 1 148.6626 66.0831 85.0614 0.0000 0.0000 0.0000
# 2 66.0831 64.0368 72.3767 0.0000 0.0000 0.0000
# 3 85.0614 72.3767 162.9412 0.0000 0.0000 0.0000
# 4 0.0000 0.0000 0.0000 27.7908 0.0000 0.0000
# 5 0.0000 0.0000 0.0000 0.0000 -28.6892 0.0000
# 6 0.0000 0.0000 0.0000 0.0000 0.0000 16.7522
#
#
#
# Elastic Compliance Matrix: (Units=1/GPa)
#
#
# Indices 1 2 3 4 5 6 
#
# 1 0.012636 -0.011214 -0.001615 0.000000 0.000000 0.000000
# 2 -0.011214 0.041312 -0.012496 0.000000 0.000000 0.000000
# 3 -0.001615 -0.012496 0.012531 0.000000 0.000000 0.000000
# 4 0.000000 0.000000 0.000000 0.035983 0.000000 0.000000
# 5 0.000000 0.000000 0.000000 0.000000 -0.034856 0.000000
# 6 0.000000 0.000000 0.000000 0.000000 0.000000 0.059694
#
#
# Mechanical properties :
#
#
# Convention : Reuss Voigt Hill
#
# Bulk Modulus (GPa) = 63.17904 91.40921 77.29412
# Shear Modulus (GPa) = 27.28878 13.31205 20.30042
#
# Velocity S-wave (km/s) = 3.94307 2.75401 3.40091
# Velocity P-wave (km/s) = 7.53171 7.88626 7.71103
#
# Compressibility (1/GPa) = 0.01582804
#
# Stress axis : x y z
#
# Youngs Moduli (GPa) = 79.14194 24.20610 79.80151
#
# Poissons Ratio (x) = 0.27144 0.12889
# Poissons Ratio (y) = 0.88748 0.99722
# Poissons Ratio (z) = 0.12783 0.30249
#
# Static dielectric constant tensor:
#      x y z
#    x 1.574680 0.000000 0.000000 
#    y 0.000000 1.588160 0.000000 
#    z 0.000000 0.000000 1.585230 
# 
# From -- ./inp_files/21742.got.cif
#   From: 2010.05.17/outbox.cif.g08.bks.cpg/sg44_11_cif.got.tgz:21742.got - 2010.06.03 19:37:08.
