data_PCOD9375186
_publ_section_title
;
Structure prediction by ZEFSAII (Michael W. Deem and Ramdas Pophale) SiO2 
 PCOD9375186
Probable space group: I M M 2
;
_chemical_formula_sum "Si O2"
_cell_formula_units_Z 48
_cell_length_a 10.266701
_cell_length_b 8.262317
_cell_length_c 28.931972
_cell_angle_alpha 90.000000
_cell_angle_beta 90.000000
_cell_angle_gamma 90.000000
_cell_volume 2454.204815
_symmetry_space_group_name_H-M "I M M 2"
_symmetry_group_IT_number 44
_symmetry_cell_setting 'orthorhombic'
loop_
_space_group_symop_operation_xyz
x,y,z
-x,-y,z
-x,y,z
x,-y,z
1/2+x,1/2+y,1/2+z
1/2-x,1/2-y,1/2+z
1/2-x,1/2+y,1/2+z
1/2+x,1/2-y,1/2+z
loop_
_atom_site_type_symbol
_atom_site_label
_atom_site_fract_x
_atom_site_fract_y
_atom_site_fract_z
Si Si1 0.253736 0.195834 0.631420
Si Si2 0.748595 0.307598 0.851822
Si Si3 0.000000 0.302026 0.793606
Si Si4 0.000000 0.307016 0.686182
Si Si5 0.651749 0.192644 0.950858
Si Si6 0.000000 0.303021 0.189968
Si Si7 0.651696 0.195298 0.530669
Si Si8 0.500000 0.195465 0.795831
O O1 0.123934 0.252163 0.656564
O O2 0.372966 0.251444 0.663113
O O3 0.285437 0.250894 0.579329
O O4 0.251744 0.000000 0.630341
O O5 0.761394 0.500000 0.858108
O O6 0.874552 0.249894 0.823268
O O7 0.717626 0.233651 0.901756
O O8 0.625566 0.265095 0.820654
O O9 0.000000 0.500000 0.792255
O O10 0.000000 0.246502 0.739844
O O11 0.000000 0.500000 0.689025
O O12 0.500000 0.253776 0.952723
O O13 0.644790 0.000000 0.955530
O O14 0.748782 0.257437 0.990217
O O15 0.000000 0.254050 0.242741
O O16 0.000000 0.500000 0.188997
O O17 0.500000 0.251411 0.525506
O O18 0.645265 0.000000 0.532037
O O19 0.500000 0.000000 0.799222
#
# Coordination Sequence:
#
# PCOD9375186 Si02
#       8
#     8   8   4   4   8   4   8   4
#     4  10  20  39  63  89 119 156 203 248 292 350
#     4  11  22  40  64  87 116 158 205 249 295 355
#     4   9  22  41  60  87 122 160 204 250 294 349
#     4  11  23  39  58  87 128 165 198 243 300 353
#     4  11  25  43  62  89 125 157 193 247 308 364
#     4   9  18  35  62  89 118 154 196 246 298 349
#     4  10  22  41  66  92 119 155 202 250 297 355
#     4  11  21  35  58  91 124 155 192 243 302 357
#
# _framework density 19.55827
#
# number of rings (size 3 to 8) (size 9 to 14) (size 15 to 20)
#    0.000    1.667    1.667    2.500    2.333    2.000 
#    0.000    5.000    0.000    0.000    0.000    0.000 
#    0.000    0.000    0.000    0.000    0.000    0.000 
#
# Total GULP energy -134000.989530 kJ/mol
# GULP energy per Si atom -5583.374564 kJ/mol
# Density = 1.951375 g / cm^3
# Si number density = 19.558270 Si / 1000 Ang^3
#
#
#
# Elastic Constant Matrix: (Units=GPa)
#
#
# Indices 1 2 3 4 5 6 
#
# 1 217.7867 13.4918 121.9947 0.0000 0.0000 0.0000
# 2 13.4918 16.9115 11.1260 0.0000 0.0000 0.0000
# 3 121.9947 11.1260 213.2154 0.0000 0.0000 0.0000
# 4 0.0000 0.0000 0.0000 26.1460 0.0000 0.0000
# 5 0.0000 0.0000 0.0000 0.0000 41.3994 0.0000
# 6 0.0000 0.0000 0.0000 0.0000 0.0000 324.9320
#
#
#
# Elastic Compliance Matrix: (Units=1/GPa)
#
#
# Indices 1 2 3 4 5 6 
#
# 1 0.006902 -0.003012 -0.003792 0.000000 0.000000 0.000000
# 2 -0.003012 0.062548 -0.001541 0.000000 0.000000 0.000000
# 3 -0.003792 -0.001541 0.006940 0.000000 0.000000 0.000000
# 4 0.000000 0.000000 0.000000 0.038247 0.000000 0.000000
# 5 0.000000 0.000000 0.000000 0.000000 0.024155 0.000000
# 6 0.000000 0.000000 0.000000 0.000000 0.000000 0.003078
#
#
# Mechanical properties :
#
#
# Convention : Reuss Voigt Hill
#
# Bulk Modulus (GPa) = 16.75005 82.34874 49.54939
# Shear Modulus (GPa) = 28.01757 98.58222 63.29990
#
# Velocity S-wave (km/s) = 3.78897 7.10731 5.69518
# Velocity P-wave (km/s) = 5.26540 10.46649 8.28468
#
# Compressibility (1/GPa) = 0.05970132
#
# Stress axis : x y z
#
# Youngs Moduli (GPa) = 144.87603 15.98775 144.08708
#
# Poissons Ratio (x) = 0.04815 0.54641
# Poissons Ratio (y) = 0.43635 0.22198
# Poissons Ratio (z) = 0.54940 0.02463
#
# Static dielectric constant tensor:
#      x y z
#    x 1.687210 0.000000 0.000000 
#    y 0.000000 1.694070 0.000000 
#    z 0.000000 0.000000 1.675070 
# 
# From -- ./inp_files/27033.got.cif
#   From: 2010.05.17/outbox.cif.g08.bks.cpg/sg44_14_cif.got.tgz:27033.got - 2010.06.03 19:37:08.
