data_PCOD9375503
_publ_section_title
;
Structure prediction by ZEFSAII (Michael W. Deem and Ramdas Pophale) SiO2 
 PCOD9375503
Probable space group: I M M 2
;
_chemical_formula_sum "Si O2"
_cell_formula_units_Z 64
_cell_length_a 7.753074
_cell_length_b 31.666554
_cell_length_c 12.294216
_cell_angle_alpha 90.000000
_cell_angle_beta 90.000000
_cell_angle_gamma 90.000000
_cell_volume 3018.391531
_symmetry_space_group_name_H-M "I M M 2"
_symmetry_group_IT_number 44
_symmetry_cell_setting 'orthorhombic'
loop_
_space_group_symop_operation_xyz
x,y,z
-x,-y,z
-x,y,z
x,-y,z
1/2+x,1/2+y,1/2+z
1/2-x,1/2-y,1/2+z
1/2-x,1/2+y,1/2+z
1/2+x,1/2-y,1/2+z
loop_
_atom_site_type_symbol
_atom_site_label
_atom_site_fract_x
_atom_site_fract_y
_atom_site_fract_z
Si Si1 0.708317 0.299337 0.314940
Si Si2 0.801730 0.566400 0.070186
Si Si3 0.793751 0.623010 0.465997
Si Si4 0.300069 0.545936 0.831699
Si Si5 0.289169 0.046988 0.812977
Si Si6 0.297803 0.129921 0.209624
Si Si7 0.709572 0.204662 0.364526
Si Si8 0.703995 0.661676 0.087341
O O1 0.500000 0.298197 0.312711
O O2 0.761848 0.332704 0.406379
O O3 0.768645 0.251727 0.335520
O O4 0.766915 0.317124 0.198501
O O5 0.731428 0.552968 0.187941
O O6 0.794524 0.617104 0.067875
O O7 0.000000 0.552236 0.063266
O O8 0.710799 0.550161 0.962124
O O9 0.726824 0.584753 0.390307
O O10 0.723572 0.624126 0.588753
O O11 0.000000 0.616426 0.472620
O O12 0.500000 0.547013 0.799927
O O13 0.226868 0.500000 0.800435
O O14 0.215838 0.586600 0.776933
O O15 0.500000 0.049236 0.809753
O O16 0.242010 0.000000 0.851056
O O17 0.500000 0.139629 0.195131
O O18 0.226384 0.168838 0.280345
O O19 0.500000 0.204180 0.363163
O O20 0.766688 0.191447 0.484543
O O21 0.500000 0.652942 0.097808
#
# Coordination Sequence:
#
# PCOD9375503 Si02
#       8
#     8   8   8   8   8   8   8   8
#     4  10  23  40  59  86 122 157 191 239 295 349
#     4  11  20  35  60  88 119 154 193 240 291 347
#     4  10  21  38  61  87 116 153 198 244 289 343
#     4  11  24  40  59  86 120 155 194 241 292 349
#     4   9  18  33  55  85 117 148 189 241 289 337
#     4  10  22  39  61  85 114 154 198 245 292 343
#     4  10  22  40  59  84 117 155 197 240 289 345
#     4  11  22  37  61  90 119 153 192 241 296 347
#
# _framework density 21.203347000000001
#
# number of rings (size 3 to 8) (size 9 to 14) (size 15 to 20)
#    0.000    1.750    2.500    1.500    1.750    3.500 
#    0.000    1.250    0.000    1.125    0.000    0.000 
#    0.000    0.000    0.000    0.000    0.000    0.000 
#
# Total GULP energy -178824.469430 kJ/mol
# GULP energy per Si atom -5588.264670 kJ/mol
# Density = 2.115509 g / cm^3
# Si number density = 21.203347 Si / 1000 Ang^3
#
#
#
# Elastic Constant Matrix: (Units=GPa)
#
#
# Indices 1 2 3 4 5 6 
#
# 1 32.2988 -9.7469 -4.2561 0.0000 0.0000 0.0000
# 2 -9.7469 154.6549 61.7981 0.0005 0.0001 -0.0001
# 3 -4.2561 61.7981 142.6823 0.0008 0.0002 -0.0001
# 4 0.0000 0.0005 0.0008 34.6128 0.0002 -0.0001
# 5 0.0000 0.0001 0.0002 0.0002 -0.2993 0.0001
# 6 0.0000 -0.0001 -0.0001 -0.0001 0.0001 53.0964
#
#
#
# Elastic Compliance Matrix: (Units=1/GPa)
#
#
# Indices 1 2 3 4 5 6 
#
# 1 0.031562 0.001951 0.000097 0.000000 0.000002 0.000000
# 2 0.001951 0.007940 -0.003381 0.000000 0.000001 0.000000
# 3 0.000097 -0.003381 0.008476 0.000000 0.000003 0.000000
# 4 0.000000 0.000000 0.000000 0.028891 0.000017 0.000000
# 5 0.000002 0.000001 0.000003 0.000017 -3.341109 0.000005
# 6 0.000000 0.000000 0.000000 0.000000 0.000005 0.018834
#
#
# Mechanical properties :
#
#
# Convention : Reuss Voigt Hill
#
# Bulk Modulus (GPa) = 22.06978 47.24736 34.65857
# Shear Modulus (GPa) = -1.54912 36.27138 17.36113
#
# Velocity S-wave (km/s) = -0.85568 4.14048 2.86456
# Velocity P-wave (km/s) = 3.07489 6.72231 5.22707
#
# Compressibility (1/GPa) = 0.04531082
#
# Stress axis : x y z
#
# Youngs Moduli (GPa) = 31.68341 125.94745 117.98444
#
# Poissons Ratio (x) = -0.24566 -0.01141
# Poissons Ratio (y) = -0.06180 0.39887
# Poissons Ratio (z) = -0.00306 0.42579
#
# Static dielectric constant tensor:
#      x y z
#    x 1.788280 0.000000 0.000000 
#    y 0.000000 1.741540 0.000000 
#    z 0.000000 0.000000 1.739790 
# 
# From -- ./inp_files/11462.got.cif
#   From: 2010.05.17/outbox.cif.g08.bks.cpg/sg44_6_cif.got.tgz:11462.got - 2010.06.03 19:37:08.
