data_PCOD9375498
_publ_section_title
;
Structure prediction by ZEFSAII (Michael W. Deem and Ramdas Pophale) SiO2 
 PCOD9375498
Probable space group: I M M 2
;
_chemical_formula_sum "Si O2"
_cell_formula_units_Z 64
_cell_length_a 19.056207
_cell_length_b 26.843002
_cell_length_c 6.714389
_cell_angle_alpha 90.000000
_cell_angle_beta 90.000000
_cell_angle_gamma 90.000000
_cell_volume 3434.583222
_symmetry_space_group_name_H-M "I M M 2"
_symmetry_group_IT_number 44
_symmetry_cell_setting 'orthorhombic'
loop_
_space_group_symop_operation_xyz
x,y,z
-x,-y,z
-x,y,z
x,-y,z
1/2+x,1/2+y,1/2+z
1/2-x,1/2-y,1/2+z
1/2-x,1/2+y,1/2+z
1/2+x,1/2-y,1/2+z
loop_
_atom_site_type_symbol
_atom_site_label
_atom_site_fract_x
_atom_site_fract_y
_atom_site_fract_z
Si Si1 0.581373 0.406160 0.644210
Si Si2 0.582356 0.793443 0.020859
Si Si3 0.713187 0.557033 0.883095
Si Si4 0.290826 0.301510 0.464692
Si Si5 0.333960 0.793042 0.659607
Si Si6 0.805005 0.351829 0.779053
Si Si7 0.579222 0.316322 0.914719
Si Si8 0.864867 0.110239 0.732342
O O1 0.500000 0.415967 0.700322
O O2 0.642099 0.437235 0.752067
O O3 0.597363 0.348648 0.716853
O O4 0.590964 0.414347 0.408756
O O5 0.500000 0.794932 0.071091
O O6 0.626169 0.831480 0.160705
O O7 0.599303 0.807528 0.791602
O O8 0.609839 0.735057 0.009051
O O9 0.735141 0.500000 0.892222
O O10 0.773947 0.592243 0.789571
O O11 0.686905 0.576846 0.099203
O O12 0.341462 0.256322 0.524881
O O13 0.228871 0.283677 0.316299
O O14 0.255047 0.320984 0.666107
O O15 0.321629 0.347877 0.348287
O O16 0.312752 0.835349 0.506139
O O17 0.500000 0.300737 0.877302
O O18 0.587117 0.358866 0.080166
#
# Coordination Sequence:
#
# PCOD9375498 Si02
#       8
#     8   8   8   8   8   8   8   8
#     4  10  21  38  61  85 117 160 199 240 292 353
#     4  10  23  38  57  90 125 161 195 231 291 364
#     4  11  25  42  59  83 114 150 202 263 312 348
#     4  11  20  31  54  88 116 155 195 229 281 347
#     4  11  21  32  56  85 124 156 194 235 280 350
#     4  11  22  39  59  84 116 157 196 249 298 350
#     4   9  19  34  52  81 121 159 192 226 275 343
#     4  11  20  34  56  82 114 152 196 241 285 341
#
# _framework density 18.633991999999999
#
# number of rings (size 3 to 8) (size 9 to 14) (size 15 to 20)
#    0.000    1.500    3.750    1.875    3.500    1.750 
#    0.000    3.125    0.000    0.375    0.000    0.000 
#    0.000    0.000    0.000    0.000    0.000    0.000 
#
# Total GULP energy -178159.096531 kJ/mol
# GULP energy per Si atom -5567.471767 kJ/mol
# Density = 1.859158 g / cm^3
# Si number density = 18.633992 Si / 1000 Ang^3
#
#
#
# Elastic Constant Matrix: (Units=GPa)
#
#
# Indices 1 2 3 4 5 6 
#
# 1 63.5018 30.6941 17.7358 0.0000 0.0000 0.0000
# 2 30.6941 108.6127 29.7709 0.0000 0.0000 0.0000
# 3 17.7358 29.7709 89.0441 0.0000 0.0000 0.0000
# 4 0.0000 0.0000 0.0000 11.0786 0.0000 0.0000
# 5 0.0000 0.0000 0.0000 0.0000 26.1422 0.0000
# 6 0.0000 0.0000 0.0000 0.0000 0.0000 15.9516
#
#
#
# Elastic Compliance Matrix: (Units=1/GPa)
#
#
# Indices 1 2 3 4 5 6 
#
# 1 0.018604 -0.004670 -0.002144 0.000000 0.000000 0.000000
# 2 -0.004670 0.011308 -0.002851 0.000000 0.000000 0.000000
# 3 -0.002144 -0.002851 0.012611 0.000000 0.000000 0.000000
# 4 0.000000 0.000000 0.000000 0.090264 0.000000 0.000000
# 5 0.000000 0.000000 0.000000 0.000000 0.038252 0.000000
# 6 0.000000 0.000000 0.000000 0.000000 0.000000 0.062690
#
#
# Mechanical properties :
#
#
# Convention : Reuss Voigt Hill
#
# Bulk Modulus (GPa) = 43.11611 46.39557 44.75584
# Shear Modulus (GPa) = 19.17265 22.83168 21.00216
#
# Velocity S-wave (km/s) = 3.21114 3.50418 3.36086
# Velocity P-wave (km/s) = 6.07760 6.42844 6.25548
#
# Compressibility (1/GPa) = 0.02319319
#
# Stress axis : x y z
#
# Youngs Moduli (GPa) = 53.75318 88.43275 79.29875
#
# Poissons Ratio (x) = 0.41295 0.17003
# Poissons Ratio (y) = 0.25101 0.22605
# Poissons Ratio (z) = 0.11526 0.25209
#
# Static dielectric constant tensor:
#      x y z
#    x 1.688310 0.000000 0.000000 
#    y 0.000000 1.658940 0.000000 
#    z 0.000000 0.000000 1.728510 
# 
# From -- ./inp_files/2515.got.cif
#   From: 2010.05.17/outbox.cif.g08.bks.cpg/sg44_2_cif.got.tgz:2515.got - 2010.06.03 19:37:08.
