data_PCOD9375945
_publ_section_title
;
Structure prediction by ZEFSAII (Michael W. Deem and Ramdas Pophale) SiO2 
 PCOD9375945
Probable space group: I M M 2
;
_chemical_formula_sum "Si O2"
_cell_formula_units_Z 32
_cell_length_a 15.000000
_cell_length_b 9.000000
_cell_length_c 30.000000
_cell_angle_alpha 90.000000
_cell_angle_beta 90.000000
_cell_angle_gamma 90.000000
_cell_volume 4050.000000
_symmetry_space_group_name_H-M "I M M 2"
_symmetry_group_IT_number 44
_symmetry_cell_setting 'orthorhombic'
loop_
_space_group_symop_operation_xyz
x,y,z
-x,-y,z
-x,y,z
x,-y,z
1/2+x,1/2+y,1/2+z
1/2-x,1/2-y,1/2+z
1/2-x,1/2+y,1/2+z
1/2+x,1/2-y,1/2+z
loop_
_atom_site_type_symbol
_atom_site_label
_atom_site_fract_x
_atom_site_fract_y
_atom_site_fract_z
Si Si1 0.605457 0.179409 0.538750
Si Si2 0.895275 0.679569 0.306666
Si Si3 0.725534 0.819451 0.350133
Si Si4 0.106567 0.676622 0.203269
Si Si5 0.287033 0.320753 0.621421
Si Si6 0.897334 0.319674 0.766644
Si Si7 0.602909 0.819367 0.164720
Si Si8 0.396588 0.180482 0.434989
O O1 0.500000 0.214032 0.546779
O O2 0.667635 0.252811 0.576752
O O3 0.625012 0.222568 0.486711
O O4 0.614386 0.000000 0.541778
O O5 0.889324 0.500000 0.309370
O O6 0.823483 0.752612 0.339975
O O7 0.873650 0.720808 0.254789
O O8 0.000000 0.718897 0.314709
O O9 0.665952 0.772722 0.307100
O O10 0.673035 0.774369 0.395859
O O11 0.731280 0.000000 0.350588
O O12 0.125573 0.500000 0.198871
O O13 0.158575 0.764825 0.165015
O O14 0.000000 0.695600 0.197178
O O15 0.291085 0.500000 0.618842
O O16 0.183409 0.276162 0.631569
O O17 0.894811 0.500000 0.766329
O O18 0.874856 0.271934 0.715904
O O19 0.000000 0.276175 0.775283
O O20 0.500000 0.772439 0.154798
O O21 0.601648 0.000000 0.164954
O O22 0.500000 0.226690 0.425659
O O23 0.397149 0.000000 0.434414
#
# Coordination Sequence:
#
# PCOD9375945 Si02
#       8
#     8   8   8   8   8   8   8   8
#     4   9  18  33  50  66  90 125 155 178 218 281
#     4   9  19  34  47  61  89 129 163 186 216 266
#     4  10  17  26  47  75  94 111 145 192 232 262
#     4   9  18  32  47  63  89 127 161 183 215 272
#     4  11  20  28  45  72  94 114 149 198 240 266
#     4   8  13  22  39  65  94 118 139 169 215 270
#     4   8  15  27  40  58  89 123 147 171 213 268
#     4   8  15  29  49  72  95 119 149 183 221 273
#
# _framework density 7.9012349999999998
#
# number of rings (size 3 to 8) (size 9 to 14) (size 15 to 20)
#    0.000    3.000    0.000    4.125    0.000    5.250 
#    0.000    1.875    0.000    4.500    0.000   10.500 
#    0.000    0.000    0.000    0.000    0.000    0.000 
#
# Total GULP energy -178205.394660 kJ/mol
# GULP energy per Si atom -5568.918583 kJ/mol
# Density = 0.788325 g / cm^3
# Si number density = 7.901235 Si / 1000 Ang^3
#
#
#
# Elastic Constant Matrix: (Units=GPa)
#
#
# Indices 1 2 3 4 5 6 
#
# 1 121.9371 24.5764 89.5301 0.0000 0.0000 0.0000
# 2 24.5764 20.7154 27.0629 0.0000 0.0000 0.0000
# 3 89.5301 27.0629 130.8485 0.0000 0.0000 0.0000
# 4 0.0000 0.0000 0.0000 23.3902 0.0000 0.0000
# 5 0.0000 0.0000 0.0000 0.0000 36.6830 0.0000
# 6 0.0000 0.0000 0.0000 0.0000 0.0000 20.3834
#
#
#
# Elastic Compliance Matrix: (Units=1/GPa)
#
#
# Indices 1 2 3 4 5 6 
#
# 1 0.017167 -0.006881 -0.010323 0.000000 0.000000 0.000000
# 2 -0.006881 0.068904 -0.009543 0.000000 0.000000 0.000000
# 3 -0.010323 -0.009543 0.016680 0.000000 0.000000 0.000000
# 4 0.000000 0.000000 0.000000 0.042753 0.000000 0.000000
# 5 0.000000 0.000000 0.000000 0.000000 0.027261 0.000000
# 6 0.000000 0.000000 0.000000 0.000000 0.000000 0.049060
#
#
# Mechanical properties :
#
#
# Convention : Reuss Voigt Hill
#
# Bulk Modulus (GPa) = 20.30188 61.76001 41.03094
# Shear Modulus (GPa) = 17.13871 24.91341 21.02606
#
# Velocity S-wave (km/s) = 3.29684 3.97489 3.65164
# Velocity P-wave (km/s) = 5.23138 7.76104 6.61820
#
# Compressibility (1/GPa) = 0.04925653
#
# Stress axis : x y z
#
# Youngs Moduli (GPa) = 58.24961 14.51301 59.95298
#
# Poissons Ratio (x) = 0.09986 0.61892
# Poissons Ratio (y) = 0.40079 0.57214
# Poissons Ratio (z) = 0.60133 0.13850
#
# Static dielectric constant tensor:
#      x y z
#    x 1.543150 0.000000 0.000000 
#    y 0.000000 1.530030 0.000000 
#    z 0.000000 0.000000 1.529470 
# 
# From -- ./inp_files/27326.got.cif
#   From: 2010.05.17/outbox.ucp.g08.bks.cvg/sg44_14_cif.got.tgz:27326.got - 2010.06.11 16:32:36.
