data_PCOD9375270
_publ_section_title
;
Structure prediction by ZEFSAII (Michael W. Deem and Ramdas Pophale) SiO2 
 PCOD9375270
Probable space group: I M M 2
;
_chemical_formula_sum "Si O2"
_cell_formula_units_Z 40
_cell_length_a 9.096034
_cell_length_b 29.836464
_cell_length_c 7.387581
_cell_angle_alpha 90.000000
_cell_angle_beta 90.000000
_cell_angle_gamma 90.000000
_cell_volume 2004.941398
_symmetry_space_group_name_H-M "I M M 2"
_symmetry_group_IT_number 44
_symmetry_cell_setting 'orthorhombic'
loop_
_space_group_symop_operation_xyz
x,y,z
-x,-y,z
-x,y,z
x,-y,z
1/2+x,1/2+y,1/2+z
1/2-x,1/2-y,1/2+z
1/2-x,1/2+y,1/2+z
1/2+x,1/2-y,1/2+z
loop_
_atom_site_type_symbol
_atom_site_label
_atom_site_fract_x
_atom_site_fract_y
_atom_site_fract_z
Si Si1 0.335080 0.717324 0.019590
Si Si2 0.824609 0.551570 0.683572
Si Si3 0.323182 0.619866 0.958428
Si Si4 0.664478 0.306177 0.443120
Si Si5 0.326332 0.107816 0.845086
O O1 0.500000 0.729301 0.955521
O O2 0.345515 0.702191 0.227504
O O3 0.281431 0.672140 0.919502
O O4 0.231760 0.760242 0.015669
O O5 0.784086 0.500000 0.715868
O O6 0.738394 0.585498 0.812352
O O7 0.799539 0.565609 0.475067
O O8 0.000000 0.556594 0.716741
O O9 0.500000 0.619062 0.966320
O O10 0.257434 0.606750 0.154475
O O11 0.500000 0.315026 0.513092
O O12 0.768243 0.349136 0.457264
O O13 0.500000 0.112312 0.811326
#
# Coordination Sequence:
#
# PCOD9375270 Si02
#       5
#     8   8   8   8   8
#     4   9  20  36  52  79 115 152 193 236 289 354
#     4  10  23  42  64  90 118 156 205 251 302 363
#     4  10  22  40  61  89 123 157 198 249 304 359
#     4  10  21  35  54  82 115 153 197 242 290 349
#     4  10  21  39  62  87 120 160 200 247 301 357
#
# _framework density 19.950709
#
# number of rings (size 3 to 8) (size 9 to 14) (size 15 to 20)
#    0.000    2.200    0.000    3.000    2.800    7.600 
#    0.000    2.000    0.000    0.000    0.000    0.000 
#    0.000    0.000    0.000    0.000    0.000    0.000 
#
# Total GULP energy -111677.944649 kJ/mol
# GULP energy per Si atom -5583.897232 kJ/mol
# Density = 1.990530 g / cm^3
# Si number density = 19.950709 Si / 1000 Ang^3
#
#
#
# Elastic Constant Matrix: (Units=GPa)
#
#
# Indices 1 2 3 4 5 6 
#
# 1 57.6508 27.8365 20.9876 -0.0001 0.0019 0.0013
# 2 27.8365 81.6274 15.1659 -0.0009 0.0028 0.0018
# 3 20.9876 15.1659 49.5881 -0.0058 0.0088 0.0076
# 4 -0.0001 -0.0009 -0.0058 32.9734 -0.0001 -0.0004
# 5 0.0019 0.0028 0.0088 -0.0001 25.8850 -0.0007
# 6 0.0013 0.0018 0.0076 -0.0004 -0.0007 25.6519
#
#
#
# Elastic Compliance Matrix: (Units=1/GPa)
#
#
# Indices 1 2 3 4 5 6 
#
# 1 0.023359 -0.006498 -0.007899 -0.000001 0.000002 0.000002
# 2 -0.006498 0.014797 -0.001775 0.000000 -0.000001 0.000000
# 3 -0.007899 -0.001775 0.024052 0.000004 -0.000007 -0.000007
# 4 -0.000001 0.000000 0.000004 0.030327 0.000000 0.000001
# 5 0.000002 -0.000001 -0.000007 0.000000 0.038632 0.000001
# 6 0.000002 0.000000 -0.000007 0.000001 0.000001 0.038984
#
#
# Mechanical properties :
#
#
# Convention : Reuss Voigt Hill
#
# Bulk Modulus (GPa) = 33.48608 35.20514 34.34561
# Shear Modulus (GPa) = 23.53489 25.22714 24.38102
#
# Velocity S-wave (km/s) = 3.43833 3.55980 3.49959
# Velocity P-wave (km/s) = 5.70821 5.88053 5.79501
#
# Compressibility (1/GPa) = 0.02986316
#
# Stress axis : x y z
#
# Youngs Moduli (GPa) = 42.80982 67.58302 41.57619
#
# Poissons Ratio (x) = 0.43917 0.32841
# Poissons Ratio (y) = 0.27819 0.07380
# Poissons Ratio (z) = 0.33816 0.11996
#
# Static dielectric constant tensor:
#      x y z
#    x 1.703900 0.000000 0.000000 
#    y 0.000000 1.698070 0.000000 
#    z 0.000000 0.000000 1.739320 
# 
# From -- ./inp_files/4438.got.cif
#   From: 2010.05.17/outbox.cif.g08.bks.cpg/sg44_3_cif.got.tgz:4438.got - 2010.06.03 19:37:08.
