data_PCOD9375018
_publ_section_title
;
Structure prediction by ZEFSAII (Michael W. Deem and Ramdas Pophale) SiO2 
 PCOD9375018
Probable space group: I M M 2
;
_chemical_formula_sum "Si O2"
_cell_formula_units_Z 64
_cell_length_a 9.181514
_cell_length_b 24.486391
_cell_length_c 13.815293
_cell_angle_alpha 90.000000
_cell_angle_beta 90.000000
_cell_angle_gamma 90.000000
_cell_volume 3105.983762
_symmetry_space_group_name_H-M "I M M 2"
_symmetry_group_IT_number 44
_symmetry_cell_setting 'orthorhombic'
loop_
_space_group_symop_operation_xyz
x,y,z
-x,-y,z
-x,y,z
x,-y,z
1/2+x,1/2+y,1/2+z
1/2-x,1/2-y,1/2+z
1/2-x,1/2+y,1/2+z
1/2+x,1/2-y,1/2+z
loop_
_atom_site_type_symbol
_atom_site_label
_atom_site_fract_x
_atom_site_fract_y
_atom_site_fract_z
Si Si1 0.827744 0.060312 0.352070
Si Si2 0.673339 0.561320 0.435438
Si Si3 0.174869 0.606267 0.254255
Si Si4 0.172364 0.116772 0.550114
Si Si5 0.667284 0.838004 0.031246
Si Si6 0.335132 0.230907 0.767454
Si Si7 0.164484 0.337409 0.764555
Si Si8 0.668131 0.228609 0.531437
O O1 0.810725 0.072138 0.466360
O O2 0.753659 0.110159 0.297560
O O3 0.000000 0.061811 0.331406
O O4 0.771497 0.000000 0.327045
O O5 0.500000 0.569885 0.427083
O O6 0.697896 0.500000 0.473744
O O7 0.749607 0.567049 0.331019
O O8 0.745482 0.608542 0.499270
O O9 0.246002 0.601052 0.148706
O O10 0.205465 0.668549 0.290292
O O11 0.000000 0.599977 0.249430
O O12 0.245207 0.172857 0.511907
O O13 0.000000 0.125579 0.568061
O O14 0.500000 0.840496 0.996519
O O15 0.664237 0.836023 0.147855
O O16 0.746598 0.782498 0.998035
O O17 0.500000 0.241856 0.800305
O O18 0.232047 0.280010 0.798833
O O19 0.336067 0.231564 0.649525
O O20 0.000000 0.342622 0.799321
O O21 0.500000 0.227495 0.499460
#
# Coordination Sequence:
#
# PCOD9375018 Si02
#       8
#     8   8   8   8   8   8   8   8
#     4  10  23  41  58  78 108 150 196 235 275 330
#     4  11  25  42  59  82 112 150 197 241 282 338
#     4  10  21  38  61  88 117 150 187 231 286 341
#     4  10  20  36  59  86 117 151 189 235 285 338
#     4  10  21  38  60  86 116 149 186 233 290 345
#     4   8  16  32  55  83 114 146 180 220 271 337
#     4  10  21  36  58  87 115 145 183 231 284 334
#     4   9  17  32  56  86 117 148 186 230 281 343
#
# _framework density 20.605387
#
# number of rings (size 3 to 8) (size 9 to 14) (size 15 to 20)
#    0.000    2.250    0.000    3.000    0.000    9.250 
#    0.000    5.000    0.000    0.000    0.000    0.000 
#    0.000    0.000    0.000    0.000    0.000    0.000 
#
# Total GULP energy -178873.356714 kJ/mol
# GULP energy per Si atom -5589.792397 kJ/mol
# Density = 2.055849 g / cm^3
# Si number density = 20.605387 Si / 1000 Ang^3
#
#
#
# Elastic Constant Matrix: (Units=GPa)
#
#
# Indices 1 2 3 4 5 6 
#
# 1 102.8195 53.8412 15.6371 -0.0001 0.0000 0.0000
# 2 53.8412 109.6104 6.6843 -0.0002 0.0001 0.0000
# 3 15.6371 6.6843 42.7137 -0.0005 0.0002 0.0000
# 4 -0.0001 -0.0002 -0.0005 22.2393 0.0001 0.0000
# 5 0.0000 0.0001 0.0002 0.0001 28.7038 0.0000
# 6 0.0000 0.0000 0.0000 0.0000 0.0000 28.4738
#
#
#
# Elastic Compliance Matrix: (Units=1/GPa)
#
#
# Indices 1 2 3 4 5 6 
#
# 1 0.013743 -0.006506 -0.004013 0.000000 0.000000 0.000000
# 2 -0.006506 0.012291 0.000458 0.000000 0.000000 0.000000
# 3 -0.004013 0.000458 0.024809 0.000001 0.000000 0.000000
# 4 0.000000 0.000000 0.000001 0.044965 0.000000 0.000000
# 5 0.000000 0.000000 0.000000 0.000000 0.034839 0.000000
# 6 0.000000 0.000000 0.000000 0.000000 0.000000 0.035120
#
#
# Mechanical properties :
#
#
# Convention : Reuss Voigt Hill
#
# Bulk Modulus (GPa) = 32.55018 45.27431 38.91225
# Shear Modulus (GPa) = 25.49347 27.81546 26.65446
#
# Velocity S-wave (km/s) = 3.52123 3.67810 3.60052
# Velocity P-wave (km/s) = 5.68888 6.32911 6.01752
#
# Compressibility (1/GPa) = 0.03072179
#
# Stress axis : x y z
#
# Youngs Moduli (GPa) = 72.76505 81.36048 40.30782
#
# Poissons Ratio (x) = 0.52932 0.16176
# Poissons Ratio (y) = 0.47340 -0.01847
# Poissons Ratio (z) = 0.29201 -0.03729
#
# Static dielectric constant tensor:
#      x y z
#    x 1.692910 0.000000 0.000000 
#    y 0.000000 1.704600 0.000000 
#    z 0.000000 0.000000 1.782030 
# 
# From -- ./inp_files/16783.got.cif
#   From: 2010.05.17/outbox.cif.g08.bks.cpg/sg44_9_cif.got.tgz:16783.got - 2010.06.03 19:37:08.
