data_PCOD9375501
_publ_section_title
;
Structure prediction by ZEFSAII (Michael W. Deem and Ramdas Pophale) SiO2 
 PCOD9375501
Probable space group: I M M 2
;
_chemical_formula_sum "Si O2"
_cell_formula_units_Z 64
_cell_length_a 25.501610
_cell_length_b 8.925257
_cell_length_c 15.260026
_cell_angle_alpha 90.000000
_cell_angle_beta 90.000000
_cell_angle_gamma 90.000000
_cell_volume 3473.310455
_symmetry_space_group_name_H-M "I M M 2"
_symmetry_group_IT_number 44
_symmetry_cell_setting 'orthorhombic'
loop_
_space_group_symop_operation_xyz
x,y,z
-x,-y,z
-x,y,z
x,-y,z
1/2+x,1/2+y,1/2+z
1/2-x,1/2-y,1/2+z
1/2-x,1/2+y,1/2+z
1/2+x,1/2-y,1/2+z
loop_
_atom_site_type_symbol
_atom_site_label
_atom_site_fract_x
_atom_site_fract_y
_atom_site_fract_z
Si Si1 0.152245 0.820581 0.228890
Si Si2 0.108458 0.678509 0.929164
Si Si3 0.865588 0.179558 0.593914
Si Si4 0.739515 0.323225 0.195354
Si Si5 0.335987 0.820306 0.919315
Si Si6 0.561823 0.179907 0.240445
Si Si7 0.716873 0.675976 0.401569
Si Si8 0.559215 0.680430 0.599072
O O1 0.206874 0.767667 0.185348
O O2 0.149814 0.746258 0.324718
O O3 0.102985 0.774252 0.169687
O O4 0.152636 0.000000 0.237709
O O5 0.104565 0.500000 0.934927
O O6 0.087460 0.725169 0.833262
O O7 0.168636 0.730082 0.937404
O O8 0.074670 0.751893 0.005667
O O9 0.808768 0.222044 0.634485
O O10 0.869133 0.251999 0.498260
O O11 0.908858 0.239813 0.660980
O O12 0.867881 0.000000 0.588750
O O13 0.750502 0.500000 0.182684
O O14 0.720752 0.305139 0.296214
O O15 0.274503 0.781316 0.935266
O O16 0.339624 0.000000 0.916489
O O17 0.500000 0.212530 0.241536
O O18 0.568433 0.000000 0.231643
O O19 0.707848 0.500000 0.419811
O O20 0.500000 0.724293 0.623490
O O21 0.561093 0.500000 0.592847
#
# Coordination Sequence:
#
# PCOD9375501 Si02
#       8
#     8   8   8   8   8   8   8   8
#     4  10  21  38  61  86 112 149 198 246 294 348
#     4  11  22  35  57  88 120 153 192 238 288 345
#     4  11  22  37  59  88 119 154 200 244 290 348
#     4   9  19  35  55  83 118 152 186 233 288 346
#     4  10  22  39  59  84 120 158 192 240 298 351
#     4  10  22  40  59  83 119 159 198 242 294 349
#     4   9  18  35  55  80 116 155 192 228 280 346
#     4  10  23  42  61  83 114 153 197 243 291 346
#
# _framework density 18.426224000000001
#
# number of rings (size 3 to 8) (size 9 to 14) (size 15 to 20)
#    0.000    2.000    1.250    2.625    1.750    6.000 
#    0.000    0.625    0.000    2.250    0.000    0.000 
#    0.000    0.000    0.000    0.000    0.000    0.000 
#
# Total GULP energy -178751.055570 kJ/mol
# GULP energy per Si atom -5585.970487 kJ/mol
# Density = 1.838428 g / cm^3
# Si number density = 18.426224 Si / 1000 Ang^3
#
#
#
# Elastic Constant Matrix: (Units=GPa)
#
#
# Indices 1 2 3 4 5 6 
#
# 1 103.9643 39.1338 44.7823 0.0000 0.0000 0.0000
# 2 39.1338 29.8010 28.2114 0.0000 0.0000 0.0000
# 3 44.7823 28.2114 73.1935 0.0000 0.0000 0.0000
# 4 0.0000 0.0000 0.0000 28.5030 0.0000 0.0000
# 5 0.0000 0.0000 0.0000 0.0000 24.6121 0.0000
# 6 0.0000 0.0000 0.0000 0.0000 0.0000 25.0599
#
#
#
# Elastic Compliance Matrix: (Units=1/GPa)
#
#
# Indices 1 2 3 4 5 6 
#
# 1 0.019498 -0.022532 -0.003245 0.000000 0.000000 0.000000
# 2 -0.022532 0.078873 -0.016614 0.000000 0.000000 0.000000
# 3 -0.003245 -0.016614 0.022051 0.000000 0.000000 0.000000
# 4 0.000000 0.000000 0.000000 0.035084 0.000000 0.000000
# 5 0.000000 0.000000 0.000000 0.000000 0.040630 0.000000
# 6 0.000000 0.000000 0.000000 0.000000 0.000000 0.039904
#
#
# Mechanical properties :
#
#
# Convention : Reuss Voigt Hill
#
# Bulk Modulus (GPa) = 28.05884 47.91264 37.98574
# Shear Modulus (GPa) = 15.02838 21.95709 18.49274
#
# Velocity S-wave (km/s) = 2.85896 3.45573 3.17142
# Velocity P-wave (km/s) = 5.11458 6.47933 5.83698
#
# Compressibility (1/GPa) = 0.03563939
#
# Stress axis : x y z
#
# Youngs Moduli (GPa) = 51.28759 12.67860 45.34871
#
# Poissons Ratio (x) = 0.28568 0.14714
# Poissons Ratio (y) = 1.15564 0.75344
# Poissons Ratio (z) = 0.16641 0.21065
#
# Static dielectric constant tensor:
#      x y z
#    x 1.620320 0.000000 0.000000 
#    y 0.000000 1.613720 0.000000 
#    z 0.000000 0.000000 1.625300 
# 
# From -- ./inp_files/19484.got.cif
#   From: 2010.05.17/outbox.cif.g08.bks.cpg/sg44_10_cif.got.tgz:19484.got - 2010.06.03 19:37:08.
