data_PCOD9375871
_publ_section_title
;
Structure prediction by ZEFSAII (Michael W. Deem and Ramdas Pophale) SiO2 
 PCOD9375871
Probable space group: I M M 2
;
_chemical_formula_sum "Si O2"
_cell_formula_units_Z 48
_cell_length_a 8.981445
_cell_length_b 9.527473
_cell_length_c 32.221114
_cell_angle_alpha 90.000000
_cell_angle_beta 90.000000
_cell_angle_gamma 90.000000
_cell_volume 2757.176022
_symmetry_space_group_name_H-M "I M M 2"
_symmetry_group_IT_number 44
_symmetry_cell_setting 'orthorhombic'
loop_
_space_group_symop_operation_xyz
x,y,z
-x,-y,z
-x,y,z
x,-y,z
1/2+x,1/2+y,1/2+z
1/2-x,1/2-y,1/2+z
1/2-x,1/2+y,1/2+z
1/2+x,1/2-y,1/2+z
loop_
_atom_site_type_symbol
_atom_site_label
_atom_site_fract_x
_atom_site_fract_y
_atom_site_fract_z
Si Si1 0.321218 0.332957 0.032900
Si Si2 0.181308 0.838412 0.439421
Si Si3 0.180258 0.165154 0.683393
Si Si4 0.320934 0.163545 0.860301
Si Si5 0.321739 0.335468 0.608112
Si Si6 0.172391 0.170636 0.775777
O O1 0.500000 0.314602 0.036634
O O2 0.292259 0.500000 0.038115
O O3 0.240277 0.242603 0.067495
O O4 0.275279 0.292975 0.985875
O O5 0.233007 0.746303 0.400793
O O6 0.000000 0.835650 0.439288
O O7 0.226459 0.000000 0.433898
O O8 0.252068 0.258390 0.647910
O O9 0.226779 0.211743 0.729892
O O10 0.000000 0.173793 0.681616
O O11 0.218526 0.000000 0.677748
O O12 0.500000 0.170814 0.859286
O O13 0.260119 0.218421 0.816371
O O14 0.278505 0.000000 0.864101
O O15 0.500000 0.324004 0.609412
O O16 0.281384 0.500000 0.607562
O O17 0.000000 0.211808 0.779753
O O18 0.177457 0.000000 0.775366
#
# Coordination Sequence:
#
# PCOD9375871 Si02
#       6
#     8   8   8   8   8   8
#     4   9  18  34  56  77  95 123 167 209 242 285
#     4   8  15  29  48  70  96 124 155 194 237 279
#     4   9  18  34  56  77  95 123 167 209 242 285
#     4   9  16  26  44  71  98 124 158 195 228 270
#     4  11  24  37  48  70 104 133 158 195 246 300
#     4   8  15  29  48  70  96 124 155 194 237 279
#
# _framework density 17.409116000000001
#
# number of rings (size 3 to 8) (size 9 to 14) (size 15 to 20)
#    0.000    3.000    0.000    3.000    0.000    5.333 
#    0.000    5.000    0.000    6.500    0.000    0.000 
#    0.000    0.000    0.000    0.000    0.000    0.000 
#
# Total GULP energy -133722.943681 kJ/mol
# GULP energy per Si atom -5571.789320 kJ/mol
# Density = 1.736949 g / cm^3
# Si number density = 17.409116 Si / 1000 Ang^3
#
#
#
# Elastic Constant Matrix: (Units=GPa)
#
#
# Indices 1 2 3 4 5 6 
#
# 1 18.6738 33.9328 48.8196 0.0000 0.0000 0.0000
# 2 33.9328 70.8572 94.8274 0.0000 0.0000 0.0000
# 3 48.8196 94.8274 216.4325 0.0000 0.0000 0.0000
# 4 0.0000 0.0000 0.0000 30.1681 0.0000 0.0000
# 5 0.0000 0.0000 0.0000 0.0000 28.5788 0.0000
# 6 0.0000 0.0000 0.0000 0.0000 0.0000 20.0683
#
#
#
# Elastic Compliance Matrix: (Units=1/GPa)
#
#
# Indices 1 2 3 4 5 6 
#
# 1 0.435923 -0.186553 -0.016593 0.000000 0.000000 0.000000
# 2 -0.186553 0.113954 -0.007848 0.000000 0.000000 0.000000
# 3 -0.016593 -0.007848 0.011802 0.000000 0.000000 0.000000
# 4 0.000000 0.000000 0.000000 0.033148 0.000000 0.000000
# 5 0.000000 0.000000 0.000000 0.000000 0.034991 0.000000
# 6 0.000000 0.000000 0.000000 0.000000 0.000000 0.049830
#
#
# Mechanical properties :
#
#
# Convention : Reuss Voigt Hill
#
# Bulk Modulus (GPa) = 7.15867 73.45812 40.30840
# Shear Modulus (GPa) = 4.35465 24.32195 14.33830
#
# Velocity S-wave (km/s) = 1.58329 3.74181 2.87297
# Velocity P-wave (km/s) = 2.73191 7.80737 5.84886
#
# Compressibility (1/GPa) = 0.13969069
#
# Stress axis : x y z
#
# Youngs Moduli (GPa) = 2.29399 8.77548 84.73486
#
# Poissons Ratio (x) = 1.63709 1.40599
# Poissons Ratio (y) = 0.42795 0.66497
# Poissons Ratio (z) = 0.03806 0.06887
#
# Static dielectric constant tensor:
#      x y z
#    x 1.585720 0.000000 0.000000 
#    y 0.000000 1.579460 0.000000 
#    z 0.000000 0.000000 1.601930 
# 
# From -- ./inp_files/26873.got.cif
#   From: 2010.05.17/outbox.cif.g08.bks.cpg/sg44_14_cif.got.tgz:26873.got - 2010.06.03 19:37:08.
