data_PCOD9375414
_publ_section_title
;
Structure prediction by ZEFSAII (Michael W. Deem and Ramdas Pophale) SiO2 
 PCOD9375414
Probable space group: I M M 2
;
_chemical_formula_sum "Si O2"
_cell_formula_units_Z 64
_cell_length_a 8.878579
_cell_length_b 22.135541
_cell_length_c 16.038094
_cell_angle_alpha 90.000000
_cell_angle_beta 90.000000
_cell_angle_gamma 90.000000
_cell_volume 3152.001087
_symmetry_space_group_name_H-M "I M M 2"
_symmetry_group_IT_number 44
_symmetry_cell_setting 'orthorhombic'
loop_
_space_group_symop_operation_xyz
x,y,z
-x,-y,z
-x,y,z
x,-y,z
1/2+x,1/2+y,1/2+z
1/2-x,1/2-y,1/2+z
1/2-x,1/2+y,1/2+z
1/2+x,1/2-y,1/2+z
loop_
_atom_site_type_symbol
_atom_site_label
_atom_site_fract_x
_atom_site_fract_y
_atom_site_fract_z
Si Si1 0.182955 0.066494 0.793580
Si Si2 0.330128 0.926795 0.265026
Si Si3 0.180274 0.693924 0.345595
Si Si4 0.181139 0.684419 0.527194
Si Si5 0.325737 0.573112 0.933654
Si Si6 0.324164 0.739089 0.181930
Si Si7 0.821280 0.930220 0.090938
Si Si8 0.175797 0.897202 0.614488
O O1 0.255413 0.125948 0.833153
O O2 0.232518 0.068253 0.696120
O O3 0.000000 0.073470 0.795692
O O4 0.218765 0.000000 0.828878
O O5 0.500000 0.904889 0.250266
O O6 0.263871 0.905050 0.352649
O O7 0.227113 0.913900 0.185435
O O8 0.335376 0.000000 0.270469
O O9 0.225234 0.713722 0.438998
O O10 0.242023 0.734507 0.270260
O O11 0.000000 0.691968 0.340729
O O12 0.238419 0.717023 0.610672
O O13 0.237934 0.616014 0.531011
O O14 0.000000 0.686043 0.531010
O O15 0.500000 0.593787 0.927050
O O16 0.327147 0.500000 0.932364
O O17 0.258744 0.591980 0.023062
O O18 0.500000 0.752885 0.197126
O O19 0.317844 0.672580 0.140565
O O20 0.000000 0.925184 0.081349
O O21 0.777824 0.000000 0.076905
O O22 0.000000 0.915459 0.605937
#
# Coordination Sequence:
#
# PCOD9375414 Si02
#       8
#     8   8   8   8   8   8   8   8
#     4   9  17  31  53  80 111 150 193 233 279 337
#     4   9  17  30  47  68 102 144 178 215 270 331
#     4  10  21  37  57  84 118 151 186 234 286 335
#     4  10  22  40  61  84 114 151 187 227 282 341
#     4   9  15  24  42  70 103 138 182 232 276 323
#     4   9  19  39  61  79 107 148 190 233 278 331
#     4  10  21  37  58  84 111 140 181 232 280 331
#     4   8  14  27  49  74 101 138 184 232 277 324
#
# _framework density 20.304562000000001
#
# number of rings (size 3 to 8) (size 9 to 14) (size 15 to 20)
#    0.000    2.750    0.000    2.250    0.000    6.000 
#    2.250    5.000    0.000    3.000    0.000    0.000 
#    0.000    0.000    0.000    0.000    0.000    0.000 
#
# Total GULP energy -178442.226431 kJ/mol
# GULP energy per Si atom -5576.319576 kJ/mol
# Density = 2.025835 g / cm^3
# Si number density = 20.304562 Si / 1000 Ang^3
#
#
#
# Elastic Constant Matrix: (Units=GPa)
#
#
# Indices 1 2 3 4 5 6 
#
# 1 16.6446 11.6445 24.7762 0.0000 0.0000 0.0000
# 2 11.6445 44.4390 35.4987 0.0000 0.0000 0.0000
# 3 24.7762 35.4987 136.6271 0.0000 0.0000 0.0000
# 4 0.0000 0.0000 0.0000 16.6230 0.0000 0.0000
# 5 0.0000 0.0000 0.0000 0.0000 26.4238 0.0000
# 6 0.0000 0.0000 0.0000 0.0000 0.0000 7.3508
#
#
#
# Elastic Compliance Matrix: (Units=1/GPa)
#
#
# Indices 1 2 3 4 5 6 
#
# 1 0.087860 -0.012991 -0.012557 0.000000 0.000000 0.000000
# 2 -0.012991 0.030317 -0.005521 0.000000 0.000000 0.000000
# 3 -0.012557 -0.005521 0.011031 0.000000 0.000000 0.000000
# 4 0.000000 0.000000 0.000000 0.060158 0.000000 0.000000
# 5 0.000000 0.000000 0.000000 0.000000 0.037845 0.000000
# 6 0.000000 0.000000 0.000000 0.000000 0.000000 0.136039
#
#
# Mechanical properties :
#
#
# Convention : Reuss Voigt Hill
#
# Bulk Modulus (GPa) = 14.91004 37.94993 26.42999
# Shear Modulus (GPa) = 11.16704 18.46561 14.81633
#
# Velocity S-wave (km/s) = 2.34770 3.01895 2.70423
# Velocity P-wave (km/s) = 3.83511 5.55725 4.77447
#
# Compressibility (1/GPa) = 0.06706889
#
# Stress axis : x y z
#
# Youngs Moduli (GPa) = 11.38169 32.98440 90.65439
#
# Poissons Ratio (x) = 0.42851 1.13838
# Poissons Ratio (y) = 0.14786 0.50052
# Poissons Ratio (z) = 0.14292 0.18211
#
# Static dielectric constant tensor:
#      x y z
#    x 1.690480 0.000000 0.000000 
#    y 0.000000 1.746930 0.000000 
#    z 0.000000 0.000000 1.753390 
# 
# From -- ./inp_files/16841.got.cif
#   From: 2010.05.17/outbox.cif.g08.bks.cpg/sg44_9_cif.got.tgz:16841.got - 2010.06.03 19:37:08.
