data_PCOD9375918
_publ_section_title
;
Structure prediction by ZEFSAII (Michael W. Deem and Ramdas Pophale) SiO2 
 PCOD9375918
Probable space group: I M M 2
;
_chemical_formula_sum "Si O2"
_cell_formula_units_Z 56
_cell_length_a 19.165324
_cell_length_b 7.481790
_cell_length_c 21.887237
_cell_angle_alpha 90.000000
_cell_angle_beta 90.000000
_cell_angle_gamma 90.000000
_cell_volume 3138.431257
_symmetry_space_group_name_H-M "I M M 2"
_symmetry_group_IT_number 44
_symmetry_cell_setting 'orthorhombic'
loop_
_space_group_symop_operation_xyz
x,y,z
-x,-y,z
-x,y,z
x,-y,z
1/2+x,1/2+y,1/2+z
1/2-x,1/2-y,1/2+z
1/2-x,1/2+y,1/2+z
1/2+x,1/2-y,1/2+z
loop_
_atom_site_type_symbol
_atom_site_label
_atom_site_fract_x
_atom_site_fract_y
_atom_site_fract_z
Si Si1 0.718033 0.788290 0.152720
Si Si2 0.342541 0.288459 0.577132
Si Si3 0.419397 0.718952 0.456289
Si Si4 0.420677 0.216340 0.704064
Si Si5 0.207047 0.297497 0.277065
Si Si6 0.421563 0.285258 0.207239
Si Si7 0.844895 0.219148 0.831444
O O1 0.765261 0.723786 0.096351
O O2 0.750067 0.697873 0.213096
O O3 0.635529 0.760084 0.155770
O O4 0.730734 0.000000 0.159739
O O5 0.336311 0.500000 0.566766
O O6 0.379017 0.216279 0.516606
O O7 0.390314 0.262191 0.637237
O O8 0.500000 0.775130 0.456930
O O9 0.419839 0.500000 0.456723
O O10 0.380718 0.773594 0.394251
O O11 0.500000 0.278256 0.710706
O O12 0.366481 0.283704 0.755710
O O13 0.420140 0.000000 0.707644
O O14 0.192965 0.500000 0.297851
O O15 0.264861 0.218222 0.322457
O O16 0.500000 0.219043 0.197387
O O17 0.424427 0.500000 0.210462
O O18 0.390220 0.223432 0.272522
O O19 0.843216 0.000000 0.830173
#
# Coordination Sequence:
#
# PCOD9375918 Si02
#       7
#     8   8   8   8   8   8   8
#     4   9  16  25  37  54  76 101 127 154 186 224
#     4   9  17  27  38  54  77 104 130 154 182 220
#     4   9  15  22  35  56  78  99 126 157 183 211
#     4   9  16  25  38  56  77 100 125 156 194 229
#     4   8  14  25  39  54  73  98 127 158 191 226
#     4   9  16  26  41  60  79  98 123 156 191 225
#     4   8  13  22  37  56  76  98 124 153 184 218
#
# _framework density 17.843309000000001
#
# number of rings (size 3 to 8) (size 9 to 14) (size 15 to 20)
#    0.000    3.286    0.000    2.143    0.000    3.429 
#    0.000    0.000    0.000    3.429    0.000    1.000 
#    0.000    5.714    0.000    2.143    0.000    3.143 
#
# Total GULP energy -155893.689731 kJ/mol
# GULP energy per Si atom -5567.631776 kJ/mol
# Density = 1.780270 g / cm^3
# Si number density = 17.843309 Si / 1000 Ang^3
#
#
#
# Elastic Constant Matrix: (Units=GPa)
#
#
# Indices 1 2 3 4 5 6 
#
# 1 192.5345 -1.0535 89.2615 0.0000 0.0000 0.0000
# 2 -1.0535 51.3222 3.6683 0.0000 0.0000 0.0000
# 3 89.2615 3.6683 97.5372 0.0000 0.0000 0.0000
# 4 0.0000 0.0000 0.0000 4.6773 0.0000 0.0000
# 5 0.0000 0.0000 0.0000 0.0000 29.1890 0.0000
# 6 0.0000 0.0000 0.0000 0.0000 0.0000 7.0771
#
#
#
# Elastic Compliance Matrix: (Units=1/GPa)
#
#
# Indices 1 2 3 4 5 6 
#
# 1 0.009053 0.000780 -0.008314 0.000000 0.000000 0.000000
# 2 0.000780 0.019604 -0.001451 0.000000 0.000000 0.000000
# 3 -0.008314 -0.001451 0.017915 0.000000 0.000000 0.000000
# 4 0.000000 0.000000 0.000000 0.213797 0.000000 0.000000
# 5 0.000000 0.000000 0.000000 0.000000 0.034260 0.000000
# 6 0.000000 0.000000 0.000000 0.000000 0.000000 0.141301
#
#
# Mechanical properties :
#
#
# Convention : Reuss Voigt Hill
#
# Bulk Modulus (GPa) = 34.96181 58.34960 46.65571
# Shear Modulus (GPa) = 10.78901 24.82318 17.80609
#
# Velocity S-wave (km/s) = 2.46164 3.73389 3.16241
# Velocity P-wave (km/s) = 5.26459 7.16669 6.28797
#
# Compressibility (1/GPa) = 0.02860263
#
# Stress axis : x y z
#
# Youngs Moduli (GPa) = 110.46648 51.00877 55.81770
#
# Poissons Ratio (x) = -0.03979 0.46406
# Poissons Ratio (y) = -0.08617 0.08100
# Poissons Ratio (z) = 0.91839 0.07402
#
# Static dielectric constant tensor:
#      x y z
#    x 1.657130 0.000000 0.000000 
#    y 0.000000 1.713720 0.000000 
#    z 0.000000 0.000000 1.581650 
# 
# From -- ./inp_files/23222.got.cif
#   From: 2010.05.17/outbox.cif.g08.bks.cpg/sg44_12_cif.got.tgz:23222.got - 2010.06.03 19:37:08.
