data_PCOD9375760
_publ_section_title
;
Structure prediction by ZEFSAII (Michael W. Deem and Ramdas Pophale) SiO2 
 PCOD9375760
Probable space group: I M M 2
;
_chemical_formula_sum "Si O2"
_cell_formula_units_Z 48
_cell_length_a 13.957413
_cell_length_b 8.855172
_cell_length_c 19.017552
_cell_angle_alpha 90.000000
_cell_angle_beta 90.000000
_cell_angle_gamma 90.000000
_cell_volume 2350.479908
_symmetry_space_group_name_H-M "I M M 2"
_symmetry_group_IT_number 44
_symmetry_cell_setting 'orthorhombic'
loop_
_space_group_symop_operation_xyz
x,y,z
-x,-y,z
-x,y,z
x,-y,z
1/2+x,1/2+y,1/2+z
1/2-x,1/2-y,1/2+z
1/2-x,1/2+y,1/2+z
1/2+x,1/2-y,1/2+z
loop_
_atom_site_type_symbol
_atom_site_label
_atom_site_fract_x
_atom_site_fract_y
_atom_site_fract_z
Si Si1 0.888830 0.680526 0.078770
Si Si2 0.892498 0.682072 0.353863
Si Si3 0.248614 0.824601 0.974250
Si Si4 0.305158 0.321236 0.720531
Si Si5 0.608784 0.333188 0.065802
Si Si6 0.107015 0.173793 0.734855
O O1 0.883465 0.500000 0.082614
O O2 0.830856 0.747139 0.145369
O O3 0.000000 0.726724 0.083741
O O4 0.841734 0.737044 0.005962
O O5 0.886128 0.500000 0.347749
O O6 0.806488 0.731037 0.405694
O O7 0.877626 0.756528 0.278369
O O8 0.000000 0.717330 0.380148
O O9 0.225063 0.000000 0.965228
O O10 0.328424 0.799177 0.034624
O O11 0.311362 0.500000 0.713881
O O12 0.199906 0.273247 0.748963
O O13 0.500000 0.322562 0.040801
O O14 0.647532 0.500000 0.045294
O O15 0.605076 0.329667 0.149852
O O16 0.000000 0.222464 0.758277
O O17 0.121919 0.000000 0.758855
#
# Coordination Sequence:
#
# PCOD9375760 Si02
#       6
#     8   8   8   8   8   8
#     4  11  24  42  64  88 119 163 208 251 305 369
#     4  10  23  43  64  88 123 167 207 245 301 371
#     4  11  22  37  60  91 121 152 197 253 305 358
#     4  12  24  38  61  94 127 160 204 259 310 358
#     4   9  17  30  52  82 116 154 192 232 284 348
#     4   9  18  34  57  85 118 158 200 240 291 356
#
# _framework density 20.421361000000001
#
# number of rings (size 3 to 8) (size 9 to 14) (size 15 to 20)
#    0.000    1.667    1.667    4.500    0.000    6.333 
#    0.000    2.500    0.000    1.000    0.000    0.000 
#    0.000    0.000    0.000    0.000    0.000    0.000 
#
# Total GULP energy -133922.454858 kJ/mol
# GULP energy per Si atom -5580.102286 kJ/mol
# Density = 2.037488 g / cm^3
# Si number density = 20.421361 Si / 1000 Ang^3
#
#
#
# Elastic Constant Matrix: (Units=GPa)
#
#
# Indices 1 2 3 4 5 6 
#
# 1 122.4460 30.9200 25.3595 0.0000 0.0000 0.0000
# 2 30.9200 41.4638 26.5615 0.0000 0.0000 0.0000
# 3 25.3595 26.5615 66.7179 0.0000 0.0000 0.0000
# 4 0.0000 0.0000 0.0000 24.0302 0.0000 0.0000
# 5 0.0000 0.0000 0.0000 0.0000 26.9148 0.0000
# 6 0.0000 0.0000 0.0000 0.0000 0.0000 23.2115
#
#
#
# Elastic Compliance Matrix: (Units=1/GPa)
#
#
# Indices 1 2 3 4 5 6 
#
# 1 0.010125 -0.006826 -0.001131 0.000000 0.000000 0.000000
# 2 -0.006826 0.036975 -0.012126 0.000000 0.000000 0.000000
# 3 -0.001131 -0.012126 0.020246 0.000000 0.000000 0.000000
# 4 0.000000 0.000000 0.000000 0.041614 0.000000 0.000000
# 5 0.000000 0.000000 0.000000 0.000000 0.037154 0.000000
# 6 0.000000 0.000000 0.000000 0.000000 0.000000 0.043082
#
#
# Mechanical properties :
#
#
# Convention : Reuss Voigt Hill
#
# Bulk Modulus (GPa) = 36.79095 44.03441 40.41268
# Shear Modulus (GPa) = 20.97123 24.68374 22.82748
#
# Velocity S-wave (km/s) = 3.20805 3.48044 3.34701
# Velocity P-wave (km/s) = 5.63712 6.14500 5.89653
#
# Compressibility (1/GPa) = 0.02718060
#
# Stress axis : x y z
#
# Youngs Moduli (GPa) = 98.76833 27.04520 49.39262
#
# Poissons Ratio (x) = 0.18460 0.05587
# Poissons Ratio (y) = 0.67415 0.59893
# Poissons Ratio (z) = 0.11171 0.32795
#
# Static dielectric constant tensor:
#      x y z
#    x 1.765560 0.000000 0.000000 
#    y 0.000000 1.714170 0.000000 
#    z 0.000000 0.000000 1.724680 
# 
# From -- ./inp_files/24019.got.cif
#   From: 2010.05.17/outbox.cif.g08.bks.cpg/sg44_13_cif.got.tgz:24019.got - 2010.06.03 19:37:08.
