data_PCOD9375139
_publ_section_title
;
Structure prediction by ZEFSAII (Michael W. Deem and Ramdas Pophale) SiO2 
 PCOD9375139
Probable space group: I M M 2
;
_chemical_formula_sum "Si O2"
_cell_formula_units_Z 56
_cell_length_a 13.916871
_cell_length_b 16.392325
_cell_length_c 10.510752
_cell_angle_alpha 90.000000
_cell_angle_beta 90.000000
_cell_angle_gamma 90.000000
_cell_volume 2397.816513
_symmetry_space_group_name_H-M "I M M 2"
_symmetry_group_IT_number 44
_symmetry_cell_setting 'orthorhombic'
loop_
_space_group_symop_operation_xyz
x,y,z
-x,-y,z
-x,y,z
x,-y,z
1/2+x,1/2+y,1/2+z
1/2-x,1/2-y,1/2+z
1/2-x,1/2+y,1/2+z
1/2+x,1/2-y,1/2+z
loop_
_atom_site_type_symbol
_atom_site_label
_atom_site_fract_x
_atom_site_fract_y
_atom_site_fract_z
Si Si1 0.299643 0.157537 0.091230
Si Si2 0.383887 0.228710 0.348195
Si Si3 0.893679 0.407229 0.354335
Si Si4 0.607557 0.174954 0.618472
Si Si5 0.385843 0.674251 0.000371
Si Si6 0.883790 0.908339 0.767124
Si Si7 0.105800 0.138171 0.208594
O O1 0.344937 0.180253 0.227415
O O2 0.197701 0.116018 0.125176
O O3 0.351142 0.099293 0.992980
O O4 0.321066 0.245024 0.020246
O O5 0.500000 0.229512 0.345017
O O6 0.354824 0.182068 0.476464
O O7 0.354351 0.324843 0.342184
O O8 0.903184 0.500000 0.319877
O O9 0.839248 0.368519 0.234140
O O10 0.000000 0.367592 0.361072
O O11 0.500000 0.138605 0.606958
O O12 0.599386 0.266874 0.668956
O O13 0.500000 0.697297 0.011237
O O14 0.374753 0.636432 0.859890
O O15 0.367513 0.613371 0.117887
O O16 0.000000 0.911859 0.784014
O O17 0.846768 0.000000 0.799162
O O18 0.000000 0.101727 0.182496
#
# Coordination Sequence:
#
# PCOD9375139 Si02
#       7
#     8   8   8   8   8   8   8
#     4  11  20  33  61  89 121 158 212 261 312 368
#     4   9  18  31  54  91 124 154 205 262 316 375
#     4  10  20  37  63  94 128 168 210 257 319 385
#     4   9  18  34  55  84 122 162 205 253 309 379
#     4   9  17  33  56  86 119 157 208 258 312 379
#     4   8  14  27  51  83 121 161 200 249 308 368
#     4  10  21  35  56  86 121 159 208 264 308 364
#
# _framework density 23.354582000000001
#
# number of rings (size 3 to 8) (size 9 to 14) (size 15 to 20)
#    0.000    2.571    1.429    2.143    2.000    0.000 
#    0.000    1.429    0.000   12.429    0.000    8.000 
#    0.000    0.000    0.000    0.000    0.000    0.000 
#
# Total GULP energy -156144.407658 kJ/mol
# GULP energy per Si atom -5576.585988 kJ/mol
# Density = 2.330143 g / cm^3
# Si number density = 23.354582 Si / 1000 Ang^3
#
#
#
# Elastic Constant Matrix: (Units=GPa)
#
#
# Indices 1 2 3 4 5 6 
#
# 1 110.0631 -4.6342 44.4018 0.0000 0.0000 0.0000
# 2 -4.6342 51.2653 30.4873 0.0000 0.0000 0.0000
# 3 44.4018 30.4873 155.7748 0.0000 0.0000 0.0000
# 4 0.0000 0.0000 0.0000 13.1532 0.0000 0.0000
# 5 0.0000 0.0000 0.0000 0.0000 -46.3456 0.0000
# 6 0.0000 0.0000 0.0000 0.0000 0.0000 -0.8092
#
#
#
# Elastic Compliance Matrix: (Units=1/GPa)
#
#
# Indices 1 2 3 4 5 6 
#
# 1 0.010697 0.003146 -0.003665 0.000000 0.000000 0.000000
# 2 0.003146 0.023001 -0.005399 0.000000 0.000000 0.000000
# 3 -0.003665 -0.005399 0.008521 0.000000 0.000000 0.000000
# 4 0.000000 0.000000 0.000000 0.076027 0.000000 0.000000
# 5 0.000000 0.000000 0.000000 0.000000 -0.021577 0.000000
# 6 0.000000 0.000000 0.000000 0.000000 0.000000 -1.235798
#
#
# Mechanical properties :
#
#
# Convention : Reuss Voigt Hill
#
# Bulk Modulus (GPa) = 32.91122 50.84590 41.87856
# Shear Modulus (GPa) = -4.47561 9.65625 2.59032
#
# Velocity S-wave (km/s) = -1.38583 2.03558 1.05429
# Velocity P-wave (km/s) = 3.40027 5.22909 4.41051
#
# Compressibility (1/GPa) = 0.03038477
#
# Stress axis : x y z
#
# Youngs Moduli (GPa) = 93.48766 43.47584 117.36161
#
# Poissons Ratio (x) = -0.13679 0.43010
# Poissons Ratio (y) = -0.29414 0.63358
# Poissons Ratio (z) = 0.34261 0.23470
#
# Static dielectric constant tensor:
#      x y z
#    x 2.231260 0.000000 0.000000 
#    y 0.000000 1.878790 0.000000 
#    z 0.000000 0.000000 1.882370 
# 
# From -- ./inp_files/12463.got.cif
#   From: 2010.05.17/outbox.cif.g08.bks.cpg/sg44_7_cif.got.tgz:12463.got - 2010.06.03 19:37:08.
