data_PCOD9375914
_publ_section_title
;
Structure prediction by ZEFSAII (Michael W. Deem and Ramdas Pophale) SiO2 
 PCOD9375914
Probable space group: I M M 2
;
_chemical_formula_sum "Si O2"
_cell_formula_units_Z 40
_cell_length_a 7.382541
_cell_length_b 9.411873
_cell_length_c 27.249287
_cell_angle_alpha 90.000000
_cell_angle_beta 90.000000
_cell_angle_gamma 90.000000
_cell_volume 1893.376877
_symmetry_space_group_name_H-M "I M M 2"
_symmetry_group_IT_number 44
_symmetry_cell_setting 'orthorhombic'
loop_
_space_group_symop_operation_xyz
x,y,z
-x,-y,z
-x,y,z
x,-y,z
1/2+x,1/2+y,1/2+z
1/2-x,1/2-y,1/2+z
1/2-x,1/2+y,1/2+z
1/2+x,1/2-y,1/2+z
loop_
_atom_site_type_symbol
_atom_site_label
_atom_site_fract_x
_atom_site_fract_y
_atom_site_fract_z
Si Si1 0.220762 0.834020 0.115480
Si Si2 0.721564 0.336784 0.807355
Si Si3 0.221226 0.663436 0.211062
Si Si4 0.282868 0.335969 0.508426
Si Si5 0.714222 0.161992 0.900950
O O1 0.281371 0.741328 0.161358
O O2 0.278163 0.779487 0.061421
O O3 0.000000 0.832529 0.116151
O O4 0.273095 0.000000 0.120394
O O5 0.500000 0.337546 0.807581
O O6 0.779538 0.500000 0.805484
O O7 0.777379 0.250211 0.759149
O O8 0.784056 0.257699 0.856692
O O9 0.278506 0.500000 0.213123
O O10 0.000000 0.664019 0.210744
O O11 0.500000 0.338386 0.510196
O O12 0.218411 0.500000 0.506667
O O13 0.236115 0.273553 0.455477
O O14 0.500000 0.149691 0.892897
O O15 0.788457 0.000000 0.900334
#
# Coordination Sequence:
#
# PCOD9375914 Si02
#       5
#     8   8   8   8   8
#     4   8  13  22  36  53  74 101 131 160 192 235
#     4   9  16  25  37  54  78 107 135 163 200 245
#     4   9  15  22  34  54  79 103 127 161 205 244
#     4   8  14  25  41  60  82 109 138 164 194 237
#     4   9  16  26  41  61  83 106 135 170 201 230
#
# _framework density 21.126273999999999
#
# number of rings (size 3 to 8) (size 9 to 14) (size 15 to 20)
#    0.000    3.400    0.000    2.400    0.000    4.800 
#    0.000    1.000    0.000    1.800    0.000    1.400 
#    0.000    4.800    0.000    0.000    0.000    0.000 
#
# Total GULP energy -111514.365548 kJ/mol
# GULP energy per Si atom -5575.718277 kJ/mol
# Density = 2.107819 g / cm^3
# Si number density = 21.126274 Si / 1000 Ang^3
#
#
#
# Elastic Constant Matrix: (Units=GPa)
#
#
# Indices 1 2 3 4 5 6 
#
# 1 71.7590 4.8901 3.9945 0.0000 0.0000 0.0000
# 2 4.8901 129.7647 126.0941 0.0000 0.0000 0.0000
# 3 3.9945 126.0941 273.7296 0.0000 0.0000 0.0000
# 4 0.0000 0.0000 0.0000 36.0454 0.0000 0.0000
# 5 0.0000 0.0000 0.0000 0.0000 11.9903 0.0000
# 6 0.0000 0.0000 0.0000 0.0000 0.0000 -15.3535
#
#
#
# Elastic Compliance Matrix: (Units=1/GPa)
#
#
# Indices 1 2 3 4 5 6 
#
# 1 0.013972 -0.000595 0.000070 0.000000 0.000000 0.000000
# 2 -0.000595 0.013976 -0.006430 0.000000 0.000000 0.000000
# 3 0.000070 -0.006430 0.006614 0.000000 0.000000 0.000000
# 4 0.000000 0.000000 0.000000 0.027743 0.000000 0.000000
# 5 0.000000 0.000000 0.000000 0.000000 0.083401 0.000000
# 6 0.000000 0.000000 0.000000 0.000000 0.000000 -0.065132
#
#
# Mechanical properties :
#
#
# Convention : Reuss Voigt Hill
#
# Bulk Modulus (GPa) = 48.41611 82.80118 65.60864
# Shear Modulus (GPa) = 49.32572 29.22142 39.27357
#
# Velocity S-wave (km/s) = 4.83722 3.72315 4.31628
# Velocity P-wave (km/s) = 7.35972 7.60006 7.48086
#
# Compressibility (1/GPa) = 0.02065428
#
# Stress axis : x y z
#
# Youngs Moduli (GPa) = 71.57096 71.54953 151.19435
#
# Poissons Ratio (x) = 0.04254 -0.01058
# Poissons Ratio (y) = 0.04255 0.97211
# Poissons Ratio (z) = -0.00501 0.46003
#
# Static dielectric constant tensor:
#      x y z
#    x 1.849030 0.000000 0.000000 
#    y 0.000000 1.713250 0.000000 
#    z 0.000000 0.000000 1.769930 
# 
# From -- ./inp_files/22743.got.cif
#   From: 2010.05.17/outbox.cif.g08.bks.cpg/sg44_12_cif.got.tgz:22743.got - 2010.06.03 19:37:08.
