data_PCOD9375076
_publ_section_title
;
Structure prediction by ZEFSAII (Michael W. Deem and Ramdas Pophale) SiO2 
 PCOD9375076
Probable space group: I M M 2
;
_chemical_formula_sum "Si O2"
_cell_formula_units_Z 64
_cell_length_a 26.788671
_cell_length_b 13.918303
_cell_length_c 9.089340
_cell_angle_alpha 90.000000
_cell_angle_beta 90.000000
_cell_angle_gamma 90.000000
_cell_volume 3388.986232
_symmetry_space_group_name_H-M "I M M 2"
_symmetry_group_IT_number 44
_symmetry_cell_setting 'orthorhombic'
loop_
_space_group_symop_operation_xyz
x,y,z
-x,-y,z
-x,y,z
x,-y,z
1/2+x,1/2+y,1/2+z
1/2-x,1/2-y,1/2+z
1/2-x,1/2+y,1/2+z
1/2+x,1/2-y,1/2+z
loop_
_atom_site_type_symbol
_atom_site_label
_atom_site_fract_x
_atom_site_fract_y
_atom_site_fract_z
Si Si1 0.445019 0.383536 0.546540
Si Si2 0.373221 0.234386 0.158631
Si Si3 0.183815 0.293814 0.371238
Si Si4 0.441281 0.389218 0.205136
Si Si5 0.800300 0.786631 0.917279
Si Si6 0.844907 0.112716 0.195332
Si Si7 0.558221 0.115203 0.377050
Si Si8 0.649907 0.887267 0.577880
O O1 0.500000 0.348870 0.586946
O O2 0.446206 0.500000 0.542684
O O3 0.434499 0.356678 0.376420
O O4 0.401857 0.357945 0.658388
O O5 0.408885 0.320361 0.105208
O O6 0.334033 0.282767 0.271744
O O7 0.410137 0.161844 0.244105
O O8 0.342453 0.189278 0.026576
O O9 0.243091 0.306068 0.381388
O O10 0.175670 0.183797 0.318121
O O11 0.158982 0.359855 0.246497
O O12 0.500000 0.382981 0.174883
O O13 0.426169 0.500000 0.193961
O O14 0.817841 0.862620 0.040455
O O15 0.811972 0.682277 0.990236
O O16 0.841480 0.000000 0.228777
O O17 0.500000 0.147440 0.385243
O O18 0.593857 0.135688 0.518421
O O19 0.557142 0.000000 0.360153
O O20 0.658791 0.000000 0.551182
#
# Coordination Sequence:
#
# PCOD9375076 Si02
#       8
#     8   8   8   8   8   8   8   8
#     4   8  14  28  52  78 102 132 176 222 257 307
#     4  11  20  34  57  82 114 147 180 225 287 337
#     4  11  24  38  52  82 121 149 179 233 287 332
#     4   9  17  30  51  80 110 139 176 219 261 319
#     4  10  21  39  58  78 107 146 194 238 267 321
#     4  10  20  37  57  82 111 146 189 227 273 333
#     4   9  19  38  63  86 106 138 191 243 277 322
#     4   9  20  40  62  82 108 146 189 230 280 335
#
# _framework density 18.884703999999999
#
# number of rings (size 3 to 8) (size 9 to 14) (size 15 to 20)
#    0.000    2.375    1.250    2.625    0.000    2.000 
#    0.000    6.250    0.000    3.000    0.000    0.000 
#    0.000    0.000    0.000    0.000    0.000    0.000 
#
# Total GULP energy -178458.442716 kJ/mol
# GULP energy per Si atom -5576.826335 kJ/mol
# Density = 1.884172 g / cm^3
# Si number density = 18.884704 Si / 1000 Ang^3
#
#
#
# Elastic Constant Matrix: (Units=GPa)
#
#
# Indices 1 2 3 4 5 6 
#
# 1 133.2274 13.9393 40.0475 0.0000 0.0000 0.0000
# 2 13.9393 53.3767 -0.4858 0.0000 0.0000 0.0000
# 3 40.0475 -0.4858 48.9661 0.0000 0.0000 0.0000
# 4 0.0000 0.0000 0.0000 14.8207 0.0000 0.0000
# 5 0.0000 0.0000 0.0000 0.0000 7.5553 0.0000
# 6 0.0000 0.0000 0.0000 0.0000 0.0000 20.9334
#
#
#
# Elastic Compliance Matrix: (Units=1/GPa)
#
#
# Indices 1 2 3 4 5 6 
#
# 1 0.010349 -0.002780 -0.008492 0.000000 0.000000 0.000000
# 2 -0.002780 0.019483 0.002467 0.000000 0.000000 0.000000
# 3 -0.008492 0.002467 0.027392 0.000000 0.000000 0.000000
# 4 0.000000 0.000000 0.000000 0.067473 0.000000 0.000000
# 5 0.000000 0.000000 0.000000 0.000000 0.132357 0.000000
# 6 0.000000 0.000000 0.000000 0.000000 0.000000 0.047771
#
#
# Mechanical properties :
#
#
# Convention : Reuss Voigt Hill
#
# Bulk Modulus (GPa) = 25.24322 38.06359 31.65340
# Shear Modulus (GPa) = 14.89687 20.79982 17.84834
#
# Velocity S-wave (km/s) = 2.81166 3.32235 3.07762
# Velocity P-wave (km/s) = 4.89251 5.90905 5.42464
#
# Compressibility (1/GPa) = 0.03961460
#
# Stress axis : x y z
#
# Youngs Moduli (GPa) = 96.62308 51.32616 36.50692
#
# Poissons Ratio (x) = 0.14269 0.31002
# Poissons Ratio (y) = 0.26862 -0.09006
# Poissons Ratio (z) = 0.82053 -0.12662
#
# Static dielectric constant tensor:
#      x y z
#    x 1.661080 0.000000 0.000000 
#    y 0.000000 1.671790 0.000000 
#    z 0.000000 0.000000 1.655320 
# 
# From -- ./inp_files/9464.got.cif
#   From: 2010.05.17/outbox.cif.g08.bks.cpg/sg44_5_cif.got.tgz:9464.got - 2010.06.03 19:37:08.
