data_PCOD9375762
_publ_section_title
;
Structure prediction by ZEFSAII (Michael W. Deem and Ramdas Pophale) SiO2 
 PCOD9375762
Probable space group: I M M 2
;
_chemical_formula_sum "Si O2"
_cell_formula_units_Z 40
_cell_length_a 10.712200
_cell_length_b 23.000416
_cell_length_c 7.325241
_cell_angle_alpha 90.000000
_cell_angle_beta 90.000000
_cell_angle_gamma 90.000000
_cell_volume 1804.829916
_symmetry_space_group_name_H-M "I M M 2"
_symmetry_group_IT_number 44
_symmetry_cell_setting 'orthorhombic'
loop_
_space_group_symop_operation_xyz
x,y,z
-x,-y,z
-x,y,z
x,-y,z
1/2+x,1/2+y,1/2+z
1/2-x,1/2-y,1/2+z
1/2-x,1/2+y,1/2+z
1/2+x,1/2-y,1/2+z
loop_
_atom_site_type_symbol
_atom_site_label
_atom_site_fract_x
_atom_site_fract_y
_atom_site_fract_z
Si Si1 0.862741 0.431864 0.243590
Si Si2 0.851481 0.893539 0.019124
Si Si3 0.700890 0.434780 0.915159
Si Si4 0.630626 0.691307 0.015217
Si Si5 0.135882 0.766850 0.931710
O O1 0.866930 0.500000 0.290385
O O2 0.746454 0.406927 0.357999
O O3 0.000000 0.406188 0.282193
O O4 0.829933 0.428942 0.027984
O O5 0.804211 0.927650 0.197571
O O6 0.000000 0.906484 0.983680
O O7 0.844474 0.824173 0.055089
O O8 0.653719 0.500000 0.960673
O O9 0.630611 0.377532 0.984293
O O10 0.500000 0.715469 0.938502
O O11 0.631761 0.706481 0.229003
O O12 0.753879 0.721391 0.941468
O O13 0.000000 0.740895 0.972464
#
# Coordination Sequence:
#
# PCOD9375762 Si02
#       5
#     8   8   8   8   8
#     4  10  23  43  66  95 136 184 231 281 339 407
#     4  11  23  42  69 103 138 175 227 287 347 409
#     4  11  24  42  67 100 139 182 228 280 340 407
#     4  11  23  42  67  97 134 177 226 277 337 406
#     4  10  23  43  67  98 135 175 222 279 341 406
#
# _framework density 22.162751
#
# number of rings (size 3 to 8) (size 9 to 14) (size 15 to 20)
#    0.000    1.400    2.000    2.400    0.000    8.400 
#    0.000    6.000    0.000    0.000    0.000    0.000 
#    0.000    0.000    0.000    0.000    0.000    0.000 
#
# Total GULP energy -111558.570544 kJ/mol
# GULP energy per Si atom -5577.928527 kJ/mol
# Density = 2.211231 g / cm^3
# Si number density = 22.162751 Si / 1000 Ang^3
#
#
#
# Elastic Constant Matrix: (Units=GPa)
#
#
# Indices 1 2 3 4 5 6 
#
# 1 207.3869 77.6861 64.4254 0.0005 0.0003 -0.0018
# 2 77.6861 109.7400 21.7367 0.0006 -0.0007 0.0000
# 3 64.4254 21.7367 86.3119 0.0052 -0.0109 0.0000
# 4 0.0005 0.0006 0.0052 39.9394 -0.0026 0.0002
# 5 0.0003 -0.0007 -0.0109 -0.0026 59.3886 -0.0016
# 6 -0.0018 0.0000 0.0000 0.0002 -0.0016 42.5560
#
#
#
# Elastic Compliance Matrix: (Units=1/GPa)
#
#
# Indices 1 2 3 4 5 6 
#
# 1 0.008126 -0.004790 -0.004859 0.000001 -0.000001 0.000000
# 2 -0.004790 0.012414 0.000449 0.000000 0.000000 0.000000
# 3 -0.004859 0.000449 0.015100 -0.000002 0.000003 0.000000
# 4 0.000001 0.000000 -0.000002 0.025038 0.000001 0.000000
# 5 -0.000001 0.000000 0.000003 0.000001 0.016838 0.000001
# 6 0.000000 0.000000 0.000000 0.000000 0.000001 0.023498
#
#
# Mechanical properties :
#
#
# Convention : Reuss Voigt Hill
#
# Bulk Modulus (GPa) = 58.00526 81.23725 69.62125
# Shear Modulus (GPa) = 39.94876 44.34951 42.14914
#
# Velocity S-wave (km/s) = 4.25021 4.47820 4.36570
# Velocity P-wave (km/s) = 7.09331 7.96702 7.54283
#
# Compressibility (1/GPa) = 0.01723982
#
# Stress axis : x y z
#
# Youngs Moduli (GPa) = 123.06870 80.55247 66.22669
#
# Poissons Ratio (x) = 0.38583 0.32179
# Poissons Ratio (y) = 0.58947 -0.02972
# Poissons Ratio (z) = 0.59797 -0.03615
#
# Static dielectric constant tensor:
#      x y z
#    x 1.553290 0.000000 -0.000010 
#    y 0.000000 1.801940 0.000000 
#    z -0.000010 0.000000 1.885870 
# 
# From -- ./inp_files/4609.got.cif
#   From: 2010.05.17/outbox.cif.g08.bks.cpg/sg44_3_cif.got.tgz:4609.got - 2010.06.03 19:37:08.
