data_PCOD9375178
_publ_section_title
;
Structure prediction by ZEFSAII (Michael W. Deem and Ramdas Pophale) SiO2 
 PCOD9375178
Probable space group: I M M 2
;
_chemical_formula_sum "Si O2"
_cell_formula_units_Z 34
_cell_length_a 19.180341
_cell_length_b 9.746380
_cell_length_c 7.293569
_cell_angle_alpha 90.000000
_cell_angle_beta 90.000000
_cell_angle_gamma 90.000000
_cell_volume 1363.451707
_symmetry_space_group_name_H-M "I M M 2"
_symmetry_group_IT_number 44
_symmetry_cell_setting 'orthorhombic'
loop_
_space_group_symop_operation_xyz
x,y,z
-x,-y,z
-x,y,z
x,-y,z
1/2+x,1/2+y,1/2+z
1/2-x,1/2-y,1/2+z
1/2-x,1/2+y,1/2+z
1/2+x,1/2-y,1/2+z
loop_
_atom_site_type_symbol
_atom_site_label
_atom_site_fract_x
_atom_site_fract_y
_atom_site_fract_z
Si Si1 0.423097 0.802755 0.488080
Si Si2 0.724995 0.000000 0.082893
Si Si3 0.199162 0.500000 0.020799
Si Si4 0.500000 0.000000 0.884477
Si Si5 0.857888 0.000000 0.513124
Si Si6 0.106281 0.302944 0.567569
Si Si7 0.619146 0.500000 0.576523
O O1 0.500000 0.851979 0.554922
O O2 0.419155 0.840915 0.272292
O O3 0.417712 0.640368 0.518655
O O4 0.352491 0.872909 0.564428
O O5 0.683286 0.137396 0.030768
O O6 0.717033 0.000000 0.303573
O O7 0.801757 0.000000 0.004751
O O8 0.278339 0.500000 0.090452
O O9 0.440381 0.120030 0.921159
O O10 0.893966 0.859630 0.569464
O O11 0.867514 0.000000 0.293771
#
# Coordination Sequence:
#
# PCOD9375178 Si02
#       7
#     8   4   4   2   4   8   4
#     4  11  21  38  62  90 116 157 202 252 288 345
#     4   8  18  36  62  88 116 160 194 254 287 345
#     4   9  20  37  66  87 118 152 206 250 292 337
#     4  10  20  40  62  90 108 148 194 262 286 338
#     4  11  23  40  58  94 121 161 190 242 300 358
#     4  10  20  38  67  89 115 146 212 249 292 334
#     4  11  23  38  53  87 135 160 190 226 310 360
#
# _framework density 24.936710999999999
#
# number of rings (size 3 to 8) (size 9 to 14) (size 15 to 20)
#    0.000    1.882    1.176    3.529    0.000    0.471 
#    4.235    4.706    0.000    0.000    0.000    0.000 
#    0.000    0.000    0.000    0.000    0.000    0.000 
#
# Total GULP energy -94803.041960 kJ/mol
# GULP energy per Si atom -5576.649527 kJ/mol
# Density = 2.487995 g / cm^3
# Si number density = 24.936711 Si / 1000 Ang^3
#
#
#
# Elastic Constant Matrix: (Units=GPa)
#
#
# Indices 1 2 3 4 5 6 
#
# 1 131.7607 34.9875 10.6806 0.0000 0.0000 0.0000
# 2 34.9875 199.2012 -18.8865 0.0000 0.0000 0.0000
# 3 10.6806 -18.8865 95.9246 0.0000 0.0000 0.0000
# 4 0.0000 0.0000 0.0000 -709.0440 0.0000 0.0000
# 5 0.0000 0.0000 0.0000 0.0000 23.5766 0.0000
# 6 0.0000 0.0000 0.0000 0.0000 0.0000 30.8140
#
#
#
# Elastic Compliance Matrix: (Units=1/GPa)
#
#
# Indices 1 2 3 4 5 6 
#
# 1 0.008095 -0.001536 -0.001204 0.000000 0.000000 0.000000
# 2 -0.001536 0.005407 0.001236 0.000000 0.000000 0.000000
# 3 -0.001204 0.001236 0.010802 0.000000 0.000000 0.000000
# 4 0.000000 0.000000 0.000000 -0.001410 0.000000 0.000000
# 5 0.000000 0.000000 0.000000 0.000000 0.042415 0.000000
# 6 0.000000 0.000000 0.000000 0.000000 0.000000 0.032453
#
#
# Mechanical properties :
#
#
# Convention : Reuss Voigt Hill
#
# Bulk Modulus (GPa) = 46.95728 53.38329 50.17029
# Shear Modulus (GPa) = 46.35291 -104.25701 -28.95205
#
# Velocity S-wave (km/s) = 4.31608 -6.47298 -3.41107
# Velocity P-wave (km/s) = 6.61132 5.86616 2.15612
#
# Compressibility (1/GPa) = 0.02129595
#
# Stress axis : x y z
#
# Youngs Moduli (GPa) = 123.53404 184.94663 92.57410
#
# Poissons Ratio (x) = 0.28406 0.11143
# Poissons Ratio (y) = 0.18974 -0.11438
# Poissons Ratio (z) = 0.14870 -0.22852
#
# Static dielectric constant tensor:
#      x y z
#    x 1.968290 0.000000 0.000000 
#    y 0.000000 2.279820 0.000000 
#    z 0.000000 0.000000 2.078220 
# 
# From -- ./inp_files/8664.got.cif
#   From: 2010.05.17/outbox.cif.g08.bks.cpg/sg44_5_cif.got.tgz:8664.got - 2010.06.03 19:37:08.
