data_PCOD9375435
_publ_section_title
;
Structure prediction by ZEFSAII (Michael W. Deem and Ramdas Pophale) SiO2 
 PCOD9375435
Probable space group: I M M 2
;
_chemical_formula_sum "Si O2"
_cell_formula_units_Z 64
_cell_length_a 21.338130
_cell_length_b 10.107923
_cell_length_c 14.775210
_cell_angle_alpha 90.000000
_cell_angle_beta 90.000000
_cell_angle_gamma 90.000000
_cell_volume 3186.778979
_symmetry_space_group_name_H-M "I M M 2"
_symmetry_group_IT_number 44
_symmetry_cell_setting 'orthorhombic'
loop_
_space_group_symop_operation_xyz
x,y,z
-x,-y,z
-x,y,z
x,-y,z
1/2+x,1/2+y,1/2+z
1/2-x,1/2-y,1/2+z
1/2-x,1/2+y,1/2+z
1/2+x,1/2-y,1/2+z
loop_
_atom_site_type_symbol
_atom_site_label
_atom_site_fract_x
_atom_site_fract_y
_atom_site_fract_z
Si Si1 0.302295 0.353559 0.688080
Si Si2 0.254310 0.246234 0.369631
Si Si3 0.877518 0.653287 0.435384
Si Si4 0.428497 0.348107 0.488603
Si Si5 0.680254 0.848429 0.544500
Si Si6 0.075104 0.656135 0.635916
Si Si7 0.929942 0.848698 0.287228
Si Si8 0.119456 0.852409 0.790670
O O1 0.290096 0.500000 0.650436
O O2 0.269133 0.338192 0.784559
O O3 0.284126 0.235813 0.621276
O O4 0.375886 0.337513 0.712457
O O5 0.195156 0.325682 0.409147
O O6 0.281617 0.159880 0.451217
O O7 0.310815 0.334644 0.331271
O O8 0.894781 0.500000 0.421893
O O9 0.893178 0.686939 0.539213
O O10 0.915415 0.747232 0.367321
O O11 0.500000 0.331178 0.517592
O O12 0.408632 0.500000 0.511275
O O13 0.382524 0.236494 0.526216
O O14 0.423974 0.338273 0.379416
O O15 0.669160 0.000000 0.570628
O O16 0.085383 0.500000 0.654315
O O17 0.103568 0.744245 0.715718
O O18 0.000000 0.677621 0.629606
O O19 0.000000 0.828435 0.251579
O O20 0.925674 0.000000 0.321699
O O21 0.111747 0.000000 0.753191
#
# Coordination Sequence:
#
# PCOD9375435 Si02
#       8
#     8   8   8   8   8   8   8   8
#     4  10  22  40  62  86 118 161 204 246 298 364
#     4  10  23  42  61  88 120 162 205 255 308 366
#     4  10  21  38  61  87 117 157 203 254 308 364
#     4   9  19  38  62  86 117 159 204 245 293 357
#     4  11  24  40  61  91 124 155 197 254 306 357
#     4  10  22  38  57  88 125 160 202 252 313 381
#     4   9  19  37  60  86 118 157 198 242 297 358
#     4  10  21  37  59  87 118 156 203 255 305 358
#
# _framework density 20.082975000000001
#
# number of rings (size 3 to 8) (size 9 to 14) (size 15 to 20)
#    0.000    2.125    0.000    1.875    1.750    9.750 
#    0.000    1.250    0.000    0.000    0.000    0.000 
#    0.000    0.000    0.000    0.000    0.000    0.000 
#
# Total GULP energy -178715.939489 kJ/mol
# GULP energy per Si atom -5584.873109 kJ/mol
# Density = 2.003727 g / cm^3
# Si number density = 20.082975 Si / 1000 Ang^3
#
#
#
# Elastic Constant Matrix: (Units=GPa)
#
#
# Indices 1 2 3 4 5 6 
#
# 1 77.6364 23.8348 28.7804 0.0000 0.0000 0.0000
# 2 23.8348 126.3322 70.3015 0.0000 0.0000 0.0000
# 3 28.7804 70.3015 107.3045 0.0000 0.0000 0.0000
# 4 0.0000 0.0000 0.0000 33.0510 0.0000 0.0000
# 5 0.0000 0.0000 0.0000 0.0000 7.8263 0.0000
# 6 0.0000 0.0000 0.0000 0.0000 0.0000 6.1748
#
#
#
# Elastic Compliance Matrix: (Units=1/GPa)
#
#
# Indices 1 2 3 4 5 6 
#
# 1 0.014366 -0.000891 -0.003269 0.000000 0.000000 0.000000
# 2 -0.000891 0.012513 -0.007959 0.000000 0.000000 0.000000
# 3 -0.003269 -0.007959 0.015410 0.000000 0.000000 0.000000
# 4 0.000000 0.000000 0.000000 0.030256 0.000000 0.000000
# 5 0.000000 0.000000 0.000000 0.000000 0.127774 0.000000
# 6 0.000000 0.000000 0.000000 0.000000 0.000000 0.161947
#
#
# Mechanical properties :
#
#
# Convention : Reuss Voigt Hill
#
# Bulk Modulus (GPa) = 55.39941 61.90072 58.65007
# Shear Modulus (GPa) = 12.73815 21.96754 17.35285
#
# Velocity S-wave (km/s) = 2.52122 3.31091 2.94267
# Velocity P-wave (km/s) = 6.01003 6.74578 6.38851
#
# Compressibility (1/GPa) = 0.01805073
#
# Stress axis : x y z
#
# Youngs Moduli (GPa) = 69.60830 79.91898 64.89107
#
# Poissons Ratio (x) = 0.07121 0.21215
# Poissons Ratio (y) = 0.06203 0.51645
# Poissons Ratio (z) = 0.22758 0.63606
#
# Static dielectric constant tensor:
#      x y z
#    x 1.734660 0.000000 0.000000 
#    y 0.000000 1.684200 0.000000 
#    z 0.000000 0.000000 1.710490 
# 
# From -- ./inp_files/19499.got.cif
#   From: 2010.05.17/outbox.cif.g08.bks.cpg/sg44_10_cif.got.tgz:19499.got - 2010.06.03 19:37:08.
