data_PCOD9375791
_publ_section_title
;
Structure prediction by ZEFSAII (Michael W. Deem and Ramdas Pophale) SiO2 
 PCOD9375791
Probable space group: I M M 2
;
_chemical_formula_sum "Si O2"
_cell_formula_units_Z 64
_cell_length_a 8.978310
_cell_length_b 18.914696
_cell_length_c 27.141581
_cell_angle_alpha 90.000000
_cell_angle_beta 90.000000
_cell_angle_gamma 90.000000
_cell_volume 4609.237684
_symmetry_space_group_name_H-M "I M M 2"
_symmetry_group_IT_number 44
_symmetry_cell_setting 'orthorhombic'
loop_
_space_group_symop_operation_xyz
x,y,z
-x,-y,z
-x,y,z
x,-y,z
1/2+x,1/2+y,1/2+z
1/2-x,1/2-y,1/2+z
1/2-x,1/2+y,1/2+z
1/2+x,1/2-y,1/2+z
loop_
_atom_site_type_symbol
_atom_site_label
_atom_site_fract_x
_atom_site_fract_y
_atom_site_fract_z
Si Si1 0.679773 0.917585 0.141060
Si Si2 0.321105 0.164564 0.751914
Si Si3 0.679621 0.917962 0.652235
Si Si4 0.171093 0.709181 0.702834
Si Si5 0.818635 0.580970 0.346860
Si Si6 0.822277 0.835952 0.049366
Si Si7 0.172116 0.206941 0.598327
Si Si8 0.178877 0.583640 0.459372
O O1 0.500000 0.909041 0.134747
O O2 0.723376 0.869070 0.187769
O O3 0.758997 0.886199 0.092926
O O4 0.711808 0.000000 0.147222
O O5 0.500000 0.165689 0.752856
O O6 0.277977 0.113832 0.705944
O O7 0.263286 0.242709 0.739879
O O8 0.266800 0.132072 0.803379
O O9 0.500000 0.913221 0.648696
O O10 0.752125 0.867553 0.611188
O O11 0.722394 0.000000 0.648428
O O12 0.175399 0.750481 0.650380
O O13 0.000000 0.706076 0.719233
O O14 0.772312 0.500000 0.336941
O O15 0.776913 0.599510 0.402832
O O16 0.000000 0.581010 0.346069
O O17 0.758310 0.757805 0.060720
O O18 0.000000 0.835031 0.050874
O O19 0.762049 0.868286 0.998646
O O20 0.000000 0.198744 0.583978
O O21 0.208517 0.500000 0.468147
O O22 0.000000 0.593092 0.464144
#
# Coordination Sequence:
#
# PCOD9375791 Si02
#       8
#     8   8   8   8   8   8   8   8
#     4   9  17  29  43  57  76 105 138 166 193 232
#     4   9  15  24  40  59  79 106 137 164 192 229
#     4   9  16  25  39  61  87 110 132 163 202 237
#     4   8  15  26  38  54  76 101 129 162 197 231
#     4   8  14  25  41  59  77 101 136 170 193 221
#     4  11  20  28  40  58  80 104 131 165 205 243
#     4   9  17  29  42  55  75 105 139 168 193 231
#     4   9  17  29  43  57  76 104 136 167 197 232
#
# _framework density 13.885159
#
# number of rings (size 3 to 8) (size 9 to 14) (size 15 to 20)
#    0.000    3.000    0.000    3.750    0.000    6.750 
#    0.000    0.625    0.000    1.875    0.000    0.000 
#    0.000    1.000    0.000    8.000    0.000    2.625 
#
# Total GULP energy -178161.153555 kJ/mol
# GULP energy per Si atom -5567.536049 kJ/mol
# Density = 1.385356 g / cm^3
# Si number density = 13.885159 Si / 1000 Ang^3
#
#
#
# Elastic Constant Matrix: (Units=GPa)
#
#
# Indices 1 2 3 4 5 6 
#
# 1 37.4620 41.3690 36.0134 0.0000 0.0000 0.0000
# 2 41.3690 116.9528 63.0150 0.0000 0.0000 0.0000
# 3 36.0134 63.0150 89.7223 0.0000 0.0000 0.0000
# 4 0.0000 0.0000 0.0000 26.1640 0.0000 0.0000
# 5 0.0000 0.0000 0.0000 0.0000 14.6009 0.0000
# 6 0.0000 0.0000 0.0000 0.0000 0.0000 21.3903
#
#
#
# Elastic Compliance Matrix: (Units=1/GPa)
#
#
# Indices 1 2 3 4 5 6 
#
# 1 0.051409 -0.011368 -0.012651 0.000000 0.000000 0.000000
# 2 -0.011368 0.016270 -0.006864 0.000000 0.000000 0.000000
# 3 -0.012651 -0.006864 0.021044 0.000000 0.000000 0.000000
# 4 0.000000 0.000000 0.000000 0.038221 0.000000 0.000000
# 5 0.000000 0.000000 0.000000 0.000000 0.068489 0.000000
# 6 0.000000 0.000000 0.000000 0.000000 0.000000 0.046750
#
#
# Mechanical properties :
#
#
# Convention : Reuss Voigt Hill
#
# Bulk Modulus (GPa) = 37.09538 58.32577 47.71058
# Shear Modulus (GPa) = 15.97778 19.34701 17.66240
#
# Velocity S-wave (km/s) = 3.39589 3.73682 3.57043
# Velocity P-wave (km/s) = 6.49230 7.79201 7.17166
#
# Compressibility (1/GPa) = 0.02695753
#
# Stress axis : x y z
#
# Youngs Moduli (GPa) = 19.45176 61.46260 47.51950
#
# Poissons Ratio (x) = 0.69874 0.60115
# Poissons Ratio (y) = 0.22114 0.32617
# Poissons Ratio (z) = 0.24608 0.42187
#
# Static dielectric constant tensor:
#      x y z
#    x 1.469300 0.000000 0.000000 
#    y 0.000000 1.459710 0.000000 
#    z 0.000000 0.000000 1.443970 
# 
# From -- ./inp_files/25239.got.cif
#   From: 2010.05.17/outbox.cif.g08.bks.cpg/sg44_13_cif.got.tgz:25239.got - 2010.06.03 19:37:08.
