data_PCOD9375544
_publ_section_title
;
Structure prediction by ZEFSAII (Michael W. Deem and Ramdas Pophale) SiO2 
 PCOD9375544
Probable space group: I M M 2
;
_chemical_formula_sum "Si O2"
_cell_formula_units_Z 58
_cell_length_a 7.430666
_cell_length_b 22.700949
_cell_length_c 14.634490
_cell_angle_alpha 90.000000
_cell_angle_beta 90.000000
_cell_angle_gamma 90.000000
_cell_volume 2468.592163
_symmetry_space_group_name_H-M "I M M 2"
_symmetry_group_IT_number 44
_symmetry_cell_setting 'orthorhombic'
loop_
_space_group_symop_operation_xyz
x,y,z
-x,-y,z
-x,y,z
x,-y,z
1/2+x,1/2+y,1/2+z
1/2-x,1/2-y,1/2+z
1/2-x,1/2+y,1/2+z
1/2+x,1/2-y,1/2+z
loop_
_atom_site_type_symbol
_atom_site_label
_atom_site_fract_x
_atom_site_fract_y
_atom_site_fract_z
Si Si1 0.715067 0.360281 0.208280
Si Si2 0.714312 0.321990 0.917582
Si Si3 0.284962 0.933408 0.885743
Si Si4 0.281858 0.116084 0.079989
Si Si5 0.292482 0.406240 0.779411
Si Si6 0.000000 0.500000 0.836270
Si Si7 0.720524 0.250565 0.086652
Si Si8 0.217477 0.064772 0.541249
O O1 0.500000 0.357535 0.199962
O O2 0.751986 0.383072 0.309861
O O3 0.779221 0.298088 0.164189
O O4 0.778231 0.412308 0.140235
O O5 0.500000 0.312118 0.915459
O O6 0.763102 0.340152 0.814467
O O7 0.783014 0.272134 0.985678
O O8 0.756474 0.381437 0.974373
O O9 0.500000 0.937763 0.892364
O O10 0.218345 0.000000 0.862653
O O11 0.219057 0.912230 0.985171
O O12 0.500000 0.115172 0.078749
O O13 0.221798 0.084171 0.171728
O O14 0.222248 0.183448 0.094427
O O15 0.500000 0.415724 0.807791
O O16 0.156267 0.449877 0.825548
O O17 0.500000 0.251338 0.087862
O O18 0.000000 0.060664 0.542513
O O19 0.290755 0.000000 0.519002
#
# Coordination Sequence:
#
# PCOD9375544 Si02
#       8
#     8   8   8   8   8   2   8   8
#     4   9  17  32  55  83 111 148 198 246 300 363
#     4   8  16  31  54  87 118 153 205 251 302 378
#     4  10  22  36  54  78 116 160 200 243 306 368
#     4  10  21  39  61  84 118 165 209 259 322 368
#     4  11  24  41  66  93 124 167 215 256 314 375
#     4  12  26  44  64  90 136 166 202 268 314 382
#     4   8  16  34  61  88 119 159 201 254 317 374
#     4   8  13  23  45  74 106 144 189 242 298 354
#
# _framework density 23.495173999999999
#
# number of rings (size 3 to 8) (size 9 to 14) (size 15 to 20)
#    0.000    2.759    0.690    2.276    1.931    2.483 
#    0.000    2.069    7.586    0.000    0.000    0.000 
#    0.000    0.000    0.000    0.000    0.000    0.000 
#
# Total GULP energy -161494.673446 kJ/mol
# GULP energy per Si atom -5568.781843 kJ/mol
# Density = 2.344170 g / cm^3
# Si number density = 23.495174 Si / 1000 Ang^3
#
#
#
# Elastic Constant Matrix: (Units=GPa)
#
#
# Indices 1 2 3 4 5 6 
#
# 1 86.7524 14.1055 1.6486 0.0000 0.0000 0.0000
# 2 14.1055 57.0835 -10.4779 0.0001 0.0002 0.0000
# 3 1.6486 -10.4779 100.5619 0.0003 0.0005 0.0000
# 4 0.0000 0.0001 0.0003 8.6188 0.0002 0.0000
# 5 0.0000 0.0002 0.0005 0.0002 127.1184 0.0000
# 6 0.0000 0.0000 0.0000 0.0000 0.0000 9.7889
#
#
#
# Elastic Compliance Matrix: (Units=1/GPa)
#
#
# Indices 1 2 3 4 5 6 
#
# 1 0.012036 -0.003069 -0.000517 0.000000 0.000000 0.000000
# 2 -0.003069 0.018642 0.001993 0.000000 0.000000 0.000000
# 3 -0.000517 0.001993 0.010160 0.000000 0.000000 0.000000
# 4 0.000000 0.000000 0.000000 0.116025 0.000000 0.000000
# 5 0.000000 0.000000 0.000000 0.000000 0.007867 0.000000
# 6 0.000000 0.000000 0.000000 0.000000 0.000000 0.102156
#
#
# Mechanical properties :
#
#
# Convention : Reuss Voigt Hill
#
# Bulk Modulus (GPa) = 26.55923 28.32780 27.44351
# Shear Modulus (GPa) = 17.69137 45.04667 31.36902
#
# Velocity S-wave (km/s) = 2.74702 4.38342 3.65790
# Velocity P-wave (km/s) = 4.62495 6.14021 5.43564
#
# Compressibility (1/GPa) = 0.03765170
#
# Stress axis : x y z
#
# Youngs Moduli (GPa) = 83.08486 53.64134 98.42293
#
# Poissons Ratio (x) = 0.16463 0.05089
# Poissons Ratio (y) = 0.25499 -0.19613
# Poissons Ratio (z) = 0.04296 -0.10689
#
# Static dielectric constant tensor:
#      x y z
#    x 1.898260 0.000000 0.000000 
#    y 0.000000 1.918340 0.000000 
#    z 0.000000 0.000000 1.931950 
# 
# From -- ./inp_files/16712.got.cif
#   From: 2010.05.17/outbox.cif.g08.bks.cpg/sg44_9_cif.got.tgz:16712.got - 2010.06.03 19:37:08.
