data_PCOD9375654
_publ_section_title
;
Structure prediction by ZEFSAII (Michael W. Deem and Ramdas Pophale) SiO2 
 PCOD9375654
Probable space group: I M M 2
;
_chemical_formula_sum "Si O2"
_cell_formula_units_Z 56
_cell_length_a 16.479410
_cell_length_b 20.833988
_cell_length_c 8.281757
_cell_angle_alpha 90.000000
_cell_angle_beta 90.000000
_cell_angle_gamma 90.000000
_cell_volume 2843.390788
_symmetry_space_group_name_H-M "I M M 2"
_symmetry_group_IT_number 44
_symmetry_cell_setting 'orthorhombic'
loop_
_space_group_symop_operation_xyz
x,y,z
-x,-y,z
-x,y,z
x,-y,z
1/2+x,1/2+y,1/2+z
1/2-x,1/2-y,1/2+z
1/2-x,1/2+y,1/2+z
1/2+x,1/2-y,1/2+z
loop_
_atom_site_type_symbol
_atom_site_label
_atom_site_fract_x
_atom_site_fract_y
_atom_site_fract_z
Si Si1 0.291150 0.662220 0.043420
Si Si2 0.631245 0.233317 0.520383
Si Si3 0.587593 0.752861 0.181752
Si Si4 0.592255 0.162231 0.859588
Si Si5 0.742875 0.925174 0.808942
Si Si6 0.407085 0.384119 0.488868
Si Si7 0.593228 0.427310 0.851264
O O1 0.225199 0.714562 0.991633
O O2 0.343885 0.699379 0.176388
O O3 0.247187 0.602821 0.128178
O O4 0.350909 0.630073 0.916102
O O5 0.592035 0.209797 0.351275
O O6 0.605738 0.201147 0.690600
O O7 0.609537 0.308602 0.526115
O O8 0.500000 0.720980 0.174251
O O9 0.596246 0.792971 0.017956
O O10 0.500000 0.135639 0.853553
O O11 0.666069 0.112767 0.881138
O O12 0.728278 0.000000 0.814674
O O13 0.830743 0.910588 0.888170
O O14 0.500000 0.390976 0.423656
O O15 0.406100 0.421274 0.658630
O O16 0.500000 0.418318 0.905983
O O17 0.618505 0.500000 0.899015
#
# Coordination Sequence:
#
# PCOD9375654 Si02
#       7
#     8   8   8   8   8   8   8
#     4  11  23  36  59  88 122 157 202 247 304 366
#     4  11  23  38  62  94 128 157 194 253 317 364
#     4  11  22  38  62  92 122 157 200 249 311 369
#     4  10  23  42  65  93 122 157 205 257 310 367
#     4  11  24  40  59  87 121 163 208 246 296 360
#     4  11  22  38  60  88 122 160 201 247 306 367
#     4  10  22  39  59  84 118 164 209 250 300 358
#
# _framework density 19.694796
#
# number of rings (size 3 to 8) (size 9 to 14) (size 15 to 20)
#    0.000    1.286    1.429    4.286    6.000    4.000 
#    0.000    0.000    0.000    0.000    0.000    2.000 
#    0.000    0.000    0.000    0.000    0.000    0.000 
#
# Total GULP energy -156112.060348 kJ/mol
# GULP energy per Si atom -5575.430727 kJ/mol
# Density = 1.964997 g / cm^3
# Si number density = 19.694796 Si / 1000 Ang^3
#
#
#
# Elastic Constant Matrix: (Units=GPa)
#
#
# Indices 1 2 3 4 5 6 
#
# 1 99.5467 30.2593 13.4849 0.0000 0.0000 0.0000
# 2 30.2593 65.1875 19.9537 0.0000 0.0000 0.0000
# 3 13.4849 19.9537 89.4965 0.0000 0.0000 0.0000
# 4 0.0000 0.0000 0.0000 19.7445 0.0000 0.0000
# 5 0.0000 0.0000 0.0000 0.0000 26.4979 0.0000
# 6 0.0000 0.0000 0.0000 0.0000 0.0000 4.1563
#
#
#
# Elastic Compliance Matrix: (Units=1/GPa)
#
#
# Indices 1 2 3 4 5 6 
#
# 1 0.011725 -0.005261 -0.000594 0.000000 0.000000 0.000000
# 2 -0.005261 0.018824 -0.003404 0.000000 0.000000 0.000000
# 3 -0.000594 -0.003404 0.012022 0.000000 0.000000 0.000000
# 4 0.000000 0.000000 0.000000 0.050647 0.000000 0.000000
# 5 0.000000 0.000000 0.000000 0.000000 0.037739 0.000000
# 6 0.000000 0.000000 0.000000 0.000000 0.000000 0.240597
#
#
# Mechanical properties :
#
#
# Convention : Reuss Voigt Hill
#
# Bulk Modulus (GPa) = 41.57359 42.40294 41.98827
# Shear Modulus (GPa) = 12.55996 22.78194 17.67095
#
# Velocity S-wave (km/s) = 2.52807 3.40479 2.99865
# Velocity P-wave (km/s) = 5.44759 6.08552 5.77537
#
# Compressibility (1/GPa) = 0.02405373
#
# Stress axis : x y z
#
# Youngs Moduli (GPa) = 85.28691 53.12232 83.18021
#
# Poissons Ratio (x) = 0.27947 0.04939
# Poissons Ratio (y) = 0.44869 0.28317
# Poissons Ratio (z) = 0.05064 0.18085
#
# Static dielectric constant tensor:
#      x y z
#    x 1.678800 0.000000 0.000000 
#    y 0.000000 1.674710 0.000000 
#    z 0.000000 0.000000 1.738430 
# 
# From -- ./inp_files/7387.got.cif
#   From: 2010.05.17/outbox.cif.g08.bks.cpg/sg44_4_cif.got.tgz:7387.got - 2010.06.03 19:37:08.
