data_PCOD9375984
_publ_section_title
;
Structure prediction by ZEFSAII (Michael W. Deem and Ramdas Pophale) SiO2 
 PCOD9375984
Probable space group: I M M 2
;
_chemical_formula_sum "Si O2"
_cell_formula_units_Z 20
_cell_length_a 9.000000
_cell_length_b 12.000000
_cell_length_c 21.000000
_cell_angle_alpha 90.000000
_cell_angle_beta 90.000000
_cell_angle_gamma 90.000000
_cell_volume 2268.000000
_symmetry_space_group_name_H-M "I M M 2"
_symmetry_group_IT_number 44
_symmetry_cell_setting 'orthorhombic'
loop_
_space_group_symop_operation_xyz
x,y,z
-x,-y,z
-x,y,z
x,-y,z
1/2+x,1/2+y,1/2+z
1/2-x,1/2-y,1/2+z
1/2-x,1/2+y,1/2+z
1/2+x,1/2-y,1/2+z
loop_
_atom_site_type_symbol
_atom_site_label
_atom_site_fract_x
_atom_site_fract_y
_atom_site_fract_z
Si Si1 0.820387 0.209414 0.176910
Si Si2 0.319582 0.872729 0.787320
Si Si3 0.321199 0.630885 0.538391
Si Si4 0.821107 0.751330 0.417562
Si Si5 0.177350 0.500000 0.747492
Si Si6 0.678664 0.500000 0.886182
O O1 0.779007 0.316307 0.219866
O O2 0.780463 0.199711 0.102375
O O3 0.000000 0.196848 0.180650
O O4 0.743547 0.106637 0.211900
O O5 0.500000 0.874413 0.788899
O O6 0.273574 0.799446 0.848788
O O7 0.267092 0.000000 0.792934
O O8 0.500000 0.634550 0.532485
O O9 0.279311 0.500000 0.546066
O O10 0.249557 0.683520 0.475574
O O11 0.784755 0.883116 0.420192
O O12 0.000000 0.740774 0.420914
O O13 0.238488 0.500000 0.819027
O O14 0.000000 0.500000 0.746321
O O15 0.500000 0.500000 0.874640
#
# Coordination Sequence:
#
# PCOD9375984 Si02
#       6
#     8   8   8   8   4   4
#     4  10  19  37  59  78 110 149 184 219 269 340
#     4   9  17  31  56  85 105 134 183 228 263 314
#     4  10  21  36  55  79 110 148 183 223 276 329
#     4  10  20  35  58  81 107 142 184 229 270 324
#     4  12  22  32  56  90 114 133 176 241 282 313
#     4  10  20  38  60  80 106 151 188 217 272 339
#
# _framework density 8.8183419999999995
#
# number of rings (size 3 to 8) (size 9 to 14) (size 15 to 20)
#    0.000    2.000    3.000    1.500    0.000    2.800 
#    1.800    0.000    0.000    0.600    0.000    0.000 
#    0.000    0.000    0.000    0.000    0.000    0.000 
#
# Total GULP energy -111545.745868 kJ/mol
# GULP energy per Si atom -5577.287293 kJ/mol
# Density = 0.879827 g / cm^3
# Si number density = 8.818342 Si / 1000 Ang^3
#
#
#
# Elastic Constant Matrix: (Units=GPa)
#
#
# Indices 1 2 3 4 5 6 
#
# 1 5.5246 15.1344 20.1360 0.0000 0.0000 0.0000
# 2 15.1344 132.5515 64.6094 0.0000 0.0000 0.0000
# 3 20.1360 64.6094 142.2059 0.0000 0.0000 0.0000
# 4 0.0000 0.0000 0.0000 36.5858 0.0000 0.0000
# 5 0.0000 0.0000 0.0000 0.0000 28.0630 0.0000
# 6 0.0000 0.0000 0.0000 0.0000 0.0000 14.9972
#
#
#
# Elastic Compliance Matrix: (Units=1/GPa)
#
#
# Indices 1 2 3 4 5 6 
#
# 1 0.429893 -0.024936 -0.049542 0.000000 0.000000 0.000000
# 2 -0.024936 0.011137 -0.001529 0.000000 0.000000 0.000000
# 3 -0.049542 -0.001529 0.014742 0.000000 0.000000 0.000000
# 4 0.000000 0.000000 0.000000 0.027333 0.000000 0.000000
# 5 0.000000 0.000000 0.000000 0.000000 0.035634 0.000000
# 6 0.000000 0.000000 0.000000 0.000000 0.000000 0.066679
#
#
# Mechanical properties :
#
#
# Convention : Reuss Voigt Hill
#
# Bulk Modulus (GPa) = 3.29210 53.33795 28.31503
# Shear Modulus (GPa) = 5.96172 27.95600 16.95886
#
# Velocity S-wave (km/s) = 1.84055 3.98566 3.10428
# Velocity P-wave (km/s) = 2.52735 7.17558 5.37942
#
# Compressibility (1/GPa) = 0.30375714
#
# Stress axis : x y z
#
# Youngs Moduli (GPa) = 2.32616 89.79410 67.83444
#
# Poissons Ratio (x) = 2.23909 3.36068
# Poissons Ratio (y) = 0.05800 0.10371
# Poissons Ratio (z) = 0.11524 0.13729
#
# Static dielectric constant tensor:
#      x y z
#    x 1.584730 0.000000 0.000000 
#    y 0.000000 1.613310 0.000000 
#    z 0.000000 0.000000 1.586370 
# 
# From -- ./inp_files/22775.got.cif
#   From: 2010.05.17/outbox.ucp.g08.bks.cvg/sg44_12_cif.got.tgz:22775.got - 2010.06.11 16:32:36.
