data_PCOD9375782
_publ_section_title
;
Structure prediction by ZEFSAII (Michael W. Deem and Ramdas Pophale) SiO2 
 PCOD9375782
Probable space group: I M M 2
;
_chemical_formula_sum "Si O2"
_cell_formula_units_Z 34
_cell_length_a 18.152386
_cell_length_b 7.947999
_cell_length_c 9.589494
_cell_angle_alpha 90.000000
_cell_angle_beta 90.000000
_cell_angle_gamma 90.000000
_cell_volume 1383.525645
_symmetry_space_group_name_H-M "I M M 2"
_symmetry_group_IT_number 44
_symmetry_cell_setting 'orthorhombic'
loop_
_space_group_symop_operation_xyz
x,y,z
-x,-y,z
-x,y,z
x,-y,z
1/2+x,1/2+y,1/2+z
1/2-x,1/2-y,1/2+z
1/2-x,1/2+y,1/2+z
1/2+x,1/2-y,1/2+z
loop_
_atom_site_type_symbol
_atom_site_label
_atom_site_fract_x
_atom_site_fract_y
_atom_site_fract_z
Si Si1 0.720490 0.309332 0.370180
Si Si2 0.100915 0.198140 0.075628
Si Si3 0.417537 0.195958 0.187054
Si Si4 0.120302 0.810427 0.388117
Si Si5 0.000000 0.500000 0.977316
O O1 0.746356 0.500000 0.347169
O O2 0.685146 0.295205 0.524129
O O3 0.652437 0.276226 0.265049
O O4 0.791859 0.195494 0.364408
O O5 0.088569 0.236394 0.237825
O O6 0.061849 0.347491 0.993839
O O7 0.080300 0.000000 0.050266
O O8 0.500000 0.268871 0.213174
O O9 0.422319 0.000000 0.227143
O O10 0.402445 0.204771 0.021707
O O11 0.096961 0.000000 0.420187
#
# Coordination Sequence:
#
# PCOD9375782 Si02
#       5
#     8   8   8   8   2
#     4  11  24  44  70  98 136 177 225 282 338 406
#     4  10  26  44  67 104 135 175 231 281 333 408
#     4  11  26  43  67 101 139 175 225 277 338 411
#     4  11  24  44  70  98 136 177 225 282 338 406
#     4  12  26  40  76  92 144 180 224 270 352 402
#
# _framework density 24.574895999999999
#
# number of rings (size 3 to 8) (size 9 to 14) (size 15 to 20)
#    0.000    1.176    0.000    3.882    9.882    3.765 
#    0.000    0.000    0.000    0.000    0.000    0.000 
#    0.000    0.000    0.000    0.000    0.000    0.000 
#
# Total GULP energy -94831.557968 kJ/mol
# GULP energy per Si atom -5578.326939 kJ/mol
# Density = 2.451896 g / cm^3
# Si number density = 24.574896 Si / 1000 Ang^3
#
#
#
# Elastic Constant Matrix: (Units=GPa)
#
#
# Indices 1 2 3 4 5 6 
#
# 1 109.0587 7.8937 22.8987 0.0000 0.0000 0.0000
# 2 7.8937 90.8925 31.8559 0.0000 0.0000 0.0000
# 3 22.8987 31.8559 127.5553 0.0000 0.0000 0.0000
# 4 0.0000 0.0000 0.0000 41.6160 0.0000 0.0000
# 5 0.0000 0.0000 0.0000 0.0000 75.2437 0.0000
# 6 0.0000 0.0000 0.0000 0.0000 0.0000 18.3355
#
#
#
# Elastic Compliance Matrix: (Units=1/GPa)
#
#
# Indices 1 2 3 4 5 6 
#
# 1 0.009534 -0.000250 -0.001649 0.000000 0.000000 0.000000
# 2 -0.000250 0.012064 -0.002968 0.000000 0.000000 0.000000
# 3 -0.001649 -0.002968 0.008877 0.000000 0.000000 0.000000
# 4 0.000000 0.000000 0.000000 0.024029 0.000000 0.000000
# 5 0.000000 0.000000 0.000000 0.000000 0.013290 0.000000
# 6 0.000000 0.000000 0.000000 0.000000 0.000000 0.054539
#
#
# Mechanical properties :
#
#
# Convention : Reuss Voigt Hill
#
# Bulk Modulus (GPa) = 48.21472 50.31145 49.26308
# Shear Modulus (GPa) = 35.97625 44.69624 40.33624
#
# Velocity S-wave (km/s) = 3.83030 4.26934 4.05577
# Velocity P-wave (km/s) = 6.26288 6.69478 6.48243
#
# Compressibility (1/GPa) = 0.02074056
#
# Stress axis : x y z
#
# Youngs Moduli (GPa) = 104.89084 82.89172 112.65058
#
# Poissons Ratio (x) = 0.02072 0.18577
# Poissons Ratio (y) = 0.02622 0.33435
# Poissons Ratio (z) = 0.17297 0.24602
#
# Static dielectric constant tensor:
#      x y z
#    x 1.801720 0.000000 0.000000 
#    y 0.000000 1.858090 0.000000 
#    z 0.000000 0.000000 2.039390 
# 
# From -- ./inp_files/8638.got.cif
#   From: 2010.05.17/outbox.cif.g08.bks.cpg/sg44_5_cif.got.tgz:8638.got - 2010.06.03 19:37:08.
