data_PCOD9375207
_publ_section_title
;
Structure prediction by ZEFSAII (Michael W. Deem and Ramdas Pophale) SiO2 
 PCOD9375207
Probable space group: I M M 2
;
_chemical_formula_sum "Si O2"
_cell_formula_units_Z 26
_cell_length_a 10.997510
_cell_length_b 11.046202
_cell_length_c 8.476819
_cell_angle_alpha 90.000000
_cell_angle_beta 90.000000
_cell_angle_gamma 90.000000
_cell_volume 1029.770050
_symmetry_space_group_name_H-M "I M M 2"
_symmetry_group_IT_number 44
_symmetry_cell_setting 'orthorhombic'
loop_
_space_group_symop_operation_xyz
x,y,z
-x,-y,z
-x,y,z
x,-y,z
1/2+x,1/2+y,1/2+z
1/2-x,1/2-y,1/2+z
1/2-x,1/2+y,1/2+z
1/2+x,1/2-y,1/2+z
loop_
_atom_site_type_symbol
_atom_site_label
_atom_site_fract_x
_atom_site_fract_y
_atom_site_fract_z
Si Si1 0.500000 0.143441 0.179801
Si Si2 0.252338 0.243207 0.163276
Si Si3 0.000000 0.704266 0.311635
Si Si4 0.264639 0.500000 0.983979
Si Si5 0.145635 0.000000 0.124962
Si Si6 0.500000 0.000000 0.551125
O O1 0.378097 0.204651 0.245075
O O2 0.500000 0.000000 0.180066
O O3 0.500000 0.173296 0.993356
O O4 0.279105 0.374538 0.084256
O O5 0.212943 0.121989 0.062333
O O6 0.134476 0.244754 0.276310
O O7 0.000000 0.608957 0.170955
O O8 0.121199 0.500000 0.953887
O O9 0.333728 0.500000 0.816900
O O10 0.000000 0.000000 0.094369
#
# Coordination Sequence:
#
# PCOD9375207 Si02
#       6
#     4   8   4   4   4   2
#     4  12  24  42  71 102 135 180 233 285 347 412
#     4  11  24  42  69 103 139 179 232 289 340 423
#     4  10  20  43  67  97 134 184 218 284 347 406
#     4  10  24  42  67 107 134 185 232 289 351 414
#     4  12  24  45  71 100 141 187 228 290 357 410
#     4   8  18  38  66  88 138 170 230 264 340 402
#
# _framework density 25.248355
#
# number of rings (size 3 to 8) (size 9 to 14) (size 15 to 20)
#    0.000    1.231    3.846    1.846    2.154    1.231 
#    0.000    4.615    0.000    0.000    0.000    0.000 
#    0.000    0.000    0.000    0.000    0.000    0.000 
#
# Total GULP energy -72500.417089 kJ/mol
# GULP energy per Si atom -5576.955161 kJ/mol
# Density = 2.519089 g / cm^3
# Si number density = 25.248355 Si / 1000 Ang^3
#
#
#
# Elastic Constant Matrix: (Units=GPa)
#
#
# Indices 1 2 3 4 5 6 
#
# 1 217.8839 63.1034 4.7568 0.0000 0.0000 0.0000
# 2 63.1034 236.9816 50.2136 0.0000 0.0000 0.0000
# 3 4.7568 50.2136 80.5008 0.0000 0.0000 0.0000
# 4 0.0000 0.0000 0.0000 46.6099 0.0000 0.0000
# 5 0.0000 0.0000 0.0000 0.0000 23.3671 0.0000
# 6 0.0000 0.0000 0.0000 0.0000 0.0000 42.8480
#
#
#
# Elastic Compliance Matrix: (Units=1/GPa)
#
#
# Indices 1 2 3 4 5 6 
#
# 1 0.005000 -0.001462 0.000616 0.000000 0.000000 0.000000
# 2 -0.001462 0.005290 -0.003213 0.000000 0.000000 0.000000
# 3 0.000616 -0.003213 0.014390 0.000000 0.000000 0.000000
# 4 0.000000 0.000000 0.000000 0.021455 0.000000 0.000000
# 5 0.000000 0.000000 0.000000 0.000000 0.042795 0.000000
# 6 0.000000 0.000000 0.000000 0.000000 0.000000 0.023338
#
#
# Mechanical properties :
#
#
# Convention : Reuss Voigt Hill
#
# Bulk Modulus (GPa) = 60.37865 85.72376 73.05121
# Shear Modulus (GPa) = 39.71223 50.38451 45.04837
#
# Velocity S-wave (km/s) = 3.97024 4.47201 4.22857
# Velocity P-wave (km/s) = 6.70693 7.79045 7.26890
#
# Compressibility (1/GPa) = 0.01656214
#
# Stress axis : x y z
#
# Youngs Moduli (GPa) = 200.01864 189.04106 69.49214
#
# Poissons Ratio (x) = 0.27636 -0.04284
# Poissons Ratio (y) = 0.29241 0.22330
# Poissons Ratio (z) = -0.12330 0.60743
#
# Static dielectric constant tensor:
#      x y z
#    x 2.014820 0.000000 0.000000 
#    y 0.000000 2.097210 0.000000 
#    z 0.000000 0.000000 2.008240 
# 
# From -- ./inp_files/5216.got.cif
#   From: 2010.05.17/outbox.cif.g08.bks.cpg/sg44_3_cif.got.tgz:5216.got - 2010.06.03 19:37:08.
