data_PCOD9375532
_publ_section_title
;
Structure prediction by ZEFSAII (Michael W. Deem and Ramdas Pophale) SiO2 
 PCOD9375532
Probable space group: I M M 2
;
_chemical_formula_sum "Si O2"
_cell_formula_units_Z 52
_cell_length_a 20.099758
_cell_length_b 13.624828
_cell_length_c 9.371583
_cell_angle_alpha 90.000000
_cell_angle_beta 90.000000
_cell_angle_gamma 90.000000
_cell_volume 2566.461850
_symmetry_space_group_name_H-M "I M M 2"
_symmetry_group_IT_number 44
_symmetry_cell_setting 'orthorhombic'
loop_
_space_group_symop_operation_xyz
x,y,z
-x,-y,z
-x,y,z
x,-y,z
1/2+x,1/2+y,1/2+z
1/2-x,1/2-y,1/2+z
1/2-x,1/2+y,1/2+z
1/2+x,1/2-y,1/2+z
loop_
_atom_site_type_symbol
_atom_site_label
_atom_site_fract_x
_atom_site_fract_y
_atom_site_fract_z
Si Si1 0.852483 0.885556 0.796460
Si Si2 0.500000 0.885117 0.177241
Si Si3 0.000000 0.382019 0.131587
Si Si4 0.783577 0.612484 0.475157
Si Si5 0.500000 0.255118 0.905463
Si Si6 0.763407 0.612307 0.806116
Si Si7 0.898309 0.695537 0.903906
Si Si8 0.359405 0.690568 0.971071
O O1 0.778676 0.880627 0.866995
O O2 0.900838 0.813092 0.885265
O O3 0.852753 0.842586 0.635753
O O4 0.871905 0.000000 0.796125
O O5 0.563868 0.856740 0.272559
O O6 0.500000 0.000000 0.144044
O O7 0.500000 0.815025 0.043141
O O8 0.000000 0.500000 0.149480
O O9 0.000000 0.318366 0.273263
O O10 0.064561 0.347943 0.040300
O O11 0.808824 0.500000 0.468889
O O12 0.759798 0.633037 0.637450
O O13 0.838429 0.695303 0.449252
O O14 0.566138 0.319600 0.915753
O O15 0.783401 0.500000 0.820928
O O16 0.820774 0.671728 0.886918
O O17 0.693491 0.630997 0.879377
#
# Coordination Sequence:
#
# PCOD9375532 Si02
#       8
#     8   4   4   8   4   8   8   8
#     4  11  23  41  67  98 130 172 224 273 327 393
#     4  11  21  41  68  96 129 167 215 266 334 402
#     4  11  27  45  66 102 141 172 219 277 340 408
#     4  10  21  38  66 100 130 165 215 274 336 396
#     4  12  27  42  63  92 136 179 221 273 333 384
#     4  11  22  39  67  96 128 171 218 271 333 398
#     4  11  21  42  70  98 132 175 215 273 336 406
#     4  12  23  43  62  96 134 177 216 276 328 396
#
# _framework density 20.261357
#
# number of rings (size 3 to 8) (size 9 to 14) (size 15 to 20)
#    0.000    0.923    4.615    2.538    2.154    3.692 
#    0.000    6.154    0.000    1.846    0.000    0.000 
#    0.000    0.000    0.000    0.000    0.000    0.000 
#
# Total GULP energy -145304.587753 kJ/mol
# GULP energy per Si atom -5588.637990 kJ/mol
# Density = 2.021524 g / cm^3
# Si number density = 20.261357 Si / 1000 Ang^3
#
#
#
# Elastic Constant Matrix: (Units=GPa)
#
#
# Indices 1 2 3 4 5 6 
#
# 1 86.8976 20.4810 22.2874 0.0000 0.0000 0.0000
# 2 20.4810 80.0630 -4.4612 0.0000 0.0000 0.0000
# 3 22.2874 -4.4612 69.8135 0.0000 0.0000 0.0000
# 4 0.0000 0.0000 0.0000 29.9168 0.0000 0.0000
# 5 0.0000 0.0000 0.0000 0.0000 -1.2897 0.0000
# 6 0.0000 0.0000 0.0000 0.0000 0.0000 20.3024
#
#
#
# Elastic Compliance Matrix: (Units=1/GPa)
#
#
# Indices 1 2 3 4 5 6 
#
# 1 0.013556 -0.003722 -0.004566 0.000000 0.000000 0.000000
# 2 -0.003722 0.013557 0.002055 0.000000 0.000000 0.000000
# 3 -0.004566 0.002055 0.015913 0.000000 0.000000 0.000000
# 4 0.000000 0.000000 0.000000 0.033426 0.000000 0.000000
# 5 0.000000 0.000000 0.000000 0.000000 -0.775362 0.000000
# 6 0.000000 0.000000 0.000000 0.000000 0.000000 0.049255
#
#
# Mechanical properties :
#
#
# Convention : Reuss Voigt Hill
#
# Bulk Modulus (GPa) = 32.72324 34.82092 33.77208
# Shear Modulus (GPa) = -7.97445 23.01703 7.52129
#
# Velocity S-wave (km/s) = -1.98604 3.37413 1.92878
# Velocity P-wave (km/s) = 3.30553 5.69235 4.65453
#
# Compressibility (1/GPa) = 0.03055933
#
# Stress axis : x y z
#
# Youngs Moduli (GPa) = 73.76784 73.76362 62.84303
#
# Poissons Ratio (x) = 0.27456 0.28691
# Poissons Ratio (y) = 0.27458 -0.12912
# Poissons Ratio (z) = 0.33679 -0.15155
#
# Static dielectric constant tensor:
#      x y z
#    x 2.057080 0.000000 0.000000 
#    y 0.000000 1.729280 0.000000 
#    z 0.000000 0.000000 1.719090 
# 
# From -- ./inp_files/8901.got.cif
#   From: 2010.05.17/outbox.cif.g08.bks.cpg/sg44_5_cif.got.tgz:8901.got - 2010.06.03 19:37:08.
