data_PCOD9375906
_publ_section_title
;
Structure prediction by ZEFSAII (Michael W. Deem and Ramdas Pophale) SiO2 
 PCOD9375906
Probable space group: I M M 2
;
_chemical_formula_sum "Si O2"
_cell_formula_units_Z 48
_cell_length_a 11.552051
_cell_length_b 20.461329
_cell_length_c 7.081645
_cell_angle_alpha 90.000000
_cell_angle_beta 90.000000
_cell_angle_gamma 90.000000
_cell_volume 1673.890667
_symmetry_space_group_name_H-M "I M M 2"
_symmetry_group_IT_number 44
_symmetry_cell_setting 'orthorhombic'
loop_
_space_group_symop_operation_xyz
x,y,z
-x,-y,z
-x,y,z
x,-y,z
1/2+x,1/2+y,1/2+z
1/2-x,1/2-y,1/2+z
1/2-x,1/2+y,1/2+z
1/2+x,1/2-y,1/2+z
loop_
_atom_site_type_symbol
_atom_site_label
_atom_site_fract_x
_atom_site_fract_y
_atom_site_fract_z
Si Si1 0.127678 0.579510 0.478990
Si Si2 0.124024 0.249308 0.583778
Si Si3 0.377602 0.578456 0.478959
Si Si4 0.123983 0.271003 0.175346
Si Si5 0.874943 0.600536 0.923028
Si Si6 0.374992 0.399795 0.928391
O O1 0.135120 0.500000 0.498807
O O2 0.253885 0.598484 0.394465
O O3 0.125378 0.605510 0.695331
O O4 0.000000 0.589615 0.391636
O O5 0.250194 0.262281 0.667185
O O6 0.125219 0.174237 0.507951
O O7 0.000000 0.257526 0.685966
O O8 0.118181 0.291557 0.393516
O O9 0.500000 0.604098 0.398597
O O10 0.382147 0.500000 0.468551
O O11 0.375871 0.597250 0.700191
O O12 0.125167 0.329905 0.028331
O O13 0.000000 0.235291 0.143777
O O14 0.750477 0.570554 0.977225
O O15 0.000000 0.569952 0.968715
O O16 0.500000 0.428533 0.985877
#
# Coordination Sequence:
#
# PCOD9375906 Si02
#       6
#     8   8   8   8   8   8
#     4   8  12  17  26  41  61  85 111 137 167 206
#     4   9  17  28  41  57  77 101 128 157 189 224
#     4   8  12  17  26  41  61  85 111 137 167 206
#     4   9  17  28  41  57  77 101 128 157 189 224
#     4   8  13  21  32  46  66  91 116 143 176 213
#     4   8  13  21  32  46  66  91 116 143 176 213
#
# _framework density 28.675708
#
# number of rings (size 3 to 8) (size 9 to 14) (size 15 to 20)
#    0.000    3.667    0.000    0.000    0.000    0.667 
#    0.000    0.000    0.000    0.000    0.000    0.000 
#    0.000    1.333    0.000    1.000    0.000   20.000 
#
# Total GULP energy -134024.254822 kJ/mol
# GULP energy per Si atom -5584.343951 kJ/mol
# Density = 2.861044 g / cm^3
# Si number density = 28.675708 Si / 1000 Ang^3
#
#
#
# Elastic Constant Matrix: (Units=GPa)
#
#
# Indices 1 2 3 4 5 6 
#
# 1 472.9861 50.5779 29.2957 0.0014 0.0000 0.0000
# 2 50.5779 101.7936 -1.8062 0.0004 -0.0004 -0.0001
# 3 29.2957 -1.8062 134.8050 0.0171 -0.0012 -0.0016
# 4 0.0014 0.0004 0.0171 -40.7644 -0.0048 -0.0030
# 5 0.0000 -0.0004 -0.0012 -0.0048 4.3078 -0.0002
# 6 0.0000 -0.0001 -0.0016 -0.0030 -0.0002 -0.0292
#
#
#
# Elastic Compliance Matrix: (Units=1/GPa)
#
#
# Indices 1 2 3 4 5 6 
#
# 1 0.002267 -0.001135 -0.000508 0.000000 0.000000 0.000034
# 2 -0.001135 0.010395 0.000386 0.000000 0.000001 -0.000052
# 3 -0.000508 0.000386 0.007534 0.000003 0.000002 -0.000422
# 4 0.000000 0.000000 0.000003 -0.024531 -0.000027 0.002522
# 5 0.000000 0.000001 0.000002 -0.000027 0.232138 -0.001873
# 6 0.000034 -0.000052 -0.000422 0.002522 -0.001873-34.208281
#
#
# Mechanical properties :
#
#
# Convention : Reuss Voigt Hill
#
# Bulk Modulus (GPa) = 56.55810 96.19107 76.37458
# Shear Modulus (GPa) = -0.14718 34.80399 17.32841
#
# Velocity S-wave (km/s) = -0.22680 3.48761 2.46090
# Velocity P-wave (km/s) = 4.43820 7.05940 5.89630
#
# Compressibility (1/GPa) = 0.01768093
#
# Stress axis : x y z
#
# Youngs Moduli (GPa) = 441.09143 96.20176 132.73753
#
# Poissons Ratio (x) = 0.10923 0.06742
# Poissons Ratio (y) = 0.50084 -0.05124
# Poissons Ratio (z) = 0.22403 -0.03714
#
# Static dielectric constant tensor:
#      x y z
#    x 2.233840 0.000000 0.000000 
#    y 0.000000 2.250460 0.000000 
#    z 0.000000 0.000000 2.099550 
# 
# From -- ./inp_files/6041.got.cif
#   From: 2010.05.17/outbox.cif.g08.bks.cpg/sg44_4_cif.got.tgz:6041.got - 2010.06.03 19:37:08.
