data_PCOD9375731
_publ_section_title
;
Structure prediction by ZEFSAII (Michael W. Deem and Ramdas Pophale) SiO2 
 PCOD9375731
Probable space group: I M M 2
;
_chemical_formula_sum "Si O2"
_cell_formula_units_Z 40
_cell_length_a 8.933111
_cell_length_b 11.701021
_cell_length_c 20.165964
_cell_angle_alpha 90.000000
_cell_angle_beta 90.000000
_cell_angle_gamma 90.000000
_cell_volume 2107.878027
_symmetry_space_group_name_H-M "I M M 2"
_symmetry_group_IT_number 44
_symmetry_cell_setting 'orthorhombic'
loop_
_space_group_symop_operation_xyz
x,y,z
-x,-y,z
-x,y,z
x,-y,z
1/2+x,1/2+y,1/2+z
1/2-x,1/2-y,1/2+z
1/2-x,1/2+y,1/2+z
1/2+x,1/2-y,1/2+z
loop_
_atom_site_type_symbol
_atom_site_label
_atom_site_fract_x
_atom_site_fract_y
_atom_site_fract_z
Si Si1 0.322990 0.634546 0.198480
Si Si2 0.825929 0.500000 0.583146
Si Si3 0.821973 0.241411 0.072698
Si Si4 0.678983 0.276777 0.806795
Si Si5 0.821875 0.865784 0.450196
Si Si6 0.825411 0.500000 0.742732
O O1 0.500000 0.659875 0.197884
O O2 0.301870 0.500000 0.186292
O O3 0.244995 0.707085 0.140587
O O4 0.253968 0.671649 0.268741
O O5 0.745826 0.384227 0.560641
O O6 0.819407 0.500000 0.663282
O O7 0.000000 0.500000 0.563121
O O8 0.000000 0.235729 0.077691
O O9 0.769845 0.322346 0.012820
O O10 0.500000 0.272748 0.799455
O O11 0.713250 0.293059 0.884422
O O12 0.743300 0.388946 0.770670
O O13 0.000000 0.854390 0.464055
O O14 0.793616 0.000000 0.436592
O O15 0.000000 0.500000 0.762647
#
# Coordination Sequence:
#
# PCOD9375731 Si02
#       6
#     8   4   8   8   8   4
#     4  11  24  42  63  89 124 166 205 250 306 364
#     4  11  23  41  65  91 122 163 202 245 308 368
#     4  12  25  40  63  94 124 158 205 258 305 357
#     4  11  22  39  65  94 123 158 203 253 303 360
#     4  10  22  42  64  89 124 165 204 246 304 368
#     4  11  21  35  63  95 124 157 196 247 304 362
#
# _framework density 18.976429
#
# number of rings (size 3 to 8) (size 9 to 14) (size 15 to 20)
#    0.000    1.000    3.000    4.200    0.000    6.800 
#    1.800    0.000    0.000    0.000    0.000    0.000 
#    0.000    0.000    0.000    0.000    0.000    0.000 
#
# Total GULP energy -111850.058701 kJ/mol
# GULP energy per Si atom -5592.502935 kJ/mol
# Density = 1.893324 g / cm^3
# Si number density = 18.976429 Si / 1000 Ang^3
#
#
#
# Elastic Constant Matrix: (Units=GPa)
#
#
# Indices 1 2 3 4 5 6 
#
# 1 109.7036 53.5142 52.7103 0.0000 0.0000 0.0000
# 2 53.5142 74.1432 30.2400 0.0000 0.0000 0.0000
# 3 52.7103 30.2400 78.2585 0.0000 0.0000 0.0000
# 4 0.0000 0.0000 0.0000 31.4304 0.0000 0.0000
# 5 0.0000 0.0000 0.0000 0.0000 32.5040 0.0000
# 6 0.0000 0.0000 0.0000 0.0000 0.0000 31.8234
#
#
#
# Elastic Compliance Matrix: (Units=1/GPa)
#
#
# Indices 1 2 3 4 5 6 
#
# 1 0.017665 -0.009375 -0.008275 0.000000 0.000000 0.000000
# 2 -0.009375 0.020986 -0.001795 0.000000 0.000000 0.000000
# 3 -0.008275 -0.001795 0.019046 0.000000 0.000000 0.000000
# 4 0.000000 0.000000 0.000000 0.031816 0.000000 0.000000
# 5 0.000000 0.000000 0.000000 0.000000 0.030765 0.000000
# 6 0.000000 0.000000 0.000000 0.000000 0.000000 0.031423
#
#
# Mechanical properties :
#
#
# Convention : Reuss Voigt Hill
#
# Bulk Modulus (GPa) = 53.17433 59.44825 56.31129
# Shear Modulus (GPa) = 25.39879 27.52761 26.46320
#
# Velocity S-wave (km/s) = 3.66244 3.81283 3.73839
# Velocity P-wave (km/s) = 6.77987 7.12594 6.95506
#
# Compressibility (1/GPa) = 0.01880607
#
# Stress axis : x y z
#
# Youngs Moduli (GPa) = 56.61039 47.65131 52.50563
#
# Poissons Ratio (x) = 0.44671 0.43450
# Poissons Ratio (y) = 0.53070 0.09425
# Poissons Ratio (z) = 0.46847 0.08553
#
# Static dielectric constant tensor:
#      x y z
#    x 1.633670 0.000000 0.000000 
#    y 0.000000 1.645440 0.000000 
#    z 0.000000 0.000000 1.639140 
# 
# From -- ./inp_files/22809.got.cif
#   From: 2010.05.17/outbox.cif.g08.bks.cpg/sg44_12_cif.got.tgz:22809.got - 2010.06.03 19:37:08.
