data_PCOD9375020
_publ_section_title
;
Structure prediction by ZEFSAII (Michael W. Deem and Ramdas Pophale) SiO2 
 PCOD9375020
Probable space group: I M M 2
;
_chemical_formula_sum "Si O2"
_cell_formula_units_Z 64
_cell_length_a 25.697589
_cell_length_b 8.947355
_cell_length_c 15.125356
_cell_angle_alpha 90.000000
_cell_angle_beta 90.000000
_cell_angle_gamma 90.000000
_cell_volume 3477.704306
_symmetry_space_group_name_H-M "I M M 2"
_symmetry_group_IT_number 44
_symmetry_cell_setting 'orthorhombic'
loop_
_space_group_symop_operation_xyz
x,y,z
-x,-y,z
-x,y,z
x,-y,z
1/2+x,1/2+y,1/2+z
1/2-x,1/2-y,1/2+z
1/2-x,1/2+y,1/2+z
1/2+x,1/2-y,1/2+z
loop_
_atom_site_type_symbol
_atom_site_label
_atom_site_fract_x
_atom_site_fract_y
_atom_site_fract_z
Si Si1 0.938382 0.821297 0.320710
Si Si2 0.330946 0.322724 0.504327
Si Si3 0.847811 0.319589 0.813775
Si Si4 0.394802 0.680174 0.013296
Si Si5 0.232612 0.826185 0.274548
Si Si6 0.637207 0.823150 0.679272
Si Si7 0.441428 0.820007 0.186336
Si Si8 0.222563 0.825440 0.487014
O O1 0.916231 0.776560 0.416830
O O2 0.907224 0.738250 0.244145
O O3 0.000000 0.794101 0.317179
O O4 0.929407 0.000000 0.311656
O O5 0.334633 0.500000 0.503624
O O6 0.346944 0.255476 0.409638
O O7 0.364160 0.253422 0.583585
O O8 0.270934 0.272034 0.518449
O O9 0.847591 0.500000 0.825451
O O10 0.793122 0.282991 0.765524
O O11 0.897312 0.274113 0.756190
O O12 0.397888 0.500000 0.018611
O O13 0.427383 0.752025 0.091608
O O14 0.333960 0.721896 0.020914
O O15 0.192018 0.725142 0.223279
O O16 0.221176 0.818119 0.379837
O O17 0.225616 0.000000 0.247710
O O18 0.634156 0.000000 0.670703
O O19 0.500000 0.776993 0.212524
O O20 0.439303 0.000000 0.180252
O O21 0.231833 0.000000 0.509867
#
# Coordination Sequence:
#
# PCOD9375020 Si02
#       8
#     8   8   8   8   8   8   8   8
#     4  10  21  40  63  85 116 159 202 243 292 348
#     4  11  23  38  59  85 117 153 195 245 298 353
#     4   9  20  40  61  82 114 154 194 243 300 349
#     4  10  20  36  59  87 119 156 195 235 284 345
#     4   9  17  34  57  81 113 151 192 237 288 348
#     4  12  24  37  57  86 121 157 197 243 293 348
#     4  10  22  39  59  86 119 155 197 242 290 344
#     4   9  18  35  57  84 119 154 189 232 285 346
#
# _framework density 18.402944000000002
#
# number of rings (size 3 to 8) (size 9 to 14) (size 15 to 20)
#    0.000    2.000    1.250    3.375    1.750    4.500 
#    0.000    0.625    0.000    2.250    0.000    0.000 
#    0.000    0.000    0.000    0.000    0.000    0.000 
#
# Total GULP energy -178776.269876 kJ/mol
# GULP energy per Si atom -5586.758434 kJ/mol
# Density = 1.836106 g / cm^3
# Si number density = 18.402944 Si / 1000 Ang^3
#
#
#
# Elastic Constant Matrix: (Units=GPa)
#
#
# Indices 1 2 3 4 5 6 
#
# 1 107.4420 39.0759 45.0216 0.0000 0.0000 0.0000
# 2 39.0759 56.7137 39.3606 0.0000 0.0000 0.0000
# 3 45.0216 39.3606 74.4068 0.0000 0.0000 0.0000
# 4 0.0000 0.0000 0.0000 29.9039 0.0000 0.0000
# 5 0.0000 0.0000 0.0000 0.0000 28.6427 0.0000
# 6 0.0000 0.0000 0.0000 0.0000 0.0000 214.2175
#
#
#
# Elastic Compliance Matrix: (Units=1/GPa)
#
#
# Indices 1 2 3 4 5 6 
#
# 1 0.013566 -0.005768 -0.005157 0.000000 0.000000 0.000000
# 2 -0.005768 0.030313 -0.012546 0.000000 0.000000 0.000000
# 3 -0.005157 -0.012546 0.023197 0.000000 0.000000 0.000000
# 4 0.000000 0.000000 0.000000 0.033440 0.000000 0.000000
# 5 0.000000 0.000000 0.000000 0.000000 0.034913 0.000000
# 6 0.000000 0.000000 0.000000 0.000000 0.000000 0.004668
#
#
# Mechanical properties :
#
#
# Convention : Reuss Voigt Hill
#
# Bulk Modulus (GPa) = 49.66547 53.94209 51.80378
# Shear Modulus (GPa) = 25.80633 62.22645 44.01639
#
# Velocity S-wave (km/s) = 3.74878 5.82123 4.89592
# Velocity P-wave (km/s) = 6.76640 8.63467 7.75699
#
# Compressibility (1/GPa) = 0.02013471
#
# Stress axis : x y z
#
# Youngs Moduli (GPa) = 73.71274 32.98876 43.10945
#
# Poissons Ratio (x) = 0.19027 0.22233
# Poissons Ratio (y) = 0.42516 0.54083
# Poissons Ratio (z) = 0.38017 0.41386
#
# Static dielectric constant tensor:
#      x y z
#    x 1.633360 0.000000 0.000000 
#    y 0.000000 1.611950 0.000000 
#    z 0.000000 0.000000 1.620350 
# 
# From -- ./inp_files/19477.got.cif
#   From: 2010.05.17/outbox.cif.g08.bks.cpg/sg44_10_cif.got.tgz:19477.got - 2010.06.03 19:37:08.
