data_PCOD9375525
_publ_section_title
;
Structure prediction by ZEFSAII (Michael W. Deem and Ramdas Pophale) SiO2 
 PCOD9375525
Probable space group: I M M 2
;
_chemical_formula_sum "Si O2"
_cell_formula_units_Z 34
_cell_length_a 23.018548
_cell_length_b 7.274976
_cell_length_c 8.743392
_cell_angle_alpha 90.000000
_cell_angle_beta 90.000000
_cell_angle_gamma 90.000000
_cell_volume 1464.163041
_symmetry_space_group_name_H-M "I M M 2"
_symmetry_group_IT_number 44
_symmetry_cell_setting 'orthorhombic'
loop_
_space_group_symop_operation_xyz
x,y,z
-x,-y,z
-x,y,z
x,-y,z
1/2+x,1/2+y,1/2+z
1/2-x,1/2-y,1/2+z
1/2-x,1/2+y,1/2+z
1/2+x,1/2-y,1/2+z
loop_
_atom_site_type_symbol
_atom_site_label
_atom_site_fract_x
_atom_site_fract_y
_atom_site_fract_z
Si Si1 0.000000 0.500000 0.684630
Si Si2 0.590970 0.720478 0.057536
Si Si3 0.713719 0.279454 0.193244
Si Si4 0.435840 0.276609 0.707154
Si Si5 0.828221 0.790570 0.017358
O O1 0.949098 0.661232 0.668962
O O2 0.582177 0.500000 0.076811
O O3 0.659012 0.758873 0.084001
O O4 0.573555 0.773400 0.884436
O O5 0.721234 0.500000 0.199513
O O6 0.774467 0.205743 0.133481
O O7 0.695449 0.209414 0.360111
O O8 0.500000 0.218586 0.657187
O O9 0.434090 0.500000 0.706198
O O10 0.384288 0.208810 0.599608
O O11 0.844856 0.000000 0.977317
#
# Coordination Sequence:
#
# PCOD9375525 Si02
#       5
#     2   8   8   8   8
#     4  12  22  36  64  96 120 164 204 254 300 378
#     4  10  21  39  62  89 126 162 207 252 307 368
#     4  10  22  40  60  89 120 159 202 255 313 364
#     4   9  17  35  59  85 119 162 200 246 308 365
#     4  10  21  38  63  88 119 160 208 253 308 371
#
# _framework density 23.221456
#
# number of rings (size 3 to 8) (size 9 to 14) (size 15 to 20)
#    0.000    2.118    1.176    1.765    1.647    2.824 
#    4.235    0.000    0.000    1.412    0.000    0.000 
#    0.000    0.000    0.000    0.000    0.000    0.000 
#
# Total GULP energy -94791.930467 kJ/mol
# GULP energy per Si atom -5575.995910 kJ/mol
# Density = 2.316860 g / cm^3
# Si number density = 23.221456 Si / 1000 Ang^3
#
#
#
# Elastic Constant Matrix: (Units=GPa)
#
#
# Indices 1 2 3 4 5 6 
#
# 1 178.3063 6.8552 50.9467 0.0000 0.0000 0.0000
# 2 6.8552 112.3339 -3.0952 0.0000 0.0000 0.0000
# 3 50.9467 -3.0952 59.7956 0.0000 0.0000 0.0000
# 4 0.0000 0.0000 0.0000 1.1473 0.0000 0.0000
# 5 0.0000 0.0000 0.0000 0.0000 28.4832 0.0000
# 6 0.0000 0.0000 0.0000 0.0000 0.0000 3.8091
#
#
#
# Elastic Compliance Matrix: (Units=1/GPa)
#
#
# Indices 1 2 3 4 5 6 
#
# 1 0.007457 -0.000631 -0.006386 0.000000 0.000000 0.000000
# 2 -0.000631 0.008968 0.001002 0.000000 0.000000 0.000000
# 3 -0.006386 0.001002 0.022217 0.000000 0.000000 0.000000
# 4 0.000000 0.000000 0.000000 0.871608 0.000000 0.000000
# 5 0.000000 0.000000 0.000000 0.000000 0.035108 0.000000
# 6 0.000000 0.000000 0.000000 0.000000 0.000000 0.262532
#
#
# Mechanical properties :
#
#
# Convention : Reuss Voigt Hill
#
# Bulk Modulus (GPa) = 37.57828 51.09436 44.33632
# Shear Modulus (GPa) = 4.06903 26.40319 15.23611
#
# Velocity S-wave (km/s) = 1.32517 3.37563 2.56427
# Velocity P-wave (km/s) = 4.30803 6.10278 5.28219
#
# Compressibility (1/GPa) = 0.02661112
#
# Stress axis : x y z
#
# Youngs Moduli (GPa) = 134.09573 111.50578 45.01090
#
# Poissons Ratio (x) = 0.07037 0.28746
# Poissons Ratio (y) = 0.08462 -0.04510
# Poissons Ratio (z) = 0.85639 -0.11172
#
# Static dielectric constant tensor:
#      x y z
#    x 1.826960 0.000000 0.000000 
#    y 0.000000 1.939660 0.000000 
#    z 0.000000 0.000000 1.871130 
# 
# From -- ./inp_files/4284.got.cif
#   From: 2010.05.17/outbox.cif.g08.bks.cpg/sg44_3_cif.got.tgz:4284.got - 2010.06.03 19:37:08.
