data_PCOD9375964
_publ_section_title
;
Structure prediction by ZEFSAII (Michael W. Deem and Ramdas Pophale) SiO2 
 PCOD9375964
Probable space group: I M M 2
;
_chemical_formula_sum "Si O2"
_cell_formula_units_Z 20
_cell_length_a 9.000000
_cell_length_b 12.000000
_cell_length_c 21.000000
_cell_angle_alpha 90.000000
_cell_angle_beta 90.000000
_cell_angle_gamma 90.000000
_cell_volume 2268.000000
_symmetry_space_group_name_H-M "I M M 2"
_symmetry_group_IT_number 44
_symmetry_cell_setting 'orthorhombic'
loop_
_space_group_symop_operation_xyz
x,y,z
-x,-y,z
-x,y,z
x,-y,z
1/2+x,1/2+y,1/2+z
1/2-x,1/2-y,1/2+z
1/2-x,1/2+y,1/2+z
1/2+x,1/2-y,1/2+z
loop_
_atom_site_type_symbol
_atom_site_label
_atom_site_fract_x
_atom_site_fract_y
_atom_site_fract_z
Si Si1 0.819617 0.751828 0.723680
Si Si2 0.678990 0.132579 0.849161
Si Si3 0.677573 0.000000 0.249801
Si Si4 0.821002 0.633126 0.098508
Si Si5 0.172412 0.000000 0.385437
Si Si6 0.176426 0.779607 0.469670
O O1 0.758355 0.804597 0.790089
O O2 0.774879 0.620088 0.721265
O O3 0.751948 0.817186 0.662983
O O4 0.000000 0.759349 0.722943
O O5 0.500000 0.149531 0.842636
O O6 0.720752 0.183266 0.918775
O O7 0.708496 0.000000 0.846214
O O8 0.727816 0.000000 0.323152
O O9 0.500000 0.000000 0.246390
O O10 0.785033 0.500000 0.092495
O O11 0.000000 0.642540 0.102108
O O12 0.760984 0.699914 0.036288
O O13 0.196804 0.107952 0.428599
O O14 0.000000 0.000000 0.364596
O O15 0.000000 0.766145 0.483476
#
# Coordination Sequence:
#
# PCOD9375964 Si02
#       6
#     8   8   4   8   4   8
#     4  11  23  39  60  85 115 151 191 236 285 338
#     4  10  21  38  60  87 119 153 189 231 281 337
#     4  10  22  38  58  86 116 147 186 235 286 336
#     4  11  24  40  59  84 115 151 191 237 287 338
#     4  10  18  32  60  90 112 141 186 233 278 336
#     4  10  20  36  59  86 115 149 189 234 282 336
#
# _framework density 8.8183419999999995
#
# number of rings (size 3 to 8) (size 9 to 14) (size 15 to 20)
#    0.000    1.600    3.000    1.800    0.000    6.400 
#    1.800    0.000    0.000    0.000    0.000    0.000 
#    0.000    0.000    0.000    0.000    0.000    0.000 
#
# Total GULP energy -111626.668536 kJ/mol
# GULP energy per Si atom -5581.333427 kJ/mol
# Density = 0.879827 g / cm^3
# Si number density = 8.818342 Si / 1000 Ang^3
#
#
#
# Elastic Constant Matrix: (Units=GPa)
#
#
# Indices 1 2 3 4 5 6 
#
# 1 56.9726 42.6429 50.9339 0.0000 0.0000 0.0000
# 2 42.6429 130.1086 64.0597 0.0000 0.0000 0.0000
# 3 50.9339 64.0597 146.4658 0.0000 0.0000 0.0000
# 4 0.0000 0.0000 0.0000 26.0036 0.0000 0.0000
# 5 0.0000 0.0000 0.0000 0.0000 41.3779 0.0000
# 6 0.0000 0.0000 0.0000 0.0000 0.0000 25.3240
#
#
#
# Elastic Compliance Matrix: (Units=1/GPa)
#
#
# Indices 1 2 3 4 5 6 
#
# 1 0.028411 -0.005668 -0.007401 0.000000 0.000000 0.000000
# 2 -0.005668 0.010926 -0.002808 0.000000 0.000000 0.000000
# 3 -0.007401 -0.002808 0.010629 0.000000 0.000000 0.000000
# 4 0.000000 0.000000 0.000000 0.038456 0.000000 0.000000
# 5 0.000000 0.000000 0.000000 0.000000 0.024168 0.000000
# 6 0.000000 0.000000 0.000000 0.000000 0.000000 0.039488
#
#
# Mechanical properties :
#
#
# Convention : Reuss Voigt Hill
#
# Bulk Modulus (GPa) = 54.90521 72.09111 63.49816
# Shear Modulus (GPa) = 26.32930 30.26845 28.29887
#
# Velocity S-wave (km/s) = 3.86796 4.14722 4.01002
# Velocity P-wave (km/s) = 7.15171 7.99356 7.58433
#
# Compressibility (1/GPa) = 0.01821321
#
# Stress axis : x y z
#
# Youngs Moduli (GPa) = 35.19740 91.52608 94.07949
#
# Poissons Ratio (x) = 0.51874 0.69630
# Poissons Ratio (y) = 0.19949 0.26414
# Poissons Ratio (z) = 0.26050 0.25698
#
# Static dielectric constant tensor:
#      x y z
#    x 1.601820 0.000000 0.000000 
#    y 0.000000 1.622620 0.000000 
#    z 0.000000 0.000000 1.568760 
# 
# From -- ./inp_files/21047.got.cif
#   From: 2010.05.17/outbox.ucp.g08.bks.cvg/sg44_11_cif.got.tgz:21047.got - 2010.06.11 16:32:36.
