data_PCOD9375870
_publ_section_title
;
Structure prediction by ZEFSAII (Michael W. Deem and Ramdas Pophale) SiO2 
 PCOD9375870
Probable space group: I M M 2
;
_chemical_formula_sum "Si O2"
_cell_formula_units_Z 34
_cell_length_a 10.388896
_cell_length_b 21.512959
_cell_length_c 7.571500
_cell_angle_alpha 90.000000
_cell_angle_beta 90.000000
_cell_angle_gamma 90.000000
_cell_volume 1692.199159
_symmetry_space_group_name_H-M "I M M 2"
_symmetry_group_IT_number 44
_symmetry_cell_setting 'orthorhombic'
loop_
_space_group_symop_operation_xyz
x,y,z
-x,-y,z
-x,y,z
x,-y,z
1/2+x,1/2+y,1/2+z
1/2-x,1/2-y,1/2+z
1/2-x,1/2+y,1/2+z
1/2+x,1/2-y,1/2+z
loop_
_atom_site_type_symbol
_atom_site_label
_atom_site_fract_x
_atom_site_fract_y
_atom_site_fract_z
Si Si1 0.146215 0.707966 0.655150
Si Si2 0.790672 0.611083 0.959535
Si Si3 0.500000 0.573928 0.448721
Si Si4 0.000000 0.073615 0.370213
Si Si5 0.000000 0.500000 0.907836
Si Si6 0.280506 0.339151 0.303656
O O1 0.186038 0.666976 0.823233
O O2 0.225573 0.688568 0.484120
O O3 0.158374 0.780306 0.703039
O O4 0.000000 0.693120 0.613491
O O5 0.636721 0.596905 0.946543
O O6 0.816819 0.631780 0.161122
O O7 0.885179 0.554561 0.910531
O O8 0.500000 0.500000 0.421196
O O9 0.500000 0.586374 0.659278
O O10 0.621846 0.607137 0.361596
O O11 0.000000 0.000000 0.395639
#
# Coordination Sequence:
#
# PCOD9375870 Si02
#       6
#     8   8   4   4   2   8
#     4  12  26  46  71 107 144 189 242 301 363 424
#     4  12  26  46  74 105 149 190 241 299 356 440
#     4  11  25  44  73 110 142 178 242 296 351 424
#     4  11  23  45  75 103 141 196 242 289 351 431
#     4  12  28  48  70 110 150 194 236 292 376 436
#     4  12  26  46  73 105 141 188 244 296 355 431
#
# _framework density 20.092199000000001
#
# number of rings (size 3 to 8) (size 9 to 14) (size 15 to 20)
#    0.000    0.235    8.235    0.706    3.294    0.941 
#    2.118    1.176    0.000    0.000    0.000    0.000 
#    0.000    0.000    0.000    0.000    0.000    0.000 
#
# Total GULP energy -94719.668622 kJ/mol
# GULP energy per Si atom -5571.745213 kJ/mol
# Density = 2.004647 g / cm^3
# Si number density = 20.092199 Si / 1000 Ang^3
#
#
#
# Elastic Constant Matrix: (Units=GPa)
#
#
# Indices 1 2 3 4 5 6 
#
# 1 105.0612 37.7948 21.7261 0.0000 0.0000 -0.0001
# 2 37.7948 115.5181 48.9000 -0.0007 -0.0003 0.0006
# 3 21.7261 48.9000 116.3600 -0.0022 -0.0010 0.0036
# 4 0.0000 -0.0007 -0.0022 -46.5778 -0.0016 0.0048
# 5 0.0000 -0.0003 -0.0010 -0.0016 -2.6540 0.0005
# 6 -0.0001 0.0006 0.0036 0.0048 0.0005 91.2797
#
#
#
# Elastic Compliance Matrix: (Units=1/GPa)
#
#
# Indices 1 2 3 4 5 6 
#
# 1 0.010828 -0.003268 -0.000648 0.000000 0.000001 0.000000
# 2 -0.003268 0.011516 -0.004229 0.000000 0.000000 0.000000
# 3 -0.000648 -0.004229 0.010492 0.000000 -0.000003 0.000000
# 4 0.000000 0.000000 0.000000 -0.021469 0.000013 0.000001
# 5 0.000001 0.000000 -0.000003 0.000013 -0.376787 0.000002
# 6 0.000000 0.000000 0.000000 0.000001 0.000002 0.010955
#
#
# Mechanical properties :
#
#
# Convention : Reuss Voigt Hill
#
# Bulk Modulus (GPa) = 60.44178 61.53121 60.98649
# Shear Modulus (GPa) = -15.03048 23.64414 4.30683
#
# Velocity S-wave (km/s) = -2.73806 3.43415 1.46567
# Velocity P-wave (km/s) = 4.48905 6.81288 5.76918
#
# Compressibility (1/GPa) = 0.01654485
#
# Stress axis : x y z
#
# Youngs Moduli (GPa) = 92.35276 86.83321 95.30628
#
# Poissons Ratio (x) = 0.28379 0.06178
# Poissons Ratio (y) = 0.30183 0.40310
# Poissons Ratio (z) = 0.05987 0.36726
#
# Static dielectric constant tensor:
#      x y z
#    x 1.722990 0.000000 0.000000 
#    y 0.000000 1.690890 0.000000 
#    z 0.000000 0.000000 1.739840 
# 
# From -- ./inp_files/4322.got.cif
#   From: 2010.05.17/outbox.cif.g08.bks.cpg/sg44_3_cif.got.tgz:4322.got - 2010.06.03 19:37:08.
