data_PCOD9375219
_publ_section_title
;
Structure prediction by ZEFSAII (Michael W. Deem and Ramdas Pophale) SiO2 
 PCOD9375219
Probable space group: I M M 2
;
_chemical_formula_sum "Si O2"
_cell_formula_units_Z 40
_cell_length_a 9.319234
_cell_length_b 7.595340
_cell_length_c 30.409206
_cell_angle_alpha 90.000000
_cell_angle_beta 90.000000
_cell_angle_gamma 90.000000
_cell_volume 2152.447249
_symmetry_space_group_name_H-M "I M M 2"
_symmetry_group_IT_number 44
_symmetry_cell_setting 'orthorhombic'
loop_
_space_group_symop_operation_xyz
x,y,z
-x,-y,z
-x,y,z
x,-y,z
1/2+x,1/2+y,1/2+z
1/2-x,1/2-y,1/2+z
1/2-x,1/2+y,1/2+z
1/2+x,1/2-y,1/2+z
loop_
_atom_site_type_symbol
_atom_site_label
_atom_site_fract_x
_atom_site_fract_y
_atom_site_fract_z
Si Si1 0.161497 0.288856 0.615420
Si Si2 0.671989 0.706963 0.942272
Si Si3 0.826083 0.500000 0.373737
Si Si4 0.673492 0.000000 0.771985
Si Si5 0.338862 0.789554 0.528918
Si Si6 0.172427 0.709246 0.714686
O O1 0.152982 0.500000 0.617762
O O2 0.263900 0.244680 0.575344
O O3 0.207233 0.233831 0.664392
O O4 0.000000 0.221418 0.606845
O O5 0.500000 0.722323 0.947492
O O6 0.704263 0.500000 0.934986
O O7 0.717976 0.828365 0.901584
O O8 0.746249 0.770863 0.987195
O O9 0.781490 0.500000 0.323180
O O10 0.000000 0.500000 0.373186
O O11 0.739670 0.170353 0.747909
O O12 0.500000 0.000000 0.769138
O O13 0.500000 0.718038 0.527952
O O14 0.346197 0.000000 0.524394
O O15 0.202056 0.500000 0.719631
O O16 0.000000 0.732713 0.719945
#
# Coordination Sequence:
#
# PCOD9375219 Si02
#       6
#     8   8   4   4   8   8
#     4   9  19  35  55  78 104 142 190 231 268 320
#     4   9  18  35  57  77 103 143 189 232 271 321
#     4   9  20  37  57  83 109 141 189 237 280 339
#     4  11  23  37  59  91 121 149 187 241 306 355
#     4  10  21  34  49  77 115 146 175 219 279 338
#     4   9  20  40  61  82 113 153 198 243 283 337
#
# _framework density 18.583497999999999
#
# number of rings (size 3 to 8) (size 9 to 14) (size 15 to 20)
#    0.000    2.600    0.000    2.100    2.800    3.600 
#    0.000    6.000    0.000    2.400    0.000    0.000 
#    0.000    0.000    0.000    0.000    0.000    0.000 
#
# Total GULP energy -111563.244951 kJ/mol
# GULP energy per Si atom -5578.162248 kJ/mol
# Density = 1.854120 g / cm^3
# Si number density = 18.583498 Si / 1000 Ang^3
#
#
#
# Elastic Constant Matrix: (Units=GPa)
#
#
# Indices 1 2 3 4 5 6 
#
# 1 62.6459 45.5961 82.1341 0.0000 0.0000 0.0000
# 2 45.5961 84.9245 72.1993 0.0000 0.0000 0.0000
# 3 82.1341 72.1993 196.8664 0.0000 0.0000 0.0000
# 4 0.0000 0.0000 0.0000 34.7139 0.0000 0.0000
# 5 0.0000 0.0000 0.0000 0.0000 29.6550 0.0000
# 6 0.0000 0.0000 0.0000 0.0000 0.0000 19.8053
#
#
#
# Elastic Compliance Matrix: (Units=1/GPa)
#
#
# Indices 1 2 3 4 5 6 
#
# 1 0.041183 -0.010903 -0.013183 0.000000 0.000000 0.000000
# 2 -0.010903 0.019997 -0.002785 0.000000 0.000000 0.000000
# 3 -0.013183 -0.002785 0.011601 0.000000 0.000000 0.000000
# 4 0.000000 0.000000 0.000000 0.028807 0.000000 0.000000
# 5 0.000000 0.000000 0.000000 0.000000 0.033721 0.000000
# 6 0.000000 0.000000 0.000000 0.000000 0.000000 0.050491
#
#
# Mechanical properties :
#
#
# Convention : Reuss Voigt Hill
#
# Bulk Modulus (GPa) = 52.52617 82.69953 67.61285
# Shear Modulus (GPa) = 20.33448 26.46865 23.40157
#
# Velocity S-wave (km/s) = 3.31149 3.77810 3.55246
# Velocity P-wave (km/s) = 6.55344 7.97686 7.29993
#
# Compressibility (1/GPa) = 0.01903813
#
# Stress axis : x y z
#
# Youngs Moduli (GPa) = 24.28205 50.00857 86.20043
#
# Poissons Ratio (x) = 0.54526 1.13638
# Poissons Ratio (y) = 0.26476 0.24004
# Poissons Ratio (z) = 0.32011 0.13926
#
# Static dielectric constant tensor:
#      x y z
#    x 1.644840 0.000000 0.000000 
#    y 0.000000 1.660920 0.000000 
#    z 0.000000 0.000000 1.624360 
# 
# From -- ./inp_files/25943.got.cif
#   From: 2010.05.17/outbox.cif.g08.bks.cpg/sg44_13_cif.got.tgz:25943.got - 2010.06.03 19:37:08.
