data_PCOD9375873
_publ_section_title
;
Structure prediction by ZEFSAII (Michael W. Deem and Ramdas Pophale) SiO2 
 PCOD9375873
Probable space group: I M M 2
;
_chemical_formula_sum "Si O2"
_cell_formula_units_Z 64
_cell_length_a 9.172014
_cell_length_b 13.940160
_cell_length_c 24.697204
_cell_angle_alpha 90.000000
_cell_angle_beta 90.000000
_cell_angle_gamma 90.000000
_cell_volume 3157.768270
_symmetry_space_group_name_H-M "I M M 2"
_symmetry_group_IT_number 44
_symmetry_cell_setting 'orthorhombic'
loop_
_space_group_symop_operation_xyz
x,y,z
-x,-y,z
-x,y,z
x,-y,z
1/2+x,1/2+y,1/2+z
1/2-x,1/2-y,1/2+z
1/2-x,1/2+y,1/2+z
1/2+x,1/2-y,1/2+z
loop_
_atom_site_type_symbol
_atom_site_label
_atom_site_fract_x
_atom_site_fract_y
_atom_site_fract_z
Si Si1 0.325679 0.285503 0.618310
Si Si2 0.827027 0.298047 0.727010
Si Si3 0.673839 0.390624 0.286781
Si Si4 0.669887 0.384371 0.506115
Si Si5 0.331119 0.384137 0.829378
Si Si6 0.674497 0.614306 0.067540
Si Si7 0.676673 0.612368 0.947171
Si Si8 0.334082 0.883096 0.897908
O O1 0.500000 0.285752 0.622580
O O2 0.254835 0.327172 0.672506
O O3 0.282742 0.343378 0.564032
O O4 0.262387 0.179069 0.609006
O O5 0.795522 0.186074 0.740344
O O6 0.766960 0.352058 0.779679
O O7 0.000000 0.310600 0.721406
O O8 0.500000 0.389677 0.296312
O O9 0.716853 0.500000 0.273563
O O10 0.751657 0.360221 0.342383
O O11 0.500000 0.358960 0.498078
O O12 0.679642 0.500000 0.508287
O O13 0.759461 0.351144 0.453648
O O14 0.500000 0.353833 0.821088
O O15 0.332076 0.500000 0.831988
O O16 0.277810 0.348113 0.888654
O O17 0.500000 0.630409 0.073039
O O18 0.697932 0.500000 0.072936
O O19 0.721776 0.646380 0.006652
O O20 0.500000 0.615847 0.946764
O O21 0.717923 0.500000 0.947157
O O22 0.500000 0.849247 0.896148
O O23 0.334489 0.000000 0.899741
#
# Coordination Sequence:
#
# PCOD9375873 Si02
#       8
#     8   8   8   8   8   8   8   8
#     4  11  24  39  55  78 107 142 189 236 275 320
#     4  11  24  39  55  78 107 142 189 236 275 320
#     4   9  19  37  58  78 106 145 182 218 267 326
#     4   9  19  37  58  78 106 145 182 218 267 326
#     4   9  18  35  59  84 112 146 180 217 267 326
#     4   9  18  35  59  84 112 146 180 217 267 326
#     4   7  12  27  53  82 107 135 174 213 255 318
#     4   9  17  30  53  86 115 137 170 218 269 321
#
# _framework density 20.267479000000002
#
# number of rings (size 3 to 8) (size 9 to 14) (size 15 to 20)
#    0.000    2.750    0.000    2.625    0.000    6.000 
#    0.000    5.625    0.000    2.250    0.000    0.000 
#    0.000    0.000    0.000    0.000    0.000    0.000 
#
# Total GULP energy -178594.217080 kJ/mol
# GULP energy per Si atom -5581.069284 kJ/mol
# Density = 2.022135 g / cm^3
# Si number density = 20.267479 Si / 1000 Ang^3
#
#
#
# Elastic Constant Matrix: (Units=GPa)
#
#
# Indices 1 2 3 4 5 6 
#
# 1 32.3401 10.2508 39.1960 0.0000 0.0000 0.0000
# 2 10.2508 30.0454 2.7544 0.0000 0.0000 0.0000
# 3 39.1960 2.7544 115.3820 0.0000 0.0000 0.0000
# 4 0.0000 0.0000 0.0000 25.7996 0.0000 0.0000
# 5 0.0000 0.0000 0.0000 0.0000 33.1777 0.0000
# 6 0.0000 0.0000 0.0000 0.0000 0.0000 21.0771
#
#
#
# Elastic Compliance Matrix: (Units=1/GPa)
#
#
# Indices 1 2 3 4 5 6 
#
# 1 0.061994 -0.019262 -0.020600 0.000000 0.000000 0.000000
# 2 -0.019262 0.039341 0.005604 0.000000 0.000000 0.000000
# 3 -0.020600 0.005604 0.015531 0.000000 0.000000 0.000000
# 4 0.000000 0.000000 0.000000 0.038760 0.000000 0.000000
# 5 0.000000 0.000000 0.000000 0.000000 0.030141 0.000000
# 6 0.000000 0.000000 0.000000 0.000000 0.000000 0.047445
#
#
# Mechanical properties :
#
#
# Convention : Reuss Voigt Hill
#
# Bulk Modulus (GPa) = 20.68245 31.35220 26.01733
# Shear Modulus (GPa) = 15.73101 24.38197 20.05649
#
# Velocity S-wave (km/s) = 2.78901 3.47221 3.14919
# Velocity P-wave (km/s) = 4.53854 5.61941 5.10764
#
# Compressibility (1/GPa) = 0.04835016
#
# Stress axis : x y z
#
# Youngs Moduli (GPa) = 16.13070 25.41877 64.38758
#
# Poissons Ratio (x) = 0.48962 1.32637
# Poissons Ratio (y) = 0.31071 -0.36085
# Poissons Ratio (z) = 0.33229 -0.14246
#
# Static dielectric constant tensor:
#      x y z
#    x 1.674420 0.000000 0.000000 
#    y 0.000000 1.770740 0.000000 
#    z 0.000000 0.000000 1.706880 
# 
# From -- ./inp_files/25186.got.cif
#   From: 2010.05.17/outbox.cif.g08.bks.cpg/sg44_13_cif.got.tgz:25186.got - 2010.06.03 19:37:08.
