data_PCOD9375982
_publ_section_title
;
Structure prediction by ZEFSAII (Michael W. Deem and Ramdas Pophale) SiO2 
 PCOD9375982
Probable space group: I M M 2
;
_chemical_formula_sum "Si O2"
_cell_formula_units_Z 32
_cell_length_a 9.000000
_cell_length_b 21.000000
_cell_length_c 18.000000
_cell_angle_alpha 90.000000
_cell_angle_beta 90.000000
_cell_angle_gamma 90.000000
_cell_volume 3402.000000
_symmetry_space_group_name_H-M "I M M 2"
_symmetry_group_IT_number 44
_symmetry_cell_setting 'orthorhombic'
loop_
_space_group_symop_operation_xyz
x,y,z
-x,-y,z
-x,y,z
x,-y,z
1/2+x,1/2+y,1/2+z
1/2-x,1/2-y,1/2+z
1/2-x,1/2+y,1/2+z
1/2+x,1/2-y,1/2+z
loop_
_atom_site_type_symbol
_atom_site_label
_atom_site_fract_x
_atom_site_fract_y
_atom_site_fract_z
Si Si1 0.171153 0.698179 0.710240
Si Si2 0.669110 0.689712 0.567780
Si Si3 0.673063 0.430619 0.935491
Si Si4 0.677709 0.427360 0.346684
Si Si5 0.671626 0.794082 0.812510
Si Si6 0.828384 0.928252 0.256550
Si Si7 0.326445 0.070380 0.006684
Si Si8 0.828631 0.786477 0.465199
O O1 0.292277 0.713966 0.648467
O O2 0.207298 0.751213 0.770712
O O3 0.215214 0.626809 0.734770
O O4 0.000000 0.700785 0.686403
O O5 0.500000 0.671350 0.556584
O O6 0.772155 0.628031 0.556301
O O7 0.718823 0.746005 0.514810
O O8 0.500000 0.432033 0.958626
O O9 0.739310 0.500000 0.958858
O O10 0.673459 0.430348 0.845984
O O11 0.725614 0.359699 0.957242
O O12 0.500000 0.417808 0.339668
O O13 0.711843 0.500000 0.318816
O O14 0.768274 0.366681 0.315600
O O15 0.726694 0.427739 0.432954
O O16 0.500000 0.793435 0.784469
O O17 0.664128 0.755929 0.890574
O O18 0.000000 0.912728 0.234242
O O19 0.794606 0.000000 0.229750
O O20 0.500000 0.078891 0.986414
O O21 0.310865 0.000000 0.040750
O O22 0.000000 0.787879 0.493749
#
# Coordination Sequence:
#
# PCOD9375982 Si02
#       8
#     8   8   8   8   8   8   8   8
#     4  12  25  39  56  79 114 151 191 237 286 339
#     4  12  25  39  56  78 111 150 193 235 282 338
#     4   8  14  28  54  84 111 141 178 220 266 321
#     4  10  20  34  55  85 117 148 186 231 279 332
#     4  11  21  36  60  86 114 148 188 233 285 335
#     4   9  17  33  56  81 112 150 190 226 269 331
#     4  10  20  35  55  80 112 149 188 230 279 333
#     4  10  19  34  58  85 113 144 184 230 278 332
#
# _framework density 9.4062319999999993
#
# number of rings (size 3 to 8) (size 9 to 14) (size 15 to 20)
#    0.000    1.750    2.500    4.125    0.000    2.750 
#    0.000    0.000    0.000    1.125    0.000    1.750 
#    0.000    0.000    0.000    0.000    0.000    0.000 
#
# Total GULP energy -178180.839862 kJ/mol
# GULP energy per Si atom -5568.151246 kJ/mol
# Density = 0.938482 g / cm^3
# Si number density = 9.406232 Si / 1000 Ang^3
#
#
#
# Elastic Constant Matrix: (Units=GPa)
#
#
# Indices 1 2 3 4 5 6 
#
# 1 59.1717 42.1760 1.0252 0.0000 0.0000 0.0000
# 2 42.1760 132.3982 21.5010 0.0000 0.0000 0.0000
# 3 1.0252 21.5010 16.2962 0.0000 0.0000 0.0000
# 4 0.0000 0.0000 0.0000 -8.6430 0.0000 0.0000
# 5 0.0000 0.0000 0.0000 0.0000 18.6485 0.0000
# 6 0.0000 0.0000 0.0000 0.0000 0.0000 108.2780
#
#
#
# Elastic Compliance Matrix: (Units=1/GPa)
#
#
# Indices 1 2 3 4 5 6 
#
# 1 0.023209 -0.009108 0.010556 0.000000 0.000000 0.000000
# 2 -0.009108 0.013187 -0.016825 0.000000 0.000000 0.000000
# 3 0.010556 -0.016825 0.082899 0.000000 0.000000 0.000000
# 4 0.000000 0.000000 0.000000 -0.115701 0.000000 0.000000
# 5 0.000000 0.000000 0.000000 0.000000 0.053624 0.000000
# 6 0.000000 0.000000 0.000000 0.000000 0.000000 0.009235
#
#
# Mechanical properties :
#
#
# Convention : Reuss Voigt Hill
#
# Bulk Modulus (GPa) = 11.29417 37.47451 24.38434
# Shear Modulus (GPa) = 39.45741 33.20096 36.32919
#
# Velocity S-wave (km/s) = 4.58472 4.20556 4.39922
# Velocity P-wave (km/s) = 5.83462 6.59891 6.22849
#
# Compressibility (1/GPa) = 0.08854124
#
# Stress axis : x y z
#
# Youngs Moduli (GPa) = 43.08737 75.83472 12.06287
#
# Poissons Ratio (x) = 0.69067 -0.12734
# Poissons Ratio (y) = 0.39242 0.20296
# Poissons Ratio (z) = -0.45484 1.27594
#
# Static dielectric constant tensor:
#      x y z
#    x 1.614040 0.000000 0.000000 
#    y 0.000000 1.698650 0.000000 
#    z 0.000000 0.000000 1.699020 
# 
# From -- ./inp_files/20757.got.cif
#   From: 2010.05.17/outbox.ucp.g08.bks.cvg/sg44_11_cif.got.tgz:20757.got - 2010.06.11 16:32:36.
