data_PCOD9375807
_publ_section_title
;
Structure prediction by ZEFSAII (Michael W. Deem and Ramdas Pophale) SiO2 
 PCOD9375807
Probable space group: I M M 2
;
_chemical_formula_sum "Si O2"
_cell_formula_units_Z 40
_cell_length_a 13.256788
_cell_length_b 7.428893
_cell_length_c 21.651278
_cell_angle_alpha 90.000000
_cell_angle_beta 90.000000
_cell_angle_gamma 90.000000
_cell_volume 2132.288431
_symmetry_space_group_name_H-M "I M M 2"
_symmetry_group_IT_number 44
_symmetry_cell_setting 'orthorhombic'
loop_
_space_group_symop_operation_xyz
x,y,z
-x,-y,z
-x,y,z
x,-y,z
1/2+x,1/2+y,1/2+z
1/2-x,1/2-y,1/2+z
1/2-x,1/2+y,1/2+z
1/2+x,1/2-y,1/2+z
loop_
_atom_site_type_symbol
_atom_site_label
_atom_site_fract_x
_atom_site_fract_y
_atom_site_fract_z
Si Si1 0.672820 0.281283 0.378790
Si Si2 0.500000 0.711195 0.147074
Si Si3 0.500000 0.278967 0.286299
Si Si4 0.889375 0.719783 0.413771
Si Si5 0.326198 0.785523 0.050498
Si Si6 0.610762 0.719263 0.518067
O O1 0.672809 0.500000 0.377922
O O2 0.598692 0.221763 0.324756
O O3 0.789539 0.222968 0.376953
O O4 0.629528 0.231329 0.446262
O O5 0.500000 0.500000 0.155487
O O6 0.500000 0.787684 0.216099
O O7 0.401348 0.752908 0.106545
O O8 0.500000 0.500000 0.286762
O O9 0.889660 0.500000 0.413316
O O10 0.872505 0.777629 0.485117
O O11 0.000000 0.778732 0.392538
O O12 0.210685 0.719719 0.054547
O O13 0.319805 0.000000 0.043966
O O14 0.500000 0.781714 0.538018
O O15 0.608930 0.500000 0.520149
#
# Coordination Sequence:
#
# PCOD9375807 Si02
#       6
#     8   4   4   8   8   8
#     4   8  12  19  33  55  83 107 126 159 212 254
#     4  11  21  29  39  57  87 123 152 171 192 242
#     4   9  16  25  35  51  81 115 140 165 200 244
#     4   8  12  19  36  61  84 100 121 165 217 254
#     4   9  16  27  43  63  87 110 137 175 214 249
#     4   8  12  20  40  68  89 102 125 173 227 261
#
# _framework density 18.759188000000002
#
# number of rings (size 3 to 8) (size 9 to 14) (size 15 to 20)
#    0.000    3.400    2.000    2.700    0.000    0.000 
#    0.000    0.000    0.000    1.800    0.000   14.000 
#    0.000    0.000    0.000    0.000    0.000    0.000 
#
# Total GULP energy -111399.880573 kJ/mol
# GULP energy per Si atom -5569.994029 kJ/mol
# Density = 1.871649 g / cm^3
# Si number density = 18.759188 Si / 1000 Ang^3
#
#
#
# Elastic Constant Matrix: (Units=GPa)
#
#
# Indices 1 2 3 4 5 6 
#
# 1 238.6290 5.7439 90.4279 0.0000 0.0000 0.0000
# 2 5.7439 54.7146 0.1908 0.0000 0.0000 0.0000
# 3 90.4279 0.1908 103.8907 0.0000 0.0000 0.0000
# 4 0.0000 0.0000 0.0000 8.5092 0.0000 0.0000
# 5 0.0000 0.0000 0.0000 0.0000 26.5113 0.0000
# 6 0.0000 0.0000 0.0000 0.0000 0.0000 -9.4761
#
#
#
# Elastic Compliance Matrix: (Units=1/GPa)
#
#
# Indices 1 2 3 4 5 6 
#
# 1 0.006275 -0.000640 -0.005461 0.000000 0.000000 0.000000
# 2 -0.000640 0.018342 0.000523 0.000000 0.000000 0.000000
# 3 -0.005461 0.000523 0.014378 0.000000 0.000000 0.000000
# 4 0.000000 0.000000 0.000000 0.117520 0.000000 0.000000
# 5 0.000000 0.000000 0.000000 0.000000 0.037720 0.000000
# 6 0.000000 0.000000 0.000000 0.000000 0.000000 -0.105529
#
#
# Mechanical properties :
#
#
# Convention : Reuss Voigt Hill
#
# Bulk Modulus (GPa) = 35.91950 65.55106 50.73528
# Shear Modulus (GPa) = 45.81233 25.16701 35.48967
#
# Velocity S-wave (km/s) = 4.94715 3.66674 4.35426
# Velocity P-wave (km/s) = 7.19872 7.27639 7.23766
#
# Compressibility (1/GPa) = 0.02784003
#
# Stress axis : x y z
#
# Youngs Moduli (GPa) = 159.35083 54.51974 69.55109
#
# Poissons Ratio (x) = 0.03488 0.37982
# Poissons Ratio (y) = 0.10194 -0.03639
# Poissons Ratio (z) = 0.87023 -0.02852
#
# Static dielectric constant tensor:
#      x y z
#    x 1.649250 0.000000 0.000000 
#    y 0.000000 1.737620 0.000000 
#    z 0.000000 0.000000 1.617740 
# 
# From -- ./inp_files/23978.got.cif
#   From: 2010.05.17/outbox.cif.g08.bks.cpg/sg44_12_cif.got.tgz:23978.got - 2010.06.03 19:37:08.
