data_PCOD9375829
_publ_section_title
;
Structure prediction by ZEFSAII (Michael W. Deem and Ramdas Pophale) SiO2 
 PCOD9375829
Probable space group: I M M 2
;
_chemical_formula_sum "Si O2"
_cell_formula_units_Z 58
_cell_length_a 14.152165
_cell_length_b 17.618884
_cell_length_c 11.853038
_cell_angle_alpha 90.000000
_cell_angle_beta 90.000000
_cell_angle_gamma 90.000000
_cell_volume 2955.499950
_symmetry_space_group_name_H-M "I M M 2"
_symmetry_group_IT_number 44
_symmetry_cell_setting 'orthorhombic'
loop_
_space_group_symop_operation_xyz
x,y,z
-x,-y,z
-x,y,z
x,-y,z
1/2+x,1/2+y,1/2+z
1/2-x,1/2-y,1/2+z
1/2-x,1/2+y,1/2+z
1/2+x,1/2-y,1/2+z
loop_
_atom_site_type_symbol
_atom_site_label
_atom_site_fract_x
_atom_site_fract_y
_atom_site_fract_z
Si Si1 0.391387 0.328065 0.655590
Si Si2 0.335845 0.081538 0.452044
Si Si3 0.397906 0.757917 0.424247
Si Si4 0.000000 0.000000 0.641181
Si Si5 0.670819 0.377663 0.113208
Si Si6 0.208478 0.583716 0.687158
Si Si7 0.282185 0.797392 0.798712
Si Si8 0.612133 0.208010 0.031864
O O1 0.500000 0.342617 0.687693
O O2 0.389297 0.302757 0.524842
O O3 0.319361 0.396349 0.676616
O O4 0.347526 0.257885 0.724882
O O5 0.391375 0.158498 0.478360
O O6 0.235661 0.088659 0.514101
O O7 0.320365 0.082864 0.317805
O O8 0.379095 0.000000 0.482466
O O9 0.500000 0.748925 0.367673
O O10 0.311272 0.746550 0.341267
O O11 0.916446 0.067223 0.638487
O O12 0.739722 0.364047 0.221113
O O13 0.640624 0.293377 0.070216
O O14 0.189328 0.500000 0.639929
O O15 0.151913 0.648430 0.621948
O O16 0.339376 0.813552 0.912789
O O17 0.500000 0.204090 0.022892
#
# Coordination Sequence:
#
# PCOD9375829 Si02
#       8
#     8   8   8   2   8   8   8   8
#     4  11  21  39  65  95 127 167 220 273 334 408
#     4  11  21  39  62  89 130 168 210 277 344 394
#     4  11  22  37  63  92 124 169 223 265 324 409
#     4  12  28  44  68 116 142 184 232 292 372 414
#     4  12  23  42  67 101 142 174 222 284 348 425
#     4  11  23  42  65  93 132 174 223 282 342 401
#     4  12  21  41  69  97 132 179 224 274 339 416
#     4  12  24  43  72  99 128 181 235 287 346 415
#
# _framework density 19.62443
#
# number of rings (size 3 to 8) (size 9 to 14) (size 15 to 20)
#    0.000    0.552    8.276    0.414    0.966    2.483 
#    2.483    1.379    0.000    0.000    0.000    0.000 
#    0.000    0.000    0.000    0.000    0.000    0.000 
#
# Total GULP energy -161700.950063 kJ/mol
# GULP energy per Si atom -5575.894830 kJ/mol
# Density = 1.957976 g / cm^3
# Si number density = 19.624430 Si / 1000 Ang^3
#
#
#
# Elastic Constant Matrix: (Units=GPa)
#
#
# Indices 1 2 3 4 5 6 
#
# 1 113.2711 10.0071 32.0042 0.0000 0.0000 0.0000
# 2 10.0071 88.4097 28.0191 0.0000 0.0000 0.0000
# 3 32.0042 28.0191 80.7967 0.0000 0.0000 0.0000
# 4 0.0000 0.0000 0.0000 14.9020 0.0000 0.0000
# 5 0.0000 0.0000 0.0000 0.0000 8.8123 0.0000
# 6 0.0000 0.0000 0.0000 0.0000 0.0000 -40.1706
#
#
#
# Elastic Compliance Matrix: (Units=1/GPa)
#
#
# Indices 1 2 3 4 5 6 
#
# 1 0.009942 0.000138 -0.003986 0.000000 0.000000 0.000000
# 2 0.000138 0.012710 -0.004462 0.000000 0.000000 0.000000
# 3 -0.003986 -0.004462 0.015503 0.000000 0.000000 0.000000
# 4 0.000000 0.000000 0.000000 0.067105 0.000000 0.000000
# 5 0.000000 0.000000 0.000000 0.000000 0.113477 0.000000
# 6 0.000000 0.000000 0.000000 0.000000 0.000000 -0.024894
#
#
# Mechanical properties :
#
#
# Convention : Reuss Voigt Hill
#
# Bulk Modulus (GPa) = 46.43725 46.94868 46.69297
# Shear Modulus (GPa) = 22.97347 10.87187 16.92267
#
# Velocity S-wave (km/s) = 3.42520 2.35627 2.93973
# Velocity P-wave (km/s) = 6.27352 5.60162 5.94707
#
# Compressibility (1/GPa) = 0.02153444
#
# Stress axis : x y z
#
# Youngs Moduli (GPa) = 100.57884 78.68123 64.50341
#
# Poissons Ratio (x) = -0.01085 0.25712
# Poissons Ratio (y) = -0.01387 0.28782
# Poissons Ratio (z) = 0.40092 0.35108
#
# Static dielectric constant tensor:
#      x y z
#    x 1.690540 0.000000 0.000000 
#    y 0.000000 1.723450 0.000000 
#    z 0.000000 0.000000 1.700190 
# 
# From -- ./inp_files/13397.got.cif
#   From: 2010.05.17/outbox.cif.g08.bks.cpg/sg44_7_cif.got.tgz:13397.got - 2010.06.03 19:37:08.
