data_PCOD9375757
_publ_section_title
;
Structure prediction by ZEFSAII (Michael W. Deem and Ramdas Pophale) SiO2 
 PCOD9375757
Probable space group: I M M 2
;
_chemical_formula_sum "Si O2"
_cell_formula_units_Z 48
_cell_length_a 18.692750
_cell_length_b 8.150640
_cell_length_c 15.302761
_cell_angle_alpha 90.000000
_cell_angle_beta 90.000000
_cell_angle_gamma 90.000000
_cell_volume 2331.496161
_symmetry_space_group_name_H-M "I M M 2"
_symmetry_group_IT_number 44
_symmetry_cell_setting 'orthorhombic'
loop_
_space_group_symop_operation_xyz
x,y,z
-x,-y,z
-x,y,z
x,-y,z
1/2+x,1/2+y,1/2+z
1/2-x,1/2-y,1/2+z
1/2-x,1/2+y,1/2+z
1/2+x,1/2-y,1/2+z
loop_
_atom_site_type_symbol
_atom_site_label
_atom_site_fract_x
_atom_site_fract_y
_atom_site_fract_z
Si Si1 0.154409 0.303530 0.769540
Si Si2 0.500000 0.302248 0.203255
Si Si3 0.746923 0.304749 0.420546
Si Si4 0.265248 0.695227 0.619249
Si Si5 0.500000 0.301198 0.005177
Si Si6 0.894002 0.191863 0.357493
Si Si7 0.077785 0.690865 0.169864
O O1 0.161026 0.500000 0.773766
O O2 0.073511 0.257247 0.746165
O O3 0.177128 0.231111 0.863147
O O4 0.209781 0.241493 0.693241
O O5 0.500000 0.500000 0.203397
O O6 0.500000 0.239211 0.103015
O O7 0.759915 0.500000 0.420791
O O8 0.747053 0.243424 0.520420
O O9 0.810303 0.216080 0.368947
O O10 0.254520 0.500000 0.617337
O O11 0.348466 0.726803 0.640425
O O12 0.500000 0.500000 0.010473
O O13 0.567960 0.253515 0.946782
O O14 0.920695 0.291007 0.274608
O O15 0.910630 0.000000 0.342688
O O16 0.081425 0.500000 0.145665
O O17 0.000000 0.756850 0.139485
#
# Coordination Sequence:
#
# PCOD9375757 Si02
#       7
#     8   4   8   8   4   8   8
#     4  11  23  42  65  91 124 165 206 254 309 368
#     4  11  23  41  63  90 123 162 207 257 308 362
#     4  11  23  40  62  92 122 160 208 256 305 365
#     4  10  23  42  65  91 123 163 207 252 308 370
#     4   9  20  35  57  90 123 158 201 247 304 370
#     4  11  20  35  59  88 123 161 198 245 305 367
#     4  11  23  38  59  90 125 161 202 251 305 361
#
# _framework density 20.587638999999999
#
# number of rings (size 3 to 8) (size 9 to 14) (size 15 to 20)
#    0.000    1.333    2.500    3.250    0.000    3.000 
#    1.500    2.500    0.000    0.000    0.000    0.000 
#    0.000    0.000    0.000    0.000    0.000    0.000 
#
# Total GULP energy -134042.665124 kJ/mol
# GULP energy per Si atom -5585.111047 kJ/mol
# Density = 2.054078 g / cm^3
# Si number density = 20.587639 Si / 1000 Ang^3
#
#
#
# Elastic Constant Matrix: (Units=GPa)
#
#
# Indices 1 2 3 4 5 6 
#
# 1 111.2706 -8.3153 17.1683 0.0000 0.0000 0.0000
# 2 -8.3153 30.6399 2.5230 0.0000 0.0000 0.0000
# 3 17.1683 2.5230 63.8422 0.0000 0.0000 0.0000
# 4 0.0000 0.0000 0.0000 21.8125 0.0000 0.0000
# 5 0.0000 0.0000 0.0000 0.0000 27.2302 0.0000
# 6 0.0000 0.0000 0.0000 0.0000 0.0000 18.1741
#
#
#
# Elastic Compliance Matrix: (Units=1/GPa)
#
#
# Indices 1 2 3 4 5 6 
#
# 1 0.009615 0.002831 -0.002698 0.000000 0.000000 0.000000
# 2 0.002831 0.033578 -0.002088 0.000000 0.000000 0.000000
# 3 -0.002698 -0.002088 0.016472 0.000000 0.000000 0.000000
# 4 0.000000 0.000000 0.000000 0.045845 0.000000 0.000000
# 5 0.000000 0.000000 0.000000 0.000000 0.036724 0.000000
# 6 0.000000 0.000000 0.000000 0.000000 0.000000 0.055023
#
#
# Mechanical properties :
#
#
# Convention : Reuss Voigt Hill
#
# Bulk Modulus (GPa) = 17.93554 25.38940 21.66247
# Shear Modulus (GPa) = 22.75308 26.40181 24.57745
#
# Velocity S-wave (km/s) = 3.32803 3.58496 3.45888
# Velocity P-wave (km/s) = 4.84752 5.43093 5.14750
#
# Compressibility (1/GPa) = 0.05575521
#
# Stress axis : x y z
#
# Youngs Moduli (GPa) = 104.00517 29.78180 60.71072
#
# Poissons Ratio (x) = -0.08433 0.16377
# Poissons Ratio (y) = -0.29449 0.12679
# Poissons Ratio (z) = 0.28056 0.06220
#
# Static dielectric constant tensor:
#      x y z
#    x 1.765640 0.000000 0.000000 
#    y 0.000000 1.714380 0.000000 
#    z 0.000000 0.000000 1.736430 
# 
# From -- ./inp_files/18829.got.cif
#   From: 2010.05.17/outbox.cif.g08.bks.cpg/sg44_10_cif.got.tgz:18829.got - 2010.06.03 19:37:08.
