data_PCOD9375612
_publ_section_title
;
Structure prediction by ZEFSAII (Michael W. Deem and Ramdas Pophale) SiO2 
 PCOD9375612
Probable space group: I M M 2
;
_chemical_formula_sum "Si O2"
_cell_formula_units_Z 30
_cell_length_a 12.653539
_cell_length_b 15.462123
_cell_length_c 7.888930
_cell_angle_alpha 90.000000
_cell_angle_beta 90.000000
_cell_angle_gamma 90.000000
_cell_volume 1543.473702
_symmetry_space_group_name_H-M "I M M 2"
_symmetry_group_IT_number 44
_symmetry_cell_setting 'orthorhombic'
loop_
_space_group_symop_operation_xyz
x,y,z
-x,-y,z
-x,y,z
x,-y,z
1/2+x,1/2+y,1/2+z
1/2-x,1/2-y,1/2+z
1/2-x,1/2+y,1/2+z
1/2+x,1/2-y,1/2+z
loop_
_atom_site_type_symbol
_atom_site_label
_atom_site_fract_x
_atom_site_fract_y
_atom_site_fract_z
Si Si1 0.000000 0.098573 0.896240
Si Si2 0.290126 0.500000 0.840692
Si Si3 0.694290 0.667262 0.603157
Si Si4 0.000000 0.000000 0.565195
Si Si5 0.625082 0.000000 0.642860
Si Si6 0.375580 0.822906 0.843308
O O1 0.000000 0.081480 0.694920
O O2 0.104230 0.144663 0.964947
O O3 0.000000 0.000000 0.968700
O O4 0.289720 0.415400 0.723480
O O5 0.396979 0.500000 0.950750
O O6 0.193925 0.500000 0.973307
O O7 0.653850 0.747188 0.713356
O O8 0.802697 0.687011 0.507092
O O9 0.648309 0.085078 0.754140
O O10 0.500000 0.000000 0.603639
O O11 0.500000 0.819986 0.882315
#
# Coordination Sequence:
#
# PCOD9375612 Si02
#       6
#     4   4   8   2   4   8
#     4  10  21  42  69 101 127 165 216 285 346 390
#     4  12  22  39  68  95 131 165 218 277 333 395
#     4  12  23  43  67  96 136 170 221 282 335 394
#     4  10  22  36  66 106 122 164 208 272 358 386
#     4  10  23  43  63  89 130 176 221 265 317 393
#     4  11  25  44  65  94 134 177 223 273 328 400
#
# _framework density 19.436677
#
# number of rings (size 3 to 8) (size 9 to 14) (size 15 to 20)
#    0.400    0.533    2.667    4.800    0.000    1.067 
#    2.400    0.000    0.000    0.000    0.000    0.000 
#    0.000    0.000    0.000    0.000    0.000    0.000 
#
# Total GULP energy -83903.515614 kJ/mol
# GULP energy per Si atom -5593.567708 kJ/mol
# Density = 1.939244 g / cm^3
# Si number density = 19.436677 Si / 1000 Ang^3
#
#
#
# Elastic Constant Matrix: (Units=GPa)
#
#
# Indices 1 2 3 4 5 6 
#
# 1 105.9287 24.1562 54.5752 0.0000 0.0000 0.0000
# 2 24.1562 94.8621 9.3196 0.0000 0.0000 0.0000
# 3 54.5752 9.3196 81.0922 0.0000 0.0000 0.0000
# 4 0.0000 0.0000 0.0000 49.0862 0.0000 0.0000
# 5 0.0000 0.0000 0.0000 0.0000 34.9987 0.0000
# 6 0.0000 0.0000 0.0000 0.0000 0.0000 58.3875
#
#
#
# Elastic Compliance Matrix: (Units=1/GPa)
#
#
# Indices 1 2 3 4 5 6 
#
# 1 0.015200 -0.002898 -0.009897 0.000000 0.000000 0.000000
# 2 -0.002898 0.011215 0.000662 0.000000 0.000000 0.000000
# 3 -0.009897 0.000662 0.018916 0.000000 0.000000 0.000000
# 4 0.000000 0.000000 0.000000 0.020372 0.000000 0.000000
# 5 0.000000 0.000000 0.000000 0.000000 0.028572 0.000000
# 6 0.000000 0.000000 0.000000 0.000000 0.000000 0.017127
#
#
# Mechanical properties :
#
#
# Convention : Reuss Voigt Hill
#
# Bulk Modulus (GPa) = 47.47357 50.88722 49.18039
# Shear Modulus (GPa) = 35.04094 41.41661 38.22878
#
# Velocity S-wave (km/s) = 4.25058 4.62112 4.43971
# Velocity P-wave (km/s) = 6.96905 7.39668 7.18604
#
# Compressibility (1/GPa) = 0.02106435
#
# Stress axis : x y z
#
# Youngs Moduli (GPa) = 65.78934 89.16904 52.86532
#
# Poissons Ratio (x) = 0.25844 0.52318
# Poissons Ratio (y) = 0.19068 -0.03498
# Poissons Ratio (z) = 0.65109 -0.05901
#
# Static dielectric constant tensor:
#      x y z
#    x 1.661870 0.000000 0.000000 
#    y 0.000000 1.631480 0.000000 
#    z 0.000000 0.000000 1.646540 
# 
# From -- ./inp_files/5349.got.cif
#   From: 2010.05.17/outbox.cif.g08.bks.cpg/sg44_3_cif.got.tgz:5349.got - 2010.06.03 19:37:08.
