data_PCOD9375876
_publ_section_title
;
Structure prediction by ZEFSAII (Michael W. Deem and Ramdas Pophale) SiO2 
 PCOD9375876
Probable space group: I M M 2
;
_chemical_formula_sum "Si O2"
_cell_formula_units_Z 64
_cell_length_a 8.761059
_cell_length_b 16.614517
_cell_length_c 23.099976
_cell_angle_alpha 90.000000
_cell_angle_beta 90.000000
_cell_angle_gamma 90.000000
_cell_volume 3362.450148
_symmetry_space_group_name_H-M "I M M 2"
_symmetry_group_IT_number 44
_symmetry_cell_setting 'orthorhombic'
loop_
_space_group_symop_operation_xyz
x,y,z
-x,-y,z
-x,y,z
x,-y,z
1/2+x,1/2+y,1/2+z
1/2-x,1/2-y,1/2+z
1/2-x,1/2+y,1/2+z
1/2+x,1/2-y,1/2+z
loop_
_atom_site_type_symbol
_atom_site_label
_atom_site_fract_x
_atom_site_fract_y
_atom_site_fract_z
Si Si1 0.815576 0.241759 0.537930
Si Si2 0.824382 0.619157 0.709142
Si Si3 0.185218 0.406409 0.389834
Si Si4 0.672510 0.697669 0.166962
Si Si5 0.318266 0.231211 0.418692
Si Si6 0.685874 0.085283 0.080920
Si Si7 0.818738 0.586467 0.257183
Si Si8 0.682907 0.592455 0.834689
O O1 0.782335 0.201375 0.599851
O O2 0.733265 0.204555 0.482956
O O3 0.766035 0.334920 0.547758
O O4 0.000000 0.240444 0.529747
O O5 0.829638 0.713190 0.693639
O O6 0.763581 0.585448 0.647992
O O7 0.733450 0.602074 0.767521
O O8 0.000000 0.592222 0.717628
O O9 0.225856 0.500000 0.407344
O O10 0.251523 0.322871 0.414900
O O11 0.233869 0.398568 0.322456
O O12 0.000000 0.402474 0.395837
O O13 0.500000 0.665847 0.169675
O O14 0.777829 0.648687 0.208848
O O15 0.500000 0.234455 0.412534
O O16 0.253731 0.165882 0.372399
O O17 0.500000 0.089561 0.083172
O O18 0.728838 0.000000 0.053694
O O19 0.757799 0.500000 0.238748
O O20 0.000000 0.583047 0.262431
O O21 0.500000 0.598731 0.838719
O O22 0.726234 0.500000 0.852480
#
# Coordination Sequence:
#
# PCOD9375876 Si02
#       8
#     8   8   8   8   8   8   8   8
#     4   9  19  36  54  73 102 140 184 225 260 314
#     4   9  17  31  54  84 114 139 168 212 264 319
#     4   9  19  37  60  85 115 152 188 220 264 327
#     4   9  18  32  52  79 107 138 175 213 260 319
#     4  12  25  39  57  81 110 145 187 236 285 327
#     4   8  14  27  51  81 109 139 173 208 253 314
#     4   9  18  32  51  77 106 135 171 215 263 318
#     4  11  24  40  58  81 109 144 187 231 277 333
#
# _framework density 19.033739000000001
#
# number of rings (size 3 to 8) (size 9 to 14) (size 15 to 20)
#    0.000    2.500    0.000    4.875    0.000    6.000 
#    0.000    5.000    0.000    1.500    0.000    0.000 
#    0.000    0.000    0.000    0.000    0.000    0.000 
#
# Total GULP energy -178218.439937 kJ/mol
# GULP energy per Si atom -5569.326248 kJ/mol
# Density = 1.899042 g / cm^3
# Si number density = 19.033739 Si / 1000 Ang^3
#
#
#
# Elastic Constant Matrix: (Units=GPa)
#
#
# Indices 1 2 3 4 5 6 
#
# 1 37.9183 26.7644 28.2841 0.0000 0.0000 0.0000
# 2 26.7644 66.3090 48.0481 0.0000 0.0000 0.0000
# 3 28.2841 48.0481 96.1961 0.0000 0.0000 0.0000
# 4 0.0000 0.0000 0.0000 -4.4537 0.0000 0.0000
# 5 0.0000 0.0000 0.0000 0.0000 27.0224 0.0000
# 6 0.0000 0.0000 0.0000 0.0000 0.0000 -4.8044
#
#
#
# Elastic Compliance Matrix: (Units=1/GPa)
#
#
# Indices 1 2 3 4 5 6 
#
# 1 0.038718 -0.011564 -0.005608 0.000000 0.000000 0.000000
# 2 -0.011564 0.027089 -0.010130 0.000000 0.000000 0.000000
# 3 -0.005608 -0.010130 0.017104 0.000000 0.000000 0.000000
# 4 0.000000 0.000000 0.000000 -0.224533 0.000000 0.000000
# 5 0.000000 0.000000 0.000000 0.000000 0.037006 0.000000
# 6 0.000000 0.000000 0.000000 0.000000 0.000000 -0.208142
#
#
# Mechanical properties :
#
#
# Convention : Reuss Voigt Hill
#
# Bulk Modulus (GPa) = 35.32771 45.17962 40.25367
# Shear Modulus (GPa) = -20.10322 10.04131 -5.03096
#
# Velocity S-wave (km/s) = -3.25343 2.29934 -1.62755
# Velocity P-wave (km/s) = 2.11844 5.55315 4.20269
#
# Compressibility (1/GPa) = 0.02830639
#
# Stress axis : x y z
#
# Youngs Moduli (GPa) = 25.82763 36.91518 58.46499
#
# Poissons Ratio (x) = 0.42690 0.32787
# Poissons Ratio (y) = 0.29868 0.59227
# Poissons Ratio (z) = 0.14484 0.37396
#
# Static dielectric constant tensor:
#      x y z
#    x 1.656540 0.000000 0.000000 
#    y 0.000000 1.760950 0.000000 
#    z 0.000000 0.000000 1.664390 
# 
# From -- ./inp_files/25116.got.cif
#   From: 2010.05.17/outbox.cif.g08.bks.cpg/sg44_13_cif.got.tgz:25116.got - 2010.06.03 19:37:08.
