data_PCOD9375245
_publ_section_title
;
Structure prediction by ZEFSAII (Michael W. Deem and Ramdas Pophale) SiO2 
 PCOD9375245
Probable space group: I M M 2
;
_chemical_formula_sum "Si O2"
_cell_formula_units_Z 64
_cell_length_a 16.477907
_cell_length_b 14.200141
_cell_length_c 14.215841
_cell_angle_alpha 90.000000
_cell_angle_beta 90.000000
_cell_angle_gamma 90.000000
_cell_volume 3326.344773
_symmetry_space_group_name_H-M "I M M 2"
_symmetry_group_IT_number 44
_symmetry_cell_setting 'orthorhombic'
loop_
_space_group_symop_operation_xyz
x,y,z
-x,-y,z
-x,y,z
x,-y,z
1/2+x,1/2+y,1/2+z
1/2-x,1/2-y,1/2+z
1/2-x,1/2+y,1/2+z
1/2+x,1/2-y,1/2+z
loop_
_atom_site_type_symbol
_atom_site_label
_atom_site_fract_x
_atom_site_fract_y
_atom_site_fract_z
Si Si1 0.662370 0.392294 0.783750
Si Si2 0.093271 0.395104 0.735779
Si Si3 0.910669 0.888842 0.478255
Si Si4 0.747418 0.798074 0.558043
Si Si5 0.409853 0.110099 0.463361
Si Si6 0.667632 0.393477 0.567221
Si Si7 0.791245 0.762221 0.753010
Si Si8 0.090263 0.889213 0.872785
O O1 0.695113 0.500000 0.794293
O O2 0.596262 0.382295 0.864792
O O3 0.636770 0.382364 0.674602
O O4 0.729215 0.311397 0.800063
O O5 0.123724 0.500000 0.711066
O O6 0.145086 0.307765 0.701697
O O7 0.000000 0.389010 0.706665
O O8 0.095359 0.386471 0.849794
O O9 0.831870 0.836737 0.518286
O O10 0.000000 0.855720 0.509479
O O11 0.904005 0.000000 0.502389
O O12 0.668035 0.841600 0.508682
O O13 0.734197 0.686059 0.548872
O O14 0.747153 0.818360 0.669992
O O15 0.500000 0.147878 0.489246
O O16 0.407970 0.000000 0.488898
O O17 0.699347 0.500000 0.559140
O O18 0.601743 0.381917 0.485116
O O19 0.840857 0.828529 0.822391
O O20 0.000000 0.856503 0.845517
O O21 0.097603 0.000000 0.848637
#
# Coordination Sequence:
#
# PCOD9375245 Si02
#       8
#     8   8   8   8   8   8   8   8
#     4   9  18  34  56  80 102 126 164 217 274 324
#     4   9  17  30  52  80 104 128 165 220 283 330
#     4  10  21  36  55  80 110 144 179 216 261 315
#     4  11  22  34  53  78 109 149 184 214 256 311
#     4   9  18  34  58  85 107 129 166 223 287 335
#     4   9  19  35  55  79 104 133 174 225 277 321
#     4  11  21  32  49  74 105 145 180 211 252 308
#     4  10  21  35  51  73 103 140 179 218 260 308
#
# _framework density 19.240338999999999
#
# number of rings (size 3 to 8) (size 9 to 14) (size 15 to 20)
#    0.000    2.250    0.000    4.125    0.000    6.500 
#    0.000    5.625    0.000    0.375    0.000    0.000 
#    0.000    0.000    0.000    0.125    0.000    0.000 
#
# Total GULP energy -178442.049805 kJ/mol
# GULP energy per Si atom -5576.314056 kJ/mol
# Density = 1.919655 g / cm^3
# Si number density = 19.240339 Si / 1000 Ang^3
#
#
#
# Elastic Constant Matrix: (Units=GPa)
#
#
# Indices 1 2 3 4 5 6 
#
# 1 101.2908 34.9326 28.1392 0.0000 0.0000 0.0000
# 2 34.9326 70.0699 28.0641 0.0000 0.0000 0.0000
# 3 28.1392 28.0641 44.3512 0.0000 0.0000 0.0000
# 4 0.0000 0.0000 0.0000 24.4093 0.0000 0.0000
# 5 0.0000 0.0000 0.0000 0.0000 14.9436 0.0000
# 6 0.0000 0.0000 0.0000 0.0000 0.0000 -5.5502
#
#
#
# Elastic Compliance Matrix: (Units=1/GPa)
#
#
# Indices 1 2 3 4 5 6 
#
# 1 0.012849 -0.004207 -0.005490 0.000000 0.000000 0.000000
# 2 -0.004207 0.020493 -0.010299 0.000000 0.000000 0.000000
# 3 -0.005490 -0.010299 0.032547 0.000000 0.000000 0.000000
# 4 0.000000 0.000000 0.000000 0.040968 0.000000 0.000000
# 5 0.000000 0.000000 0.000000 0.000000 0.066918 0.000000
# 6 0.000000 0.000000 0.000000 0.000000 0.000000 -0.180175
#
#
# Mechanical properties :
#
#
# Convention : Reuss Voigt Hill
#
# Bulk Modulus (GPa) = 38.61240 44.22042 41.41641
# Shear Modulus (GPa) = 118.41592 15.06561 66.74077
#
# Velocity S-wave (km/s) = 7.85361 2.80129 5.89604
# Velocity P-wave (km/s) = 10.11687 5.78758 8.24157
#
# Compressibility (1/GPa) = 0.02589842
#
# Stress axis : x y z
#
# Youngs Moduli (GPa) = 77.83009 48.79618 30.72463
#
# Poissons Ratio (x) = 0.20527 0.16868
# Poissons Ratio (y) = 0.32740 0.31642
# Poissons Ratio (z) = 0.42729 0.50253
#
# Static dielectric constant tensor:
#      x y z
#    x 1.690980 0.000000 0.000000 
#    y 0.000000 1.697200 0.000000 
#    z 0.000000 0.000000 1.696510 
# 
# From -- ./inp_files/21947.got.cif
#   From: 2010.05.17/outbox.cif.g08.bks.cpg/sg44_11_cif.got.tgz:21947.got - 2010.06.03 19:37:08.
