data_PCOD9375246
_publ_section_title
;
Structure prediction by ZEFSAII (Michael W. Deem and Ramdas Pophale) SiO2 
 PCOD9375246
Probable space group: I M M 2
;
_chemical_formula_sum "Si O2"
_cell_formula_units_Z 64
_cell_length_a 7.563826
_cell_length_b 13.729759
_cell_length_c 25.435933
_cell_angle_alpha 90.000000
_cell_angle_beta 90.000000
_cell_angle_gamma 90.000000
_cell_volume 2641.509130
_symmetry_space_group_name_H-M "I M M 2"
_symmetry_group_IT_number 44
_symmetry_cell_setting 'orthorhombic'
loop_
_space_group_symop_operation_xyz
x,y,z
-x,-y,z
-x,y,z
x,-y,z
1/2+x,1/2+y,1/2+z
1/2-x,1/2-y,1/2+z
1/2-x,1/2+y,1/2+z
1/2+x,1/2-y,1/2+z
loop_
_atom_site_type_symbol
_atom_site_label
_atom_site_fract_x
_atom_site_fract_y
_atom_site_fract_z
Si Si1 0.292789 0.301979 0.618310
Si Si2 0.703700 0.306109 0.731729
Si Si3 0.705799 0.388532 0.278672
Si Si4 0.712469 0.388007 0.509464
Si Si5 0.290854 0.383083 0.839956
Si Si6 0.714477 0.611172 0.068263
Si Si7 0.709230 0.618714 0.953398
Si Si8 0.290542 0.888382 0.895216
O O1 0.500000 0.328742 0.619122
O O2 0.217113 0.330915 0.674930
O O3 0.216836 0.343520 0.563795
O O4 0.277211 0.186163 0.611532
O O5 0.500000 0.340765 0.730715
O O6 0.704629 0.190109 0.741453
O O7 0.787344 0.348176 0.784888
O O8 0.500000 0.391055 0.264684
O O9 0.774295 0.500000 0.276857
O O10 0.720854 0.352032 0.339312
O O11 0.500000 0.387296 0.511904
O O12 0.774757 0.500000 0.507885
O O13 0.757716 0.342619 0.452553
O O14 0.500000 0.353941 0.840497
O O15 0.285285 0.500000 0.839776
O O16 0.216273 0.350721 0.896689
O O17 0.500000 0.612216 0.066758
O O18 0.769628 0.500000 0.076853
O O19 0.781388 0.646529 0.010622
O O20 0.500000 0.642524 0.953012
O O21 0.719086 0.500000 0.954374
O O22 0.500000 0.891177 0.888928
O O23 0.219920 0.000000 0.898732
#
# Coordination Sequence:
#
# PCOD9375246 Si02
#       8
#     8   8   8   8   8   8   8   8
#     4  10  22  36  49  72 105 139 178 221 261 300
#     4  10  21  35  51  75 105 136 176 222 260 299
#     4  10  21  37  56  77 104 139 175 213 262 319
#     4   9  18  34  54  75 105 144 179 213 258 313
#     4   8  14  27  50  78 104 128 157 199 252 307
#     4   9  18  33  53  75  99 129 166 210 260 314
#     4   7  11  23  45  73  99 119 147 193 246 297
#     4   9  17  31  54  83 109 132 166 214 265 316
#
# _framework density 24.228573999999998
#
# number of rings (size 3 to 8) (size 9 to 14) (size 15 to 20)
#    0.000    3.000    0.000    2.250    0.000    5.500 
#    0.000    6.250    0.000    0.375    0.000    3.500 
#    0.000    0.000    0.000    0.000    0.000    0.000 
#
# Total GULP energy -178606.357174 kJ/mol
# GULP energy per Si atom -5581.448662 kJ/mol
# Density = 2.417343 g / cm^3
# Si number density = 24.228574 Si / 1000 Ang^3
#
#
#
# Elastic Constant Matrix: (Units=GPa)
#
#
# Indices 1 2 3 4 5 6 
#
# 1 64.5029 -11.1609 -0.1307 0.0000 0.0000 0.0000
# 2 -11.1609 28.8998 17.2294 0.0000 0.0000 0.0000
# 3 -0.1307 17.2294 155.1731 0.0000 0.0000 0.0000
# 4 0.0000 0.0000 0.0000 20.3264 0.0000 0.0000
# 5 0.0000 0.0000 0.0000 0.0000 11.3806 0.0000
# 6 0.0000 0.0000 0.0000 0.0000 0.0000 8.1161
#
#
#
# Elastic Compliance Matrix: (Units=1/GPa)
#
#
# Indices 1 2 3 4 5 6 
#
# 1 0.016695 0.006895 -0.000752 0.000000 0.000000 0.000000
# 2 0.006895 0.039903 -0.004425 0.000000 0.000000 0.000000
# 3 -0.000752 -0.004425 0.006935 0.000000 0.000000 0.000000
# 4 0.000000 0.000000 0.000000 0.049197 0.000000 0.000000
# 5 0.000000 0.000000 0.000000 0.000000 0.087868 0.000000
# 6 0.000000 0.000000 0.000000 0.000000 0.000000 0.123212
#
#
# Mechanical properties :
#
#
# Convention : Reuss Voigt Hill
#
# Bulk Modulus (GPa) = 14.93178 28.93906 21.93542
# Shear Modulus (GPa) = 14.59019 24.14048 19.36534
#
# Velocity S-wave (km/s) = 2.45662 3.15995 2.83022
# Velocity P-wave (km/s) = 3.77132 5.02830 4.44447
#
# Compressibility (1/GPa) = 0.06697126
#
# Stress axis : x y z
#
# Youngs Moduli (GPa) = 59.89902 25.06062 144.19436
#
# Poissons Ratio (x) = -0.17280 0.10837
# Poissons Ratio (y) = -0.41303 0.63803
# Poissons Ratio (z) = 0.04502 0.11089
#
# Static dielectric constant tensor:
#      x y z
#    x 1.925260 0.000000 0.000000 
#    y 0.000000 1.974050 0.000000 
#    z 0.000000 0.000000 1.956980 
# 
# From -- ./inp_files/25078.got.cif
#   From: 2010.05.17/outbox.cif.g08.bks.cpg/sg44_13_cif.got.tgz:25078.got - 2010.06.03 19:37:08.
