data_PCOD9375356
_publ_section_title
;
Structure prediction by ZEFSAII (Michael W. Deem and Ramdas Pophale) SiO2 
 PCOD9375356
Probable space group: I M M 2
;
_chemical_formula_sum "Si O2"
_cell_formula_units_Z 64
_cell_length_a 14.356942
_cell_length_b 8.624586
_cell_length_c 24.787559
_cell_angle_alpha 90.000000
_cell_angle_beta 90.000000
_cell_angle_gamma 90.000000
_cell_volume 3069.262010
_symmetry_space_group_name_H-M "I M M 2"
_symmetry_group_IT_number 44
_symmetry_cell_setting 'orthorhombic'
loop_
_space_group_symop_operation_xyz
x,y,z
-x,-y,z
-x,y,z
x,-y,z
1/2+x,1/2+y,1/2+z
1/2-x,1/2-y,1/2+z
1/2-x,1/2+y,1/2+z
1/2+x,1/2-y,1/2+z
loop_
_atom_site_type_symbol
_atom_site_label
_atom_site_fract_x
_atom_site_fract_y
_atom_site_fract_z
Si Si1 0.388671 0.679653 0.801840
Si Si2 0.763074 0.322404 0.216443
Si Si3 0.803001 0.812316 0.022885
Si Si4 0.389303 0.671372 0.922349
Si Si5 0.397418 0.686450 0.629471
Si Si6 0.103352 0.679848 0.532078
Si Si7 0.390929 0.813195 0.414700
Si Si8 0.892236 0.313374 0.792030
O O1 0.500000 0.693092 0.799538
O O2 0.365601 0.500000 0.786886
O O3 0.340894 0.798422 0.762493
O O4 0.353186 0.703244 0.862863
O O5 0.744282 0.500000 0.204596
O O6 0.811693 0.243872 0.165236
O O7 0.672841 0.247358 0.244376
O O8 0.880410 0.770809 0.067100
O O9 0.797903 0.000000 0.019535
O O10 0.703992 0.755653 0.048550
O O11 0.828683 0.749832 0.963727
O O12 0.500000 0.655453 0.914487
O O13 0.355401 0.500000 0.940742
O O14 0.382439 0.800781 0.967556
O O15 0.500000 0.741683 0.647832
O O16 0.397782 0.500000 0.632924
O O17 0.099200 0.500000 0.547670
O O18 0.000000 0.748294 0.544610
O O19 0.500000 0.770871 0.423746
O O20 0.366715 0.761840 0.353372
O O21 0.385221 0.000000 0.415316
O O22 0.886646 0.500000 0.792319
O O23 0.000000 0.269701 0.783449
#
# Coordination Sequence:
#
# PCOD9375356 Si02
#       8
#     8   8   8   8   8   8   8   8
#     4   9  18  33  52  75 107 149 194 235 278 340
#     4  12  25  37  56  86 118 150 189 243 304 354
#     4  10  21  36  58  87 117 154 202 248 295 347
#     4   8  15  28  46  69  99 139 185 226 265 317
#     4  10  22  42  64  84 113 155 201 249 298 356
#     4   9  18  32  49  74 113 152 184 227 281 336
#     4   9  19  36  59  88 119 151 190 239 294 352
#     4   9  20  41  65  87 116 156 200 242 288 354
#
# _framework density 20.851918000000001
#
# number of rings (size 3 to 8) (size 9 to 14) (size 15 to 20)
#    0.000    2.500    0.000    3.375    1.750    5.000 
#    0.000    3.125    0.000    2.250    0.000    0.000 
#    0.000    0.000    0.000    0.000    0.000    0.000 
#
# Total GULP energy -178306.078332 kJ/mol
# GULP energy per Si atom -5572.064948 kJ/mol
# Density = 2.080446 g / cm^3
# Si number density = 20.851918 Si / 1000 Ang^3
#
#
#
# Elastic Constant Matrix: (Units=GPa)
#
#
# Indices 1 2 3 4 5 6 
#
# 1 142.0206 19.9678 41.3133 0.0000 0.0000 0.0000
# 2 19.9678 16.5183 16.9361 0.0000 0.0000 0.0000
# 3 41.3133 16.9361 76.9193 0.0000 0.0000 0.0000
# 4 0.0000 0.0000 0.0000 18.3988 0.0000 0.0000
# 5 0.0000 0.0000 0.0000 0.0000 87.6309 0.0000
# 6 0.0000 0.0000 0.0000 0.0000 0.0000 18.6686
#
#
#
# Elastic Compliance Matrix: (Units=1/GPa)
#
#
# Indices 1 2 3 4 5 6 
#
# 1 0.009042 -0.007686 -0.003164 0.000000 0.000000 0.000000
# 2 -0.007686 0.084724 -0.014526 0.000000 0.000000 0.000000
# 3 -0.003164 -0.014526 0.017899 0.000000 0.000000 0.000000
# 4 0.000000 0.000000 0.000000 0.054351 0.000000 0.000000
# 5 0.000000 0.000000 0.000000 0.000000 0.011412 0.000000
# 6 0.000000 0.000000 0.000000 0.000000 0.000000 0.053566
#
#
# Mechanical properties :
#
#
# Convention : Reuss Voigt Hill
#
# Bulk Modulus (GPa) = 16.41733 43.54363 29.98048
# Shear Modulus (GPa) = 16.55348 35.42239 25.98793
#
# Velocity S-wave (km/s) = 2.82061 4.12607 3.53414
# Velocity P-wave (km/s) = 4.30095 6.60507 5.57338
#
# Compressibility (1/GPa) = 0.06091124
#
# Stress axis : x y z
#
# Youngs Moduli (GPa) = 110.59003 11.80301 55.87043
#
# Poissons Ratio (x) = 0.09072 0.17679
# Poissons Ratio (y) = 0.85004 0.81159
# Poissons Ratio (z) = 0.34994 0.17145
#
# Static dielectric constant tensor:
#      x y z
#    x 1.630180 0.000000 0.000000 
#    y 0.000000 1.737940 0.000000 
#    z 0.000000 0.000000 1.748080 
# 
# From -- ./inp_files/25794.got.cif
#   From: 2010.05.17/outbox.cif.g08.bks.cpg/sg44_13_cif.got.tgz:25794.got - 2010.06.03 19:37:08.
