data_PCOD9375975
_publ_section_title
;
Structure prediction by ZEFSAII (Michael W. Deem and Ramdas Pophale) SiO2 
 PCOD9375975
Probable space group: I M M 2
;
_chemical_formula_sum "Si O2"
_cell_formula_units_Z 32
_cell_length_a 9.000000
_cell_length_b 18.000000
_cell_length_c 21.000000
_cell_angle_alpha 90.000000
_cell_angle_beta 90.000000
_cell_angle_gamma 90.000000
_cell_volume 3402.000000
_symmetry_space_group_name_H-M "I M M 2"
_symmetry_group_IT_number 44
_symmetry_cell_setting 'orthorhombic'
loop_
_space_group_symop_operation_xyz
x,y,z
-x,-y,z
-x,y,z
x,-y,z
1/2+x,1/2+y,1/2+z
1/2-x,1/2-y,1/2+z
1/2-x,1/2+y,1/2+z
1/2+x,1/2-y,1/2+z
loop_
_atom_site_type_symbol
_atom_site_label
_atom_site_fract_x
_atom_site_fract_y
_atom_site_fract_z
Si Si1 0.325923 0.086852 0.339320
Si Si2 0.672726 0.415150 0.641970
Si Si3 0.327903 0.272628 0.038385
Si Si4 0.176662 0.748213 0.309362
Si Si5 0.328282 0.083479 0.492678
Si Si6 0.678229 0.084566 0.868186
Si Si7 0.171583 0.273621 0.684348
Si Si8 0.174307 0.872712 0.995699
O O1 0.500000 0.092607 0.320153
O O2 0.247705 0.168225 0.324143
O O3 0.319652 0.084509 0.416154
O O4 0.276158 0.000000 0.319744
O O5 0.500000 0.393827 0.654212
O O6 0.693179 0.500000 0.660672
O O7 0.782232 0.359741 0.677274
O O8 0.696554 0.406948 0.566032
O O9 0.500000 0.258799 0.021992
O O10 0.309866 0.259360 0.113749
O O11 0.278256 0.354455 0.020242
O O12 0.227154 0.212483 0.002224
O O13 0.225771 0.667863 0.341081
O O14 0.219987 0.738070 0.235583
O O15 0.000000 0.755140 0.320279
O O16 0.500000 0.099700 0.510014
O O17 0.292288 0.000000 0.514245
O O18 0.500000 0.085218 0.863233
O O19 0.732077 0.088355 0.941078
O O20 0.725248 0.000000 0.843949
O O21 0.000000 0.265615 0.703550
O O22 0.000000 0.877351 0.980587
#
# Coordination Sequence:
#
# PCOD9375975 Si02
#       8
#     8   8   8   8   8   8   8   8
#     4   9  19  36  57  82 113 146 178 215 263 321
#     4   9  18  33  53  79 110 139 169 209 256 311
#     4  10  20  34  53  78 107 140 177 217 267 322
#     4  11  23  38  57  79 105 142 186 229 272 318
#     4   9  18  33  54  81 110 139 173 214 263 320
#     4  10  22  39  57  80 111 144 180 225 276 328
#     4  10  22  38  54  73 100 137 180 222 264 314
#     4  10  19  32  54  83 112 141 174 213 261 319
#
# _framework density 9.4062319999999993
#
# number of rings (size 3 to 8) (size 9 to 14) (size 15 to 20)
#    0.000    2.250    0.000    3.375    0.000    7.500 
#    0.000    1.875    0.000    2.250    0.000    0.000 
#    0.000    0.000    0.000    0.000    0.000    0.000 
#
# Total GULP energy -178230.429171 kJ/mol
# GULP energy per Si atom -5569.700912 kJ/mol
# Density = 0.938482 g / cm^3
# Si number density = 9.406232 Si / 1000 Ang^3
#
#
#
# Elastic Constant Matrix: (Units=GPa)
#
#
# Indices 1 2 3 4 5 6 
#
# 1 20.0053 25.9005 13.5856 0.0000 0.0000 0.0000
# 2 25.9005 121.6511 25.3325 0.0000 0.0000 0.0000
# 3 13.5856 25.3325 32.3106 0.0000 0.0000 0.0000
# 4 0.0000 0.0000 0.0000 11.3278 0.0000 0.0000
# 5 0.0000 0.0000 0.0000 0.0000 24.8081 0.0000
# 6 0.0000 0.0000 0.0000 0.0000 0.0000 31.8868
#
#
#
# Elastic Compliance Matrix: (Units=1/GPa)
#
#
# Indices 1 2 3 4 5 6 
#
# 1 0.083274 -0.012475 -0.025233 0.000000 0.000000 0.000000
# 2 -0.012475 0.011693 -0.003922 0.000000 0.000000 0.000000
# 3 -0.025233 -0.003922 0.044635 0.000000 0.000000 0.000000
# 4 0.000000 0.000000 0.000000 0.088278 0.000000 0.000000
# 5 0.000000 0.000000 0.000000 0.000000 0.040309 0.000000
# 6 0.000000 0.000000 0.000000 0.000000 0.000000 0.031361
#
#
# Mechanical properties :
#
#
# Convention : Reuss Voigt Hill
#
# Bulk Modulus (GPa) = 17.74928 33.73380 25.74154
# Shear Modulus (GPa) = 12.45046 20.88111 16.66579
#
# Velocity S-wave (km/s) = 2.57538 3.33522 2.97962
# Velocity P-wave (km/s) = 4.27770 5.72732 5.05475
#
# Compressibility (1/GPa) = 0.05634031
#
# Stress axis : x y z
#
# Youngs Moduli (GPa) = 12.00854 85.52078 22.40416
#
# Poissons Ratio (x) = 1.06689 0.56533
# Poissons Ratio (y) = 0.14981 0.08788
# Poissons Ratio (z) = 0.30301 0.33544
#
# Static dielectric constant tensor:
#      x y z
#    x 1.642390 0.000000 0.000000 
#    y 0.000000 1.687980 0.000000 
#    z 0.000000 0.000000 1.661690 
# 
# From -- ./inp_files/23304.got.cif
#   From: 2010.05.17/outbox.ucp.g08.bks.cvg/sg44_12_cif.got.tgz:23304.got - 2010.06.11 16:32:36.
