data_PCOD9375734
_publ_section_title
;
Structure prediction by ZEFSAII (Michael W. Deem and Ramdas Pophale) SiO2 
 PCOD9375734
Probable space group: I M M 2
;
_chemical_formula_sum "Si O2"
_cell_formula_units_Z 64
_cell_length_a 8.516822
_cell_length_b 29.396861
_cell_length_c 12.962108
_cell_angle_alpha 90.000000
_cell_angle_beta 90.000000
_cell_angle_gamma 90.000000
_cell_volume 3245.294885
_symmetry_space_group_name_H-M "I M M 2"
_symmetry_group_IT_number 44
_symmetry_cell_setting 'orthorhombic'
loop_
_space_group_symop_operation_xyz
x,y,z
-x,-y,z
-x,y,z
x,-y,z
1/2+x,1/2+y,1/2+z
1/2-x,1/2-y,1/2+z
1/2-x,1/2+y,1/2+z
1/2+x,1/2-y,1/2+z
loop_
_atom_site_type_symbol
_atom_site_label
_atom_site_fract_x
_atom_site_fract_y
_atom_site_fract_z
Si Si1 0.187174 0.124992 0.901560
Si Si2 0.185231 0.874964 0.348464
Si Si3 0.814254 0.445949 0.004766
Si Si4 0.821977 0.702974 0.994288
Si Si5 0.810876 0.947243 0.727956
Si Si6 0.814580 0.358599 0.622014
Si Si7 0.822511 0.722326 0.368823
Si Si8 0.320366 0.753159 0.168210
O O1 0.231424 0.083525 0.826129
O O2 0.278684 0.169800 0.864427
O O3 0.000000 0.131905 0.892611
O O4 0.231061 0.120176 0.022156
O O5 0.224762 0.919758 0.414434
O O6 0.266347 0.834753 0.414022
O O7 0.251004 0.875320 0.232328
O O8 0.000000 0.866969 0.344929
O O9 0.784717 0.500000 0.999184
O O10 0.000000 0.437797 0.993437
O O11 0.760597 0.430718 0.119205
O O12 0.804145 0.751066 0.936627
O O13 0.000000 0.694385 0.026741
O O14 0.707785 0.711526 0.090146
O O15 0.000000 0.946128 0.717614
O O16 0.763186 0.000000 0.742696
O O17 0.795259 0.303481 0.621373
O O18 0.000000 0.367625 0.615381
O O19 0.803905 0.745398 0.258081
O O20 0.000000 0.728471 0.409158
O O21 0.500000 0.752165 0.206605
#
# Coordination Sequence:
#
# PCOD9375734 Si02
#       8
#     8   8   8   8   8   8   8   8
#     4  11  23  39  62  90 122 161 206 253 306 366
#     4  12  25  41  64  91 123 162 206 252 305 368
#     4  10  22  42  68  96 126 158 197 249 307 364
#     4  12  24  39  59  85 119 159 204 253 301 358
#     4   9  20  41  67  94 124 157 197 248 306 366
#     4  11  23  40  62  86 121 163 207 255 304 361
#     4  12  24  38  57  84 119 161 204 250 301 358
#     4  11  23  39  58  82 116 160 206 253 304 357
#
# _framework density 19.720856999999999
#
# number of rings (size 3 to 8) (size 9 to 14) (size 15 to 20)
#    0.000    1.000    2.500    4.875    1.750    2.750 
#    0.000    0.625    0.000    2.250    0.000    0.000 
#    0.000    0.000    0.000    0.000    0.000    0.000 
#
# Total GULP energy -178806.687330 kJ/mol
# GULP energy per Si atom -5587.708979 kJ/mol
# Density = 1.967597 g / cm^3
# Si number density = 19.720857 Si / 1000 Ang^3
#
#
#
# Elastic Constant Matrix: (Units=GPa)
#
#
# Indices 1 2 3 4 5 6 
#
# 1 77.0542 22.0958 24.5031 0.0000 0.0000 0.0000
# 2 22.0958 46.1622 20.9975 0.0000 0.0000 0.0000
# 3 24.5031 20.9975 84.5782 0.0001 0.0001 0.0001
# 4 0.0000 0.0000 0.0001 36.1016 0.0000 0.0000
# 5 0.0000 0.0000 0.0001 0.0000 34.2275 0.0000
# 6 0.0000 0.0000 0.0001 0.0000 0.0000 23.7410
#
#
#
# Elastic Compliance Matrix: (Units=1/GPa)
#
#
# Indices 1 2 3 4 5 6 
#
# 1 0.015700 -0.006139 -0.003024 0.000000 0.000000 0.000000
# 2 -0.006139 0.026821 -0.004880 0.000000 0.000000 0.000000
# 3 -0.003024 -0.004880 0.013911 0.000000 0.000000 0.000000
# 4 0.000000 0.000000 0.000000 0.027700 0.000000 0.000000
# 5 0.000000 0.000000 0.000000 0.000000 0.029216 0.000000
# 6 0.000000 0.000000 0.000000 0.000000 0.000000 0.042121
#
#
# Mechanical properties :
#
#
# Convention : Reuss Voigt Hill
#
# Bulk Modulus (GPa) = 35.27962 38.10972 36.69467
# Shear Modulus (GPa) = 25.90606 28.16056 27.03331
#
# Velocity S-wave (km/s) = 3.62835 3.78293 3.70645
# Velocity P-wave (km/s) = 5.95664 6.20059 6.07984
#
# Compressibility (1/GPa) = 0.02834498
#
# Stress axis : x y z
#
# Youngs Moduli (GPa) = 63.69385 37.28411 71.88525
#
# Poissons Ratio (x) = 0.22890 0.21740
# Poissons Ratio (y) = 0.39104 0.35080
# Poissons Ratio (z) = 0.19263 0.18195
#
# Static dielectric constant tensor:
#      x y z
#    x 1.659250 0.000000 0.000000 
#    y 0.000000 1.683170 0.000000 
#    z 0.000000 0.000000 1.727800 
# 
# From -- ./inp_files/11500.got.cif
#   From: 2010.05.17/outbox.cif.g08.bks.cpg/sg44_6_cif.got.tgz:11500.got - 2010.06.03 19:37:08.
