data_PCOD9375624
_publ_section_title
;
Structure prediction by ZEFSAII (Michael W. Deem and Ramdas Pophale) SiO2 
 PCOD9375624
Probable space group: I M M 2
;
_chemical_formula_sum "Si O2"
_cell_formula_units_Z 64
_cell_length_a 21.042042
_cell_length_b 17.787366
_cell_length_c 8.291836
_cell_angle_alpha 90.000000
_cell_angle_beta 90.000000
_cell_angle_gamma 90.000000
_cell_volume 3103.489128
_symmetry_space_group_name_H-M "I M M 2"
_symmetry_group_IT_number 44
_symmetry_cell_setting 'orthorhombic'
loop_
_space_group_symop_operation_xyz
x,y,z
-x,-y,z
-x,y,z
x,-y,z
1/2+x,1/2+y,1/2+z
1/2-x,1/2-y,1/2+z
1/2-x,1/2+y,1/2+z
1/2+x,1/2-y,1/2+z
loop_
_atom_site_type_symbol
_atom_site_label
_atom_site_fract_x
_atom_site_fract_y
_atom_site_fract_z
Si Si1 0.803314 0.419155 0.984120
Si Si2 0.069596 0.583119 0.802903
Si Si3 0.754355 0.291421 0.768444
Si Si4 0.689520 0.413820 0.566395
Si Si5 0.925742 0.813544 0.976668
Si Si6 0.891998 0.269029 0.641707
Si Si7 0.200308 0.372950 0.330608
Si Si8 0.073849 0.710229 0.298017
O O1 0.781468 0.500000 0.911159
O O2 0.877506 0.414396 0.940203
O O3 0.778707 0.340194 0.917755
O O4 0.787544 0.418816 0.169388
O O5 0.073168 0.500000 0.728967
O O6 0.082194 0.647041 0.673386
O O7 0.000000 0.594416 0.873746
O O8 0.703858 0.349169 0.696195
O O9 0.815806 0.276678 0.655899
O O10 0.727588 0.211203 0.811374
O O11 0.679078 0.500000 0.616265
O O12 0.626113 0.380572 0.482627
O O13 0.756141 0.410393 0.466752
O O14 0.914666 0.755914 0.129436
O O15 0.000000 0.836413 0.989208
O O16 0.914961 0.774887 0.801682
O O17 0.914400 0.242344 0.465439
O O18 0.124668 0.356789 0.326916
O O19 0.000000 0.687490 0.295765
#
# Coordination Sequence:
#
# PCOD9375624 Si02
#       8
#     8   8   8   8   8   8   8   8
#     4  10  22  37  56  86 121 158 204 260 315 370
#     4   9  18  33  55  84 122 169 211 250 311 383
#     4  11  21  38  64  88 118 165 213 260 319 384
#     4  12  25  42  64  94 132 170 213 270 330 389
#     4  11  24  42  67  97 127 169 220 269 326 390
#     4  11  21  39  64  91 128 164 215 272 320 381
#     4  12  22  39  62  92 125 159 211 266 317 382
#     4  11  23  38  62  97 128 162 212 269 321 379
#
# _framework density 20.621949000000001
#
# number of rings (size 3 to 8) (size 9 to 14) (size 15 to 20)
#    0.000    1.125    3.750    4.125    0.000    2.250 
#    0.000    0.000    0.000    2.625    0.000    5.250 
#    0.000    0.000    0.000    0.000    0.000    0.000 
#
# Total GULP energy -178356.949536 kJ/mol
# GULP energy per Si atom -5573.654673 kJ/mol
# Density = 2.057501 g / cm^3
# Si number density = 20.621949 Si / 1000 Ang^3
#
#
#
# Elastic Constant Matrix: (Units=GPa)
#
#
# Indices 1 2 3 4 5 6 
#
# 1 101.8422 29.6121 7.7447 0.0000 0.0000 0.0000
# 2 29.6121 107.2970 10.6002 0.0000 0.0000 0.0000
# 3 7.7447 10.6002 76.8142 0.0000 0.0000 0.0000
# 4 0.0000 0.0000 0.0000 8.7570 0.0000 0.0000
# 5 0.0000 0.0000 0.0000 0.0000 15.8433 0.0000
# 6 0.0000 0.0000 0.0000 0.0000 0.0000 -1.1159
#
#
#
# Elastic Compliance Matrix: (Units=1/GPa)
#
#
# Indices 1 2 3 4 5 6 
#
# 1 0.010711 -0.002889 -0.000681 0.000000 0.000000 0.000000
# 2 -0.002889 0.010228 -0.001120 0.000000 0.000000 0.000000
# 3 -0.000681 -0.001120 0.013242 0.000000 0.000000 0.000000
# 4 0.000000 0.000000 0.000000 0.114195 0.000000 0.000000
# 5 0.000000 0.000000 0.000000 0.000000 0.063118 0.000000
# 6 0.000000 0.000000 0.000000 0.000000 0.000000 -0.896157
#
#
# Mechanical properties :
#
#
# Convention : Reuss Voigt Hill
#
# Bulk Modulus (GPa) = 40.32247 42.42973 41.37610
# Shear Modulus (GPa) = -7.49607 20.56330 6.53362
#
# Velocity S-wave (km/s) = -1.90863 3.16120 1.78190
# Velocity P-wave (km/s) = 3.83907 5.82615 4.93368
#
# Compressibility (1/GPa) = 0.02480007
#
# Stress axis : x y z
#
# Youngs Moduli (GPa) = 93.36323 97.77248 75.51905
#
# Poissons Ratio (x) = 0.28244 0.05145
# Poissons Ratio (y) = 0.26970 0.08459
# Poissons Ratio (z) = 0.06361 0.10952
#
# Static dielectric constant tensor:
#      x y z
#    x 1.792390 0.000000 0.000000 
#    y 0.000000 1.722060 0.000000 
#    z 0.000000 0.000000 1.828850 
# 
# From -- ./inp_files/9022.got.cif
#   From: 2010.05.17/outbox.cif.g08.bks.cpg/sg44_5_cif.got.tgz:9022.got - 2010.06.03 19:37:08.
