data_PCOD9375672
_publ_section_title
;
Structure prediction by ZEFSAII (Michael W. Deem and Ramdas Pophale) SiO2 
 PCOD9375672
Probable space group: I M M 2
;
_chemical_formula_sum "Si O2"
_cell_formula_units_Z 48
_cell_length_a 13.491552
_cell_length_b 17.184233
_cell_length_c 9.864361
_cell_angle_alpha 90.000000
_cell_angle_beta 90.000000
_cell_angle_gamma 90.000000
_cell_volume 2286.972918
_symmetry_space_group_name_H-M "I M M 2"
_symmetry_group_IT_number 44
_symmetry_cell_setting 'orthorhombic'
loop_
_space_group_symop_operation_xyz
x,y,z
-x,-y,z
-x,y,z
x,-y,z
1/2+x,1/2+y,1/2+z
1/2-x,1/2-y,1/2+z
1/2-x,1/2+y,1/2+z
1/2+x,1/2-y,1/2+z
loop_
_atom_site_type_symbol
_atom_site_label
_atom_site_fract_x
_atom_site_fract_y
_atom_site_fract_z
Si Si1 0.383651 0.086942 0.611860
Si Si2 0.678131 0.644698 0.452577
Si Si3 0.381888 0.500000 0.942820
Si Si4 0.388522 0.192690 0.874549
Si Si5 0.681296 0.355968 0.758720
Si Si6 0.381347 0.500000 0.269343
Si Si7 0.885699 0.689720 0.858287
O O1 0.500000 0.078693 0.584926
O O2 0.377696 0.130503 0.753436
O O3 0.350848 0.144254 0.493896
O O4 0.341389 0.000000 0.611183
O O5 0.792421 0.672985 0.461796
O O6 0.647067 0.624399 0.606001
O O7 0.663035 0.574811 0.346969
O O8 0.620579 0.719303 0.393660
O O9 0.500000 0.500000 0.922916
O O10 0.339172 0.574902 0.864145
O O11 0.366935 0.500000 0.106125
O O12 0.500000 0.186529 0.932705
O O13 0.373673 0.278395 0.811677
O O14 0.798535 0.334628 0.757132
O O15 0.500000 0.500000 0.291167
O O16 0.000000 0.670278 0.822451
#
# Coordination Sequence:
#
# PCOD9375672 Si02
#       7
#     8   8   4   8   8   4   8
#     4   9  18  34  60  91 121 167 216 260 316 380
#     4  11  24  41  65  97 132 174 221 271 330 392
#     4  11  27  47  68  95 128 170 222 278 332 391
#     4  10  22  39  63  94 132 174 218 267 325 391
#     4  11  24  41  65  97 132 174 221 271 330 392
#     4  11  27  47  68  95 128 170 222 278 332 391
#     4  10  22  39  63  94 132 174 218 267 325 391
#
# _framework density 20.988441000000002
#
# number of rings (size 3 to 8) (size 9 to 14) (size 15 to 20)
#    0.000    1.667    1.667    1.500    4.667    4.667 
#    0.000    0.000    0.000    2.000    0.000    0.000 
#    0.000    0.000    0.000    0.000    0.000    0.000 
#
# Total GULP energy -133934.864475 kJ/mol
# GULP energy per Si atom -5580.619353 kJ/mol
# Density = 2.094067 g / cm^3
# Si number density = 20.988441 Si / 1000 Ang^3
#
#
#
# Elastic Constant Matrix: (Units=GPa)
#
#
# Indices 1 2 3 4 5 6 
#
# 1 143.8249 17.3969 15.8228 0.0000 0.0000 0.0000
# 2 17.3969 161.5940 51.3793 0.0000 0.0000 0.0000
# 3 15.8228 51.3793 113.6116 0.0000 0.0000 0.0000
# 4 0.0000 0.0000 0.0000 -46.2785 0.0000 0.0000
# 5 0.0000 0.0000 0.0000 0.0000 17.2678 0.0000
# 6 0.0000 0.0000 0.0000 0.0000 0.0000 20.5257
#
#
#
# Elastic Compliance Matrix: (Units=1/GPa)
#
#
# Indices 1 2 3 4 5 6 
#
# 1 0.007099 -0.000525 -0.000751 0.000000 0.000000 0.000000
# 2 -0.000525 0.007267 -0.003213 0.000000 0.000000 0.000000
# 3 -0.000751 -0.003213 0.010360 0.000000 0.000000 0.000000
# 4 0.000000 0.000000 0.000000 -0.021608 0.000000 0.000000
# 5 0.000000 0.000000 0.000000 0.000000 0.057911 0.000000
# 6 0.000000 0.000000 0.000000 0.000000 0.000000 0.048719
#
#
# Mechanical properties :
#
#
# Convention : Reuss Voigt Hill
#
# Bulk Modulus (GPa) = 63.50785 65.35874 64.43329
# Shear Modulus (GPa) = 40.33069 20.59844 30.46457
#
# Velocity S-wave (km/s) = 4.38832 3.13616 3.81398
# Velocity P-wave (km/s) = 7.48336 6.65747 7.08246
#
# Compressibility (1/GPa) = 0.01574609
#
# Stress axis : x y z
#
# Youngs Moduli (GPa) = 140.86318 137.61779 96.52922
#
# Poissons Ratio (x) = 0.07231 0.07250
# Poissons Ratio (y) = 0.07402 0.31015
# Poissons Ratio (z) = 0.10580 0.44217
#
# Static dielectric constant tensor:
#      x y z
#    x 1.794330 0.000000 0.000000 
#    y 0.000000 1.805430 0.000000 
#    z 0.000000 0.000000 1.722840 
# 
# From -- ./inp_files/7152.got.cif
#   From: 2010.05.17/outbox.cif.g08.bks.cpg/sg44_4_cif.got.tgz:7152.got - 2010.06.03 19:37:08.
