data_PCOD9375190
_publ_section_title
;
Structure prediction by ZEFSAII (Michael W. Deem and Ramdas Pophale) SiO2 
 PCOD9375190
Probable space group: I M M 2
;
_chemical_formula_sum "Si O2"
_cell_formula_units_Z 40
_cell_length_a 7.467207
_cell_length_b 12.246172
_cell_length_c 22.389815
_cell_angle_alpha 90.000000
_cell_angle_beta 90.000000
_cell_angle_gamma 90.000000
_cell_volume 2047.429944
_symmetry_space_group_name_H-M "I M M 2"
_symmetry_group_IT_number 44
_symmetry_cell_setting 'orthorhombic'
loop_
_space_group_symop_operation_xyz
x,y,z
-x,-y,z
-x,y,z
x,-y,z
1/2+x,1/2+y,1/2+z
1/2-x,1/2-y,1/2+z
1/2-x,1/2+y,1/2+z
1/2+x,1/2-y,1/2+z
loop_
_atom_site_type_symbol
_atom_site_label
_atom_site_fract_x
_atom_site_fract_y
_atom_site_fract_z
Si Si1 0.000000 0.126555 0.824700
Si Si2 0.500000 0.372683 0.181525
Si Si3 0.783997 0.124224 0.496795
Si Si4 0.215296 0.797812 0.362986
Si Si5 0.205149 0.239517 0.111433
Si Si6 0.782721 0.000000 0.142208
Si Si7 0.717199 0.500000 0.779606
O O1 0.000000 0.133504 0.752816
O O2 0.826497 0.190091 0.848809
O O3 0.000000 0.000000 0.841985
O O4 0.500000 0.500000 0.163348
O O5 0.328977 0.311893 0.154006
O O6 0.741573 0.159452 0.429398
O O7 0.713254 0.207203 0.546115
O O8 0.000000 0.124597 0.501942
O O9 0.722891 0.000000 0.507746
O O10 0.269467 0.891955 0.315893
O O11 0.000000 0.782468 0.359121
O O12 0.000000 0.241097 0.133007
O O13 0.270772 0.114112 0.112306
O O14 0.722388 0.000000 0.211258
O O15 0.000000 0.000000 0.141615
O O16 0.500000 0.500000 0.779052
#
# Coordination Sequence:
#
# PCOD9375190 Si02
#       7
#     4   4   8   8   8   4   4
#     4  11  26  43  61  91 127 168 217 255 307 384
#     4  11  24  43  63  91 127 164 213 267 313 366
#     4  10  20  39  64  91 127 160 205 263 315 369
#     4  10  21  40  65  94 122 161 205 266 326 367
#     4  11  23  40  62  92 127 171 207 254 314 375
#     4   9  20  37  59  89 124 163 207 247 305 382
#     4   9  16  35  65  93 120 151 203 265 317 370
#
# _framework density 19.53669
#
# number of rings (size 3 to 8) (size 9 to 14) (size 15 to 20)
#    0.000    1.800    2.000    1.800    1.400    5.200 
#    1.800    4.000    0.000    0.000    0.000    0.000 
#    0.000    0.000    0.000    0.000    0.000    0.000 
#
# Total GULP energy -111791.004327 kJ/mol
# GULP energy per Si atom -5589.550216 kJ/mol
# Density = 1.949222 g / cm^3
# Si number density = 19.536690 Si / 1000 Ang^3
#
#
#
# Elastic Constant Matrix: (Units=GPa)
#
#
# Indices 1 2 3 4 5 6 
#
# 1 83.7063 53.9888 19.4776 0.0000 0.0000 0.0000
# 2 53.9888 218.0163 83.4497 0.0000 0.0000 0.0000
# 3 19.4776 83.4497 98.8792 0.0000 0.0000 0.0000
# 4 0.0000 0.0000 0.0000 35.0359 0.0000 0.0000
# 5 0.0000 0.0000 0.0000 0.0000 9.1124 0.0000
# 6 0.0000 0.0000 0.0000 0.0000 0.0000 33.6273
#
#
#
# Elastic Compliance Matrix: (Units=1/GPa)
#
#
# Indices 1 2 3 4 5 6 
#
# 1 0.014222 -0.003618 0.000252 0.000000 0.000000 0.000000
# 2 -0.003618 0.007696 -0.005783 0.000000 0.000000 0.000000
# 3 0.000252 -0.005783 0.014944 0.000000 0.000000 0.000000
# 4 0.000000 0.000000 0.000000 0.028542 0.000000 0.000000
# 5 0.000000 0.000000 0.000000 0.000000 0.109741 0.000000
# 6 0.000000 0.000000 0.000000 0.000000 0.000000 0.029738
#
#
# Mechanical properties :
#
#
# Convention : Reuss Voigt Hill
#
# Bulk Modulus (GPa) = 53.86614 79.38156 66.62385
# Shear Modulus (GPa) = 21.79905 31.80081 26.79993
#
# Velocity S-wave (km/s) = 3.34398 4.03891 3.70777
# Velocity P-wave (km/s) = 6.52237 7.90384 7.24610
#
# Compressibility (1/GPa) = 0.01856454
#
# Stress axis : x y z
#
# Youngs Moduli (GPa) = 70.31558 129.93403 66.91723
#
# Poissons Ratio (x) = 0.47015 -0.01688
# Poissons Ratio (y) = 0.25443 0.38695
# Poissons Ratio (z) = -0.01774 0.75134
#
# Static dielectric constant tensor:
#      x y z
#    x 1.719620 0.000000 0.000000 
#    y 0.000000 1.657700 0.000000 
#    z 0.000000 0.000000 1.657860 
# 
# From -- ./inp_files/22838.got.cif
#   From: 2010.05.17/outbox.cif.g08.bks.cpg/sg44_12_cif.got.tgz:22838.got - 2010.06.03 19:37:08.
