data_PCOD9375400
_publ_section_title
;
Structure prediction by ZEFSAII (Michael W. Deem and Ramdas Pophale) SiO2 
 PCOD9375400
Probable space group: I M M 2
;
_chemical_formula_sum "Si O2"
_cell_formula_units_Z 56
_cell_length_a 7.696901
_cell_length_b 21.262810
_cell_length_c 14.372000
_cell_angle_alpha 90.000000
_cell_angle_beta 90.000000
_cell_angle_gamma 90.000000
_cell_volume 2352.089090
_symmetry_space_group_name_H-M "I M M 2"
_symmetry_group_IT_number 44
_symmetry_cell_setting 'orthorhombic'
loop_
_space_group_symop_operation_xyz
x,y,z
-x,-y,z
-x,y,z
x,-y,z
1/2+x,1/2+y,1/2+z
1/2-x,1/2-y,1/2+z
1/2-x,1/2+y,1/2+z
1/2+x,1/2-y,1/2+z
loop_
_atom_site_type_symbol
_atom_site_label
_atom_site_fract_x
_atom_site_fract_y
_atom_site_fract_z
Si Si1 0.701890 0.571028 0.996310
Si Si2 0.698822 0.095996 0.008119
Si Si3 0.199979 0.834217 0.664352
Si Si4 0.295655 0.262157 0.507675
Si Si5 0.202884 0.068950 0.803158
Si Si6 0.694728 0.168049 0.352034
Si Si7 0.286600 0.931129 0.212951
O O1 0.500000 0.572964 0.965003
O O2 0.758226 0.500000 0.005797
O O3 0.812871 0.609907 0.923822
O O4 0.706717 0.607115 0.093346
O O5 0.500000 0.075010 0.000149
O O6 0.705608 0.171321 0.014728
O O7 0.768804 0.071152 0.105835
O O8 0.789623 0.075267 0.913902
O O9 0.278502 0.778010 0.602969
O O10 0.276830 0.867017 0.756622
O O11 0.000000 0.815353 0.681730
O O12 0.500000 0.272426 0.491401
O O13 0.226838 0.222119 0.418251
O O14 0.000000 0.068187 0.774757
O O15 0.276878 0.000000 0.776951
O O16 0.500000 0.188794 0.325777
O O17 0.777326 0.132235 0.264412
O O18 0.500000 0.928309 0.215688
O O19 0.236989 0.000000 0.253116
#
# Coordination Sequence:
#
# PCOD9375400 Si02
#       7
#     8   8   8   8   8   8   8
#     4   9  16  27  46  75 109 140 171 212 264 323
#     4  11  23  38  57  80 109 149 193 236 280 329
#     4   9  18  34  56  80 109 146 184 223 273 336
#     4  10  21  37  56  83 115 145 182 227 277 333
#     4  10  21  38  60  85 113 148 190 236 288 342
#     4   9  18  33  54  77 103 137 176 219 268 324
#     4   9  18  34  56  80 104 134 176 223 270 321
#
# _framework density 23.808623000000001
#
# number of rings (size 3 to 8) (size 9 to 14) (size 15 to 20)
#    0.000    2.429    0.000    2.143    0.000    5.714 
#    0.000    4.286    0.000    6.000    0.000    0.000 
#    0.000    0.000    0.000    0.000    0.000    0.000 
#
# Total GULP energy -156244.165773 kJ/mol
# GULP energy per Si atom -5580.148778 kJ/mol
# Density = 2.375443 g / cm^3
# Si number density = 23.808623 Si / 1000 Ang^3
#
#
#
# Elastic Constant Matrix: (Units=GPa)
#
#
# Indices 1 2 3 4 5 6 
#
# 1 45.2934 0.4419 3.6945 0.0000 0.0000 0.0000
# 2 0.4419 131.0544 20.2388 0.0000 0.0000 0.0000
# 3 3.6945 20.2388 97.9115 -0.0001 0.0000 0.0000
# 4 0.0000 0.0000 -0.0001 26.2406 0.0000 0.0000
# 5 0.0000 0.0000 0.0000 0.0000 10.9648 0.0000
# 6 0.0000 0.0000 0.0000 0.0000 0.0000 -25.2036
#
#
#
# Elastic Compliance Matrix: (Units=1/GPa)
#
#
# Indices 1 2 3 4 5 6 
#
# 1 0.022147 0.000056 -0.000847 0.000000 0.000000 0.000000
# 2 0.000056 0.007882 -0.001631 0.000000 0.000000 0.000000
# 3 -0.000847 -0.001631 0.010582 0.000000 0.000000 0.000000
# 4 0.000000 0.000000 0.000000 0.038109 0.000000 0.000000
# 5 0.000000 0.000000 0.000000 0.000000 0.091201 0.000000
# 6 0.000000 0.000000 0.000000 0.000000 0.000000 -0.039677
#
#
# Mechanical properties :
#
#
# Convention : Reuss Voigt Hill
#
# Bulk Modulus (GPa) = 27.95917 35.88998 31.92457
# Shear Modulus (GPa) = 34.01097 19.05930 26.53513
#
# Velocity S-wave (km/s) = 3.78367 2.83242 3.34206
# Velocity P-wave (km/s) = 5.55491 5.07975 5.32263
#
# Compressibility (1/GPa) = 0.03576645
#
# Stress axis : x y z
#
# Youngs Moduli (GPa) = 45.15321 126.86864 94.49564
#
# Poissons Ratio (x) = -0.00713 0.08007
# Poissons Ratio (y) = -0.00254 0.15416
# Poissons Ratio (z) = 0.03826 0.20697
#
# Static dielectric constant tensor:
#      x y z
#    x 1.909720 0.000000 0.000000 
#    y 0.000000 1.913250 0.000000 
#    z 0.000000 0.000000 1.957000 
# 
# From -- ./inp_files/16447.got.cif
#   From: 2010.05.17/outbox.cif.g08.bks.cpg/sg44_9_cif.got.tgz:16447.got - 2010.06.03 19:37:08.
