data_PCOD9375674
_publ_section_title
;
Structure prediction by ZEFSAII (Michael W. Deem and Ramdas Pophale) SiO2 
 PCOD9375674
Probable space group: I M M 2
;
_chemical_formula_sum "Si O2"
_cell_formula_units_Z 56
_cell_length_a 31.703620
_cell_length_b 14.524504
_cell_length_c 5.478708
_cell_angle_alpha 90.000000
_cell_angle_beta 90.000000
_cell_angle_gamma 90.000000
_cell_volume 2522.831929
_symmetry_space_group_name_H-M "I M M 2"
_symmetry_group_IT_number 44
_symmetry_cell_setting 'orthorhombic'
loop_
_space_group_symop_operation_xyz
x,y,z
-x,-y,z
-x,y,z
x,-y,z
1/2+x,1/2+y,1/2+z
1/2-x,1/2-y,1/2+z
1/2-x,1/2+y,1/2+z
1/2+x,1/2-y,1/2+z
loop_
_atom_site_type_symbol
_atom_site_label
_atom_site_fract_x
_atom_site_fract_y
_atom_site_fract_z
Si Si1 0.823042 0.712262 0.513720
Si Si2 0.242107 0.599397 0.302619
Si Si3 0.665846 0.400480 0.073712
Si Si4 0.919838 0.892979 0.840802
Si Si5 0.449801 0.292904 0.838488
Si Si6 0.900843 0.395483 0.305695
Si Si7 0.834757 0.600535 0.918897
O O1 0.775414 0.682078 0.463714
O O2 0.837331 0.809357 0.411095
O O3 0.857937 0.636186 0.441885
O O4 0.828156 0.700197 0.800729
O O5 0.242174 0.500000 0.434106
O O6 0.287629 0.608369 0.185898
O O7 0.204959 0.595972 0.102606
O O8 0.661660 0.500000 0.949879
O O9 0.630005 0.395576 0.279164
O O10 0.937990 0.842287 0.596571
O O11 0.934395 0.000000 0.849948
O O12 0.930791 0.843444 0.096697
O O13 0.500000 0.294717 0.812991
O O14 0.433281 0.187234 0.842880
O O15 0.913852 0.500000 0.369797
O O16 0.881425 0.397663 0.033734
O O17 0.831810 0.500000 0.791670
#
# Coordination Sequence:
#
# PCOD9375674 Si02
#       7
#     8   8   8   8   8   8   8
#     4  11  19  36  63  85 124 176 229 272 335 402
#     4   9  20  36  53  87 125 165 224 279 329 391
#     4  10  22  40  58  89 135 172 221 286 343 400
#     4  11  25  49  76 104 139 182 229 285 348 414
#     4  12  26  47  74 107 140 175 226 286 351 425
#     4  10  22  40  65  97 136 178 225 282 343 417
#     4   9  18  34  59  88 122 167 224 277 324 392
#
# _framework density 22.197275999999999
#
# number of rings (size 3 to 8) (size 9 to 14) (size 15 to 20)
#    0.000    1.714    1.429    3.857    2.000    2.000 
#    2.571    0.000    0.000    1.714    0.000    0.000 
#    0.000    0.000    0.000    0.000    0.000    0.000 
#
# Total GULP energy -155896.427516 kJ/mol
# GULP energy per Si atom -5567.729554 kJ/mol
# Density = 2.214675 g / cm^3
# Si number density = 22.197276 Si / 1000 Ang^3
#
#
#
# Elastic Constant Matrix: (Units=GPa)
#
#
# Indices 1 2 3 4 5 6 
#
# 1 86.8965 33.5650 13.8457 0.0001 0.0000 0.0000
# 2 33.5650 181.1057 43.1001 0.0000 0.0000 0.0000
# 3 13.8457 43.1001 52.5567 0.0001 0.0002 0.0003
# 4 0.0001 0.0000 0.0001 23.0312 0.0000 0.0000
# 5 0.0000 0.0000 0.0002 0.0000 18.5709 -0.0001
# 6 0.0000 0.0000 0.0003 0.0000 -0.0001 0.4136
#
#
#
# Elastic Compliance Matrix: (Units=1/GPa)
#
#
# Indices 1 2 3 4 5 6 
#
# 1 0.012521 -0.001908 -0.001734 0.000000 0.000000 0.000002
# 2 -0.001908 0.007151 -0.005362 0.000000 0.000000 0.000004
# 3 -0.001734 -0.005362 0.023881 0.000000 0.000000 -0.000019
# 4 0.000000 0.000000 0.000000 0.043419 0.000000 0.000000
# 5 0.000000 0.000000 0.000000 0.000000 0.053848 0.000014
# 6 0.000002 0.000004 -0.000019 0.000000 0.000014 2.417860
#
#
# Mechanical properties :
#
#
# Convention : Reuss Voigt Hill
#
# Bulk Modulus (GPa) = 39.14535 55.73118 47.43826
# Shear Modulus (GPa) = 1.93408 23.73968 12.83688
#
# Velocity S-wave (km/s) = 0.93446 3.27385 2.40741
# Velocity P-wave (km/s) = 4.34025 6.28112 5.39862
#
# Compressibility (1/GPa) = 0.02554582
#
# Stress axis : x y z
#
# Youngs Moduli (GPa) = 79.86454 139.83487 41.87427
#
# Poissons Ratio (x) = 0.26680 0.07261
# Poissons Ratio (y) = 0.15238 0.22453
# Poissons Ratio (z) = 0.13848 0.74978
#
# Static dielectric constant tensor:
#      x y z
#    x 1.763870 0.000000 0.000000 
#    y 0.000000 2.025190 0.000000 
#    z 0.000000 0.000000 2.069690 
# 
# From -- ./inp_files/3296.got.cif
#   From: 2010.05.17/outbox.cif.g08.bks.cpg/sg44_2_cif.got.tgz:3296.got - 2010.06.03 19:37:08.
