data_PCOD9375962
_publ_section_title
;
Structure prediction by ZEFSAII (Michael W. Deem and Ramdas Pophale) SiO2 
 PCOD9375962
Probable space group: I M M 2
;
_chemical_formula_sum "Si O2"
_cell_formula_units_Z 32
_cell_length_a 21.000000
_cell_length_b 9.000000
_cell_length_c 21.000000
_cell_angle_alpha 90.000000
_cell_angle_beta 90.000000
_cell_angle_gamma 90.000000
_cell_volume 3969.000000
_symmetry_space_group_name_H-M "I M M 2"
_symmetry_group_IT_number 44
_symmetry_cell_setting 'orthorhombic'
loop_
_space_group_symop_operation_xyz
x,y,z
-x,-y,z
-x,y,z
x,-y,z
1/2+x,1/2+y,1/2+z
1/2-x,1/2-y,1/2+z
1/2-x,1/2+y,1/2+z
1/2+x,1/2-y,1/2+z
loop_
_atom_site_type_symbol
_atom_site_label
_atom_site_fract_x
_atom_site_fract_y
_atom_site_fract_z
Si Si1 0.927697 0.321891 0.607150
Si Si2 0.701941 0.321980 0.155330
Si Si3 0.927798 0.678194 0.857846
Si Si4 0.788966 0.319323 0.417879
Si Si5 0.710940 0.320632 0.546447
Si Si6 0.071044 0.679266 0.455091
Si Si7 0.927753 0.821319 0.997967
Si Si8 0.697680 0.679076 0.301778
O O1 0.921205 0.500000 0.616360
O O2 0.868771 0.240093 0.639836
O O3 0.923449 0.293888 0.531022
O O4 0.000000 0.280216 0.627470
O O5 0.702031 0.500000 0.148075
O O6 0.752329 0.251884 0.105812
O O7 0.716881 0.286053 0.229204
O O8 0.921944 0.500000 0.858634
O O9 0.870497 0.748490 0.817822
O O10 0.000000 0.714859 0.835307
O O11 0.922266 0.741947 0.929584
O O12 0.790935 0.500000 0.417340
O O13 0.748890 0.278376 0.481384
O O14 0.862752 0.267286 0.423241
O O15 0.749523 0.273330 0.355096
O O16 0.715156 0.500000 0.552217
O O17 0.635743 0.281622 0.538241
O O18 0.069947 0.500000 0.447156
O O19 0.000000 0.733568 0.434695
O O20 0.000000 0.788360 0.022893
O O21 0.924638 0.000000 0.988249
O O22 0.691115 0.500000 0.306965
#
# Coordination Sequence:
#
# PCOD9375962 Si02
#       8
#     8   8   8   8   8   8   8   8
#     4   9  17  31  51  73  98 129 167 206 243 293
#     4  11  23  34  47  71 105 138 168 207 256 304
#     4  10  20  32  48  74 105 133 164 206 253 300
#     4   9  15  28  51  73  92 121 164 207 242 284
#     4  10  18  32  55  76  96 129 171 211 250 295
#     4   8  13  23  45  75  96 112 146 199 247 282
#     4   9  17  31  53  78 101 129 168 210 253 304
#     4  10  21  36  50  68  98 137 173 206 246 296
#
# _framework density 8.0624839999999995
#
# number of rings (size 3 to 8) (size 9 to 14) (size 15 to 20)
#    0.000    2.500    2.500    1.500    0.000    3.000 
#    0.000    2.500    0.000    0.750    0.000    1.750 
#    0.000    0.000    0.000    0.000    0.000    0.000 
#
# Total GULP energy -178304.050375 kJ/mol
# GULP energy per Si atom -5572.001574 kJ/mol
# Density = 0.804413 g / cm^3
# Si number density = 8.062484 Si / 1000 Ang^3
#
#
#
# Elastic Constant Matrix: (Units=GPa)
#
#
# Indices 1 2 3 4 5 6 
#
# 1 167.3553 31.9501 78.8348 0.0000 0.0000 0.0000
# 2 31.9501 21.6431 29.5443 0.0000 0.0000 0.0000
# 3 78.8348 29.5443 107.5611 0.0000 0.0000 0.0000
# 4 0.0000 0.0000 0.0000 20.7756 0.0000 0.0000
# 5 0.0000 0.0000 0.0000 0.0000 25.0461 0.0000
# 6 0.0000 0.0000 0.0000 0.0000 0.0000 21.2837
#
#
#
# Elastic Compliance Matrix: (Units=1/GPa)
#
#
# Indices 1 2 3 4 5 6 
#
# 1 0.009829 -0.007481 -0.005149 0.000000 0.000000 0.000000
# 2 -0.007481 0.079614 -0.016385 0.000000 0.000000 0.000000
# 3 -0.005149 -0.016385 0.017572 0.000000 0.000000 0.000000
# 4 0.000000 0.000000 0.000000 0.048133 0.000000 0.000000
# 5 0.000000 0.000000 0.000000 0.000000 0.039926 0.000000
# 6 0.000000 0.000000 0.000000 0.000000 0.000000 0.046984
#
#
# Mechanical properties :
#
#
# Convention : Reuss Voigt Hill
#
# Bulk Modulus (GPa) = 20.41454 64.13533 42.27494
# Shear Modulus (GPa) = 15.80189 23.83643 19.81916
#
# Velocity S-wave (km/s) = 3.13383 3.84895 3.50965
# Velocity P-wave (km/s) = 5.07762 7.72093 6.53433
#
# Compressibility (1/GPa) = 0.04898469
#
# Stress axis : x y z
#
# Youngs Moduli (GPa) = 101.73841 12.56054 56.90996
#
# Poissons Ratio (x) = 0.09397 0.29304
# Poissons Ratio (y) = 0.76110 0.93247
# Poissons Ratio (z) = 0.52387 0.20580
#
# Static dielectric constant tensor:
#      x y z
#    x 1.565010 0.000000 0.000000 
#    y 0.000000 1.535960 0.000000 
#    z 0.000000 0.000000 1.527040 
# 
# From -- ./inp_files/20744.got.cif
#   From: 2010.05.17/outbox.ucp.g08.bks.cvg/sg44_11_cif.got.tgz:20744.got - 2010.06.11 16:32:36.
