data_PCOD9375973
_publ_section_title
;
Structure prediction by ZEFSAII (Michael W. Deem and Ramdas Pophale) SiO2 
 PCOD9375973
Probable space group: I M M 2
;
_chemical_formula_sum "Si O2"
_cell_formula_units_Z 32
_cell_length_a 30.000000
_cell_length_b 9.000000
_cell_length_c 12.000000
_cell_angle_alpha 90.000000
_cell_angle_beta 90.000000
_cell_angle_gamma 90.000000
_cell_volume 3240.000000
_symmetry_space_group_name_H-M "I M M 2"
_symmetry_group_IT_number 44
_symmetry_cell_setting 'orthorhombic'
loop_
_space_group_symop_operation_xyz
x,y,z
-x,-y,z
-x,y,z
x,-y,z
1/2+x,1/2+y,1/2+z
1/2-x,1/2-y,1/2+z
1/2-x,1/2+y,1/2+z
1/2+x,1/2-y,1/2+z
loop_
_atom_site_type_symbol
_atom_site_label
_atom_site_fract_x
_atom_site_fract_y
_atom_site_fract_z
Si Si1 0.787068 0.676776 0.857760
Si Si2 0.323014 0.669511 0.144590
Si Si3 0.550219 0.176886 0.635997
Si Si4 0.452535 0.822985 0.304057
Si Si5 0.624272 0.818760 0.465476
Si Si6 0.094195 0.673239 0.372854
Si Si7 0.695949 0.177529 0.913954
Si Si8 0.427696 0.665972 0.091617
O O1 0.780084 0.500000 0.868674
O O2 0.810784 0.719352 0.742760
O O3 0.824332 0.727595 0.949471
O O4 0.740099 0.760841 0.855899
O O5 0.307318 0.500000 0.165389
O O6 0.375848 0.663881 0.126827
O O7 0.304011 0.736947 0.031185
O O8 0.500000 0.236633 0.617833
O O9 0.593039 0.233001 0.566865
O O10 0.565384 0.190253 0.762722
O O11 0.547648 0.000000 0.609228
O O12 0.500000 0.770986 0.353929
O O13 0.407582 0.770050 0.363432
O O14 0.451078 0.774416 0.177198
O O15 0.451953 0.000000 0.313658
O O16 0.626506 0.000000 0.467506
O O17 0.092766 0.500000 0.408018
O O18 0.147202 0.708115 0.359206
O O19 0.073048 0.773832 0.467566
O O20 0.699136 0.000000 0.927648
O O21 0.445570 0.500000 0.100622
#
# Coordination Sequence:
#
# PCOD9375973 Si02
#       8
#     8   8   8   8   8   8   8   8
#     4  11  21  34  56  84 115 150 190 236 290 350
#     4  10  20  36  56  77 106 145 187 234 288 344
#     4   9  17  32  56  84 112 144 186 235 287 341
#     4  10  19  32  53  80 109 142 182 227 278 339
#     4   9  18  32  52  81 114 146 182 231 285 338
#     4   9  19  35  56  81 112 148 187 233 283 338
#     4  10  21  36  54  80 114 152 193 238 289 345
#     4  10  20  34  54  78 107 143 181 229 286 340
#
# _framework density 9.8765429999999999
#
# number of rings (size 3 to 8) (size 9 to 14) (size 15 to 20)
#    0.000    2.250    1.250    1.875    0.000    4.750 
#    0.000    3.750    0.000    2.250    0.000    0.000 
#    0.000    0.000    0.000    0.000    0.000    0.000 
#
# Total GULP energy -178224.197470 kJ/mol
# GULP energy per Si atom -5569.506171 kJ/mol
# Density = 0.985406 g / cm^3
# Si number density = 9.876543 Si / 1000 Ang^3
#
#
#
# Elastic Constant Matrix: (Units=GPa)
#
#
# Indices 1 2 3 4 5 6 
#
# 1 38.9081 1.1498 2.6760 0.0000 0.0000 0.0000
# 2 1.1498 8.3847 9.4917 0.0000 0.0000 0.0000
# 3 2.6760 9.4917 31.7929 0.0000 0.0000 0.0000
# 4 0.0000 0.0000 0.0000 5.2797 0.0000 0.0000
# 5 0.0000 0.0000 0.0000 0.0000 -20.8050 0.0000
# 6 0.0000 0.0000 0.0000 0.0000 0.0000 14.1575
#
#
#
# Elastic Compliance Matrix: (Units=1/GPa)
#
#
# Indices 1 2 3 4 5 6 
#
# 1 0.025866 -0.001635 -0.001689 0.000000 0.000000 0.000000
# 2 -0.001635 0.180252 -0.053676 0.000000 0.000000 0.000000
# 3 -0.001689 -0.053676 0.047621 0.000000 0.000000 0.000000
# 4 0.000000 0.000000 0.000000 0.189404 0.000000 0.000000
# 5 0.000000 0.000000 0.000000 0.000000 -0.048065 0.000000
# 6 0.000000 0.000000 0.000000 0.000000 0.000000 0.070634
#
#
# Mechanical properties :
#
#
# Convention : Reuss Voigt Hill
#
# Bulk Modulus (GPa) = 7.15622 11.74673 9.45147
# Shear Modulus (GPa) = 7.98349 4.11099 6.04724
#
# Velocity S-wave (km/s) = 2.01257 1.44420 1.75159
# Velocity P-wave (km/s) = 3.00521 2.95646 2.98093
#
# Compressibility (1/GPa) = 0.13973860
#
# Stress axis : x y z
#
# Youngs Moduli (GPa) = 38.66070 5.54778 20.99924
#
# Poissons Ratio (x) = 0.00907 0.03547
# Poissons Ratio (y) = 0.06320 1.12716
# Poissons Ratio (z) = 0.06530 0.29778
#
# Static dielectric constant tensor:
#      x y z
#    x 1.758420 0.000000 0.000000 
#    y 0.000000 1.674810 0.000000 
#    z 0.000000 0.000000 1.738170 
# 
# From -- ./inp_files/11443.got.cif
#   From: 2010.05.17/outbox.ucp.g08.bks.cvg/sg44_6_cif.got.tgz:11443.got - 2010.06.11 16:32:36.
