data_PCOD9375737
_publ_section_title
;
Structure prediction by ZEFSAII (Michael W. Deem and Ramdas Pophale) SiO2 
 PCOD9375737
Probable space group: I M M 2
;
_chemical_formula_sum "Si O2"
_cell_formula_units_Z 64
_cell_length_a 8.826688
_cell_length_b 21.668274
_cell_length_c 15.909415
_cell_angle_alpha 90.000000
_cell_angle_beta 90.000000
_cell_angle_gamma 90.000000
_cell_volume 3042.820301
_symmetry_space_group_name_H-M "I M M 2"
_symmetry_group_IT_number 44
_symmetry_cell_setting 'orthorhombic'
loop_
_space_group_symop_operation_xyz
x,y,z
-x,-y,z
-x,y,z
x,-y,z
1/2+x,1/2+y,1/2+z
1/2-x,1/2-y,1/2+z
1/2-x,1/2+y,1/2+z
1/2+x,1/2-y,1/2+z
loop_
_atom_site_type_symbol
_atom_site_label
_atom_site_fract_x
_atom_site_fract_y
_atom_site_fract_z
Si Si1 0.683798 0.431475 0.441980
Si Si2 0.180772 0.807031 0.721380
Si Si3 0.825075 0.425048 0.970844
Si Si4 0.181664 0.069218 0.646953
Si Si5 0.827415 0.247129 0.059485
Si Si6 0.329863 0.393102 0.622902
Si Si7 0.818010 0.428696 0.790653
Si Si8 0.680491 0.798669 0.893697
O O1 0.500000 0.424117 0.435420
O O2 0.721461 0.500000 0.407303
O O3 0.723424 0.430899 0.541537
O O4 0.759456 0.369466 0.406011
O O5 0.225262 0.879360 0.713949
O O6 0.231409 0.779499 0.632257
O O7 0.263907 0.778484 0.801473
O O8 0.000000 0.801853 0.731884
O O9 0.823573 0.500000 0.964763
O O10 0.763660 0.402876 0.880724
O O11 0.000000 0.406510 0.981061
O O12 0.734519 0.409866 0.054453
O O13 0.000000 0.066700 0.646886
O O14 0.240589 0.000000 0.662513
O O15 0.835659 0.176293 0.089352
O O16 0.000000 0.271067 0.055965
O O17 0.752978 0.243095 0.967499
O O18 0.500000 0.413935 0.644180
O O19 0.232260 0.395918 0.706372
O O20 0.767754 0.500000 0.782583
O O21 0.000000 0.428644 0.796299
O O22 0.500000 0.797692 0.900250
#
# Coordination Sequence:
#
# PCOD9375737 Si02
#       8
#     8   8   8   8   8   8   8   8
#     4   9  18  34  56  83 119 161 201 244 300 362
#     4  11  23  41  65  92 120 156 200 246 300 363
#     4   8  15  29  47  69 103 145 185 227 276 331
#     4   9  19  36  58  85 116 149 186 232 288 350
#     4  10  22  43  64  84 115 156 201 252 305 356
#     4   9  18  32  51  76 107 146 192 242 292 346
#     4   9  17  28  44  71 108 148 190 236 286 342
#     4  11  23  40  63  91 123 158 200 253 305 362
#
# _framework density 21.033118000000002
#
# number of rings (size 3 to 8) (size 9 to 14) (size 15 to 20)
#    0.000    2.500    0.000    3.750    0.000    5.500 
#    2.250    2.500    0.000    0.000    0.000    0.000 
#    0.000    0.000    0.000    0.000    0.000    0.000 
#
# Total GULP energy -178542.513952 kJ/mol
# GULP energy per Si atom -5579.453561 kJ/mol
# Density = 2.098525 g / cm^3
# Si number density = 21.033118 Si / 1000 Ang^3
#
#
#
# Elastic Constant Matrix: (Units=GPa)
#
#
# Indices 1 2 3 4 5 6 
#
# 1 40.3531 3.5435 30.5838 0.0000 0.0000 0.0000
# 2 3.5435 28.4054 17.2831 0.0000 0.0000 0.0000
# 3 30.5838 17.2831 129.7080 0.0000 0.0000 0.0000
# 4 0.0000 0.0000 0.0000 21.1064 0.0000 0.0000
# 5 0.0000 0.0000 0.0000 0.0000 29.9980 0.0000
# 6 0.0000 0.0000 0.0000 0.0000 0.0000 19.7199
#
#
#
# Elastic Compliance Matrix: (Units=1/GPa)
#
#
# Indices 1 2 3 4 5 6 
#
# 1 0.030183 0.000615 -0.007199 0.000000 0.000000 0.000000
# 2 0.000615 0.038323 -0.005251 0.000000 0.000000 0.000000
# 3 -0.007199 -0.005251 0.010107 0.000000 0.000000 0.000000
# 4 0.000000 0.000000 0.000000 0.047379 0.000000 0.000000
# 5 0.000000 0.000000 0.000000 0.000000 0.033336 0.000000
# 6 0.000000 0.000000 0.000000 0.000000 0.000000 0.050710
#
#
# Mechanical properties :
#
#
# Convention : Reuss Voigt Hill
#
# Bulk Modulus (GPa) = 18.20089 33.47637 25.83863
# Shear Modulus (GPa) = 19.83947 23.96859 21.90403
#
# Velocity S-wave (km/s) = 3.07457 3.37941 3.23058
# Velocity P-wave (km/s) = 4.61261 5.58370 5.12123
#
# Compressibility (1/GPa) = 0.05494237
#
# Stress axis : x y z
#
# Youngs Moduli (GPa) = 33.13088 26.09395 98.94360
#
# Poissons Ratio (x) = -0.01604 0.71228
# Poissons Ratio (y) = -0.02037 0.51959
# Poissons Ratio (z) = 0.23850 0.13703
#
# Static dielectric constant tensor:
#      x y z
#    x 1.716900 0.000000 0.000000 
#    y 0.000000 1.822220 0.000000 
#    z 0.000000 0.000000 1.762280 
# 
# From -- ./inp_files/16860.got.cif
#   From: 2010.05.17/outbox.cif.g08.bks.cpg/sg44_9_cif.got.tgz:16860.got - 2010.06.03 19:37:08.
