data_PCOD9375938
_publ_section_title
;
Structure prediction by ZEFSAII (Michael W. Deem and Ramdas Pophale) SiO2 
 PCOD9375938
Probable space group: I M M 2
;
_chemical_formula_sum "Si O2"
_cell_formula_units_Z 64
_cell_length_a 19.535608
_cell_length_b 7.446347
_cell_length_c 22.331238
_cell_angle_alpha 90.000000
_cell_angle_beta 90.000000
_cell_angle_gamma 90.000000
_cell_volume 3248.500985
_symmetry_space_group_name_H-M "I M M 2"
_symmetry_group_IT_number 44
_symmetry_cell_setting 'orthorhombic'
loop_
_space_group_symop_operation_xyz
x,y,z
-x,-y,z
-x,y,z
x,-y,z
1/2+x,1/2+y,1/2+z
1/2-x,1/2-y,1/2+z
1/2-x,1/2+y,1/2+z
1/2+x,1/2-y,1/2+z
loop_
_atom_site_type_symbol
_atom_site_label
_atom_site_fract_x
_atom_site_fract_y
_atom_site_fract_z
Si Si1 0.924514 0.203710 0.398040
Si Si2 0.218420 0.215823 0.047053
Si Si3 0.576089 0.789459 0.034190
Si Si4 0.870480 0.717034 0.872813
Si Si5 0.077767 0.280399 0.743319
Si Si6 0.823749 0.719121 0.638247
Si Si7 0.222972 0.215444 0.416064
Si Si8 0.425642 0.711742 0.502282
O O1 0.923583 0.196173 0.470431
O O2 0.848765 0.285917 0.388608
O O3 0.000000 0.283652 0.382529
O O4 0.924616 0.000000 0.374152
O O5 0.251279 0.277037 0.109921
O O6 0.214803 0.000000 0.050032
O O7 0.264282 0.250773 0.987185
O O8 0.142656 0.287455 0.033134
O O9 0.500000 0.778168 0.059620
O O10 0.626608 0.725098 0.084301
O O11 0.590558 0.000000 0.021958
O O12 0.869008 0.500000 0.872073
O O13 0.903435 0.775964 0.810660
O O14 0.792173 0.779145 0.883495
O O15 0.912908 0.771194 0.931226
O O16 0.077423 0.500000 0.741892
O O17 0.138390 0.221363 0.698501
O O18 0.000000 0.224769 0.727370
O O19 0.822411 0.500000 0.641188
O O20 0.219626 0.000000 0.409897
O O21 0.500000 0.787931 0.517854
O O22 0.427179 0.500000 0.516275
#
# Coordination Sequence:
#
# PCOD9375938 Si02
#       8
#     8   8   8   8   8   8   8   8
#     4   9  16  24  34  50  74 102 127 151 186 231
#     4   9  16  26  40  58  78 101 130 160 194 239
#     4   9  15  22  34  52  73  97 124 153 183 218
#     4   9  17  28  43  61  79 103 136 170 200 231
#     4   9  16  25  38  58  82 105 131 164 199 232
#     4   9  15  23  36  55  78 102 128 158 191 227
#     4   9  16  26  39  56  78 102 130 164 199 233
#     4   9  17  28  42  60  82 106 129 159 202 245
#
# _framework density 19.701395999999999
#
# number of rings (size 3 to 8) (size 9 to 14) (size 15 to 20)
#    0.000    3.000    1.250    0.750    0.000    2.250 
#    0.000    0.000    0.000    1.500    0.000    2.625 
#    0.000    7.000    0.000    0.000    0.000   18.500 
#
# Total GULP energy -178157.565300 kJ/mol
# GULP energy per Si atom -5567.423916 kJ/mol
# Density = 1.965655 g / cm^3
# Si number density = 19.701396 Si / 1000 Ang^3
#
#
#
# Elastic Constant Matrix: (Units=GPa)
#
#
# Indices 1 2 3 4 5 6 
#
# 1 155.4066 8.8002 36.3255 0.0000 0.0000 0.0000
# 2 8.8002 59.4627 -1.5815 0.0000 0.0000 0.0000
# 3 36.3255 -1.5815 64.3755 0.0000 0.0000 0.0000
# 4 0.0000 0.0000 0.0000 8.6444 0.0000 0.0000
# 5 0.0000 0.0000 0.0000 0.0000 24.2709 0.0000
# 6 0.0000 0.0000 0.0000 0.0000 0.0000 4.2741
#
#
#
# Elastic Compliance Matrix: (Units=1/GPa)
#
#
# Indices 1 2 3 4 5 6 
#
# 1 0.007500 -0.001223 -0.004262 0.000000 0.000000 0.000000
# 2 -0.001223 0.017028 0.001109 0.000000 0.000000 0.000000
# 3 -0.004262 0.001109 0.017966 0.000000 0.000000 0.000000
# 4 0.000000 0.000000 0.000000 0.115682 0.000000 0.000000
# 5 0.000000 0.000000 0.000000 0.000000 0.041202 0.000000
# 6 0.000000 0.000000 0.000000 0.000000 0.000000 0.233967
#
#
# Mechanical properties :
#
#
# Convention : Reuss Voigt Hill
#
# Bulk Modulus (GPa) = 29.63816 40.70368 35.17092
# Shear Modulus (GPa) = 11.02911 23.15125 17.09018
#
# Velocity S-wave (km/s) = 2.36860 3.43170 2.94846
# Velocity P-wave (km/s) = 4.74939 6.03384 5.42973
#
# Compressibility (1/GPa) = 0.03374028
#
# Stress axis : x y z
#
# Youngs Moduli (GPa) = 133.32812 58.72744 55.66013
#
# Poissons Ratio (x) = 0.07185 0.23724
# Poissons Ratio (y) = 0.16311 -0.06171
# Poissons Ratio (z) = 0.56828 -0.06511
#
# Static dielectric constant tensor:
#      x y z
#    x 1.797420 0.000000 0.000000 
#    y 0.000000 1.782710 0.000000 
#    z 0.000000 0.000000 1.644570 
# 
# From -- ./inp_files/23942.got.cif
#   From: 2010.05.17/outbox.cif.g08.bks.cpg/sg44_12_cif.got.tgz:23942.got - 2010.06.03 19:37:08.
