data_PCOD9375369
_publ_section_title
;
Structure prediction by ZEFSAII (Michael W. Deem and Ramdas Pophale) SiO2 
 PCOD9375369
Probable space group: I M M 2
;
_chemical_formula_sum "Si O2"
_cell_formula_units_Z 64
_cell_length_a 8.797692
_cell_length_b 20.483362
_cell_length_c 20.619804
_cell_angle_alpha 90.000000
_cell_angle_beta 90.000000
_cell_angle_gamma 90.000000
_cell_volume 3715.818792
_symmetry_space_group_name_H-M "I M M 2"
_symmetry_group_IT_number 44
_symmetry_cell_setting 'orthorhombic'
loop_
_space_group_symop_operation_xyz
x,y,z
-x,-y,z
-x,y,z
x,-y,z
1/2+x,1/2+y,1/2+z
1/2-x,1/2-y,1/2+z
1/2-x,1/2+y,1/2+z
1/2+x,1/2-y,1/2+z
loop_
_atom_site_type_symbol
_atom_site_label
_atom_site_fract_x
_atom_site_fract_y
_atom_site_fract_z
Si Si1 0.817188 0.423737 0.612990
Si Si2 0.182243 0.823841 0.363239
Si Si3 0.316837 0.925405 0.262194
Si Si4 0.815960 0.181601 0.512199
Si Si5 0.818034 0.673558 0.369003
Si Si6 0.814953 0.925870 0.615762
Si Si7 0.681033 0.675766 0.510046
Si Si8 0.317309 0.423658 0.264365
O O1 0.782667 0.500000 0.600048
O O2 0.772734 0.410038 0.687760
O O3 0.737997 0.376015 0.562699
O O4 0.000000 0.416073 0.608179
O O5 0.254469 0.873784 0.313107
O O6 0.224147 0.837503 0.438274
O O7 0.225221 0.748213 0.351027
O O8 0.000000 0.828574 0.358256
O O9 0.500000 0.924695 0.264076
O O10 0.267427 0.000000 0.276537
O O11 0.765356 0.127384 0.563654
O O12 0.746144 0.252368 0.525901
O O13 0.000000 0.187333 0.514827
O O14 0.744995 0.658554 0.438771
O O15 0.762361 0.623534 0.314952
O O16 0.000000 0.671619 0.375679
O O17 0.771487 0.909864 0.689793
O O18 0.000000 0.926539 0.614692
O O19 0.765149 0.000000 0.600902
O O20 0.500000 0.677695 0.508131
O O21 0.500000 0.415715 0.268865
O O22 0.283649 0.500000 0.277113
#
# Coordination Sequence:
#
# PCOD9375369 Si02
#       8
#     8   8   8   8   8   8   8   8
#     4   9  19  37  57  75  99 133 171 208 249 302
#     4   9  19  33  50  75 104 133 168 213 256 295
#     4   9  19  35  54  76 102 134 171 208 249 302
#     4   9  18  34  54  76 104 137 173 209 248 299
#     4  10  21  37  54  73 101 136 173 209 249 302
#     4   8  15  30  53  78 103 134 172 211 249 294
#     4  11  22  35  53  77 104 132 166 210 257 302
#     4   9  18  33  53  78 105 132 168 212 253 296
#
# _framework density 17.223661
#
# number of rings (size 3 to 8) (size 9 to 14) (size 15 to 20)
#    0.000    2.750    0.000    3.750    0.000    5.750 
#    0.000    6.875    0.000    1.125    0.000    0.000 
#    0.000    0.000    0.000    0.000    0.000    0.000 
#
# Total GULP energy -178463.285153 kJ/mol
# GULP energy per Si atom -5576.977661 kJ/mol
# Density = 1.718446 g / cm^3
# Si number density = 17.223661 Si / 1000 Ang^3
#
#
#
# Elastic Constant Matrix: (Units=GPa)
#
#
# Indices 1 2 3 4 5 6 
#
# 1 38.5346 53.9295 55.0122 0.0000 0.0000 0.0000
# 2 53.9295 136.2567 136.0982 0.0000 0.0000 0.0000
# 3 55.0122 136.0982 157.8815 0.0000 0.0000 0.0000
# 4 0.0000 0.0000 0.0000 42.3383 0.0000 0.0000
# 5 0.0000 0.0000 0.0000 0.0000 29.2991 0.0000
# 6 0.0000 0.0000 0.0000 0.0000 0.0000 28.7742
#
#
#
# Elastic Compliance Matrix: (Units=1/GPa)
#
#
# Indices 1 2 3 4 5 6 
#
# 1 0.058377 -0.020061 -0.003048 0.000000 0.000000 0.000000
# 2 -0.020061 0.059703 -0.044475 0.000000 0.000000 0.000000
# 3 -0.003048 -0.044475 0.045735 0.000000 0.000000 0.000000
# 4 0.000000 0.000000 0.000000 0.023619 0.000000 0.000000
# 5 0.000000 0.000000 0.000000 0.000000 0.034131 0.000000
# 6 0.000000 0.000000 0.000000 0.000000 0.000000 0.034753
#
#
# Mechanical properties :
#
#
# Convention : Reuss Voigt Hill
#
# Bulk Modulus (GPa) = 34.90831 91.41697 63.16264
# Shear Modulus (GPa) = 12.46773 25.92450 19.19612
#
# Velocity S-wave (km/s) = 2.69341 3.88386 3.34206
# Velocity P-wave (km/s) = 5.47579 8.56178 7.18639
#
# Compressibility (1/GPa) = 0.02864647
#
# Stress axis : x y z
#
# Youngs Moduli (GPa) = 17.12989 16.74966 21.86530
#
# Poissons Ratio (x) = 0.33602 0.06664
# Poissons Ratio (y) = 0.34365 0.97246
# Poissons Ratio (z) = 0.05220 0.74494
#
# Static dielectric constant tensor:
#      x y z
#    x 1.581260 0.000000 0.000000 
#    y 0.000000 1.565790 0.000000 
#    z 0.000000 0.000000 1.566760 
# 
# From -- ./inp_files/20754.got.cif
#   From: 2010.05.17/outbox.cif.g08.bks.cpg/sg44_11_cif.got.tgz:20754.got - 2010.06.03 19:37:08.
