data_PCOD9375874
_publ_section_title
;
Structure prediction by ZEFSAII (Michael W. Deem and Ramdas Pophale) SiO2 
 PCOD9375874
Probable space group: I M M 2
;
_chemical_formula_sum "Si O2"
_cell_formula_units_Z 32
_cell_length_a 9.285181
_cell_length_b 7.684391
_cell_length_c 24.189919
_cell_angle_alpha 90.000000
_cell_angle_beta 90.000000
_cell_angle_gamma 90.000000
_cell_volume 1725.973975
_symmetry_space_group_name_H-M "I M M 2"
_symmetry_group_IT_number 44
_symmetry_cell_setting 'orthorhombic'
loop_
_space_group_symop_operation_xyz
x,y,z
-x,-y,z
-x,y,z
x,-y,z
1/2+x,1/2+y,1/2+z
1/2-x,1/2-y,1/2+z
1/2-x,1/2+y,1/2+z
1/2+x,1/2-y,1/2+z
loop_
_atom_site_type_symbol
_atom_site_label
_atom_site_fract_x
_atom_site_fract_y
_atom_site_fract_z
Si Si1 0.670439 0.000000 0.704430
Si Si2 0.170625 0.500000 0.335857
Si Si3 0.834044 0.289719 0.031175
Si Si4 0.327496 0.795246 0.403842
Si Si5 0.168992 0.301406 0.639380
O O1 0.693168 0.000000 0.770062
O O2 0.742819 0.167727 0.676648
O O3 0.500000 0.000000 0.692749
O O4 0.243205 0.668830 0.363363
O O5 0.000000 0.500000 0.346466
O O6 0.830081 0.500000 0.035645
O O7 0.730131 0.214058 0.077262
O O8 0.000000 0.235635 0.041152
O O9 0.796111 0.247309 0.967854
O O10 0.500000 0.775705 0.396545
O O11 0.293445 0.000000 0.396143
O O12 0.186499 0.500000 0.658444
O O13 0.000000 0.257381 0.640116
#
# Coordination Sequence:
#
# PCOD9375874 Si02
#       5
#     4   4   8   8   8
#     4  11  25  45  63  83 117 163 210 251 296 357
#     4  11  25  41  61  89 121 159 204 253 302 353
#     4   9  18  35  60  89 122 159 197 239 291 355
#     4   9  20  39  62  90 121 158 202 244 293 357
#     4  11  24  39  59  91 123 154 196 249 308 359
#
# _framework density 18.540255999999999
#
# number of rings (size 3 to 8) (size 9 to 14) (size 15 to 20)
#    0.000    2.000    1.250    3.000    1.750    6.500 
#    0.000    7.500    0.000    0.000    0.000    0.000 
#    0.000    0.000    0.000    0.000    0.000    0.000 
#
# Total GULP energy -89399.549117 kJ/mol
# GULP energy per Si atom -5587.471820 kJ/mol
# Density = 1.849806 g / cm^3
# Si number density = 18.540256 Si / 1000 Ang^3
#
#
#
# Elastic Constant Matrix: (Units=GPa)
#
#
# Indices 1 2 3 4 5 6 
#
# 1 123.5254 88.0338 101.3995 0.0000 0.0000 0.0000
# 2 88.0338 112.5217 85.1331 0.0000 0.0000 0.0000
# 3 101.3995 85.1331 120.5812 0.0000 0.0000 0.0000
# 4 0.0000 0.0000 0.0000 -29.4767 0.0000 0.0000
# 5 0.0000 0.0000 0.0000 0.0000 34.9450 0.0000
# 6 0.0000 0.0000 0.0000 0.0000 0.0000 33.9336
#
#
#
# Elastic Compliance Matrix: (Units=1/GPa)
#
#
# Indices 1 2 3 4 5 6 
#
# 1 0.030214 -0.009478 -0.018715 0.000000 0.000000 0.000000
# 2 -0.009478 0.022052 -0.007598 0.000000 0.000000 0.000000
# 3 -0.018715 -0.007598 0.029396 0.000000 0.000000 0.000000
# 4 0.000000 0.000000 0.000000 -0.033925 0.000000 0.000000
# 5 0.000000 0.000000 0.000000 0.000000 0.028616 0.000000
# 6 0.000000 0.000000 0.000000 0.000000 0.000000 0.029469
#
#
# Mechanical properties :
#
#
# Convention : Reuss Voigt Hill
#
# Bulk Modulus (GPa) = 99.23600 100.64013 99.93806
# Shear Modulus (GPa) = 27.66020 13.35117 20.50569
#
# Velocity S-wave (km/s) = 3.86670 2.68641 3.32928
# Velocity P-wave (km/s) = 8.57764 8.00139 8.29452
#
# Compressibility (1/GPa) = 0.01007699
#
# Stress axis : x y z
#
# Youngs Moduli (GPa) = 33.09774 45.34801 34.01820
#
# Poissons Ratio (x) = 0.42982 0.63666
# Poissons Ratio (y) = 0.31371 0.25849
# Poissons Ratio (z) = 0.61944 0.34457
#
# Static dielectric constant tensor:
#      x y z
#    x 1.613120 0.000000 0.000000 
#    y 0.000000 1.645710 0.000000 
#    z 0.000000 0.000000 1.617380 
# 
# From -- ./inp_files/24564.got.cif
#   From: 2010.05.17/outbox.cif.g08.bks.cpg/sg44_13_cif.got.tgz:24564.got - 2010.06.03 19:37:08.
