data_PCOD9375727
_publ_section_title
;
Structure prediction by ZEFSAII (Michael W. Deem and Ramdas Pophale) SiO2 
 PCOD9375727
Probable space group: I M M 2
;
_chemical_formula_sum "Si O2"
_cell_formula_units_Z 32
_cell_length_a 27.012211
_cell_length_b 10.345516
_cell_length_c 5.288550
_cell_angle_alpha 90.000000
_cell_angle_beta 90.000000
_cell_angle_gamma 90.000000
_cell_volume 1477.913121
_symmetry_space_group_name_H-M "I M M 2"
_symmetry_group_IT_number 44
_symmetry_cell_setting 'orthorhombic'
loop_
_space_group_symop_operation_xyz
x,y,z
-x,-y,z
-x,y,z
x,-y,z
1/2+x,1/2+y,1/2+z
1/2-x,1/2-y,1/2+z
1/2-x,1/2+y,1/2+z
1/2+x,1/2-y,1/2+z
loop_
_atom_site_type_symbol
_atom_site_label
_atom_site_fract_x
_atom_site_fract_y
_atom_site_fract_z
Si Si1 0.869569 0.353602 0.823560
Si Si2 0.058073 0.853611 0.581811
Si Si3 0.856814 0.136140 0.206682
Si Si4 0.718022 0.750364 0.045957
O O1 0.883903 0.500000 0.884096
O O2 0.914464 0.263623 0.723955
O O3 0.823318 0.354467 0.629794
O O4 0.849962 0.267117 0.054177
O O5 0.088070 0.859948 0.319301
O O6 0.000000 0.829654 0.553121
O O7 0.063549 0.000000 0.693087
O O8 0.817984 0.139723 0.437081
O O9 0.848875 0.000000 0.067501
O O10 0.752104 0.783498 0.802703
#
# Coordination Sequence:
#
# PCOD9375727 Si02
#       4
#     8   8   8   8
#     4  11  24  41  64  98 140 175 219 276 342 406
#     4   9  20  41  67  94 127 174 229 281 333 396
#     4  10  22  41  66  95 130 172 228 282 333 395
#     4  11  23  45  65 100 131 180 229 282 333 393
#
# _framework density 21.652152000000001
#
# number of rings (size 3 to 8) (size 9 to 14) (size 15 to 20)
#    0.000    1.750    2.500    0.750    0.000    8.500 
#    0.000    2.500    0.000    0.000    0.000    0.000 
#    0.000    0.000    0.000    0.000    0.000    0.000 
#
# Total GULP energy -89090.795727 kJ/mol
# GULP energy per Si atom -5568.174733 kJ/mol
# Density = 2.160287 g / cm^3
# Si number density = 21.652152 Si / 1000 Ang^3
#
#
#
# Elastic Constant Matrix: (Units=GPa)
#
#
# Indices 1 2 3 4 5 6 
#
# 1 168.5830 53.3709 56.0737 -0.0007 0.0004 -0.0005
# 2 53.3709 204.9932 52.9340 -0.0015 0.0006 -0.0012
# 3 56.0737 52.9340 103.4760 -0.0034 0.0000 -0.0025
# 4 -0.0007 -0.0015 -0.0034 24.6251 0.0005 -0.0016
# 5 0.0004 0.0006 0.0000 0.0005 -37.5211 -0.0009
# 6 -0.0005 -0.0012 -0.0025 -0.0016 -0.0009 -33.6255
#
#
#
# Elastic Compliance Matrix: (Units=1/GPa)
#
#
# Indices 1 2 3 4 5 6 
#
# 1 0.007420 -0.001030 -0.003494 0.000000 0.000000 0.000000
# 2 -0.001030 0.005764 -0.002390 0.000000 0.000000 0.000000
# 3 -0.003494 -0.002390 0.012780 0.000002 0.000000 -0.000001
# 4 0.000000 0.000000 0.000002 0.040609 0.000001 -0.000002
# 5 0.000000 0.000000 0.000000 0.000001 -0.026652 0.000001
# 6 0.000000 0.000000 -0.000001 -0.000002 0.000001 -0.029739
#
#
# Mechanical properties :
#
#
# Convention : Reuss Voigt Hill
#
# Bulk Modulus (GPa) = 82.40283 89.08992 85.74637
# Shear Modulus (GPa) = 178.21784 11.67394 94.94589
#
# Velocity S-wave (km/s) = 9.08230 2.32450 6.62916
# Velocity P-wave (km/s) = 12.17064 6.95986 9.91373
#
# Compressibility (1/GPa) = 0.01213551
#
# Stress axis : x y z
#
# Youngs Moduli (GPa) = 134.77142 173.50479 78.24447
#
# Poissons Ratio (x) = 0.17863 0.27340
# Poissons Ratio (y) = 0.13875 0.18704
# Poissons Ratio (z) = 0.47092 0.41476
#
# Static dielectric constant tensor:
#      x y z
#    x 1.867670 0.000000 0.000000 
#    y 0.000000 1.796260 0.000000 
#    z 0.000000 0.000000 1.904140 
# 
# From -- ./inp_files/2940.got.cif
#   From: 2010.05.17/outbox.cif.g08.bks.cpg/sg44_2_cif.got.tgz:2940.got - 2010.06.03 19:37:08.
