data_PCOD9375394
_publ_section_title
;
Structure prediction by ZEFSAII (Michael W. Deem and Ramdas Pophale) SiO2 
 PCOD9375394
Probable space group: I M M 2
;
_chemical_formula_sum "Si O2"
_cell_formula_units_Z 48
_cell_length_a 28.066783
_cell_length_b 13.716957
_cell_length_c 4.868861
_cell_angle_alpha 90.000000
_cell_angle_beta 90.000000
_cell_angle_gamma 90.000000
_cell_volume 1874.466962
_symmetry_space_group_name_H-M "I M M 2"
_symmetry_group_IT_number 44
_symmetry_cell_setting 'orthorhombic'
loop_
_space_group_symop_operation_xyz
x,y,z
-x,-y,z
-x,y,z
x,-y,z
1/2+x,1/2+y,1/2+z
1/2-x,1/2-y,1/2+z
1/2-x,1/2+y,1/2+z
1/2+x,1/2-y,1/2+z
loop_
_atom_site_type_symbol
_atom_site_label
_atom_site_fract_x
_atom_site_fract_y
_atom_site_fract_z
Si Si1 0.300660 0.383569 0.269340
Si Si2 0.755890 0.617729 0.763067
Si Si3 0.386702 0.309953 0.641775
Si Si4 0.552026 0.896050 0.164195
Si Si5 0.052937 0.179886 0.609372
Si Si6 0.854960 0.390583 0.048483
O O1 0.302693 0.500000 0.254130
O O2 0.255531 0.352273 0.455354
O O3 0.345896 0.352790 0.445540
O O4 0.286546 0.349413 0.966625
O O5 0.753753 0.500000 0.760987
O O6 0.808318 0.638062 0.874092
O O7 0.406438 0.364090 0.911650
O O8 0.366535 0.203437 0.729091
O O9 0.430883 0.311548 0.425166
O O10 0.500000 0.897041 0.310886
O O11 0.598285 0.896121 0.355817
O O12 0.554250 0.000000 0.005830
O O13 0.550721 0.793302 0.010545
O O14 0.000000 0.137466 0.584833
O O15 0.847028 0.500000 0.167977
#
# Coordination Sequence:
#
# PCOD9375394 Si02
#       6
#     8   8   8   8   8   8
#     4  10  21  38  58  81 108 141 184 227 272 327
#     4   9  19  35  55  79 111 147 179 223 275 318
#     4  11  22  36  59  83 107 146 183 222 274 320
#     4   8  15  30  52  78 111 151 189 223 261 312
#     4  10  21  37  56  81 112 143 179 223 273 327
#     4   9  19  34  53  81 115 147 184 225 267 319
#
# _framework density 25.607281
#
# number of rings (size 3 to 8) (size 9 to 14) (size 15 to 20)
#    0.000    2.500    0.000    1.500    0.000    5.333 
#    0.000    5.000    0.000    7.000    0.000    0.000 
#    0.000    0.000    0.000    0.000    0.000    0.000 
#
# Total GULP energy -133910.344076 kJ/mol
# GULP energy per Si atom -5579.597670 kJ/mol
# Density = 2.554900 g / cm^3
# Si number density = 25.607281 Si / 1000 Ang^3
#
#
#
# Elastic Constant Matrix: (Units=GPa)
#
#
# Indices 1 2 3 4 5 6 
#
# 1 117.3721 4.5752 14.2924 0.0000 -0.0001 -0.0001
# 2 4.5752 54.0759 0.0168 0.0000 0.0000 0.0000
# 3 14.2924 0.0168 87.4435 -0.0001 -0.0003 -0.0004
# 4 0.0000 0.0000 -0.0001 10.5029 0.0000 0.0000
# 5 -0.0001 0.0000 -0.0003 0.0000 40.2354 0.0002
# 6 -0.0001 0.0000 -0.0004 0.0000 0.0002 -24.3316
#
#
#
# Elastic Compliance Matrix: (Units=1/GPa)
#
#
# Indices 1 2 3 4 5 6 
#
# 1 0.008722 -0.000738 -0.001425 0.000000 0.000000 0.000000
# 2 -0.000738 0.018555 0.000117 0.000000 0.000000 0.000000
# 3 -0.001425 0.000117 0.011669 0.000000 0.000000 0.000000
# 4 0.000000 0.000000 0.000000 0.095212 0.000000 0.000000
# 5 0.000000 0.000000 0.000000 0.000000 0.024854 0.000000
# 6 0.000000 0.000000 0.000000 0.000000 0.000000 -0.041099
#
#
# Mechanical properties :
#
#
# Convention : Reuss Voigt Hill
#
# Bulk Modulus (GPa) = 28.69111 32.96226 30.82669
# Shear Modulus (GPa) = 37.41872 21.28180 29.35026
#
# Velocity S-wave (km/s) = 3.82678 2.88598 3.38918
# Velocity P-wave (km/s) = 5.54565 4.89952 5.23257
#
# Compressibility (1/GPa) = 0.03485400
#
# Stress axis : x y z
#
# Youngs Moduli (GPa) = 114.64945 53.89412 85.69768
#
# Poissons Ratio (x) = 0.03975 0.12216
# Poissons Ratio (y) = 0.08456 -0.01002
# Poissons Ratio (z) = 0.16343 -0.00630
#
# Static dielectric constant tensor:
#      x y z
#    x 2.070330 0.000000 0.000000 
#    y 0.000000 2.074680 0.000000 
#    z 0.000000 0.000000 1.981520 
# 
# From -- ./inp_files/2761.got.cif
#   From: 2010.05.17/outbox.cif.g08.bks.cpg/sg44_2_cif.got.tgz:2761.got - 2010.06.03 19:37:08.
