data_PCOD9375504
_publ_section_title
;
Structure prediction by ZEFSAII (Michael W. Deem and Ramdas Pophale) SiO2 
 PCOD9375504
Probable space group: I M M 2
;
_chemical_formula_sum "Si O2"
_cell_formula_units_Z 56
_cell_length_a 16.680005
_cell_length_b 13.741811
_cell_length_c 10.843145
_cell_angle_alpha 90.000000
_cell_angle_beta 90.000000
_cell_angle_gamma 90.000000
_cell_volume 2485.394958
_symmetry_space_group_name_H-M "I M M 2"
_symmetry_group_IT_number 44
_symmetry_cell_setting 'orthorhombic'
loop_
_space_group_symop_operation_xyz
x,y,z
-x,-y,z
-x,y,z
x,-y,z
1/2+x,1/2+y,1/2+z
1/2-x,1/2-y,1/2+z
1/2-x,1/2+y,1/2+z
1/2+x,1/2-y,1/2+z
loop_
_atom_site_type_symbol
_atom_site_label
_atom_site_fract_x
_atom_site_fract_y
_atom_site_fract_z
Si Si1 0.673386 0.202818 0.862250
Si Si2 0.344947 0.195719 0.599403
Si Si3 0.341044 0.386088 0.283500
Si Si4 0.906121 0.391499 0.858929
Si Si5 0.173261 0.113557 0.516717
Si Si6 0.907953 0.383065 0.597303
Si Si7 0.909017 0.888369 0.043683
O O1 0.628818 0.169812 0.737377
O O2 0.765649 0.179670 0.827006
O O3 0.657404 0.314064 0.903712
O O4 0.646347 0.145439 0.982836
O O5 0.398997 0.166271 0.484590
O O6 0.262058 0.144101 0.563603
O O7 0.345416 0.312663 0.597883
O O8 0.312738 0.500000 0.279179
O O9 0.403390 0.380341 0.394973
O O10 0.373961 0.367130 0.145530
O O11 0.872037 0.500000 0.878940
O O12 0.874154 0.348463 0.730433
O O13 0.000000 0.400440 0.832335
O O14 0.167453 0.000000 0.485184
O O15 0.909749 0.500000 0.607187
O O16 0.000000 0.349292 0.576065
O O17 0.000000 0.865342 0.083519
O O18 0.891090 0.000000 0.075744
#
# Coordination Sequence:
#
# PCOD9375504 Si02
#       7
#     8   8   8   8   8   8   8
#     4  11  22  36  61  89 121 160 198 249 314 356
#     4  11  22  37  58  88 120 154 198 247 302 358
#     4   9  19  38  60  87 119 151 201 254 299 357
#     4   9  19  36  58  85 119 159 200 244 295 357
#     4  10  22  39  58  83 120 158 197 248 303 361
#     4   9  20  38  59  87 122 159 203 252 302 361
#     4  10  21  38  61  87 119 157 199 251 301 354
#
# _framework density 22.531631000000001
#
# number of rings (size 3 to 8) (size 9 to 14) (size 15 to 20)
#    0.000    2.143    1.429    2.143    2.000    3.429 
#    0.000    1.429    0.000    0.429    0.000    0.000 
#    0.000    0.000    0.000    0.000    0.000    0.000 
#
# Total GULP energy -156172.567236 kJ/mol
# GULP energy per Si atom -5577.591687 kJ/mol
# Density = 2.248035 g / cm^3
# Si number density = 22.531631 Si / 1000 Ang^3
#
#
#
# Elastic Constant Matrix: (Units=GPa)
#
#
# Indices 1 2 3 4 5 6 
#
# 1 19.3043 4.7552 11.7994 0.0000 0.0000 0.0000
# 2 4.7552 92.4503 30.4922 0.0000 0.0000 0.0000
# 3 11.7994 30.4922 162.7295 0.0000 0.0000 0.0000
# 4 0.0000 0.0000 0.0000 29.9770 0.0000 0.0000
# 5 0.0000 0.0000 0.0000 0.0000 24.0205 0.0000
# 6 0.0000 0.0000 0.0000 0.0000 0.0000 19.5031
#
#
#
# Elastic Compliance Matrix: (Units=1/GPa)
#
#
# Indices 1 2 3 4 5 6 
#
# 1 0.054425 -0.001596 -0.003647 0.000000 0.000000 0.000000
# 2 -0.001596 0.011576 -0.002053 0.000000 0.000000 0.000000
# 3 -0.003647 -0.002053 0.006794 0.000000 0.000000 0.000000
# 4 0.000000 0.000000 0.000000 0.033359 0.000000 0.000000
# 5 0.000000 0.000000 0.000000 0.000000 0.041631 0.000000
# 6 0.000000 0.000000 0.000000 0.000000 0.000000 0.051274
#
#
# Mechanical properties :
#
#
# Convention : Reuss Voigt Hill
#
# Bulk Modulus (GPa) = 17.18181 40.95306 29.06744
# Shear Modulus (GPa) = 21.45434 29.86260 25.65847
#
# Velocity S-wave (km/s) = 3.08910 3.64450 3.37824
# Velocity P-wave (km/s) = 4.51283 5.99376 5.30522
#
# Compressibility (1/GPa) = 0.05820108
#
# Stress axis : x y z
#
# Youngs Moduli (GPa) = 18.37406 86.38579 147.18054
#
# Poissons Ratio (x) = 0.13791 0.53679
# Poissons Ratio (y) = 0.02933 0.30221
# Poissons Ratio (z) = 0.06701 0.17738
#
# Static dielectric constant tensor:
#      x y z
#    x 1.822380 0.000000 0.000000 
#    y 0.000000 1.897690 0.000000 
#    z 0.000000 0.000000 1.893600 
# 
# From -- ./inp_files/7405.got.cif
#   From: 2010.05.17/outbox.cif.g08.bks.cpg/sg44_4_cif.got.tgz:7405.got - 2010.06.03 19:37:08.
