data_PCOD9375772
_publ_section_title
;
Structure prediction by ZEFSAII (Michael W. Deem and Ramdas Pophale) SiO2 
 PCOD9375772
Probable space group: I M M 2
;
_chemical_formula_sum "Si O2"
_cell_formula_units_Z 34
_cell_length_a 7.726090
_cell_length_b 22.694268
_cell_length_c 8.902962
_cell_angle_alpha 90.000000
_cell_angle_beta 90.000000
_cell_angle_gamma 90.000000
_cell_volume 1561.027169
_symmetry_space_group_name_H-M "I M M 2"
_symmetry_group_IT_number 44
_symmetry_cell_setting 'orthorhombic'
loop_
_space_group_symop_operation_xyz
x,y,z
-x,-y,z
-x,y,z
x,-y,z
1/2+x,1/2+y,1/2+z
1/2-x,1/2-y,1/2+z
1/2-x,1/2+y,1/2+z
1/2+x,1/2-y,1/2+z
loop_
_atom_site_type_symbol
_atom_site_label
_atom_site_fract_x
_atom_site_fract_y
_atom_site_fract_z
Si Si1 0.303080 0.906858 0.512810
Si Si2 0.500000 0.500000 0.086265
Si Si3 0.799223 0.065957 0.182848
Si Si4 0.800352 0.671650 0.484327
Si Si5 0.707126 0.215885 0.665045
O O1 0.500000 0.919884 0.566508
O O2 0.299517 0.915402 0.332981
O O3 0.264917 0.839164 0.554489
O O4 0.154690 0.948874 0.578382
O O5 0.782990 0.113447 0.052595
O O6 0.000000 0.063067 0.229701
O O7 0.746265 0.000000 0.136685
O O8 0.787564 0.724466 0.603334
O O9 0.726794 0.695924 0.328115
O O10 0.000000 0.656746 0.456533
O O11 0.500000 0.226483 0.675670
#
# Coordination Sequence:
#
# PCOD9375772 Si02
#       5
#     8   2   8   8   8
#     4  11  22  41  68  96 135 173 217 268 323 380
#     4  12  22  40  64 104 132 176 216 266 308 410
#     4  11  22  41  63  95 130 170 218 267 320 392
#     4  11  24  41  65  92 128 168 216 274 330 387
#     4  10  24  44  63  93 126 168 219 271 326 389
#
# _framework density 21.780529999999999
#
# number of rings (size 3 to 8) (size 9 to 14) (size 15 to 20)
#    0.000    1.176    2.353    3.176    1.647    7.059 
#    2.118    0.000    0.000    0.000    0.000    0.000 
#    0.000    0.000    0.000    0.000    0.000    0.000 
#
# Total GULP energy -94790.057863 kJ/mol
# GULP energy per Si atom -5575.885757 kJ/mol
# Density = 2.173096 g / cm^3
# Si number density = 21.780530 Si / 1000 Ang^3
#
#
#
# Elastic Constant Matrix: (Units=GPa)
#
#
# Indices 1 2 3 4 5 6 
#
# 1 87.8599 14.5204 4.9644 0.0006 0.0001 0.0001
# 2 14.5204 142.8591 66.9099 0.0005 0.0000 0.0001
# 3 4.9644 66.9099 71.4197 0.0015 -0.0001 0.0004
# 4 0.0006 0.0005 0.0015 2.2878 0.0001 -0.0003
# 5 0.0001 0.0000 -0.0001 0.0001 18.8874 -0.0002
# 6 0.0001 0.0001 0.0004 -0.0003 -0.0002 31.7376
#
#
#
# Elastic Compliance Matrix: (Units=1/GPa)
#
#
# Indices 1 2 3 4 5 6 
#
# 1 0.011588 -0.001426 0.000531 -0.000003 0.000000 0.000000
# 2 -0.001426 0.012648 -0.011751 0.000005 0.000000 0.000000
# 3 0.000531 -0.011751 0.024973 -0.000014 0.000000 0.000000
# 4 -0.000003 0.000005 -0.000014 0.437096 -0.000002 0.000004
# 5 0.000000 0.000000 0.000000 -0.000002 0.052945 0.000000
# 6 0.000000 0.000000 0.000000 0.000004 0.000000 0.031508
#
#
# Mechanical properties :
#
#
# Convention : Reuss Voigt Hill
#
# Bulk Modulus (GPa) = 41.81100 52.76978 47.29039
# Shear Modulus (GPa) = 8.27782 24.96548 16.62165
#
# Velocity S-wave (km/s) = 1.95162 3.38927 2.76550
# Velocity P-wave (km/s) = 4.93119 6.29260 5.65302
#
# Compressibility (1/GPa) = 0.02391715
#
# Stress axis : x y z
#
# Youngs Moduli (GPa) = 86.29988 79.06117 40.04253
#
# Poissons Ratio (x) = 0.11278 -0.02126
# Poissons Ratio (y) = 0.12310 0.47052
# Poissons Ratio (z) = -0.04582 0.92902
#
# Static dielectric constant tensor:
#      x y z
#    x 1.795640 0.000000 0.000000 
#    y 0.000000 1.754490 0.000000 
#    z 0.000000 0.000000 1.808670 
# 
# From -- ./inp_files/4293.got.cif
#   From: 2010.05.17/outbox.cif.g08.bks.cpg/sg44_3_cif.got.tgz:4293.got - 2010.06.03 19:37:08.
