data_PCOD9375610
_publ_section_title
;
Structure prediction by ZEFSAII (Michael W. Deem and Ramdas Pophale) SiO2 
 PCOD9375610
Probable space group: I M M 2
;
_chemical_formula_sum "Si O2"
_cell_formula_units_Z 40
_cell_length_a 13.897468
_cell_length_b 14.370184
_cell_length_c 9.595555
_cell_angle_alpha 90.000000
_cell_angle_beta 90.000000
_cell_angle_gamma 90.000000
_cell_volume 1916.320347
_symmetry_space_group_name_H-M "I M M 2"
_symmetry_group_IT_number 44
_symmetry_cell_setting 'orthorhombic'
loop_
_space_group_symop_operation_xyz
x,y,z
-x,-y,z
-x,y,z
x,-y,z
1/2+x,1/2+y,1/2+z
1/2-x,1/2-y,1/2+z
1/2-x,1/2+y,1/2+z
1/2+x,1/2-y,1/2+z
loop_
_atom_site_type_symbol
_atom_site_label
_atom_site_fract_x
_atom_site_fract_y
_atom_site_fract_z
Si Si1 0.401319 0.000000 0.005291
Si Si2 0.606306 0.852495 0.476771
Si Si3 0.884475 0.000000 0.687999
Si Si4 0.732209 0.500000 0.908198
Si Si5 0.198295 0.000000 0.106747
Si Si6 0.817472 0.835940 0.887927
Si Si7 0.893347 0.320208 0.308905
O O1 0.500000 0.000000 0.086433
O O2 0.313685 0.000000 0.107688
O O3 0.398067 0.913519 0.901169
O O4 0.500000 0.891468 0.448636
O O5 0.613152 0.750138 0.410782
O O6 0.614752 0.841793 0.644903
O O7 0.694528 0.913586 0.423032
O O8 0.841900 0.000000 0.534769
O O9 0.843496 0.092438 0.764718
O O10 0.000000 0.000000 0.695962
O O11 0.671034 0.500000 0.766335
O O12 0.174774 0.093842 0.020929
O O13 0.712307 0.788387 0.860651
O O14 0.000000 0.273475 0.329392
#
# Coordination Sequence:
#
# PCOD9375610 Si02
#       7
#     4   8   4   4   4   8   8
#     4   8  14  30  56  86 122 157 199 247 307 373
#     4  11  23  38  64  94 124 164 209 261 316 370
#     4  11  23  44  67  91 124 172 217 254 315 389
#     4  12  24  40  62  94 133 159 201 272 316 376
#     4   9  22  36  61  91 123 162 200 253 319 362
#     4  10  21  42  65  91 125 170 211 258 308 383
#     4   9  17  33  60  90 117 158 209 253 304 366
#
# _framework density 20.873338
#
# number of rings (size 3 to 8) (size 9 to 14) (size 15 to 20)
#    0.000    2.000    2.000    2.100    2.800    2.400 
#    0.000    4.000    0.000    0.000    0.000    0.000 
#    0.000    0.000    0.000    0.000    0.000    0.000 
#
# Total GULP energy -111426.680498 kJ/mol
# GULP energy per Si atom -5571.334025 kJ/mol
# Density = 2.082583 g / cm^3
# Si number density = 20.873338 Si / 1000 Ang^3
#
#
#
# Elastic Constant Matrix: (Units=GPa)
#
#
# Indices 1 2 3 4 5 6 
#
# 1 93.8339 29.4638 15.1126 0.0000 0.0000 0.0000
# 2 29.4638 75.6953 20.9605 0.0000 0.0000 0.0000
# 3 15.1126 20.9605 118.5759 0.0000 0.0000 0.0000
# 4 0.0000 0.0000 0.0000 6.8090 0.0000 0.0000
# 5 0.0000 0.0000 0.0000 0.0000 0.0886 0.0000
# 6 0.0000 0.0000 0.0000 0.0000 0.0000 13.7414
#
#
#
# Elastic Compliance Matrix: (Units=1/GPa)
#
#
# Indices 1 2 3 4 5 6 
#
# 1 0.012205 -0.004542 -0.000753 0.000000 0.000000 0.000000
# 2 -0.004542 0.015581 -0.002175 0.000000 0.000000 0.000000
# 3 -0.000753 -0.002175 0.008914 0.000000 0.000000 0.000000
# 4 0.000000 0.000000 0.000000 0.146864 0.000000 0.000000
# 5 0.000000 0.000000 0.000000 0.000000 11.287490 0.000000
# 6 0.000000 0.000000 0.000000 0.000000 0.000000 0.072773
#
#
# Mechanical properties :
#
#
# Convention : Reuss Voigt Hill
#
# Bulk Modulus (GPa) = 45.95696 46.57543 46.26620
# Shear Modulus (GPa) = 0.43230 18.96569 9.69899
#
# Velocity S-wave (km/s) = 0.45558 3.01758 2.15793
# Velocity P-wave (km/s) = 4.72669 5.87392 5.33125
#
# Compressibility (1/GPa) = 0.02175949
#
# Stress axis : x y z
#
# Youngs Moduli (GPa) = 81.93660 64.17986 112.18477
#
# Poissons Ratio (x) = 0.29151 0.08443
# Poissons Ratio (y) = 0.37217 0.24404
# Poissons Ratio (z) = 0.06166 0.13961
#
# Static dielectric constant tensor:
#      x y z
#    x 1.805150 0.000000 0.000000 
#    y 0.000000 1.730340 0.000000 
#    z 0.000000 0.000000 1.744580 
# 
# From -- ./inp_files/6862.got.cif
#   From: 2010.05.17/outbox.cif.g08.bks.cpg/sg44_4_cif.got.tgz:6862.got - 2010.06.03 19:37:08.
