data_PCOD9375060
_publ_section_title
;
Structure prediction by ZEFSAII (Michael W. Deem and Ramdas Pophale) SiO2 
 PCOD9375060
Probable space group: I M M 2
;
_chemical_formula_sum "Si O2"
_cell_formula_units_Z 48
_cell_length_a 14.400252
_cell_length_b 19.449718
_cell_length_c 8.062132
_cell_angle_alpha 90.000000
_cell_angle_beta 90.000000
_cell_angle_gamma 90.000000
_cell_volume 2258.048707
_symmetry_space_group_name_H-M "I M M 2"
_symmetry_group_IT_number 44
_symmetry_cell_setting 'orthorhombic'
loop_
_space_group_symop_operation_xyz
x,y,z
-x,-y,z
-x,y,z
x,-y,z
1/2+x,1/2+y,1/2+z
1/2-x,1/2-y,1/2+z
1/2-x,1/2+y,1/2+z
1/2+x,1/2-y,1/2+z
loop_
_atom_site_type_symbol
_atom_site_label
_atom_site_fract_x
_atom_site_fract_y
_atom_site_fract_z
Si Si1 0.702656 0.650790 0.519570
Si Si2 0.890636 0.153236 0.676105
Si Si3 0.604048 0.201695 0.025599
Si Si4 0.396289 0.777568 0.645086
Si Si5 0.894835 0.422566 0.988304
Si Si6 0.694076 0.579777 0.854163
O O1 0.661737 0.630393 0.342627
O O2 0.813521 0.647649 0.527194
O O3 0.676225 0.730872 0.549221
O O4 0.663377 0.611281 0.678882
O O5 0.881861 0.235912 0.653718
O O6 0.847931 0.118369 0.512907
O O7 0.000000 0.137894 0.686587
O O8 0.500000 0.173945 0.046628
O O9 0.609139 0.234318 0.841039
O O10 0.500000 0.757858 0.587248
O O11 0.385372 0.858624 0.613027
O O12 0.888263 0.500000 0.060989
O O13 0.806527 0.415354 0.869039
O O14 0.000000 0.416859 0.917215
O O15 0.668622 0.500000 0.862832
#
# Coordination Sequence:
#
# PCOD9375060 Si02
#       6
#     8   8   8   8   8   8
#     4  12  23  39  65  96 129 168 216 271 321 381
#     4  11  25  43  64  94 130 167 216 272 322 380
#     4  10  21  37  60  95 132 165 207 265 325 379
#     4  10  20  36  62  94 128 168 214 266 318 379
#     4   9  19  37  63  97 134 172 212 257 320 393
#     4  11  25  44  66  92 130 176 218 266 324 384
#
# _framework density 21.257293000000001
#
# number of rings (size 3 to 8) (size 9 to 14) (size 15 to 20)
#    0.000    1.500    1.667    3.500    2.333    2.333 
#    0.000    0.833    0.000    1.000    0.000    4.667 
#    0.000    0.000    0.000    0.000    0.000    0.000 
#
# Total GULP energy -134036.650719 kJ/mol
# GULP energy per Si atom -5584.860447 kJ/mol
# Density = 2.120891 g / cm^3
# Si number density = 21.257293 Si / 1000 Ang^3
#
#
#
# Elastic Constant Matrix: (Units=GPa)
#
#
# Indices 1 2 3 4 5 6 
#
# 1 112.4957 26.2972 50.4964 0.0000 0.0000 0.0000
# 2 26.2972 50.1449 35.4017 0.0000 0.0000 0.0000
# 3 50.4964 35.4017 140.6207 0.0000 0.0000 0.0000
# 4 0.0000 0.0000 0.0000 14.7363 0.0000 0.0000
# 5 0.0000 0.0000 0.0000 0.0000 20.2144 0.0000
# 6 0.0000 0.0000 0.0000 0.0000 0.0000 18.5898
#
#
#
# Elastic Compliance Matrix: (Units=1/GPa)
#
#
# Indices 1 2 3 4 5 6 
#
# 1 0.011125 -0.003665 -0.003072 0.000000 0.000000 0.000000
# 2 -0.003665 0.025460 -0.005094 0.000000 0.000000 0.000000
# 3 -0.003072 -0.005094 0.009497 0.000000 0.000000 0.000000
# 4 0.000000 0.000000 0.000000 0.067860 0.000000 0.000000
# 5 0.000000 0.000000 0.000000 0.000000 0.049470 0.000000
# 6 0.000000 0.000000 0.000000 0.000000 0.000000 0.053793
#
#
# Mechanical properties :
#
#
# Convention : Reuss Voigt Hill
#
# Bulk Modulus (GPa) = 44.60270 58.62801 51.61535
# Shear Modulus (GPa) = 20.13366 23.44582 21.78974
#
# Velocity S-wave (km/s) = 3.08090 3.32468 3.20511
# Velocity P-wave (km/s) = 5.80378 6.50984 6.16692
#
# Compressibility (1/GPa) = 0.02242017
#
# Stress axis : x y z
#
# Youngs Moduli (GPa) = 89.88702 39.27678 105.29792
#
# Poissons Ratio (x) = 0.14396 0.32350
# Poissons Ratio (y) = 0.32946 0.53634
# Poissons Ratio (z) = 0.27615 0.20006
#
# Static dielectric constant tensor:
#      x y z
#    x 1.812090 0.000000 0.000000 
#    y 0.000000 1.741780 0.000000 
#    z 0.000000 0.000000 1.753690 
# 
# From -- ./inp_files/7119.got.cif
#   From: 2010.05.17/outbox.cif.g08.bks.cpg/sg44_4_cif.got.tgz:7119.got - 2010.06.03 19:37:08.
