data_PCOD9375904
_publ_section_title
;
Structure prediction by ZEFSAII (Michael W. Deem and Ramdas Pophale) SiO2 
 PCOD9375904
Probable space group: I M M 2
;
_chemical_formula_sum "Si O2"
_cell_formula_units_Z 48
_cell_length_a 34.223515
_cell_length_b 7.373452
_cell_length_c 7.258664
_cell_angle_alpha 90.000000
_cell_angle_beta 90.000000
_cell_angle_gamma 90.000000
_cell_volume 1831.690798
_symmetry_space_group_name_H-M "I M M 2"
_symmetry_group_IT_number 44
_symmetry_cell_setting 'orthorhombic'
loop_
_space_group_symop_operation_xyz
x,y,z
-x,-y,z
-x,y,z
x,-y,z
1/2+x,1/2+y,1/2+z
1/2-x,1/2-y,1/2+z
1/2-x,1/2+y,1/2+z
1/2+x,1/2-y,1/2+z
loop_
_atom_site_type_symbol
_atom_site_label
_atom_site_fract_x
_atom_site_fract_y
_atom_site_fract_z
Si Si1 0.125532 0.713177 0.477150
Si Si2 0.627581 0.293331 0.408775
Si Si3 0.204208 0.705211 0.391321
Si Si4 0.457124 0.721092 0.404197
Si Si5 0.790712 0.221942 0.817031
Si Si6 0.041263 0.782970 0.469321
O O1 0.132606 0.500000 0.503275
O O2 0.124432 0.798073 0.682263
O O3 0.161284 0.785323 0.352631
O O4 0.082848 0.729739 0.390579
O O5 0.628144 0.500000 0.474023
O O6 0.585713 0.212373 0.468694
O O7 0.671579 0.216920 0.435652
O O8 0.206089 0.500000 0.318470
O O9 0.202275 0.710481 0.612113
O O10 0.246760 0.787591 0.356380
O O11 0.500000 0.777985 0.477073
O O12 0.456275 0.500000 0.419821
O O13 0.458120 0.766150 0.186004
O O14 0.790824 0.000000 0.825001
O O15 0.000000 0.715008 0.393244
O O16 0.040446 0.000000 0.458389
#
# Coordination Sequence:
#
# PCOD9375904 Si02
#       6
#     8   8   8   8   8   8
#     4   9  15  22  33  50  74 100 124 158 203 242
#     4   8  13  22  35  49  68  98 131 158 190 237
#     4   9  18  30  42  60  85 109 137 176 215 248
#     4   7   9  14  26  44  64  86 114 147 180 217
#     4   9  17  29  44  60  80 109 142 173 207 249
#     4   8  13  21  32  46  67  96 128 158 187 228
#
# _framework density 26.205293999999999
#
# number of rings (size 3 to 8) (size 9 to 14) (size 15 to 20)
#    0.000    3.667    0.000    2.500    0.000    1.667 
#    0.000    0.000    0.000    0.000    0.000    0.000 
#    0.000    1.333    0.000    5.667    0.000   16.000 
#
# Total GULP energy -133685.204628 kJ/mol
# GULP energy per Si atom -5570.216859 kJ/mol
# Density = 2.614565 g / cm^3
# Si number density = 26.205294 Si / 1000 Ang^3
#
#
#
# Elastic Constant Matrix: (Units=GPa)
#
#
# Indices 1 2 3 4 5 6 
#
# 1 311.9725 32.6833 -9.9606 0.0000 0.0000 0.0000
# 2 32.6833 103.2887 5.8668 0.0000 0.0000 0.0000
# 3 -9.9606 5.8668 72.8481 0.0000 0.0000 0.0000
# 4 0.0000 0.0000 0.0000 6.5923 0.0000 0.0000
# 5 0.0000 0.0000 0.0000 0.0000 0.3975 0.0000
# 6 0.0000 0.0000 0.0000 0.0000 0.0000 16.2255
#
#
#
# Elastic Compliance Matrix: (Units=1/GPa)
#
#
# Indices 1 2 3 4 5 6 
#
# 1 0.003337 -0.001087 0.000544 0.000000 0.000000 0.000000
# 2 -0.001087 0.010080 -0.000960 0.000000 0.000000 0.000000
# 3 0.000544 -0.000960 0.013879 0.000000 0.000000 0.000000
# 4 0.000000 0.000000 0.000000 0.151692 0.000000 0.000000
# 5 0.000000 0.000000 0.000000 0.000000 2.515764 0.000000
# 6 0.000000 0.000000 0.000000 0.000000 0.000000 0.061631
#
#
# Mechanical properties :
#
#
# Convention : Reuss Voigt Hill
#
# Bulk Modulus (GPa) = 41.17112 60.58759 50.87936
# Shear Modulus (GPa) = 1.80669 35.27772 18.54221
#
# Velocity S-wave (km/s) = 0.83123 3.67305 2.66291
# Velocity P-wave (km/s) = 4.08244 6.41552 5.37705
#
# Compressibility (1/GPa) = 0.02428887
#
# Stress axis : x y z
#
# Youngs Moduli (GPa) = 299.70493 99.20626 72.05191
#
# Poissons Ratio (x) = 0.10781 -0.03918
# Poissons Ratio (y) = 0.32568 0.06920
# Poissons Ratio (z) = -0.16296 0.09528
#
# Static dielectric constant tensor:
#      x y z
#    x 2.299830 0.000000 0.000000 
#    y 0.000000 1.954580 0.000000 
#    z 0.000000 0.000000 2.094090 
# 
# From -- ./inp_files/11339.got.cif
#   From: 2010.05.17/outbox.cif.g08.bks.cpg/sg44_6_cif.got.tgz:11339.got - 2010.06.03 19:37:08.
