data_PCOD9375947
_publ_section_title
;
Structure prediction by ZEFSAII (Michael W. Deem and Ramdas Pophale) SiO2 
 PCOD9375947
Probable space group: I M M 2
;
_chemical_formula_sum "Si O2"
_cell_formula_units_Z 32
_cell_length_a 9.000000
_cell_length_b 15.000000
_cell_length_c 24.000000
_cell_angle_alpha 90.000000
_cell_angle_beta 90.000000
_cell_angle_gamma 90.000000
_cell_volume 3240.000000
_symmetry_space_group_name_H-M "I M M 2"
_symmetry_group_IT_number 44
_symmetry_cell_setting 'orthorhombic'
loop_
_space_group_symop_operation_xyz
x,y,z
-x,-y,z
-x,y,z
x,-y,z
1/2+x,1/2+y,1/2+z
1/2-x,1/2-y,1/2+z
1/2-x,1/2+y,1/2+z
1/2+x,1/2-y,1/2+z
loop_
_atom_site_type_symbol
_atom_site_label
_atom_site_fract_x
_atom_site_fract_y
_atom_site_fract_z
Si Si1 0.173207 0.357441 0.899870
Si Si2 0.180809 0.099791 0.748047
Si Si3 0.681436 0.902163 0.522956
Si Si4 0.679270 0.230043 0.186743
Si Si5 0.830609 0.601216 0.483660
Si Si6 0.680435 0.903635 0.280955
Si Si7 0.823316 0.780154 0.073839
Si Si8 0.172152 0.147351 0.874361
O O1 0.239955 0.397147 0.843620
O O2 0.175150 0.251781 0.889681
O O3 0.000000 0.385986 0.901931
O O4 0.235134 0.384263 0.959663
O O5 0.228559 0.169805 0.701442
O O6 0.219721 0.130627 0.810832
O O7 0.000000 0.099981 0.747332
O O8 0.234087 0.000000 0.738512
O O9 0.500000 0.899696 0.521765
O O10 0.728328 0.820607 0.561013
O O11 0.728037 0.000000 0.541425
O O12 0.500000 0.227109 0.183258
O O13 0.728663 0.173190 0.240027
O O14 0.746982 0.191687 0.130784
O O15 0.825962 0.500000 0.504389
O O16 0.726271 0.661435 0.521552
O O17 0.773917 0.602371 0.420384
O O18 0.000000 0.633880 0.486499
O O19 0.500000 0.895259 0.285138
O O20 0.714141 0.000000 0.256813
O O21 0.000000 0.782498 0.079009
O O22 0.000000 0.117244 0.879455
#
# Coordination Sequence:
#
# PCOD9375947 Si02
#       8
#     8   8   8   8   8   8   8   8
#     4   9  14  25  49  81 110 136 170 213 265 322
#     4   9  17  30  52  81 111 145 184 226 272 324
#     4   9  17  30  51  80 111 138 170 220 275 325
#     4  10  20  35  53  75 107 144 186 229 270 320
#     4  11  24  40  58  82 112 146 183 226 282 342
#     4   9  16  27  48  78 108 136 169 214 265 316
#     4  11  23  39  58  80 107 143 190 235 279 327
#     4  10  17  31  57  87 114 143 182 227 275 326
#
# _framework density 9.8765429999999999
#
# number of rings (size 3 to 8) (size 9 to 14) (size 15 to 20)
#    0.000    2.250    2.500    1.500    0.000    4.000 
#    0.000    1.875    0.000    1.875    0.000    0.000 
#    0.000    0.000    0.000    0.000    0.000    0.000 
#
# Total GULP energy -178364.705237 kJ/mol
# GULP energy per Si atom -5573.897039 kJ/mol
# Density = 0.985406 g / cm^3
# Si number density = 9.876543 Si / 1000 Ang^3
#
#
#
# Elastic Constant Matrix: (Units=GPa)
#
#
# Indices 1 2 3 4 5 6 
#
# 1 15.5044 8.6255 9.3646 0.0000 0.0000 0.0000
# 2 8.6255 58.9327 2.5730 0.0000 0.0000 0.0000
# 3 9.3646 2.5730 57.6605 0.0000 0.0000 0.0000
# 4 0.0000 0.0000 0.0000 -14.7271 0.0000 0.0000
# 5 0.0000 0.0000 0.0000 0.0000 16.0419 0.0000
# 6 0.0000 0.0000 0.0000 0.0000 0.0000 11.6444
#
#
#
# Elastic Compliance Matrix: (Units=1/GPa)
#
#
# Indices 1 2 3 4 5 6 
#
# 1 0.077893 -0.010869 -0.012165 0.000000 0.000000 0.000000
# 2 -0.010869 0.018518 0.000939 0.000000 0.000000 0.000000
# 3 -0.012165 0.000939 0.019277 0.000000 0.000000 0.000000
# 4 0.000000 0.000000 0.000000 -0.067902 0.000000 0.000000
# 5 0.000000 0.000000 0.000000 0.000000 0.062337 0.000000
# 6 0.000000 0.000000 0.000000 0.000000 0.000000 0.085878
#
#
# Mechanical properties :
#
#
# Convention : Reuss Voigt Hill
#
# Bulk Modulus (GPa) = 13.98678 19.24708 16.61693
# Shear Modulus (GPa) = 18.93762 10.02748 14.48255
#
# Velocity S-wave (km/s) = 3.09967 2.25553 2.71067
# Velocity P-wave (km/s) = 4.46171 4.06795 4.26937
#
# Compressibility (1/GPa) = 0.07149610
#
# Stress axis : x y z
#
# Youngs Moduli (GPa) = 12.83815 54.00035 51.87590
#
# Poissons Ratio (x) = 0.58695 0.63109
# Poissons Ratio (y) = 0.13954 -0.04871
# Poissons Ratio (z) = 0.15618 -0.05070
#
# Static dielectric constant tensor:
#      x y z
#    x 1.662990 0.000000 0.000000 
#    y 0.000000 1.743130 0.000000 
#    z 0.000000 0.000000 1.665730 
# 
# From -- ./inp_files/25082.got.cif
#   From: 2010.05.17/outbox.ucp.g08.bks.cvg/sg44_13_cif.got.tgz:25082.got - 2010.06.11 16:32:36.
