data_PCOD9375226
_publ_section_title
;
Structure prediction by ZEFSAII (Michael W. Deem and Ramdas Pophale) SiO2 
 PCOD9375226
Probable space group: I M M 2
;
_chemical_formula_sum "Si O2"
_cell_formula_units_Z 58
_cell_length_a 15.490853
_cell_length_b 7.592438
_cell_length_c 24.597290
_cell_angle_alpha 90.000000
_cell_angle_beta 90.000000
_cell_angle_gamma 90.000000
_cell_volume 2892.969456
_symmetry_space_group_name_H-M "I M M 2"
_symmetry_group_IT_number 44
_symmetry_cell_setting 'orthorhombic'
loop_
_space_group_symop_operation_xyz
x,y,z
-x,-y,z
-x,y,z
x,-y,z
1/2+x,1/2+y,1/2+z
1/2-x,1/2-y,1/2+z
1/2-x,1/2+y,1/2+z
1/2+x,1/2-y,1/2+z
loop_
_atom_site_type_symbol
_atom_site_label
_atom_site_fract_x
_atom_site_fract_y
_atom_site_fract_z
Si Si1 0.757522 0.710509 0.982200
Si Si2 0.657128 0.783524 0.368972
Si Si3 0.000000 0.000000 0.876580
Si Si4 0.756619 0.702093 0.757018
Si Si5 0.901256 0.796481 0.673624
Si Si6 0.597878 0.287543 0.689390
Si Si7 0.403230 0.792912 0.052420
Si Si8 0.402710 0.788928 0.564291
O O1 0.759741 0.500000 0.986851
O O2 0.781308 0.751571 0.920563
O O3 0.665184 0.764845 0.005182
O O4 0.832263 0.781528 0.022404
O O5 0.574883 0.657719 0.375545
O O6 0.704371 0.729973 0.313052
O O7 0.638595 0.000000 0.367833
O O8 0.734369 0.500000 0.769130
O O9 0.831942 0.705946 0.711823
O O10 0.671059 0.782725 0.729879
O O11 0.876036 0.788722 0.610195
O O12 0.000000 0.727564 0.678004
O O13 0.903003 0.000000 0.690703
O O14 0.500000 0.223487 0.699209
O O15 0.596436 0.500000 0.693341
O O16 0.620661 0.246421 0.626833
O O17 0.500000 0.728245 0.039459
O O18 0.407755 0.000000 0.063079
O O19 0.500000 0.720036 0.554605
O O20 0.406474 0.000000 0.557679
#
# Coordination Sequence:
#
# PCOD9375226 Si02
#       8
#     8   8   2   8   8   8   8   8
#     4  10  21  38  59  83 116 154 198 250 299 352
#     4  10  25  44  63  92 125 160 205 253 301 361
#     4  12  26  44  68  90 122 164 210 244 308 356
#     4  10  21  37  57  81 116 155 194 247 303 352
#     4  10  21  34  54  83 115 150 195 241 294 365
#     4   9  18  34  54  80 111 147 191 241 292 354
#     4  10  21  37  57  83 116 153 194 246 305 362
#     4   9  18  32  52  80 113 149 185 230 296 358
#
# _framework density 20.048604000000001
#
# number of rings (size 3 to 8) (size 9 to 14) (size 15 to 20)
#    0.000    2.207    0.000    1.862    3.862    4.966 
#    0.000    0.690    0.000    2.483    0.000    0.000 
#    0.000    0.000    0.000    0.000    0.000    0.000 
#
# Total GULP energy -161550.539662 kJ/mol
# GULP energy per Si atom -5570.708264 kJ/mol
# Density = 2.000297 g / cm^3
# Si number density = 20.048604 Si / 1000 Ang^3
#
#
#
# Elastic Constant Matrix: (Units=GPa)
#
#
# Indices 1 2 3 4 5 6 
#
# 1 108.4412 14.9778 86.1698 0.0000 0.0000 0.0000
# 2 14.9778 60.7532 16.9719 0.0000 0.0000 0.0000
# 3 86.1698 16.9719 109.9916 0.0000 0.0000 0.0000
# 4 0.0000 0.0000 0.0000 19.3616 0.0000 0.0000
# 5 0.0000 0.0000 0.0000 0.0000 -14.1839 0.0000
# 6 0.0000 0.0000 0.0000 0.0000 0.0000 52.4215
#
#
#
# Elastic Compliance Matrix: (Units=1/GPa)
#
#
# Indices 1 2 3 4 5 6 
#
# 1 0.024459 -0.000708 -0.019052 0.000000 0.000000 0.000000
# 2 -0.000708 0.017222 -0.002103 0.000000 0.000000 0.000000
# 3 -0.019052 -0.002103 0.024342 0.000000 0.000000 0.000000
# 4 0.000000 0.000000 0.000000 0.051649 0.000000 0.000000
# 5 0.000000 0.000000 0.000000 0.000000 -0.070502 0.000000
# 6 0.000000 0.000000 0.000000 0.000000 0.000000 0.019076
#
#
# Mechanical properties :
#
#
# Convention : Reuss Voigt Hill
#
# Bulk Modulus (GPa) = 44.84918 57.26945 51.05931
# Shear Modulus (GPa) = 42.58817 22.25759 32.42288
#
# Velocity S-wave (km/s) = 4.61395 3.33555 4.02582
# Velocity P-wave (km/s) = 7.12766 6.59256 6.86533
#
# Compressibility (1/GPa) = 0.02229695
#
# Stress axis : x y z
#
# Youngs Moduli (GPa) = 40.88522 58.06527 41.08105
#
# Poissons Ratio (x) = 0.04108 0.78269
# Poissons Ratio (y) = 0.02893 0.08640
# Poissons Ratio (z) = 0.77896 0.12212
#
# Static dielectric constant tensor:
#      x y z
#    x 1.725720 0.000000 0.000000 
#    y 0.000000 1.756020 0.000000 
#    z 0.000000 0.000000 1.684130 
# 
# From -- ./inp_files/25026.got.cif
#   From: 2010.05.17/outbox.cif.g08.bks.cpg/sg44_13_cif.got.tgz:25026.got - 2010.06.03 19:37:08.
