data_PCOD9375628
_publ_section_title
;
Structure prediction by ZEFSAII (Michael W. Deem and Ramdas Pophale) SiO2 
 PCOD9375628
Probable space group: I M M 2
;
_chemical_formula_sum "Si O2"
_cell_formula_units_Z 64
_cell_length_a 9.529647
_cell_length_b 13.937640
_cell_length_c 24.191235
_cell_angle_alpha 90.000000
_cell_angle_beta 90.000000
_cell_angle_gamma 90.000000
_cell_volume 3213.098925
_symmetry_space_group_name_H-M "I M M 2"
_symmetry_group_IT_number 44
_symmetry_cell_setting 'orthorhombic'
loop_
_space_group_symop_operation_xyz
x,y,z
-x,-y,z
-x,y,z
x,-y,z
1/2+x,1/2+y,1/2+z
1/2-x,1/2-y,1/2+z
1/2-x,1/2+y,1/2+z
1/2+x,1/2-y,1/2+z
loop_
_atom_site_type_symbol
_atom_site_label
_atom_site_fract_x
_atom_site_fract_y
_atom_site_fract_z
Si Si1 0.660434 0.383433 0.450190
Si Si2 0.333395 0.798694 0.729003
Si Si3 0.338189 0.615738 0.006719
Si Si4 0.167182 0.783586 0.623216
Si Si5 0.165629 0.110102 0.291884
Si Si6 0.667579 0.386350 0.575846
Si Si7 0.660394 0.115667 0.846224
Si Si8 0.838685 0.383257 0.901064
O O1 0.500000 0.352158 0.444915
O O2 0.660025 0.500000 0.447999
O O3 0.708937 0.361972 0.512353
O O4 0.750210 0.349842 0.398332
O O5 0.500000 0.815070 0.719503
O O6 0.242194 0.827985 0.676653
O O7 0.312377 0.686147 0.743295
O O8 0.291599 0.851371 0.785816
O O9 0.500000 0.641581 0.993382
O O10 0.330904 0.500000 0.009562
O O11 0.304235 0.657811 0.066853
O O12 0.236276 0.648854 0.957556
O O13 0.239331 0.680323 0.614149
O O14 0.000000 0.777281 0.630491
O O15 0.252399 0.140509 0.345887
O O16 0.000000 0.112614 0.305718
O O17 0.201424 0.000000 0.277401
O O18 0.500000 0.367363 0.582107
O O19 0.687732 0.500000 0.584528
O O20 0.500000 0.149345 0.852429
O O21 0.660645 0.000000 0.847199
O O22 0.837165 0.500000 0.903028
O O23 0.000000 0.352979 0.897511
#
# Coordination Sequence:
#
# PCOD9375628 Si02
#       8
#     8   8   8   8   8   8   8   8
#     4   8  15  30  53  80 106 133 168 207 251 310
#     4  10  22  38  53  72 101 138 181 220 256 312
#     4   9  19  37  57  76 105 144 179 214 263 323
#     4  11  24  38  54  79 106 136 182 232 270 307
#     4   9  18  34  55  76 101 136 172 206 252 312
#     4   9  19  37  59  81 109 145 178 210 258 321
#     4   9  18  33  53  77 105 136 169 211 264 314
#     4   9  17  30  52  83 111 133 165 212 264 314
#
# _framework density 19.918465999999999
#
# number of rings (size 3 to 8) (size 9 to 14) (size 15 to 20)
#    0.000    2.750    0.000    1.500    0.000    6.250 
#    0.000    6.250    0.000    0.000    0.000    0.000 
#    0.000    0.000    0.000    0.000    0.000    0.000 
#
# Total GULP energy -178656.620614 kJ/mol
# GULP energy per Si atom -5583.019394 kJ/mol
# Density = 1.987313 g / cm^3
# Si number density = 19.918466 Si / 1000 Ang^3
#
#
#
# Elastic Constant Matrix: (Units=GPa)
#
#
# Indices 1 2 3 4 5 6 
#
# 1 60.2809 -1.0208 60.0466 0.0000 0.0000 0.0000
# 2 -1.0208 30.1775 -2.6374 0.0000 0.0000 0.0000
# 3 60.0466 -2.6374 102.1455 0.0000 0.0000 0.0000
# 4 0.0000 0.0000 0.0000 23.7094 0.0000 0.0000
# 5 0.0000 0.0000 0.0000 0.0000 40.0843 0.0000
# 6 0.0000 0.0000 0.0000 0.0000 0.0000 12.2231
#
#
#
# Elastic Compliance Matrix: (Units=1/GPa)
#
#
# Indices 1 2 3 4 5 6 
#
# 1 0.040043 -0.000704 -0.023558 0.000000 0.000000 0.000000
# 2 -0.000704 0.033225 0.001272 0.000000 0.000000 0.000000
# 3 -0.023558 0.001272 0.023671 0.000000 0.000000 0.000000
# 4 0.000000 0.000000 0.000000 0.042177 0.000000 0.000000
# 5 0.000000 0.000000 0.000000 0.000000 0.024947 0.000000
# 6 0.000000 0.000000 0.000000 0.000000 0.000000 0.081812
#
#
# Mechanical properties :
#
#
# Convention : Reuss Voigt Hill
#
# Bulk Modulus (GPa) = 19.62367 33.93117 26.77742
# Shear Modulus (GPa) = 16.18948 24.28441 20.23695
#
# Velocity S-wave (km/s) = 2.85404 3.49548 3.19092
# Velocity P-wave (km/s) = 4.55347 5.77609 5.20083
#
# Compressibility (1/GPa) = 0.05095886
#
# Stress axis : x y z
#
# Youngs Moduli (GPa) = 24.97303 30.09815 42.24526
#
# Poissons Ratio (x) = 0.02120 0.99520
# Poissons Ratio (y) = 0.01759 -0.05373
# Poissons Ratio (z) = 0.58831 -0.03828
#
# Static dielectric constant tensor:
#      x y z
#    x 1.674480 0.000000 0.000000 
#    y 0.000000 1.745570 0.000000 
#    z 0.000000 0.000000 1.679770 
# 
# From -- ./inp_files/25113.got.cif
#   From: 2010.05.17/outbox.cif.g08.bks.cpg/sg44_13_cif.got.tgz:25113.got - 2010.06.03 19:37:08.
