data_PCOD9375452
_publ_section_title
;
Structure prediction by ZEFSAII (Michael W. Deem and Ramdas Pophale) SiO2 
 PCOD9375452
Probable space group: I M M 2
;
_chemical_formula_sum "Si O2"
_cell_formula_units_Z 48
_cell_length_a 10.273250
_cell_length_b 8.262957
_cell_length_c 28.941376
_cell_angle_alpha 90.000000
_cell_angle_beta 90.000000
_cell_angle_gamma 90.000000
_cell_volume 2456.758827
_symmetry_space_group_name_H-M "I M M 2"
_symmetry_group_IT_number 44
_symmetry_cell_setting 'orthorhombic'
loop_
_space_group_symop_operation_xyz
x,y,z
-x,-y,z
-x,y,z
x,-y,z
1/2+x,1/2+y,1/2+z
1/2-x,1/2-y,1/2+z
1/2-x,1/2+y,1/2+z
1/2+x,1/2-y,1/2+z
loop_
_atom_site_type_symbol
_atom_site_label
_atom_site_fract_x
_atom_site_fract_y
_atom_site_fract_z
Si Si1 0.000000 0.695586 0.967931
Si Si2 0.748671 0.691047 0.411858
Si Si3 0.500000 0.197046 0.573579
Si Si4 0.000000 0.198143 0.575969
Si Si5 0.348330 0.807312 0.312855
Si Si6 0.500000 0.306474 0.968333
Si Si7 0.246180 0.302257 0.132439
Si Si8 0.348275 0.804698 0.733101
O O1 0.873874 0.763035 0.943069
O O2 0.000000 0.500000 0.965075
O O3 0.000000 0.747104 0.020923
O O4 0.759754 0.500000 0.405612
O O5 0.717291 0.766403 0.361968
O O6 0.874895 0.752298 0.439133
O O7 0.373541 0.249725 0.600847
O O8 0.500000 0.000000 0.573855
O O9 0.000000 0.252001 0.522119
O O10 0.124366 0.249966 0.605944
O O11 0.000000 0.000000 0.574469
O O12 0.500000 0.746285 0.310870
O O13 0.250999 0.742487 0.273604
O O14 0.355093 0.000000 0.308226
O O15 0.500000 0.500000 0.970737
O O16 0.249514 0.500000 0.133689
O O17 0.215082 0.248803 0.184535
O O18 0.500000 0.748726 0.738144
O O19 0.354636 0.000000 0.731643
#
# Coordination Sequence:
#
# PCOD9375452 Si02
#       8
#     4   8   4   4   8   4   8   8
#     4  11  21  37  64  95 124 161 206 255 308 365
#     4  12  25  42  64  91 125 163 206 257 312 374
#     4   9  16  29  54  85 118 153 196 249 298 353
#     4   9  18  31  54  89 122 157 206 255 298 351
#     4  11  25  44  65  88 118 159 209 259 312 375
#     4  11  23  41  64  93 128 167 212 259 308 363
#     4   9  16  30  52  86 123 155 197 250 302 356
#     4  10  21  37  61  94 128 159 198 252 313 370
#
# _framework density 19.537936999999999
#
# number of rings (size 3 to 8) (size 9 to 14) (size 15 to 20)
#    0.000    1.667    1.667    3.500    2.333    4.000 
#    0.000    0.000    0.000    6.000    0.000    0.000 
#    0.000    0.000    0.000    0.000    0.000    0.000 
#
# Total GULP energy -133992.567371 kJ/mol
# GULP energy per Si atom -5583.023640 kJ/mol
# Density = 1.949347 g / cm^3
# Si number density = 19.537937 Si / 1000 Ang^3
#
#
#
# Elastic Constant Matrix: (Units=GPa)
#
#
# Indices 1 2 3 4 5 6 
#
# 1 221.1506 12.5799 121.7616 0.0000 0.0000 0.0000
# 2 12.5799 21.5245 3.6847 0.0000 0.0000 0.0000
# 3 121.7616 3.6847 210.7022 0.0000 0.0000 0.0000
# 4 0.0000 0.0000 0.0000 23.6480 0.0000 0.0000
# 5 0.0000 0.0000 0.0000 0.0000 40.8914 0.0000
# 6 0.0000 0.0000 0.0000 0.0000 0.0000 21.2685
#
#
#
# Elastic Compliance Matrix: (Units=1/GPa)
#
#
# Indices 1 2 3 4 5 6 
#
# 1 0.006864 -0.003342 -0.003908 0.000000 0.000000 0.000000
# 2 -0.003342 0.048226 0.001088 0.000000 0.000000 0.000000
# 3 -0.003908 0.001088 0.006985 0.000000 0.000000 0.000000
# 4 0.000000 0.000000 0.000000 0.042287 0.000000 0.000000
# 5 0.000000 0.000000 0.000000 0.000000 0.024455 0.000000
# 6 0.000000 0.000000 0.000000 0.000000 0.000000 0.047018
#
#
# Mechanical properties :
#
#
# Convention : Reuss Voigt Hill
#
# Bulk Modulus (GPa) = 20.10026 81.04775 50.57400
# Shear Modulus (GPa) = 24.42093 38.18499 31.30296
#
# Velocity S-wave (km/s) = 3.53926 4.42566 4.00705
# Velocity P-wave (km/s) = 5.19730 8.22725 6.88112
#
# Compressibility (1/GPa) = 0.04975059
#
# Stress axis : x y z
#
# Youngs Moduli (GPa) = 145.69713 20.73571 143.15736
#
# Poissons Ratio (x) = 0.06931 0.55944
# Poissons Ratio (y) = 0.48698 -0.15578
# Poissons Ratio (z) = 0.56937 -0.02256
#
# Static dielectric constant tensor:
#      x y z
#    x 1.690700 0.000000 0.000000 
#    y 0.000000 1.692900 0.000000 
#    z 0.000000 0.000000 1.673770 
# 
# From -- ./inp_files/27049.got.cif
#   From: 2010.05.17/outbox.cif.g08.bks.cpg/sg44_14_cif.got.tgz:27049.got - 2010.06.03 19:37:08.
