data_PCOD9375276
_publ_section_title
;
Structure prediction by ZEFSAII (Michael W. Deem and Ramdas Pophale) SiO2 
 PCOD9375276
Probable space group: I M M 2
;
_chemical_formula_sum "Si O2"
_cell_formula_units_Z 58
_cell_length_a 7.892895
_cell_length_b 25.910207
_cell_length_c 13.650218
_cell_angle_alpha 90.000000
_cell_angle_beta 90.000000
_cell_angle_gamma 90.000000
_cell_volume 2791.558898
_symmetry_space_group_name_H-M "I M M 2"
_symmetry_group_IT_number 44
_symmetry_cell_setting 'orthorhombic'
loop_
_space_group_symop_operation_xyz
x,y,z
-x,-y,z
-x,y,z
x,-y,z
1/2+x,1/2+y,1/2+z
1/2-x,1/2-y,1/2+z
1/2-x,1/2+y,1/2+z
1/2+x,1/2-y,1/2+z
loop_
_atom_site_type_symbol
_atom_site_label
_atom_site_fract_x
_atom_site_fract_y
_atom_site_fract_z
Si Si1 0.701684 0.057425 0.058910
Si Si2 0.793491 0.769024 0.550477
Si Si3 0.687318 0.575304 0.955191
Si Si4 0.805858 0.814194 0.351674
Si Si5 0.196668 0.664115 0.639029
Si Si6 0.703265 0.441360 0.332531
Si Si7 0.500000 0.000000 0.416147
Si Si8 0.801498 0.624167 0.148902
O O1 0.500000 0.054593 0.078497
O O2 0.770917 0.107454 0.116235
O O3 0.771749 0.000000 0.083084
O O4 0.728999 0.065996 0.942848
O O5 0.736656 0.779088 0.439078
O O6 0.728796 0.713371 0.583460
O O7 0.742853 0.816545 0.621659
O O8 0.000000 0.769684 0.549725
O O9 0.500000 0.553662 0.937467
O O10 0.848778 0.543750 0.920715
O O11 0.706341 0.587976 0.070561
O O12 0.690542 0.629925 0.901280
O O13 0.706661 0.820193 0.251931
O O14 0.000000 0.798594 0.328493
O O15 0.000000 0.660882 0.608681
O O16 0.500000 0.440408 0.336610
O O17 0.755580 0.500000 0.301296
O O18 0.761918 0.397733 0.256521
O O19 0.000000 0.617829 0.130732
#
# Coordination Sequence:
#
# PCOD9375276 Si02
#       8
#     8   8   8   8   8   8   2   8
#     4   9  19  38  57  82 116 154 195 247 297 354
#     4   9  20  39  58  82 117 155 193 251 308 355
#     4  10  22  39  56  85 127 164 206 265 306 364
#     4   9  20  39  59  81 120 160 194 247 311 358
#     4  10  21  37  63  89 115 153 201 246 304 370
#     4  10  21  35  55  82 116 157 195 242 299 354
#     4  12  22  36  60  90 116 170 226 244 314 366
#     4  11  21  35  56  85 117 159 204 247 309 374
#
# _framework density 20.776921000000002
#
# number of rings (size 3 to 8) (size 9 to 14) (size 15 to 20)
#    0.000    2.207    0.690    2.690    1.931    3.586 
#    1.241    1.379    0.000    0.000    0.000    0.000 
#    0.000    0.000    0.000    0.000    0.000    0.000 
#
# Total GULP energy -161479.616763 kJ/mol
# GULP energy per Si atom -5568.262647 kJ/mol
# Density = 2.072963 g / cm^3
# Si number density = 20.776921 Si / 1000 Ang^3
#
#
#
# Elastic Constant Matrix: (Units=GPa)
#
#
# Indices 1 2 3 4 5 6 
#
# 1 80.8115 9.0731 -4.4249 0.0000 0.0000 0.0000
# 2 9.0731 116.8241 66.0899 0.0001 0.0000 0.0000
# 3 -4.4249 66.0899 71.1462 -0.0001 0.0000 0.0000
# 4 0.0000 0.0001 -0.0001 6.7390 0.0000 0.0000
# 5 0.0000 0.0000 0.0000 0.0000 22.1911 0.0000
# 6 0.0000 0.0000 0.0000 0.0000 0.0000 15.6333
#
#
#
# Elastic Compliance Matrix: (Units=1/GPa)
#
#
# Indices 1 2 3 4 5 6 
#
# 1 0.012920 -0.003073 0.003658 0.000000 0.000000 0.000000
# 2 -0.003073 0.018771 -0.017628 0.000000 0.000000 0.000000
# 3 0.003658 -0.017628 0.030658 0.000001 0.000000 0.000000
# 4 0.000000 0.000000 0.000001 0.148390 0.000000 0.000000
# 5 0.000000 0.000000 0.000000 0.000000 0.045063 0.000000
# 6 0.000000 0.000000 0.000000 0.000000 0.000000 0.063966
#
#
# Mechanical properties :
#
#
# Convention : Reuss Voigt Hill
#
# Bulk Modulus (GPa) = 35.38160 45.58420 40.48290
# Shear Modulus (GPa) = 13.76366 22.11560 17.93963
#
# Velocity S-wave (km/s) = 2.57660 3.26610 2.94162
# Velocity P-wave (km/s) = 5.09098 6.01753 5.57354
#
# Compressibility (1/GPa) = 0.02826328
#
# Stress axis : x y z
#
# Youngs Moduli (GPa) = 77.40080 53.27314 32.61741
#
# Poissons Ratio (x) = 0.16370 -0.11931
# Poissons Ratio (y) = 0.23784 0.57499
# Poissons Ratio (z) = -0.28313 0.93911
#
# Static dielectric constant tensor:
#      x y z
#    x 1.737160 0.000000 0.000000 
#    y 0.000000 1.762860 0.000000 
#    z 0.000000 0.000000 1.764950 
# 
# From -- ./inp_files/11295.got.cif
#   From: 2010.05.17/outbox.cif.g08.bks.cpg/sg44_6_cif.got.tgz:11295.got - 2010.06.03 19:37:08.
