data_PCOD9375311
_publ_section_title
;
Structure prediction by ZEFSAII (Michael W. Deem and Ramdas Pophale) SiO2 
 PCOD9375311
Probable space group: I M M 2
;
_chemical_formula_sum "Si O2"
_cell_formula_units_Z 48
_cell_length_a 8.610830
_cell_length_b 31.533869
_cell_length_c 9.382182
_cell_angle_alpha 90.000000
_cell_angle_beta 90.000000
_cell_angle_gamma 90.000000
_cell_volume 2547.570010
_symmetry_space_group_name_H-M "I M M 2"
_symmetry_group_IT_number 44
_symmetry_cell_setting 'orthorhombic'
loop_
_space_group_symop_operation_xyz
x,y,z
-x,-y,z
-x,y,z
x,-y,z
1/2+x,1/2+y,1/2+z
1/2-x,1/2-y,1/2+z
1/2-x,1/2+y,1/2+z
1/2+x,1/2-y,1/2+z
loop_
_atom_site_type_symbol
_atom_site_label
_atom_site_fract_x
_atom_site_fract_y
_atom_site_fract_z
Si Si1 0.687780 0.291343 0.628760
Si Si2 0.312381 0.373680 0.807471
Si Si3 0.313841 0.791294 0.808775
Si Si4 0.687493 0.548128 0.316604
Si Si5 0.814096 0.451529 0.632480
Si Si6 0.687965 0.628799 0.135213
O O1 0.500000 0.291708 0.622069
O O2 0.738101 0.334024 0.710460
O O3 0.735896 0.250315 0.720101
O O4 0.751947 0.289672 0.469466
O O5 0.500000 0.374529 0.806272
O O6 0.252111 0.417177 0.740542
O O7 0.261955 0.368080 0.970974
O O8 0.500000 0.791983 0.812217
O O9 0.252833 0.832853 0.728533
O O10 0.500000 0.548840 0.325298
O O11 0.735016 0.500000 0.278255
O O12 0.753319 0.557850 0.473162
O O13 0.735576 0.584035 0.205128
O O14 0.766090 0.500000 0.666625
O O15 0.000000 0.449697 0.632325
O O16 0.500000 0.630886 0.138733
#
# Coordination Sequence:
#
# PCOD9375311 Si02
#       6
#     8   8   8   8   8   8
#     4  10  22  39  57  80 111 144 180 224 271 319
#     4  10  21  37  57  80 108 145 186 225 267 319
#     4  11  23  38  59  85 111 143 182 222 270 326
#     4   9  18  34  56  80 106 141 185 227 269 322
#     4  10  21  36  54  79 111 144 179 224 277 327
#     4  10  21  37  57  82 113 145 180 226 274 320
#
# _framework density 18.841484000000001
#
# number of rings (size 3 to 8) (size 9 to 14) (size 15 to 20)
#    0.000    2.000    0.000    3.000    0.000   10.333 
#    0.000    1.667    0.000    2.000    0.000    0.000 
#    0.000    0.000    0.000    0.000    0.000    0.000 
#
# Total GULP energy -134080.549502 kJ/mol
# GULP energy per Si atom -5586.689563 kJ/mol
# Density = 1.879860 g / cm^3
# Si number density = 18.841484 Si / 1000 Ang^3
#
#
#
# Elastic Constant Matrix: (Units=GPa)
#
#
# Indices 1 2 3 4 5 6 
#
# 1 9.8886 30.2869 33.0882 -0.0003 0.0000 0.0000
# 2 30.2869 146.6452 122.3257 -0.0006 0.0000 0.0000
# 3 33.0882 122.3257 197.7068 -0.0015 0.0000 -0.0001
# 4 -0.0003 -0.0006 -0.0015 42.5732 0.0000 0.0000
# 5 0.0000 0.0000 0.0000 0.0000 19.9042 -0.0003
# 6 0.0000 0.0000 -0.0001 0.0000 -0.0003 27.6708
#
#
#
# Elastic Compliance Matrix: (Units=1/GPa)
#
#
# Indices 1 2 3 4 5 6 
#
# 1 0.334062 -0.046205 -0.027321 0.000001 0.000001 0.000000
# 2 -0.046205 0.020483 -0.004941 0.000000 0.000000 0.000000
# 3 -0.027321 -0.004941 0.012687 0.000000 0.000000 0.000000
# 4 0.000001 0.000000 0.000000 0.023489 0.000000 0.000000
# 5 0.000001 0.000000 0.000000 0.000000 0.050241 0.000001
# 6 0.000000 0.000000 0.000000 0.000000 0.000001 0.036139
#
#
# Mechanical properties :
#
#
# Convention : Reuss Voigt Hill
#
# Bulk Modulus (GPa) = 4.75510 80.62691 42.69101
# Shear Modulus (GPa) = 7.10093 29.26562 18.18327
#
# Velocity S-wave (km/s) = 1.94344 3.94541 3.10992
# Velocity P-wave (km/s) = 2.75048 7.97748 5.96680
#
# Compressibility (1/GPa) = 0.21030050
#
# Stress axis : x y z
#
# Youngs Moduli (GPa) = 2.99346 48.82049 78.81934
#
# Poissons Ratio (x) = 2.25574 2.15340
# Poissons Ratio (y) = 0.13831 0.38942
# Poissons Ratio (z) = 0.08178 0.24120
#
# Static dielectric constant tensor:
#      x y z
#    x 1.642980 0.000000 0.000000 
#    y 0.000000 1.644270 0.000000 
#    z 0.000000 0.000000 1.612650 
# 
# From -- ./inp_files/4871.got.cif
#   From: 2010.05.17/outbox.cif.g08.bks.cpg/sg44_3_cif.got.tgz:4871.got - 2010.06.03 19:37:08.
