data_PCOD9375827
_publ_section_title
;
Structure prediction by ZEFSAII (Michael W. Deem and Ramdas Pophale) SiO2 
 PCOD9375827
Probable space group: I M M 2
;
_chemical_formula_sum "Si O2"
_cell_formula_units_Z 48
_cell_length_a 10.435389
_cell_length_b 8.146565
_cell_length_c 28.830631
_cell_angle_alpha 90.000000
_cell_angle_beta 90.000000
_cell_angle_gamma 90.000000
_cell_volume 2450.966174
_symmetry_space_group_name_H-M "I M M 2"
_symmetry_group_IT_number 44
_symmetry_cell_setting 'orthorhombic'
loop_
_space_group_symop_operation_xyz
x,y,z
-x,-y,z
-x,y,z
x,-y,z
1/2+x,1/2+y,1/2+z
1/2-x,1/2-y,1/2+z
1/2-x,1/2+y,1/2+z
1/2+x,1/2-y,1/2+z
loop_
_atom_site_type_symbol
_atom_site_label
_atom_site_fract_x
_atom_site_fract_y
_atom_site_fract_z
Si Si1 0.759814 0.805569 0.577570
Si Si2 0.740186 0.305569 0.782880
Si Si3 0.500000 0.186660 0.725570
Si Si4 0.500000 0.689956 0.624301
Si Si5 0.500000 0.186660 0.134880
Si Si6 0.351482 0.799825 0.482145
Si Si7 0.000000 0.810044 0.736148
Si Si8 0.851482 0.700175 0.878304
O O1 0.626956 0.774637 0.604367
O O2 0.735645 0.746081 0.524889
O O3 0.874981 0.719224 0.604084
O O4 0.786665 0.000000 0.576659
O O5 0.713336 0.500000 0.783791
O O6 0.625019 0.219225 0.756365
O O7 0.764355 0.246081 0.835560
O O8 0.873044 0.274637 0.756083
O O9 0.500000 0.297601 0.679854
O O10 0.500000 0.000000 0.708709
O O11 0.500000 0.500000 0.610030
O O12 0.500000 0.297602 0.180595
O O13 0.500000 0.000000 0.151742
O O14 0.500000 0.750451 0.489854
O O15 0.313627 0.747747 0.430225
O O16 0.351081 0.000000 0.482684
O O17 0.000000 0.000000 0.750420
O O18 0.851081 0.500000 0.877766
O O19 0.000000 0.749549 0.870596
#
# Coordination Sequence:
#
# PCOD9375827 Si02
#       8
#     8   8   4   4   4   8   4   8
#     4  11  21  38  62  89 117 151 193 239 285 337
#     4  11  21  38  62  89 117 151 193 239 285 337
#     4  12  26  42  57  80 117 157 194 239 291 346
#     4  12  24  40  61  86 115 151 194 239 287 344
#     4  12  26  42  57  80 117 157 194 239 291 346
#     4   8  14  28  55  89 117 143 183 234 280 329
#     4  12  24  40  61  86 115 151 194 239 287 344
#     4   8  14  28  55  89 117 143 183 234 280 329
#
# _framework density 19.584112999999999
#
# number of rings (size 3 to 8) (size 9 to 14) (size 15 to 20)
#    0.000    1.667    1.667    6.000    0.000    0.000 
#    0.000    0.833    0.000   10.000    0.000    0.000 
#    0.000    0.000    0.000    0.000    0.000    0.000 
#
# Total GULP energy -134083.903953 kJ/mol
# GULP energy per Si atom -5586.829331 kJ/mol
# Density = 1.953954 g / cm^3
# Si number density = 19.584113 Si / 1000 Ang^3
#
#
#
# Elastic Constant Matrix: (Units=GPa)
#
#
# Indices 1 2 3 4 5 6 
#
# 1 88.7813 -11.2393 30.6135 0.0000 0.0000 0.0000
# 2 -11.2393 36.2589 -17.4459 0.0000 0.0000 0.0000
# 3 30.6135 -17.4459 123.4498 0.0000 0.0000 0.0000
# 4 0.0000 0.0000 0.0000 18.5548 0.0000 0.0000
# 5 0.0000 0.0000 0.0000 0.0000 79.6494 0.0000
# 6 0.0000 0.0000 0.0000 0.0000 0.0000 29.2812
#
#
#
# Elastic Compliance Matrix: (Units=1/GPa)
#
#
# Indices 1 2 3 4 5 6 
#
# 1 0.012535 0.002564 -0.002746 0.000000 0.000000 0.000000
# 2 0.002564 0.030116 0.003620 0.000000 0.000000 0.000000
# 3 -0.002746 0.003620 0.009293 0.000000 0.000000 0.000000
# 4 0.000000 0.000000 0.000000 0.053894 0.000000 0.000000
# 5 0.000000 0.000000 0.000000 0.000000 0.012555 0.000000
# 6 0.000000 0.000000 0.000000 0.000000 0.000000 0.034152
#
#
# Mechanical properties :
#
#
# Convention : Reuss Voigt Hill
#
# Bulk Modulus (GPa) = 17.00080 28.03852 22.51966
# Shear Modulus (GPa) = 30.25250 41.93455 36.09352
#
# Velocity S-wave (km/s) = 3.93459 4.63239 4.29768
# Velocity P-wave (km/s) = 5.41674 6.55439 6.01254
#
# Compressibility (1/GPa) = 0.05882075
#
# Stress axis : x y z
#
# Youngs Moduli (GPa) = 79.77554 33.20487 107.60741
#
# Poissons Ratio (x) = -0.08515 0.29550
# Poissons Ratio (y) = -0.20457 -0.38955
# Poissons Ratio (z) = 0.21907 -0.12020
#
# Static dielectric constant tensor:
#      x y z
#    x 1.635180 0.000000 0.000000 
#    y 0.000000 1.681790 0.000000 
#    z 0.000000 0.000000 1.701020 
# 
# From -- ./inp_files/27066.got.cif
#   From: 2010.05.17/outbox.cif.g08.bks.cpg/sg44_14_cif.got.tgz:27066.got - 2010.06.03 19:37:08.
