data_PCOD9375233
_publ_section_title
;
Structure prediction by ZEFSAII (Michael W. Deem and Ramdas Pophale) SiO2 
 PCOD9375233
Probable space group: I M M 2
;
_chemical_formula_sum "Si O2"
_cell_formula_units_Z 64
_cell_length_a 13.507897
_cell_length_b 13.701561
_cell_length_c 16.486011
_cell_angle_alpha 90.000000
_cell_angle_beta 90.000000
_cell_angle_gamma 90.000000
_cell_volume 3051.218959
_symmetry_space_group_name_H-M "I M M 2"
_symmetry_group_IT_number 44
_symmetry_cell_setting 'orthorhombic'
loop_
_space_group_symop_operation_xyz
x,y,z
-x,-y,z
-x,y,z
x,-y,z
1/2+x,1/2+y,1/2+z
1/2-x,1/2-y,1/2+z
1/2-x,1/2+y,1/2+z
1/2+x,1/2-y,1/2+z
loop_
_atom_site_type_symbol
_atom_site_label
_atom_site_fract_x
_atom_site_fract_y
_atom_site_fract_z
Si Si1 0.386969 0.382040 0.577120
Si Si2 0.119560 0.887840 0.904446
Si Si3 0.620828 0.813741 0.994585
Si Si4 0.619676 0.109328 0.168205
Si Si5 0.119162 0.892069 0.564837
Si Si6 0.308408 0.312740 0.234266
Si Si7 0.880977 0.892371 0.258401
Si Si8 0.883516 0.685494 0.316151
O O1 0.500000 0.344922 0.580379
O O2 0.390306 0.500000 0.570076
O O3 0.343317 0.346537 0.491539
O O4 0.345778 0.365665 0.667006
O O5 0.146307 0.835056 0.821972
O O6 0.000000 0.888855 0.911331
O O7 0.152457 0.000000 0.896516
O O8 0.500000 0.810423 0.992487
O O9 0.646745 0.877768 0.073057
O O10 0.653797 0.702691 0.014578
O O11 0.646059 0.852130 0.905070
O O12 0.500000 0.118348 0.173100
O O13 0.664800 0.200029 0.216422
O O14 0.646359 0.000000 0.194683
O O15 0.146754 0.871273 0.658600
O O16 0.000000 0.892699 0.559099
O O17 0.154676 0.000000 0.539921
O O18 0.193243 0.342790 0.246316
O O19 0.866336 0.803001 0.318546
O O20 0.000000 0.899630 0.250731
O O21 0.845851 0.000000 0.282528
O O22 0.000000 0.666846 0.300254
#
# Coordination Sequence:
#
# PCOD9375233 Si02
#       8
#     8   8   8   8   8   8   8   8
#     4   7  11  22  41  67  98 127 154 188 241 309
#     4   9  16  28  49  77 108 134 159 206 269 323
#     4   8  16  33  54  76 103 135 175 216 256 306
#     4   9  18  35  58  80 105 137 171 214 265 313
#     4   9  17  32  57  84 106 127 156 207 274 328
#     4  11  20  31  49  78 108 135 173 212 255 312
#     4   8  14  27  47  68  92 127 170 214 257 298
#     4  10  21  35  49  69 104 144 179 218 254 292
#
# _framework density 20.975224999999998
#
# number of rings (size 3 to 8) (size 9 to 14) (size 15 to 20)
#    0.000    3.125    0.000    3.750    0.000    2.000 
#    4.500    3.750    0.000    3.000    0.000    0.000 
#    0.000    0.000    0.000    0.000    0.000    0.000 
#
# Total GULP energy -178357.387788 kJ/mol
# GULP energy per Si atom -5573.668368 kJ/mol
# Density = 2.092748 g / cm^3
# Si number density = 20.975225 Si / 1000 Ang^3
#
#
#
# Elastic Constant Matrix: (Units=GPa)
#
#
# Indices 1 2 3 4 5 6 
#
# 1 58.1221 11.4268 4.1574 0.0000 0.0000 0.0000
# 2 11.4268 56.9330 10.1767 0.0000 0.0000 0.0000
# 3 4.1574 10.1767 63.1848 0.0000 0.0000 0.0000
# 4 0.0000 0.0000 0.0000 16.0902 0.0000 0.0000
# 5 0.0000 0.0000 0.0000 0.0000 32.5712 0.0000
# 6 0.0000 0.0000 0.0000 0.0000 0.0000 13.4115
#
#
#
# Elastic Compliance Matrix: (Units=1/GPa)
#
#
# Indices 1 2 3 4 5 6 
#
# 1 0.017935 -0.003489 -0.000618 0.000000 0.000000 0.000000
# 2 -0.003489 0.018764 -0.002793 0.000000 0.000000 0.000000
# 3 -0.000618 -0.002793 0.016317 0.000000 0.000000 0.000000
# 4 0.000000 0.000000 0.000000 0.062150 0.000000 0.000000
# 5 0.000000 0.000000 0.000000 0.000000 0.030702 0.000000
# 6 0.000000 0.000000 0.000000 0.000000 0.000000 0.074563
#
#
# Mechanical properties :
#
#
# Convention : Reuss Voigt Hill
#
# Bulk Modulus (GPa) = 25.49950 25.52909 25.51430
# Shear Modulus (GPa) = 20.21809 22.57983 21.39896
#
# Velocity S-wave (km/s) = 3.10805 3.28457 3.19752
# Velocity P-wave (km/s) = 5.00633 5.15577 5.08160
#
# Compressibility (1/GPa) = 0.03921646
#
# Stress axis : x y z
#
# Youngs Moduli (GPa) = 55.75579 53.29355 61.28560
#
# Poissons Ratio (x) = 0.18596 0.03788
# Poissons Ratio (y) = 0.19455 0.17115
# Poissons Ratio (z) = 0.03446 0.14883
#
# Static dielectric constant tensor:
#      x y z
#    x 1.868250 0.000000 0.000000 
#    y 0.000000 1.757380 0.000000 
#    z 0.000000 0.000000 1.759060 
# 
# From -- ./inp_files/21956.got.cif
#   From: 2010.05.17/outbox.cif.g08.bks.cpg/sg44_11_cif.got.tgz:21956.got - 2010.06.03 19:37:08.
