data_PCOD9375136
_publ_section_title
;
Structure prediction by ZEFSAII (Michael W. Deem and Ramdas Pophale) SiO2 
 PCOD9375136
Probable space group: I M M 2
;
_chemical_formula_sum "Si O2"
_cell_formula_units_Z 56
_cell_length_a 14.044344
_cell_length_b 16.032318
_cell_length_c 11.960688
_cell_angle_alpha 90.000000
_cell_angle_beta 90.000000
_cell_angle_gamma 90.000000
_cell_volume 2693.109046
_symmetry_space_group_name_H-M "I M M 2"
_symmetry_group_IT_number 44
_symmetry_cell_setting 'orthorhombic'
loop_
_space_group_symop_operation_xyz
x,y,z
-x,-y,z
-x,y,z
x,-y,z
1/2+x,1/2+y,1/2+z
1/2-x,1/2-y,1/2+z
1/2-x,1/2+y,1/2+z
1/2+x,1/2-y,1/2+z
loop_
_atom_site_type_symbol
_atom_site_label
_atom_site_fract_x
_atom_site_fract_y
_atom_site_fract_z
Si Si1 0.393958 0.900529 0.936740
Si Si2 0.611493 0.588027 0.582127
Si Si3 0.387068 0.747508 0.446744
Si Si4 0.193278 0.139839 0.300055
Si Si5 0.394645 0.099999 0.190682
Si Si6 0.249449 0.679661 0.270523
Si Si7 0.237461 0.600009 0.029457
O O1 0.500000 0.871861 0.899065
O O2 0.309441 0.878736 0.853913
O O3 0.398389 0.000000 0.944216
O O4 0.379708 0.868479 0.063712
O O5 0.500000 0.585906 0.555360
O O6 0.655650 0.500000 0.542021
O O7 0.648323 0.673248 0.528928
O O8 0.626274 0.592691 0.714394
O O9 0.500000 0.751207 0.447020
O O10 0.345248 0.714300 0.328944
O O11 0.345840 0.835863 0.489307
O O12 0.301521 0.118006 0.262218
O O13 0.183949 0.237354 0.272441
O O14 0.186032 0.116574 0.430071
O O15 0.500000 0.129006 0.230072
O O16 0.399941 0.000000 0.186594
O O17 0.264273 0.634877 0.152094
O O18 0.215988 0.500000 0.032389
#
# Coordination Sequence:
#
# PCOD9375136 Si02
#       7
#     8   8   8   8   8   8   8
#     4   9  19  36  61  92 119 152 204 264 327 386
#     4  10  20  37  63  90 117 158 211 265 318 377
#     4  10  23  43  65  97 134 171 223 275 329 401
#     4  11  22  37  59  85 123 164 206 258 316 381
#     4   9  18  34  59  89 116 146 193 253 314 377
#     4  11  23  38  61  87 129 172 213 264 325 392
#     4  11  24  41  63  93 130 174 220 268 334 402
#
# _framework density 20.793811999999999
#
# number of rings (size 3 to 8) (size 9 to 14) (size 15 to 20)
#    0.000    1.857    1.429    3.429    2.000    6.000 
#    0.000    0.714    0.000    0.857    0.000    0.000 
#    0.000    0.000    0.000    0.000    0.000    0.000 
#
# Total GULP energy -156029.715326 kJ/mol
# GULP energy per Si atom -5572.489833 kJ/mol
# Density = 2.074648 g / cm^3
# Si number density = 20.793812 Si / 1000 Ang^3
#
#
#
# Elastic Constant Matrix: (Units=GPa)
#
#
# Indices 1 2 3 4 5 6 
#
# 1 34.5879 7.8855 6.4047 0.0000 0.0000 0.0000
# 2 7.8855 144.7137 44.7275 0.0000 0.0000 0.0000
# 3 6.4047 44.7275 116.7399 0.0000 0.0000 0.0000
# 4 0.0000 0.0000 0.0000 30.9751 0.0000 0.0000
# 5 0.0000 0.0000 0.0000 0.0000 4.3416 0.0000
# 6 0.0000 0.0000 0.0000 0.0000 0.0000 24.8281
#
#
#
# Elastic Compliance Matrix: (Units=1/GPa)
#
#
# Indices 1 2 3 4 5 6 
#
# 1 0.029407 -0.001252 -0.001134 0.000000 0.000000 0.000000
# 2 -0.001252 0.007892 -0.002955 0.000000 0.000000 0.000000
# 3 -0.001134 -0.002955 0.009760 0.000000 0.000000 0.000000
# 4 0.000000 0.000000 0.000000 0.032284 0.000000 0.000000
# 5 0.000000 0.000000 0.000000 0.000000 0.230331 0.000000
# 6 0.000000 0.000000 0.000000 0.000000 0.000000 0.040277
#
#
# Mechanical properties :
#
#
# Convention : Reuss Voigt Hill
#
# Bulk Modulus (GPa) = 27.48909 46.00855 36.74882
# Shear Modulus (GPa) = 13.41351 27.83055 20.62203
#
# Velocity S-wave (km/s) = 2.54258 3.66239 3.15260
# Velocity P-wave (km/s) = 4.67634 6.32916 5.56446
#
# Compressibility (1/GPa) = 0.03637807
#
# Stress axis : x y z
#
# Youngs Moduli (GPa) = 34.00526 126.71520 102.45493
#
# Poissons Ratio (x) = 0.15865 0.11615
# Poissons Ratio (y) = 0.04258 0.30275
# Poissons Ratio (z) = 0.03855 0.37443
#
# Static dielectric constant tensor:
#      x y z
#    x 1.752000 0.000000 0.000000 
#    y 0.000000 1.801800 0.000000 
#    z 0.000000 0.000000 1.811930 
# 
# From -- ./inp_files/13235.got.cif
#   From: 2010.05.17/outbox.cif.g08.bks.cpg/sg44_7_cif.got.tgz:13235.got - 2010.06.03 19:37:08.
