data_PCOD9375987
_publ_section_title
;
Structure prediction by ZEFSAII (Michael W. Deem and Ramdas Pophale) SiO2 
 PCOD9375987
Probable space group: I M M 2
;
_chemical_formula_sum "Si O2"
_cell_formula_units_Z 20
_cell_length_a 27.000000
_cell_length_b 9.000000
_cell_length_c 9.000000
_cell_angle_alpha 90.000000
_cell_angle_beta 90.000000
_cell_angle_gamma 90.000000
_cell_volume 2187.000000
_symmetry_space_group_name_H-M "I M M 2"
_symmetry_group_IT_number 44
_symmetry_cell_setting 'orthorhombic'
loop_
_space_group_symop_operation_xyz
x,y,z
-x,-y,z
-x,y,z
x,-y,z
1/2+x,1/2+y,1/2+z
1/2-x,1/2-y,1/2+z
1/2-x,1/2+y,1/2+z
1/2+x,1/2-y,1/2+z
loop_
_atom_site_type_symbol
_atom_site_label
_atom_site_fract_x
_atom_site_fract_y
_atom_site_fract_z
Si Si1 0.500000 0.180762 0.460840
Si Si2 0.000000 0.317708 0.619434
Si Si3 0.401889 0.821384 0.963962
Si Si4 0.899892 0.321966 0.112842
Si Si5 0.301034 0.322755 0.618331
Si Si6 0.796152 0.320514 0.440853
O O1 0.500000 0.221421 0.290350
O O2 0.549968 0.231316 0.538238
O O3 0.500000 0.000000 0.472094
O O4 0.049800 0.261094 0.542877
O O5 0.000000 0.500000 0.609163
O O6 0.403785 0.791568 0.788493
O O7 0.347695 0.774156 0.018654
O O8 0.403746 0.000000 0.981226
O O9 0.895028 0.500000 0.094618
O O10 0.851260 0.243464 0.051573
O O11 0.304053 0.500000 0.626486
O O12 0.252660 0.279191 0.527834
O O13 0.295830 0.253575 0.780839
O O14 0.797318 0.500000 0.423623
#
# Coordination Sequence:
#
# PCOD9375987 Si02
#       6
#     4   4   8   8   8   8
#     4   9  17  27  44  71  96 122 160 203 246 291
#     4   9  15  23  41  71  96 112 148 205 250 283
#     4   8  14  26  43  62  89 122 150 186 238 289
#     4   9  17  31  49  69  96 129 163 200 245 295
#     4  10  20  33  51  75 100 131 170 207 250 301
#     4   9  19  34  50  71 100 132 166 205 250 300
#
# _framework density 9.1449470000000002
#
# number of rings (size 3 to 8) (size 9 to 14) (size 15 to 20)
#    0.000    3.000    0.000    2.400    0.000    5.600 
#    0.000    4.500    0.000    0.000    0.000    5.600 
#    0.000    0.000    0.000    0.000    0.000    0.000 
#
# Total GULP energy -111337.598619 kJ/mol
# GULP energy per Si atom -5566.879931 kJ/mol
# Density = 0.912413 g / cm^3
# Si number density = 9.144947 Si / 1000 Ang^3
#
#
#
# Elastic Constant Matrix: (Units=GPa)
#
#
# Indices 1 2 3 4 5 6 
#
# 1 248.3950 31.4966 94.5991 0.0000 0.0000 0.0000
# 2 31.4966 -7.8230 22.3647 0.0000 0.0000 0.0000
# 3 94.5991 22.3647 23.0970 0.0000 0.0000 0.0000
# 4 0.0000 0.0000 0.0000 12.1329 0.0000 0.0000
# 5 0.0000 0.0000 0.0000 0.0000 0.2326 0.0000
# 6 0.0000 0.0000 0.0000 0.0000 0.0000 24.0975
#
#
#
# Elastic Compliance Matrix: (Units=1/GPa)
#
#
# Indices 1 2 3 4 5 6 
#
# 1 -0.060554 0.123462 0.128464 0.000000 0.000000 0.000000
# 2 0.123462 -0.285646 -0.229076 0.000000 0.000000 0.000000
# 3 0.128464 -0.229076 -0.261047 0.000000 0.000000 0.000000
# 4 0.000000 0.000000 0.000000 0.082420 0.000000 0.000000
# 5 0.000000 0.000000 0.000000 0.000000 4.299988 0.000000
# 6 0.000000 0.000000 0.000000 0.000000 0.000000 0.041498
#
#
# Mechanical properties :
#
#
# Convention : Reuss Voigt Hill
#
# Bulk Modulus (GPa) = -1.78080 62.28777 30.25349
# Shear Modulus (GPa) = 1.39518 14.97318 8.18418
#
# Velocity S-wave (km/s) = 0.87434 2.86432 2.11764
# Velocity P-wave (km/s) = 0.20863 6.71334 4.74934
#
# Compressibility (1/GPa) = -0.56154674
#
# Stress axis : x y z
#
# Youngs Moduli (GPa) = -16.51426 -3.50083 -3.83073
#
# Poissons Ratio (x) = 0.43222 0.49211
# Poissons Ratio (y) = 2.03888 -0.87753
# Poissons Ratio (z) = 2.12150 -0.80196
#
# Static dielectric constant tensor:
#      x y z
#    x 1.680210 0.000000 0.000000 
#    y 0.000000 1.612650 0.000000 
#    z 0.000000 0.000000 1.603400 
# 
# From -- ./inp_files/4678.got.cif
#   From: 2010.05.17/outbox.ucp.g08.bks.cvg/sg44_3_cif.got.tgz:4678.got - 2010.06.11 16:32:36.
