data_PCOD9375066
_publ_section_title
;
Structure prediction by ZEFSAII (Michael W. Deem and Ramdas Pophale) SiO2 
 PCOD9375066
Probable space group: I M M 2
;
_chemical_formula_sum "Si O2"
_cell_formula_units_Z 52
_cell_length_a 13.746398
_cell_length_b 19.291724
_cell_length_c 10.557538
_cell_angle_alpha 90.000000
_cell_angle_beta 90.000000
_cell_angle_gamma 90.000000
_cell_volume 2799.771621
_symmetry_space_group_name_H-M "I M M 2"
_symmetry_group_IT_number 44
_symmetry_cell_setting 'orthorhombic'
loop_
_space_group_symop_operation_xyz
x,y,z
-x,-y,z
-x,y,z
x,-y,z
1/2+x,1/2+y,1/2+z
1/2-x,1/2-y,1/2+z
1/2-x,1/2+y,1/2+z
1/2+x,1/2-y,1/2+z
loop_
_atom_site_type_symbol
_atom_site_label
_atom_site_fract_x
_atom_site_fract_y
_atom_site_fract_z
Si Si1 0.112767 0.650029 0.865960
Si Si2 0.179923 0.786761 0.984719
Si Si3 0.608191 0.000000 0.495434
Si Si4 0.181508 0.852266 0.249666
Si Si5 0.383465 0.500000 0.842351
Si Si6 0.110561 0.236619 0.485598
Si Si7 0.700469 0.500000 0.129905
Si Si8 0.887366 0.138396 0.730347
O O1 0.140188 0.707662 0.972201
O O2 0.120010 0.571057 0.915822
O O3 0.201788 0.658822 0.767818
O O4 0.000000 0.661993 0.824849
O O5 0.297392 0.787112 0.980433
O O6 0.141794 0.824897 0.860043
O O7 0.149536 0.822683 0.114857
O O8 0.686015 0.000000 0.604557
O O9 0.500000 0.000000 0.546653
O O10 0.127254 0.812088 0.363272
O O11 0.156645 0.932162 0.272563
O O12 0.500000 0.500000 0.841942
O O13 0.347987 0.500000 0.988902
O O14 0.124064 0.190551 0.612007
O O15 0.000000 0.264097 0.485645
O O16 0.670787 0.430928 0.201719
O O17 0.000000 0.119063 0.735889
#
# Coordination Sequence:
#
# PCOD9375066 Si02
#       8
#     8   8   4   8   4   8   4   8
#     4  10  20  38  61  86 120 161 199 243 298 358
#     4  11  24  38  55  88 130 157 191 251 308 356
#     4  10  20  36  64  94 116 150 205 253 291 341
#     4  11  22  38  60  91 119 153 200 255 299 349
#     4  12  22  37  62  88 115 151 197 252 294 342
#     4  10  20  37  61  85 113 156 204 243 294 357
#     4  12  20  41  64  86 115 157 206 245 289 355
#     4  11  23  39  61  87 118 162 203 243 300 366
#
# _framework density 18.572942999999999
#
# number of rings (size 3 to 8) (size 9 to 14) (size 15 to 20)
#    0.000    1.231    3.077    4.385    0.000    4.923 
#    0.000    2.308    0.000    0.000    0.000    1.077 
#    0.000    0.000    0.000    0.000    0.000    0.000 
#
# Total GULP energy -145183.760724 kJ/mol
# GULP energy per Si atom -5583.990797 kJ/mol
# Density = 1.853067 g / cm^3
# Si number density = 18.572943 Si / 1000 Ang^3
#
#
#
# Elastic Constant Matrix: (Units=GPa)
#
#
# Indices 1 2 3 4 5 6 
#
# 1 94.3783 -3.4891 14.6827 0.0000 0.0000 0.0000
# 2 -3.4891 72.4225 41.6511 0.0000 0.0000 0.0000
# 3 14.6827 41.6511 127.1421 0.0000 0.0000 0.0000
# 4 0.0000 0.0000 0.0000 15.1761 0.0000 0.0000
# 5 0.0000 0.0000 0.0000 0.0000 12.9659 0.0000
# 6 0.0000 0.0000 0.0000 0.0000 0.0000 14.4167
#
#
#
# Elastic Compliance Matrix: (Units=1/GPa)
#
#
# Indices 1 2 3 4 5 6 
#
# 1 0.010928 0.001543 -0.001767 0.000000 0.000000 0.000000
# 2 0.001543 0.017231 -0.005823 0.000000 0.000000 0.000000
# 3 -0.001767 -0.005823 0.009977 0.000000 0.000000 0.000000
# 4 0.000000 0.000000 0.000000 0.065893 0.000000 0.000000
# 5 0.000000 0.000000 0.000000 0.000000 0.077126 0.000000
# 6 0.000000 0.000000 0.000000 0.000000 0.000000 0.069364
#
#
# Mechanical properties :
#
#
# Convention : Reuss Voigt Hill
#
# Bulk Modulus (GPa) = 38.40146 44.40357 41.40251
# Shear Modulus (GPa) = 18.43025 24.58496 21.50760
#
# Velocity S-wave (km/s) = 3.15352 3.64221 3.40664
# Velocity P-wave (km/s) = 5.82928 6.45346 6.14930
#
# Compressibility (1/GPa) = 0.02604068
#
# Stress axis : x y z
#
# Youngs Moduli (GPa) = 91.51093 58.03469 100.23153
#
# Poissons Ratio (x) = -0.08954 0.17715
# Poissons Ratio (y) = -0.14119 0.58365
# Poissons Ratio (z) = 0.16174 0.33794
#
# Static dielectric constant tensor:
#      x y z
#    x 1.666340 0.000000 0.000000 
#    y 0.000000 1.640480 0.000000 
#    z 0.000000 0.000000 1.621840 
# 
# From -- ./inp_files/7358.got.cif
#   From: 2010.05.17/outbox.cif.g08.bks.cpg/sg44_4_cif.got.tgz:7358.got - 2010.06.03 19:37:08.
