data_PCOD9375055
_publ_section_title
;
Structure prediction by ZEFSAII (Michael W. Deem and Ramdas Pophale) SiO2 
 PCOD9375055
Probable space group: I M M 2
;
_chemical_formula_sum "Si O2"
_cell_formula_units_Z 64
_cell_length_a 18.212515
_cell_length_b 18.923683
_cell_length_c 9.879098
_cell_angle_alpha 90.000000
_cell_angle_beta 90.000000
_cell_angle_gamma 90.000000
_cell_volume 3404.809989
_symmetry_space_group_name_H-M "I M M 2"
_symmetry_group_IT_number 44
_symmetry_cell_setting 'orthorhombic'
loop_
_space_group_symop_operation_xyz
x,y,z
-x,-y,z
-x,y,z
x,-y,z
1/2+x,1/2+y,1/2+z
1/2-x,1/2-y,1/2+z
1/2-x,1/2+y,1/2+z
1/2+x,1/2-y,1/2+z
loop_
_atom_site_type_symbol
_atom_site_label
_atom_site_fract_x
_atom_site_fract_y
_atom_site_fract_z
Si Si1 0.137460 0.916628 0.658240
Si Si2 0.674172 0.834545 0.033919
Si Si3 0.200054 0.627218 0.233963
Si Si4 0.173501 0.790468 0.156593
Si Si5 0.586249 0.311553 0.379096
Si Si6 0.411099 0.306839 0.930517
Si Si7 0.917077 0.419195 0.037485
Si Si8 0.587513 0.839860 0.274789
O O1 0.224570 0.902631 0.673838
O O2 0.104339 0.881200 0.793955
O O3 0.105773 0.871262 0.532816
O O4 0.122648 0.000000 0.646894
O O5 0.746381 0.821021 0.123963
O O6 0.619616 0.871920 0.138432
O O7 0.697612 0.873138 0.896351
O O8 0.631008 0.763137 0.986883
O O9 0.188194 0.708093 0.187253
O O10 0.131899 0.586970 0.169239
O O11 0.127170 0.819423 0.284333
O O12 0.128315 0.802970 0.019380
O O13 0.500000 0.307510 0.405286
O O14 0.606147 0.243369 0.286987
O O15 0.500000 0.295987 0.921724
O O16 0.920559 0.500000 0.993322
O O17 0.000000 0.393508 0.065348
O O18 0.884932 0.374761 0.913194
O O19 0.500000 0.846920 0.273810
#
# Coordination Sequence:
#
# PCOD9375055 Si02
#       8
#     8   8   8   8   8   8   8   8
#     4  12  25  42  63  90 125 171 216 258 312 373
#     4  11  22  37  63  92 127 156 199 257 317 365
#     4  11  22  38  63  92 124 162 204 252 312 378
#     4  11  22  38  65  93 123 154 199 261 316 367
#     4  11  21  39  64  92 123 159 205 259 311 369
#     4  11  24  40  62  95 129 161 207 264 319 379
#     4  10  22  39  60  90 126 163 204 253 314 383
#     4  10  20  36  62  92 123 157 203 254 307 373
#
# _framework density 18.796937
#
# number of rings (size 3 to 8) (size 9 to 14) (size 15 to 20)
#    0.000    1.125    5.000    1.500    3.500    3.500 
#    0.000    1.875    0.000    3.000    0.000    0.000 
#    0.000    0.000    0.000    0.000    0.000    0.000 
#
# Total GULP energy -178584.930358 kJ/mol
# GULP energy per Si atom -5580.779074 kJ/mol
# Density = 1.875415 g / cm^3
# Si number density = 18.796937 Si / 1000 Ang^3
#
#
#
# Elastic Constant Matrix: (Units=GPa)
#
#
# Indices 1 2 3 4 5 6 
#
# 1 98.5301 1.5368 38.7419 0.0000 0.0000 0.0000
# 2 1.5368 33.9905 -5.6393 0.0000 0.0000 0.0000
# 3 38.7419 -5.6393 96.7516 0.0000 0.0000 0.0000
# 4 0.0000 0.0000 0.0000 12.0958 0.0000 0.0000
# 5 0.0000 0.0000 0.0000 0.0000 35.9538 0.0000
# 6 0.0000 0.0000 0.0000 0.0000 0.0000 9.3606
#
#
#
# Elastic Compliance Matrix: (Units=1/GPa)
#
#
# Indices 1 2 3 4 5 6 
#
# 1 0.012108 -0.001365 -0.004928 0.000000 0.000000 0.000000
# 2 -0.001365 0.029861 0.002287 0.000000 0.000000 0.000000
# 3 -0.004928 0.002287 0.012442 0.000000 0.000000 0.000000
# 4 0.000000 0.000000 0.000000 0.082674 0.000000 0.000000
# 5 0.000000 0.000000 0.000000 0.000000 0.027813 0.000000
# 6 0.000000 0.000000 0.000000 0.000000 0.000000 0.106831
#
#
# Mechanical properties :
#
#
# Convention : Reuss Voigt Hill
#
# Bulk Modulus (GPa) = 21.55184 33.17234 27.36209
# Shear Modulus (GPa) = 16.93723 24.45756 20.69740
#
# Velocity S-wave (km/s) = 3.00503 3.61105 3.32189
# Velocity P-wave (km/s) = 4.85085 5.92219 5.41309
#
# Compressibility (1/GPa) = 0.04639975
#
# Stress axis : x y z
#
# Youngs Moduli (GPa) = 82.58905 33.48838 80.37074
#
# Poissons Ratio (x) = 0.04571 0.39607
# Poissons Ratio (y) = 0.11274 -0.18381
# Poissons Ratio (z) = 0.40700 -0.07659
#
# Static dielectric constant tensor:
#      x y z
#    x 1.687880 0.000000 0.000000 
#    y 0.000000 1.668080 0.000000 
#    z 0.000000 0.000000 1.662330 
# 
# From -- ./inp_files/8460.got.cif
#   From: 2010.05.17/outbox.cif.g08.bks.cpg/sg44_5_cif.got.tgz:8460.got - 2010.06.03 19:37:08.
