data_PCOD9375418
_publ_section_title
;
Structure prediction by ZEFSAII (Michael W. Deem and Ramdas Pophale) SiO2 
 PCOD9375418
Probable space group: I M M 2
;
_chemical_formula_sum "Si O2"
_cell_formula_units_Z 58
_cell_length_a 7.457106
_cell_length_b 26.845924
_cell_length_c 13.382250
_cell_angle_alpha 90.000000
_cell_angle_beta 90.000000
_cell_angle_gamma 90.000000
_cell_volume 2679.031449
_symmetry_space_group_name_H-M "I M M 2"
_symmetry_group_IT_number 44
_symmetry_cell_setting 'orthorhombic'
loop_
_space_group_symop_operation_xyz
x,y,z
-x,-y,z
-x,y,z
x,-y,z
1/2+x,1/2+y,1/2+z
1/2-x,1/2-y,1/2+z
1/2-x,1/2+y,1/2+z
1/2+x,1/2-y,1/2+z
loop_
_atom_site_type_symbol
_atom_site_label
_atom_site_fract_x
_atom_site_fract_y
_atom_site_fract_z
Si Si1 0.279975 0.888680 0.756230
Si Si2 0.717986 0.318265 0.773497
Si Si3 0.707152 0.212621 0.845999
Si Si4 0.791961 0.572385 0.837142
Si Si5 0.284372 0.055850 0.957151
Si Si6 0.782739 0.444818 0.064429
Si Si7 0.000000 0.000000 0.254542
Si Si8 0.711018 0.338895 0.550262
O O1 0.500000 0.888605 0.757666
O O2 0.214723 0.833634 0.784030
O O3 0.226910 0.926019 0.846169
O O4 0.220669 0.906344 0.647646
O O5 0.500000 0.320104 0.776279
O O6 0.781527 0.267258 0.824981
O O7 0.783210 0.368563 0.824376
O O8 0.776827 0.322005 0.658149
O O9 0.500000 0.215956 0.814621
O O10 0.711097 0.193311 0.959547
O O11 0.658439 0.543411 0.764113
O O12 0.000000 0.556922 0.825972
O O13 0.726453 0.560954 0.950055
O O14 0.500000 0.053341 0.956142
O O15 0.217394 0.000000 0.981894
O O16 0.238956 0.102186 0.029099
O O17 0.733298 0.500000 0.099328
O O18 0.000000 0.441910 0.061807
O O19 0.500000 0.330009 0.547047
#
# Coordination Sequence:
#
# PCOD9375418 Si02
#       8
#     8   8   8   8   8   8   2   8
#     4   8  14  27  52  82 110 147 195 245 297 356
#     4  10  22  41  60  84 118 159 198 248 304 358
#     4   9  19  37  61  83 113 153 196 248 305 352
#     4  11  23  39  64  91 119 166 208 243 301 366
#     4   9  17  32  54  80 111 152 198 243 291 348
#     4   9  16  28  50  83 116 150 199 247 290 354
#     4  12  22  44  64  82 136 158 198 260 306 342
#     4  10  21  37  58  83 117 153 192 239 302 360
#
# _framework density 21.649616000000002
#
# number of rings (size 3 to 8) (size 9 to 14) (size 15 to 20)
#    0.000    2.483    1.379    1.862    0.000    4.690 
#    1.241    2.759    6.069    0.000    0.000    0.000 
#    0.000    0.000    0.000    0.000    0.000    0.000 
#
# Total GULP energy -161636.825766 kJ/mol
# GULP energy per Si atom -5573.683647 kJ/mol
# Density = 2.160034 g / cm^3
# Si number density = 21.649616 Si / 1000 Ang^3
#
#
#
# Elastic Constant Matrix: (Units=GPa)
#
#
# Indices 1 2 3 4 5 6 
#
# 1 85.7807 6.6544 -1.7063 0.0000 0.0000 0.0000
# 2 6.6544 178.6444 41.3027 0.0000 0.0000 0.0000
# 3 -1.7063 41.3027 47.6213 -0.0001 -0.0001 0.0001
# 4 0.0000 0.0000 -0.0001 14.6803 0.0000 0.0000
# 5 0.0000 0.0000 -0.0001 0.0000 1.4586 0.0000
# 6 0.0000 0.0000 0.0001 0.0000 0.0000 5.2046
#
#
#
# Elastic Compliance Matrix: (Units=1/GPa)
#
#
# Indices 1 2 3 4 5 6 
#
# 1 0.011729 -0.000668 0.001000 0.000000 0.000000 0.000000
# 2 -0.000668 0.007040 -0.006130 0.000000 0.000000 0.000000
# 3 0.001000 -0.006130 0.026351 0.000000 0.000002 0.000000
# 4 0.000000 0.000000 0.000000 0.068118 -0.000001 0.000000
# 5 0.000000 0.000000 0.000002 -0.000001 0.685602 0.000000
# 6 0.000000 0.000000 0.000000 0.000000 0.000000 0.192139
#
#
# Mechanical properties :
#
#
# Convention : Reuss Voigt Hill
#
# Bulk Modulus (GPa) = 29.82916 44.94978 37.38947
# Shear Modulus (GPa) = 4.93218 21.98840 13.46029
#
# Velocity S-wave (km/s) = 1.51100 3.19038 2.49616
# Velocity P-wave (km/s) = 4.10515 5.86335 5.06118
#
# Compressibility (1/GPa) = 0.03352425
#
# Stress axis : x y z
#
# Youngs Moduli (GPa) = 85.25624 142.05005 37.94901
#
# Poissons Ratio (x) = 0.09489 -0.03794
# Poissons Ratio (y) = 0.05695 0.23261
# Poissons Ratio (z) = -0.08523 0.87071
#
# Static dielectric constant tensor:
#      x y z
#    x 1.843150 0.000000 0.000000 
#    y 0.000000 1.778640 0.000000 
#    z 0.000000 0.000000 1.782200 
# 
# From -- ./inp_files/17012.got.cif
#   From: 2010.05.17/outbox.cif.g08.bks.cpg/sg44_9_cif.got.tgz:17012.got - 2010.06.03 19:37:08.
