data_PCOD9375045
_publ_section_title
;
Structure prediction by ZEFSAII (Michael W. Deem and Ramdas Pophale) SiO2 
 PCOD9375045
Probable space group: I M M 2
;
_chemical_formula_sum "Si O2"
_cell_formula_units_Z 56
_cell_length_a 13.977932
_cell_length_b 29.175945
_cell_length_c 6.615686
_cell_angle_alpha 90.000000
_cell_angle_beta 90.000000
_cell_angle_gamma 90.000000
_cell_volume 2698.004931
_symmetry_space_group_name_H-M "I M M 2"
_symmetry_group_IT_number 44
_symmetry_cell_setting 'orthorhombic'
loop_
_space_group_symop_operation_xyz
x,y,z
-x,-y,z
-x,y,z
x,-y,z
1/2+x,1/2+y,1/2+z
1/2-x,1/2-y,1/2+z
1/2-x,1/2+y,1/2+z
1/2+x,1/2-y,1/2+z
loop_
_atom_site_type_symbol
_atom_site_label
_atom_site_fract_x
_atom_site_fract_y
_atom_site_fract_z
Si Si1 0.112091 0.725085 0.461640
Si Si2 0.387903 0.050136 0.298907
Si Si3 0.744933 0.051822 0.640005
Si Si4 0.894978 0.946467 0.278879
Si Si5 0.327613 0.380039 0.444138
Si Si6 0.685190 0.849607 0.244180
Si Si7 0.272974 0.689538 0.144482
O O1 0.115988 0.686875 0.639785
O O2 0.186549 0.708119 0.287745
O O3 0.163315 0.770249 0.550046
O O4 0.000000 0.731353 0.401148
O O5 0.500000 0.049284 0.270516
O O6 0.358117 0.052095 0.534789
O O7 0.350560 0.098330 0.216638
O O8 0.349189 0.000000 0.225540
O O9 0.816472 0.063453 0.451724
O O10 0.756934 0.085912 0.823173
O O11 0.768575 0.000000 0.702602
O O12 0.000000 0.940733 0.371919
O O13 0.883934 0.000000 0.222290
O O14 0.889322 0.914629 0.080523
O O15 0.281218 0.347948 0.613049
O O16 0.346701 0.343768 0.265641
O O17 0.715745 0.837562 0.469846
#
# Coordination Sequence:
#
# PCOD9375045 Si02
#       7
#     8   8   8   8   8   8   8
#     4  11  25  44  71  97 128 175 220 274 340 401
#     4  10  20  36  61  92 127 167 212 258 311 383
#     4  10  20  37  59  85 127 173 212 263 320 374
#     4  10  21  37  59  89 127 174 226 272 318 381
#     4  11  21  37  64  91 126 166 213 266 326 385
#     4  11  22  43  66  95 130 172 213 270 333 396
#     4  11  23  44  67  98 134 163 219 276 327 407
#
# _framework density 20.756079
#
# number of rings (size 3 to 8) (size 9 to 14) (size 15 to 20)
#    0.000    1.429    4.286    0.857    0.000    2.857 
#    0.000    4.286    0.000    1.714    0.000    0.000 
#    0.000    0.000    0.000    0.000    0.000    0.000 
#
# Total GULP energy -155878.281638 kJ/mol
# GULP energy per Si atom -5567.081487 kJ/mol
# Density = 2.070884 g / cm^3
# Si number density = 20.756079 Si / 1000 Ang^3
#
#
#
# Elastic Constant Matrix: (Units=GPa)
#
#
# Indices 1 2 3 4 5 6 
#
# 1 67.9367 20.6058 14.3189 -0.0014 0.0006 -0.0012
# 2 20.6058 123.6387 44.8418 -0.0110 0.0026 0.0003
# 3 14.3189 44.8418 90.4741 -0.0210 0.0078 0.0121
# 4 -0.0014 -0.0110 -0.0210 36.0243 0.0004 0.0039
# 5 0.0006 0.0026 0.0078 0.0004 11.3571 0.0005
# 6 -0.0012 0.0003 0.0121 0.0039 0.0005 12.3824
#
#
#
# Elastic Compliance Matrix: (Units=1/GPa)
#
#
# Indices 1 2 3 4 5 6 
#
# 1 0.015657 -0.002086 -0.001444 -0.000001 0.000001 0.000003
# 2 -0.002086 0.010138 -0.004695 0.000000 0.000001 0.000004
# 3 -0.001444 -0.004695 0.013608 0.000006 -0.000008 -0.000013
# 4 -0.000001 0.000000 0.000006 0.027759 -0.000001 -0.000009
# 5 0.000001 0.000001 -0.000008 -0.000001 0.088051 -0.000003
# 6 0.000003 0.000004 -0.000013 -0.000009 -0.000003 0.080760
#
#
# Mechanical properties :
#
#
# Convention : Reuss Voigt Hill
#
# Bulk Modulus (GPa) = 43.56520 49.06473 46.31497
# Shear Modulus (GPa) = 19.22534 25.43829 22.33181
#
# Velocity S-wave (km/s) = 3.04674 3.50463 3.28368
# Velocity P-wave (km/s) = 5.78027 6.32982 6.06128
#
# Compressibility (1/GPa) = 0.02295410
#
# Stress axis : x y z
#
# Youngs Moduli (GPa) = 63.87103 98.63478 73.48413
#
# Poissons Ratio (x) = 0.20571 0.10613
# Poissons Ratio (y) = 0.13321 0.34500
# Poissons Ratio (z) = 0.09224 0.46308
#
# Static dielectric constant tensor:
#      x y z
#    x 1.754620 0.000000 0.000000 
#    y 0.000000 1.802160 -0.000010 
#    z 0.000000 -0.000010 1.742150 
# 
# From -- ./inp_files/1706.got.cif
#   From: 2010.05.17/outbox.cif.g08.bks.cpg/sg44_1_cif.got.tgz:1706.got - 2010.06.03 19:37:08.
