data_PCOD9375244
_publ_section_title
;
Structure prediction by ZEFSAII (Michael W. Deem and Ramdas Pophale) SiO2 
 PCOD9375244
Probable space group: I M M 2
;
_chemical_formula_sum "Si O2"
_cell_formula_units_Z 48
_cell_length_a 7.468809
_cell_length_b 9.306745
_cell_length_c 35.554143
_cell_angle_alpha 90.000000
_cell_angle_beta 90.000000
_cell_angle_gamma 90.000000
_cell_volume 2471.379175
_symmetry_space_group_name_H-M "I M M 2"
_symmetry_group_IT_number 44
_symmetry_cell_setting 'orthorhombic'
loop_
_space_group_symop_operation_xyz
x,y,z
-x,-y,z
-x,y,z
x,-y,z
1/2+x,1/2+y,1/2+z
1/2-x,1/2-y,1/2+z
1/2-x,1/2+y,1/2+z
1/2+x,1/2-y,1/2+z
loop_
_atom_site_type_symbol
_atom_site_label
_atom_site_fract_x
_atom_site_fract_y
_atom_site_fract_z
Si Si1 0.717475 0.333861 0.067860
Si Si2 0.289750 0.170168 0.799468
Si Si3 0.284975 0.336897 0.151492
Si Si4 0.000000 0.828264 0.862208
Si Si5 0.500000 0.827202 0.441576
Si Si6 0.215256 0.330058 0.492859
Si Si7 0.213136 0.160536 0.226162
O O1 0.500000 0.334139 0.068172
O O2 0.772885 0.500000 0.061293
O O3 0.777220 0.290458 0.109853
O O4 0.769321 0.230395 0.033955
O O5 0.500000 0.202034 0.805861
O O6 0.221952 0.251960 0.762407
O O7 0.171488 0.202368 0.835898
O O8 0.273907 0.000000 0.792103
O O9 0.500000 0.342244 0.149608
O O10 0.220532 0.500000 0.157903
O O11 0.240559 0.238814 0.186635
O O12 0.000000 0.733670 0.899367
O O13 0.000000 0.000000 0.871274
O O14 0.672408 0.760828 0.462897
O O15 0.500000 0.000000 0.443045
O O16 0.253179 0.500000 0.489629
O O17 0.000000 0.310723 0.488516
O O18 0.000000 0.152361 0.231234
O O19 0.286939 0.000000 0.225194
#
# Coordination Sequence:
#
# PCOD9375244 Si02
#       7
#     8   8   8   4   4   8   8
#     4   8  15  31  54  80 111 148 192 239 288 346
#     4   9  19  37  60  83 110 148 189 233 288 347
#     4   9  18  32  52  78 108 145 190 236 281 336
#     4  10  22  40  62  88 116 146 190 242 292 356
#     4  12  26  42  62  92 126 158 198 244 294 362
#     4  10  21  39  64  90 119 158 199 245 301 356
#     4  10  21  35  50  74 110 148 188 234 284 336
#
# _framework density 19.422353000000001
#
# number of rings (size 3 to 8) (size 9 to 14) (size 15 to 20)
#    0.000    2.500    0.000    2.750    1.167    4.333 
#    1.500    3.333    0.000    0.000    0.000    0.000 
#    0.000    0.000    0.000    0.000    0.000    0.000 
#
# Total GULP energy -133946.552387 kJ/mol
# GULP energy per Si atom -5581.106349 kJ/mol
# Density = 1.937815 g / cm^3
# Si number density = 19.422353 Si / 1000 Ang^3
#
#
#
# Elastic Constant Matrix: (Units=GPa)
#
#
# Indices 1 2 3 4 5 6 
#
# 1 78.4478 50.5910 52.5828 0.0000 0.0000 0.0000
# 2 50.5910 131.7048 121.6369 0.0000 0.0000 0.0000
# 3 52.5828 121.6369 190.1154 0.0000 0.0000 0.0000
# 4 0.0000 0.0000 0.0000 40.5414 0.0000 0.0000
# 5 0.0000 0.0000 0.0000 0.0000 34.4966 0.0000
# 6 0.0000 0.0000 0.0000 0.0000 0.0000 17.6226
#
#
#
# Elastic Compliance Matrix: (Units=1/GPa)
#
#
# Indices 1 2 3 4 5 6 
#
# 1 0.017073 -0.005370 -0.001286 0.000000 0.000000 0.000000
# 2 -0.005370 0.020249 -0.011470 0.000000 0.000000 0.000000
# 3 -0.001286 -0.011470 0.012954 0.000000 0.000000 0.000000
# 4 0.000000 0.000000 0.000000 0.024666 0.000000 0.000000
# 5 0.000000 0.000000 0.000000 0.000000 0.028988 0.000000
# 6 0.000000 0.000000 0.000000 0.000000 0.000000 0.056745
#
#
# Mechanical properties :
#
#
# Convention : Reuss Voigt Hill
#
# Bulk Modulus (GPa) = 71.31116 94.43215 82.87166
# Shear Modulus (GPa) = 24.80133 30.22928 27.51530
#
# Velocity S-wave (km/s) = 3.57732 3.94943 3.76797
# Velocity P-wave (km/s) = 7.33885 8.33806 7.85436
#
# Compressibility (1/GPa) = 0.01402305
#
# Stress axis : x y z
#
# Youngs Moduli (GPa) = 58.57312 49.38593 77.19514
#
# Poissons Ratio (x) = 0.26521 0.09928
# Poissons Ratio (y) = 0.31455 0.88542
# Poissons Ratio (z) = 0.07533 0.56645
#
# Static dielectric constant tensor:
#      x y z
#    x 1.719570 0.000000 0.000000 
#    y 0.000000 1.665740 0.000000 
#    z 0.000000 0.000000 1.654510 
# 
# From -- ./inp_files/26894.got.cif
#   From: 2010.05.17/outbox.cif.g08.bks.cpg/sg44_14_cif.got.tgz:26894.got - 2010.06.03 19:37:08.
