data_PCOD9375909
_publ_section_title
;
Structure prediction by ZEFSAII (Michael W. Deem and Ramdas Pophale) SiO2 
 PCOD9375909
Probable space group: I M M 2
;
_chemical_formula_sum "Si O2"
_cell_formula_units_Z 48
_cell_length_a 7.348480
_cell_length_b 9.722100
_cell_length_c 32.562013
_cell_angle_alpha 90.000000
_cell_angle_beta 90.000000
_cell_angle_gamma 90.000000
_cell_volume 2326.316739
_symmetry_space_group_name_H-M "I M M 2"
_symmetry_group_IT_number 44
_symmetry_cell_setting 'orthorhombic'
loop_
_space_group_symop_operation_xyz
x,y,z
-x,-y,z
-x,y,z
x,-y,z
1/2+x,1/2+y,1/2+z
1/2-x,1/2-y,1/2+z
1/2-x,1/2+y,1/2+z
1/2+x,1/2-y,1/2+z
loop_
_atom_site_type_symbol
_atom_site_label
_atom_site_fract_x
_atom_site_fract_y
_atom_site_fract_z
Si Si1 0.722740 0.341775 0.600800
Si Si2 0.218246 0.840946 0.435148
Si Si3 0.721467 0.841364 0.677447
Si Si4 0.214366 0.342999 0.025558
Si Si5 0.778167 0.839711 0.345792
Si Si6 0.278388 0.841414 0.769683
O O1 0.500000 0.342718 0.600638
O O2 0.780874 0.500000 0.600207
O O3 0.780208 0.260658 0.641706
O O4 0.785177 0.256008 0.561041
O O5 0.267086 0.782685 0.479572
O O6 0.279032 0.784841 0.390890
O O7 0.000000 0.842373 0.433969
O O8 0.281619 0.000000 0.436231
O O9 0.500000 0.841529 0.677218
O O10 0.778204 0.800895 0.723582
O O11 0.776634 0.000000 0.669908
O O12 0.289353 0.500000 0.026517
O O13 0.000000 0.355823 0.033306
O O14 0.714974 0.753410 0.306849
O O15 0.000000 0.836659 0.345262
O O16 0.726274 0.000000 0.342695
O O17 0.500000 0.837554 0.769867
O O18 0.225835 0.000000 0.776052
#
# Coordination Sequence:
#
# PCOD9375909 Si02
#       6
#     8   8   8   8   8   8
#     4   9  16  24  34  50  73  99 125 155 192 230
#     4   8  14  25  40  57  77 101 129 160 191 223
#     4   8  13  21  32  46  67  96 126 152 181 223
#     4   9  16  26  41  58  75  99 131 162 190 223
#     4   8  13  21  33  48  67  93 122 149 180 220
#     4   8  13  20  30  46  69  95 121 150 184 221
#
# _framework density 20.633474
#
# number of rings (size 3 to 8) (size 9 to 14) (size 15 to 20)
#    0.000    3.667    0.000    2.500    0.000    2.667 
#    0.000    4.167    0.000    1.500    0.000    0.000 
#    0.000    1.333    0.000    7.667    0.000   12.000 
#
# Total GULP energy -133748.478926 kJ/mol
# GULP energy per Si atom -5572.853289 kJ/mol
# Density = 2.058651 g / cm^3
# Si number density = 20.633474 Si / 1000 Ang^3
#
#
#
# Elastic Constant Matrix: (Units=GPa)
#
#
# Indices 1 2 3 4 5 6 
#
# 1 75.2271 4.9433 4.2881 0.0000 0.0000 0.0000
# 2 4.9433 102.4467 129.1461 0.0000 0.0000 0.0000
# 3 4.2881 129.1461 257.7608 0.0000 0.0000 0.0000
# 4 0.0000 0.0000 0.0000 33.7485 0.0000 0.0000
# 5 0.0000 0.0000 0.0000 0.0000 6.3900 0.0000
# 6 0.0000 0.0000 0.0000 0.0000 0.0000 -13.6937
#
#
#
# Elastic Compliance Matrix: (Units=1/GPa)
#
#
# Indices 1 2 3 4 5 6 
#
# 1 0.013342 -0.000988 0.000273 0.000000 0.000000 0.000000
# 2 -0.000988 0.026570 -0.013296 0.000000 0.000000 0.000000
# 3 0.000273 -0.013296 0.010537 0.000000 0.000000 0.000000
# 4 0.000000 0.000000 0.000000 0.029631 0.000000 0.000000
# 5 0.000000 0.000000 0.000000 0.000000 0.156493 0.000000
# 6 0.000000 0.000000 0.000000 0.000000 0.000000 -0.073026
#
#
# Mechanical properties :
#
#
# Convention : Reuss Voigt Hill
#
# Bulk Modulus (GPa) = 44.58860 79.13218 61.86039
# Shear Modulus (GPa) = 25.12004 25.09278 25.10641
#
# Velocity S-wave (km/s) = 3.49297 3.49107 3.49202
# Velocity P-wave (km/s) = 6.15829 7.39491 6.80475
#
# Compressibility (1/GPa) = 0.02242726
#
# Stress axis : x y z
#
# Youngs Moduli (GPa) = 74.94874 37.63661 94.90666
#
# Poissons Ratio (x) = 0.03719 -0.02592
# Poissons Ratio (y) = 0.07406 1.26187
# Poissons Ratio (z) = -0.02047 0.50041
#
# Static dielectric constant tensor:
#      x y z
#    x 1.874140 0.000000 0.000000 
#    y 0.000000 1.690210 0.000000 
#    z 0.000000 0.000000 1.748660 
# 
# From -- ./inp_files/25403.got.cif
#   From: 2010.05.17/outbox.cif.g08.bks.cpg/sg44_13_cif.got.tgz:25403.got - 2010.06.03 19:37:08.
