data_PCOD9375714
_publ_section_title
;
Structure prediction by ZEFSAII (Michael W. Deem and Ramdas Pophale) SiO2 
 PCOD9375714
Probable space group: I M M 2
;
_chemical_formula_sum "Si O2"
_cell_formula_units_Z 64
_cell_length_a 19.191108
_cell_length_b 13.897385
_cell_length_c 12.665594
_cell_angle_alpha 90.000000
_cell_angle_beta 90.000000
_cell_angle_gamma 90.000000
_cell_volume 3377.992655
_symmetry_space_group_name_H-M "I M M 2"
_symmetry_group_IT_number 44
_symmetry_cell_setting 'orthorhombic'
loop_
_space_group_symop_operation_xyz
x,y,z
-x,-y,z
-x,y,z
x,-y,z
1/2+x,1/2+y,1/2+z
1/2-x,1/2-y,1/2+z
1/2-x,1/2+y,1/2+z
1/2+x,1/2-y,1/2+z
loop_
_atom_site_type_symbol
_atom_site_label
_atom_site_fract_x
_atom_site_fract_y
_atom_site_fract_z
Si Si1 0.313049 0.387702 0.990420
Si Si2 0.417112 0.785828 0.506898
Si Si3 0.654642 0.385828 0.591621
Si Si4 0.080989 0.616805 0.455455
Si Si5 0.415386 0.889812 0.721040
Si Si6 0.306632 0.200720 0.115216
Si Si7 0.822733 0.387397 0.841517
Si Si8 0.921239 0.116121 0.313826
O O1 0.318610 0.500000 0.021596
O O2 0.247678 0.379427 0.910589
O O3 0.380381 0.358797 0.920412
O O4 0.303112 0.313010 0.084926
O O5 0.500000 0.787606 0.503262
O O6 0.389061 0.677251 0.509068
O O7 0.393021 0.831497 0.618757
O O8 0.384421 0.849276 0.414977
O O9 0.650122 0.500000 0.575349
O O10 0.733803 0.350255 0.586411
O O11 0.622556 0.364095 0.708003
O O12 0.082684 0.500000 0.454984
O O13 0.104603 0.647297 0.337019
O O14 0.131882 0.656018 0.544294
O O15 0.000000 0.644825 0.471401
O O16 0.500000 0.891290 0.721570
O O17 0.391527 0.000000 0.709744
O O18 0.318686 0.176229 0.236982
O O19 0.830962 0.500000 0.812955
O O20 0.000000 0.155392 0.305963
O O21 0.926013 0.000000 0.316650
#
# Coordination Sequence:
#
# PCOD9375714 Si02
#       8
#     8   8   8   8   8   8   8   8
#     4  10  22  41  63  88 126 165 209 261 313 373
#     4  11  23  39  62  91 123 165 216 264 317 375
#     4  11  22  38  60  91 127 164 208 263 322 382
#     4   9  19  35  56  89 128 165 209 264 320 371
#     4   8  16  33  56  85 122 156 197 259 318 362
#     4  12  23  39  66  91 129 169 212 254 320 384
#     4  11  23  42  64  91 128 171 211 257 310 376
#     4   9  18  35  62  92 120 155 200 256 317 371
#
# _framework density 18.946162999999999
#
# number of rings (size 3 to 8) (size 9 to 14) (size 15 to 20)
#    0.000    1.875    2.500    2.625    1.750    2.500 
#    0.000    0.625    0.000    0.000    0.000    0.000 
#    0.000    0.000    0.000    0.000    0.000    0.000 
#
# Total GULP energy -178751.053810 kJ/mol
# GULP energy per Si atom -5585.970432 kJ/mol
# Density = 1.890304 g / cm^3
# Si number density = 18.946163 Si / 1000 Ang^3
#
#
#
# Elastic Constant Matrix: (Units=GPa)
#
#
# Indices 1 2 3 4 5 6 
#
# 1 99.6393 35.3954 36.1036 0.0000 0.0000 0.0000
# 2 35.3954 127.1112 64.5722 0.0000 0.0000 0.0000
# 3 36.1036 64.5722 90.0733 0.0000 0.0000 0.0000
# 4 0.0000 0.0000 0.0000 36.1738 0.0000 0.0000
# 5 0.0000 0.0000 0.0000 0.0000 26.6350 0.0000
# 6 0.0000 0.0000 0.0000 0.0000 0.0000 22.6955
#
#
#
# Elastic Compliance Matrix: (Units=1/GPa)
#
#
# Indices 1 2 3 4 5 6 
#
# 1 0.011898 -0.001400 -0.003765 0.000000 0.000000 0.000000
# 2 -0.001400 0.012538 -0.008427 0.000000 0.000000 0.000000
# 3 -0.003765 -0.008427 0.018652 0.000000 0.000000 0.000000
# 4 0.000000 0.000000 0.000000 0.027644 0.000000 0.000000
# 5 0.000000 0.000000 0.000000 0.000000 0.037545 0.000000
# 6 0.000000 0.000000 0.000000 0.000000 0.000000 0.044062
#
#
# Mechanical properties :
#
#
# Convention : Reuss Voigt Hill
#
# Bulk Modulus (GPa) = 62.87972 65.44069 64.16020
# Shear Modulus (GPa) = 27.05265 29.15102 28.10183
#
# Velocity S-wave (km/s) = 3.78282 3.92678 3.85547
# Velocity P-wave (km/s) = 7.23466 7.42798 7.33195
#
# Compressibility (1/GPa) = 0.01590338
#
# Stress axis : x y z
#
# Youngs Moduli (GPa) = 84.04834 79.75766 53.61267
#
# Poissons Ratio (x) = 0.11170 0.20185
# Poissons Ratio (y) = 0.11771 0.45179
# Poissons Ratio (z) = 0.31644 0.67211
#
# Static dielectric constant tensor:
#      x y z
#    x 1.650340 0.000000 0.000000 
#    y 0.000000 1.698050 0.000000 
#    z 0.000000 0.000000 1.635650 
# 
# From -- ./inp_files/14001.got.cif
#   From: 2010.05.17/outbox.cif.g08.bks.cpg/sg44_8_cif.got.tgz:14001.got - 2010.06.03 19:37:08.
