data_PCOD9375424
_publ_section_title
;
Structure prediction by ZEFSAII (Michael W. Deem and Ramdas Pophale) SiO2 
 PCOD9375424
Probable space group: I M M 2
;
_chemical_formula_sum "Si O2"
_cell_formula_units_Z 56
_cell_length_a 18.436571
_cell_length_b 8.996434
_cell_length_c 17.528459
_cell_angle_alpha 90.000000
_cell_angle_beta 90.000000
_cell_angle_gamma 90.000000
_cell_volume 2907.329705
_symmetry_space_group_name_H-M "I M M 2"
_symmetry_group_IT_number 44
_symmetry_cell_setting 'orthorhombic'
loop_
_space_group_symop_operation_xyz
x,y,z
-x,-y,z
-x,y,z
x,-y,z
1/2+x,1/2+y,1/2+z
1/2-x,1/2-y,1/2+z
1/2-x,1/2+y,1/2+z
1/2+x,1/2-y,1/2+z
loop_
_atom_site_type_symbol
_atom_site_label
_atom_site_fract_x
_atom_site_fract_y
_atom_site_fract_z
Si Si1 0.322591 0.176566 0.176440
Si Si2 0.583460 0.322240 0.869467
Si Si3 0.585484 0.827489 0.584387
Si Si4 0.083801 0.322427 0.819388
Si Si5 0.321025 0.323297 0.011354
Si Si6 0.677874 0.825724 0.738519
Si Si7 0.174177 0.175846 0.953013
O O1 0.389604 0.204866 0.233225
O O2 0.251219 0.239543 0.218266
O O3 0.314777 0.000000 0.166007
O O4 0.329773 0.253086 0.094560
O O5 0.500000 0.276090 0.859278
O O6 0.588187 0.500000 0.856048
O O7 0.611586 0.295354 0.955163
O O8 0.636236 0.240577 0.810728
O O9 0.500000 0.800581 0.591850
O O10 0.625429 0.811234 0.665070
O O11 0.621748 0.720748 0.522917
O O12 0.595593 0.000000 0.559304
O O13 0.090087 0.500000 0.833325
O O14 0.136402 0.238187 0.877253
O O15 0.000000 0.279924 0.830969
O O16 0.310518 0.500000 0.019137
O O17 0.250340 0.254330 0.971015
O O18 0.693601 0.000000 0.750028
O O19 0.184012 0.000000 0.948491
#
# Coordination Sequence:
#
# PCOD9375424 Si02
#       7
#     8   8   8   8   8   8   8
#     4  11  23  40  64  93 121 157 206 255 303 357
#     4  10  23  42  63  89 123 162 204 252 304 357
#     4  10  21  37  58  85 121 163 200 241 301 365
#     4  10  23  43  64  87 122 165 203 246 306 368
#     4  11  23  41  64  89 121 164 206 247 304 366
#     4  11  22  38  62  91 123 161 203 246 300 363
#     4  12  24  38  60  91 123 157 204 254 299 354
#
# _framework density 19.261662000000001
#
# number of rings (size 3 to 8) (size 9 to 14) (size 15 to 20)
#    0.000    1.286    1.429    4.286    0.000   10.000 
#    0.000    0.000    0.000    0.000    0.000    0.000 
#    0.000    0.000    0.000    0.000    0.000    0.000 
#
# Total GULP energy -156611.170697 kJ/mol
# GULP energy per Si atom -5593.256096 kJ/mol
# Density = 1.921782 g / cm^3
# Si number density = 19.261662 Si / 1000 Ang^3
#
#
#
# Elastic Constant Matrix: (Units=GPa)
#
#
# Indices 1 2 3 4 5 6 
#
# 1 -9.4778 9.4851 18.0269 0.0000 0.0000 0.0000
# 2 9.4851 70.7072 58.9338 0.0000 0.0000 0.0000
# 3 18.0269 58.9338 118.3165 0.0000 0.0000 0.0000
# 4 0.0000 0.0000 0.0000 37.7374 0.0000 0.0000
# 5 0.0000 0.0000 0.0000 0.0000 45.7011 0.0000
# 6 0.0000 0.0000 0.0000 0.0000 0.0000 14.2124
#
#
#
# Elastic Compliance Matrix: (Units=1/GPa)
#
#
# Indices 1 2 3 4 5 6 
#
# 1 -0.081762 0.001000 0.011959 0.000000 0.000000 0.000000
# 2 0.001000 0.024170 -0.012192 0.000000 0.000000 0.000000
# 3 0.011959 -0.012192 0.012702 0.000000 0.000000 0.000000
# 4 0.000000 0.000000 0.000000 0.026499 0.000000 0.000000
# 5 0.000000 0.000000 0.000000 0.000000 0.021881 0.000000
# 6 0.000000 0.000000 0.000000 0.000000 0.000000 0.070361
#
#
# Mechanical properties :
#
#
# Convention : Reuss Voigt Hill
#
# Bulk Modulus (GPa) = -23.06595 39.15972 8.04689
# Shear Modulus (GPa) = 86.40830 25.73688 56.07259
#
# Velocity S-wave (km/s) = 6.70505 3.65933 5.40131
# Velocity P-wave (km/s) = 6.92405 6.18295 6.56397
#
# Compressibility (1/GPa) = -0.04335396
#
# Stress axis : x y z
#
# Youngs Moduli (GPa) = -12.23059 41.37309 78.72475
#
# Poissons Ratio (x) = -0.04138 -0.94149
# Poissons Ratio (y) = 0.01223 0.95979
# Poissons Ratio (z) = 0.14627 0.50441
#
# Static dielectric constant tensor:
#      x y z
#    x 1.645500 0.000000 0.000000 
#    y 0.000000 1.650220 0.000000 
#    z 0.000000 0.000000 1.653920 
# 
# From -- ./inp_files/19191.got.cif
#   From: 2010.05.17/outbox.cif.g08.bks.cpg/sg44_10_cif.got.tgz:19191.got - 2010.06.03 19:37:08.
