data_PCOD9375930
_publ_section_title
;
Structure prediction by ZEFSAII (Michael W. Deem and Ramdas Pophale) SiO2 
 PCOD9375930
Probable space group: I M M 2
;
_chemical_formula_sum "Si O2"
_cell_formula_units_Z 48
_cell_length_a 7.379991
_cell_length_b 14.577469
_cell_length_c 18.444749
_cell_angle_alpha 90.000000
_cell_angle_beta 90.000000
_cell_angle_gamma 90.000000
_cell_volume 1984.315425
_symmetry_space_group_name_H-M "I M M 2"
_symmetry_group_IT_number 44
_symmetry_cell_setting 'orthorhombic'
loop_
_space_group_symop_operation_xyz
x,y,z
-x,-y,z
-x,y,z
x,-y,z
1/2+x,1/2+y,1/2+z
1/2-x,1/2-y,1/2+z
1/2-x,1/2+y,1/2+z
1/2+x,1/2-y,1/2+z
loop_
_atom_site_type_symbol
_atom_site_label
_atom_site_fract_x
_atom_site_fract_y
_atom_site_fract_z
Si Si1 0.207387 0.137746 0.349480
Si Si2 0.778083 0.195518 0.499848
Si Si3 0.209494 0.402486 0.469568
Si Si4 0.793027 0.402327 0.690436
Si Si5 0.278814 0.696499 0.159131
Si Si6 0.281648 0.347836 0.313540
O O1 0.282153 0.134613 0.431234
O O2 0.297207 0.097469 0.278173
O O3 0.215746 0.245991 0.332870
O O4 0.000000 0.106150 0.349683
O O5 0.716600 0.302331 0.491714
O O6 0.726237 0.162784 0.579733
O O7 0.000000 0.196852 0.495164
O O8 0.288660 0.500000 0.495057
O O9 0.215819 0.404128 0.382011
O O10 0.000000 0.401165 0.492367
O O11 0.710311 0.500000 0.667888
O O12 0.716581 0.303072 0.668124
O O13 0.000000 0.401814 0.664199
O O14 0.500000 0.699208 0.161069
O O15 0.224044 0.638841 0.230130
O O16 0.500000 0.350940 0.315339
#
# Coordination Sequence:
#
# PCOD9375930 Si02
#       6
#     8   8   8   8   8   8
#     4   9  16  27  44  63  83 110 143 175 207 245
#     4   8  14  25  42  64  86 107 136 175 213 246
#     4   9  17  28  43  64  88 113 140 171 208 249
#     4   9  17  28  43  64  88 113 140 171 208 249
#     4   8  14  25  42  64  86 107 136 175 213 246
#     4   9  16  27  44  63  83 110 143 175 207 245
#
# _framework density 24.189702
#
# number of rings (size 3 to 8) (size 9 to 14) (size 15 to 20)
#    0.000    3.333    0.000    3.000    0.000    1.333 
#    0.000    3.333    0.000   26.000    0.000   16.333 
#    0.000    0.000    0.000    0.000    0.000    0.000 
#
# Total GULP energy -133718.210504 kJ/mol
# GULP energy per Si atom -5571.592104 kJ/mol
# Density = 2.413464 g / cm^3
# Si number density = 24.189702 Si / 1000 Ang^3
#
#
#
# Elastic Constant Matrix: (Units=GPa)
#
#
# Indices 1 2 3 4 5 6 
#
# 1 92.3078 -2.2805 3.1009 0.0000 0.0000 0.0000
# 2 -2.2805 36.3663 -1.4804 0.0000 0.0000 0.0000
# 3 3.1009 -1.4804 213.6002 0.0000 0.0000 0.0000
# 4 0.0000 0.0000 0.0000 -1.1171 0.0000 0.0000
# 5 0.0000 0.0000 0.0000 0.0000 6.7411 0.0000
# 6 0.0000 0.0000 0.0000 0.0000 0.0000 -5.6758
#
#
#
# Elastic Compliance Matrix: (Units=1/GPa)
#
#
# Indices 1 2 3 4 5 6 
#
# 1 0.010855 0.000674 -0.000153 0.000000 0.000000 0.000000
# 2 0.000674 0.027548 0.000181 0.000000 0.000000 0.000000
# 3 -0.000153 0.000181 0.004685 0.000000 0.000000 0.000000
# 4 0.000000 0.000000 0.000000 -0.895173 0.000000 0.000000
# 5 0.000000 0.000000 0.000000 0.000000 0.148344 0.000000
# 6 0.000000 0.000000 0.000000 0.000000 0.000000 -0.176188
#
#
# Mechanical properties :
#
#
# Convention : Reuss Voigt Hill
#
# Bulk Modulus (GPa) = 22.47530 37.88382 30.17956
# Shear Modulus (GPa) = -5.77031 22.85194 8.54081
#
# Velocity S-wave (km/s) = -1.54616 3.07693 1.88107
# Velocity P-wave (km/s) = 2.47466 5.32151 4.14984
#
# Compressibility (1/GPa) = 0.04449329
#
# Stress axis : x y z
#
# Youngs Moduli (GPa) = 92.12245 36.30074 213.44180
#
# Poissons Ratio (x) = -0.02448 0.03264
# Poissons Ratio (y) = -0.06213 -0.03866
# Poissons Ratio (z) = 0.01409 -0.00658
#
# Static dielectric constant tensor:
#      x y z
#    x 1.945490 0.000000 0.000000 
#    y 0.000000 1.904990 0.000000 
#    z 0.000000 0.000000 1.970370 
# 
# From -- ./inp_files/7105.got.cif
#   From: 2010.05.17/outbox.cif.g08.bks.cpg/sg44_4_cif.got.tgz:7105.got - 2010.06.03 19:37:08.
