data_PCOD9375067
_publ_section_title
;
Structure prediction by ZEFSAII (Michael W. Deem and Ramdas Pophale) SiO2 
 PCOD9375067
Probable space group: I M M 2
;
_chemical_formula_sum "Si O2"
_cell_formula_units_Z 30
_cell_length_a 11.437429
_cell_length_b 7.680502
_cell_length_c 18.395228
_cell_angle_alpha 90.000000
_cell_angle_beta 90.000000
_cell_angle_gamma 90.000000
_cell_volume 1615.932415
_symmetry_space_group_name_H-M "I M M 2"
_symmetry_group_IT_number 44
_symmetry_cell_setting 'orthorhombic'
loop_
_space_group_symop_operation_xyz
x,y,z
-x,-y,z
-x,y,z
x,-y,z
1/2+x,1/2+y,1/2+z
1/2-x,1/2-y,1/2+z
1/2-x,1/2+y,1/2+z
1/2+x,1/2-y,1/2+z
loop_
_atom_site_type_symbol
_atom_site_label
_atom_site_fract_x
_atom_site_fract_y
_atom_site_fract_z
Si Si1 0.760540 0.500000 0.769460
Si Si2 0.500000 0.500000 0.738966
Si Si3 0.500000 0.201013 0.619977
Si Si4 0.264803 0.796669 0.526185
Si Si5 0.361566 0.296908 0.369172
Si Si6 0.136530 0.500000 0.609554
O O1 0.621392 0.500000 0.781843
O O2 0.816859 0.669077 0.806748
O O3 0.789277 0.500000 0.684002
O O4 0.500000 0.332023 0.686698
O O5 0.614517 0.229267 0.570882
O O6 0.500000 0.000000 0.644184
O O7 0.293512 0.747160 0.443320
O O8 0.171900 0.668442 0.562424
O O9 0.232782 0.000000 0.530663
O O10 0.500000 0.266436 0.381482
O O11 0.345495 0.500000 0.351029
O O12 0.000000 0.500000 0.627557
#
# Coordination Sequence:
#
# PCOD9375067 Si02
#       6
#     4   2   4   8   8   4
#     4  12  26  44  64  98 137 173 213 268 329 385
#     4  12  24  44  68  92 136 172 212 266 330 390
#     4  10  20  36  70 104 122 154 217 282 320 374
#     4  11  21  39  70 102 126 161 221 275 320 380
#     4  11  23  40  68  99 130 168 218 270 322 382
#     4  12  26  44  66  94 137 177 213 267 326 390
#
# _framework density 18.565132999999999
#
# number of rings (size 3 to 8) (size 9 to 14) (size 15 to 20)
#    0.000    0.800    6.667    1.200    0.000    2.667 
#    2.400    0.000    0.000    0.000    0.000    0.000 
#    0.000    0.000    0.000    0.000    0.000    0.000 
#
# Total GULP energy -83866.502557 kJ/mol
# GULP energy per Si atom -5591.100170 kJ/mol
# Density = 1.852288 g / cm^3
# Si number density = 18.565133 Si / 1000 Ang^3
#
#
#
# Elastic Constant Matrix: (Units=GPa)
#
#
# Indices 1 2 3 4 5 6 
#
# 1 75.1554 33.3082 10.2118 0.0000 0.0000 0.0000
# 2 33.3082 103.4015 40.2615 0.0000 0.0000 0.0000
# 3 10.2118 40.2615 79.7315 0.0000 0.0000 0.0000
# 4 0.0000 0.0000 0.0000 30.2559 0.0000 0.0000
# 5 0.0000 0.0000 0.0000 0.0000 30.8152 0.0000
# 6 0.0000 0.0000 0.0000 0.0000 0.0000 26.5883
#
#
#
# Elastic Compliance Matrix: (Units=1/GPa)
#
#
# Indices 1 2 3 4 5 6 
#
# 1 0.015550 -0.005270 0.000669 0.000000 0.000000 0.000000
# 2 -0.005270 0.013824 -0.006306 0.000000 0.000000 0.000000
# 3 0.000669 -0.006306 0.015640 0.000000 0.000000 0.000000
# 4 0.000000 0.000000 0.000000 0.033051 0.000000 0.000000
# 5 0.000000 0.000000 0.000000 0.000000 0.032452 0.000000
# 6 0.000000 0.000000 0.000000 0.000000 0.000000 0.037611
#
#
# Mechanical properties :
#
#
# Convention : Reuss Voigt Hill
#
# Bulk Modulus (GPa) = 43.09850 47.31681 45.20766
# Shear Modulus (GPa) = 28.14141 29.16567 28.65354
#
# Velocity S-wave (km/s) = 3.89758 3.96787 3.93288
# Velocity P-wave (km/s) = 6.59697 6.82160 6.71023
#
# Compressibility (1/GPa) = 0.02320266
#
# Stress axis : x y z
#
# Youngs Moduli (GPa) = 64.30728 72.33915 63.93681
#
# Poissons Ratio (x) = 0.38121 -0.04280
# Poissons Ratio (y) = 0.33889 0.40316
# Poissons Ratio (z) = -0.04305 0.45614
#
# Static dielectric constant tensor:
#      x y z
#    x 1.620410 0.000000 0.000000 
#    y 0.000000 1.628140 0.000000 
#    z 0.000000 0.000000 1.602190 
# 
# From -- ./inp_files/17303.got.cif
#   From: 2010.05.17/outbox.cif.g08.bks.cpg/sg44_9_cif.got.tgz:17303.got - 2010.06.03 19:37:08.
