data_PCOD9375643
_publ_section_title
;
Structure prediction by ZEFSAII (Michael W. Deem and Ramdas Pophale) SiO2 
 PCOD9375643
Probable space group: I M M 2
;
_chemical_formula_sum "Si O2"
_cell_formula_units_Z 48
_cell_length_a 8.913711
_cell_length_b 18.637808
_cell_length_c 15.104907
_cell_angle_alpha 90.000000
_cell_angle_beta 90.000000
_cell_angle_gamma 90.000000
_cell_volume 2509.408926
_symmetry_space_group_name_H-M "I M M 2"
_symmetry_group_IT_number 44
_symmetry_cell_setting 'orthorhombic'
loop_
_space_group_symop_operation_xyz
x,y,z
-x,-y,z
-x,y,z
x,-y,z
1/2+x,1/2+y,1/2+z
1/2-x,1/2-y,1/2+z
1/2-x,1/2+y,1/2+z
1/2+x,1/2-y,1/2+z
loop_
_atom_site_type_symbol
_atom_site_label
_atom_site_fract_x
_atom_site_fract_y
_atom_site_fract_z
Si Si1 0.178029 0.272257 0.359080
Si Si2 0.322949 0.150931 0.231873
Si Si3 0.821937 0.921194 0.798549
Si Si4 0.824890 0.748445 0.567966
Si Si5 0.826275 0.500000 0.962618
Si Si6 0.323669 0.500000 0.777741
Si Si7 0.673456 0.108983 0.618706
O O1 0.254676 0.210202 0.299611
O O2 0.240754 0.350986 0.335987
O O3 0.202588 0.261478 0.464007
O O4 0.000000 0.269977 0.342031
O O5 0.500000 0.145332 0.250961
O O6 0.305002 0.180348 0.131803
O O7 0.248070 0.073495 0.241991
O O8 0.779423 0.920611 0.695047
O O9 0.000000 0.913420 0.809901
O O10 0.776752 0.000000 0.834657
O O11 0.715181 0.808961 0.604540
O O12 0.000000 0.771388 0.578632
O O13 0.714017 0.500000 0.882019
O O14 0.000000 0.500000 0.930876
O O15 0.804983 0.432137 0.026569
O O16 0.500000 0.500000 0.761644
O O17 0.500000 0.098881 0.645124
#
# Coordination Sequence:
#
# PCOD9375643 Si02
#       7
#     8   8   8   8   4   4   8
#     4  11  23  41  66  96 125 161 209 260 310 370
#     4  11  23  43  67  90 125 169 207 255 314 376
#     4  11  23  39  60  88 126 168 204 248 310 370
#     4  10  23  41  62  90 123 162 206 251 310 375
#     4  10  22  38  58  91 126 161 202 251 316 380
#     4  12  26  42  62  91 124 163 210 265 312 362
#     4  11  21  35  60  91 123 157 201 254 307 365
#
# _framework density 19.128011000000001
#
# number of rings (size 3 to 8) (size 9 to 14) (size 15 to 20)
#    0.000    1.167    2.500    3.750    0.000    7.000 
#    1.500    0.000    0.000    0.000    0.000    0.000 
#    0.000    0.000    0.000    0.000    0.000    0.000 
#
# Total GULP energy -134091.038176 kJ/mol
# GULP energy per Si atom -5587.126591 kJ/mol
# Density = 1.908447 g / cm^3
# Si number density = 19.128011 Si / 1000 Ang^3
#
#
#
# Elastic Constant Matrix: (Units=GPa)
#
#
# Indices 1 2 3 4 5 6 
#
# 1 83.5053 65.0121 34.0669 0.0000 0.0000 0.0000
# 2 65.0121 152.2506 31.8688 0.0000 0.0000 0.0000
# 3 34.0669 31.8688 63.4909 0.0000 0.0000 0.0000
# 4 0.0000 0.0000 0.0000 -13.6544 0.0000 0.0000
# 5 0.0000 0.0000 0.0000 0.0000 29.6906 0.0000
# 6 0.0000 0.0000 0.0000 0.0000 0.0000 23.1907
#
#
#
# Elastic Compliance Matrix: (Units=1/GPa)
#
#
# Indices 1 2 3 4 5 6 
#
# 1 0.020670 -0.007269 -0.007443 0.000000 0.000000 0.000000
# 2 -0.007269 0.009895 -0.001067 0.000000 0.000000 0.000000
# 3 -0.007443 -0.001067 0.020279 0.000000 0.000000 0.000000
# 4 0.000000 0.000000 0.000000 -0.073236 0.000000 0.000000
# 5 0.000000 0.000000 0.000000 0.000000 0.033681 0.000000
# 6 0.000000 0.000000 0.000000 0.000000 0.000000 0.043121
#
#
# Mechanical properties :
#
#
# Convention : Reuss Voigt Hill
#
# Bulk Modulus (GPa) = 51.84324 62.34916 57.09620
# Shear Modulus (GPa) = 54.11539 19.06531 36.59035
#
# Velocity S-wave (km/s) = 5.32472 3.16052 4.37844
# Velocity P-wave (km/s) = 8.06012 6.78122 7.44817
#
# Compressibility (1/GPa) = 0.01928892
#
# Stress axis : x y z
#
# Youngs Moduli (GPa) = 48.37838 101.05978 49.31176
#
# Poissons Ratio (x) = 0.73456 0.36701
# Poissons Ratio (y) = 0.35164 0.05260
# Poissons Ratio (z) = 0.36006 0.10781
#
# Static dielectric constant tensor:
#      x y z
#    x 1.642320 0.000000 0.000000 
#    y 0.000000 1.680770 0.000000 
#    z 0.000000 0.000000 1.656480 
# 
# From -- ./inp_files/16107.got.cif
#   From: 2010.05.17/outbox.cif.g08.bks.cpg/sg44_9_cif.got.tgz:16107.got - 2010.06.03 19:37:08.
