data_PCOD9375273
_publ_section_title
;
Structure prediction by ZEFSAII (Michael W. Deem and Ramdas Pophale) SiO2 
 PCOD9375273
Probable space group: I M M 2
;
_chemical_formula_sum "Si O2"
_cell_formula_units_Z 58
_cell_length_a 7.443928
_cell_length_b 15.401667
_cell_length_c 24.617108
_cell_angle_alpha 90.000000
_cell_angle_beta 90.000000
_cell_angle_gamma 90.000000
_cell_volume 2822.324359
_symmetry_space_group_name_H-M "I M M 2"
_symmetry_group_IT_number 44
_symmetry_cell_setting 'orthorhombic'
loop_
_space_group_symop_operation_xyz
x,y,z
-x,-y,z
-x,y,z
x,-y,z
1/2+x,1/2+y,1/2+z
1/2-x,1/2-y,1/2+z
1/2-x,1/2+y,1/2+z
1/2+x,1/2-y,1/2+z
loop_
_atom_site_type_symbol
_atom_site_label
_atom_site_fract_x
_atom_site_fract_y
_atom_site_fract_z
Si Si1 0.000000 0.000000 0.693491
Si Si2 0.710190 0.264944 0.099951
Si Si3 0.780468 0.099173 0.386463
Si Si4 0.207496 0.741011 0.318491
Si Si5 0.718816 0.400710 0.010212
Si Si6 0.793229 0.652637 0.208983
Si Si7 0.216457 0.098380 0.031975
Si Si8 0.717281 0.600011 0.409059
O O1 0.158493 0.924679 0.694853
O O2 0.500000 0.283832 0.106363
O O3 0.782137 0.332347 0.054631
O O4 0.796055 0.282388 0.157905
O O5 0.728321 0.169394 0.075346
O O6 0.714255 0.171560 0.344706
O O7 0.724779 0.119722 0.448520
O O8 0.000000 0.101301 0.386664
O O9 0.727925 0.000000 0.374342
O O10 0.278853 0.701016 0.262887
O O11 0.215765 0.667361 0.364833
O O12 0.000000 0.761116 0.306418
O O13 0.500000 0.398966 0.010366
O O14 0.771193 0.500000 0.022985
O O15 0.000000 0.623310 0.219222
O O16 0.000000 0.097036 0.030625
O O17 0.277128 0.000000 0.043269
O O18 0.275693 0.121997 0.970550
O O19 0.500000 0.602404 0.407605
O O20 0.770298 0.500000 0.397760
#
# Coordination Sequence:
#
# PCOD9375273 Si02
#       8
#     2   8   8   8   8   8   8   8
#     4  12  26  48  68  86 122 164 210 248 308 360
#     4  11  21  35  59  85 120 160 202 251 306 366
#     4   8  14  29  52  80 112 149 192 243 296 357
#     4  10  21  35  54  83 117 151 197 252 302 357
#     4   8  15  26  48  81 115 150 192 238 297 363
#     4  11  26  43  63  93 124 160 206 254 303 365
#     4   9  19  37  57  82 115 155 201 257 314 364
#     4   9  19  33  54  81 113 154 198 242 303 368
#
# _framework density 20.550438
#
# number of rings (size 3 to 8) (size 9 to 14) (size 15 to 20)
#    0.000    2.483    0.690    3.103    2.897    2.207 
#    0.000    2.069    0.000    2.897    0.000    3.862 
#    0.000    0.000    0.000    0.000    0.000    0.000 
#
# Total GULP energy -161660.431992 kJ/mol
# GULP energy per Si atom -5574.497655 kJ/mol
# Density = 2.050366 g / cm^3
# Si number density = 20.550438 Si / 1000 Ang^3
#
#
#
# Elastic Constant Matrix: (Units=GPa)
#
#
# Indices 1 2 3 4 5 6 
#
# 1 82.1577 5.5041 8.7409 0.0000 0.0000 0.0000
# 2 5.5041 115.4573 92.6483 0.0000 0.0000 0.0000
# 3 8.7409 92.6483 120.0398 0.0000 0.0000 0.0000
# 4 0.0000 0.0000 0.0000 -24.0647 0.0000 0.0000
# 5 0.0000 0.0000 0.0000 0.0000 0.3744 0.0000
# 6 0.0000 0.0000 0.0000 0.0000 0.0000 17.1635
#
#
#
# Elastic Compliance Matrix: (Units=1/GPa)
#
#
# Indices 1 2 3 4 5 6 
#
# 1 0.012272 0.000347 -0.001161 0.000000 0.000000 0.000000
# 2 0.000347 0.022763 -0.017594 0.000000 0.000000 0.000000
# 3 -0.001161 -0.017594 0.021994 0.000000 0.000000 0.000000
# 4 0.000000 0.000000 0.000000 -0.041555 0.000000 0.000000
# 5 0.000000 0.000000 0.000000 0.000000 2.670771 0.000000
# 6 0.000000 0.000000 0.000000 0.000000 0.000000 0.058263
#
#
# Mechanical properties :
#
#
# Convention : Reuss Voigt Hill
#
# Bulk Modulus (GPa) = 49.47441 59.04905 54.26173
# Shear Modulus (GPa) = 1.79336 12.74542 7.26939
#
# Velocity S-wave (km/s) = 0.93518 2.49309 1.88282
# Velocity P-wave (km/s) = 5.02921 6.08962 5.58464
#
# Compressibility (1/GPa) = 0.02021247
#
# Stress axis : x y z
#
# Youngs Moduli (GPa) = 81.48611 43.93125 45.46624
#
# Poissons Ratio (x) = -0.01524 0.05280
# Poissons Ratio (y) = -0.02827 0.79993
# Poissons Ratio (z) = 0.09463 0.77292
#
# Static dielectric constant tensor:
#      x y z
#    x 1.797160 0.000000 0.000000 
#    y 0.000000 1.712880 0.000000 
#    z 0.000000 0.000000 1.717600 
# 
# From -- ./inp_files/25012.got.cif
#   From: 2010.05.17/outbox.cif.g08.bks.cpg/sg44_13_cif.got.tgz:25012.got - 2010.06.03 19:37:08.
