data_PCOD9375409
_publ_section_title
;
Structure prediction by ZEFSAII (Michael W. Deem and Ramdas Pophale) SiO2 
 PCOD9375409
Probable space group: I M M 2
;
_chemical_formula_sum "Si O2"
_cell_formula_units_Z 64
_cell_length_a 8.159997
_cell_length_b 14.415605
_cell_length_c 24.793263
_cell_angle_alpha 90.000000
_cell_angle_beta 90.000000
_cell_angle_gamma 90.000000
_cell_volume 2916.463598
_symmetry_space_group_name_H-M "I M M 2"
_symmetry_group_IT_number 44
_symmetry_cell_setting 'orthorhombic'
loop_
_space_group_symop_operation_xyz
x,y,z
-x,-y,z
-x,y,z
x,-y,z
1/2+x,1/2+y,1/2+z
1/2-x,1/2-y,1/2+z
1/2-x,1/2+y,1/2+z
1/2+x,1/2-y,1/2+z
loop_
_atom_site_type_symbol
_atom_site_label
_atom_site_fract_x
_atom_site_fract_y
_atom_site_fract_z
Si Si1 0.696652 0.301744 0.430590
Si Si2 0.198325 0.106667 0.699658
Si Si3 0.697207 0.897661 0.032903
Si Si4 0.189917 0.605498 0.719667
Si Si5 0.677891 0.610400 0.828720
Si Si6 0.804135 0.392487 0.320581
Si Si7 0.691916 0.758306 0.119330
Si Si8 0.187025 0.396649 0.940643
O O1 0.500000 0.297694 0.433069
O O2 0.761770 0.379994 0.470759
O O3 0.744466 0.327255 0.369322
O O4 0.762868 0.203024 0.454867
O O5 0.249179 0.135043 0.760222
O O6 0.262264 0.168569 0.649893
O O7 0.000000 0.112523 0.698506
O O8 0.248402 0.000000 0.692998
O O9 0.500000 0.897802 0.039984
O O10 0.765001 0.811671 0.068062
O O11 0.756324 0.000000 0.049919
O O12 0.243305 0.500000 0.708497
O O13 0.284171 0.648842 0.770145
O O14 0.198045 0.664939 0.666346
O O15 0.000000 0.602106 0.736899
O O16 0.500000 0.642503 0.848723
O O17 0.668660 0.500000 0.819374
O O18 0.809404 0.617085 0.875701
O O19 0.746901 0.500000 0.329131
O O20 0.000000 0.392513 0.321778
O O21 0.500000 0.737355 0.106987
O O22 0.260835 0.500000 0.951304
O O23 0.000000 0.400132 0.960004
#
# Coordination Sequence:
#
# PCOD9375409 Si02
#       8
#     8   8   8   8   8   8   8   8
#     4  11  23  37  58  85 112 147 192 239 288 339
#     4   9  18  34  56  82 113 147 186 235 284 333
#     4  10  21  39  61  84 113 148 188 236 286 340
#     4   9  16  27  45  69  98 134 175 214 255 313
#     4   9  17  28  43  68 103 137 169 212 265 314
#     4  10  21  37  57  83 116 153 191 233 285 344
#     4   9  18  33  55  79 104 140 186 227 271 331
#     4   9  19  36  54  72 101 143 186 224 266 325
#
# _framework density 21.944382999999998
#
# number of rings (size 3 to 8) (size 9 to 14) (size 15 to 20)
#    0.000    2.500    0.000    1.875    1.750    6.500 
#    0.000    1.875    0.000    2.250    0.000    0.000 
#    0.000    0.000    0.000    0.000    0.000    0.000 
#
# Total GULP energy -178307.110652 kJ/mol
# GULP energy per Si atom -5572.097208 kJ/mol
# Density = 2.189444 g / cm^3
# Si number density = 21.944383 Si / 1000 Ang^3
#
#
#
# Elastic Constant Matrix: (Units=GPa)
#
#
# Indices 1 2 3 4 5 6 
#
# 1 19.2196 6.3937 -0.0829 0.0000 0.0000 0.0000
# 2 6.3937 143.6378 36.3561 0.0000 0.0000 0.0000
# 3 -0.0829 36.3561 75.5271 0.0000 0.0000 0.0000
# 4 0.0000 0.0000 0.0000 30.1544 0.0000 0.0000
# 5 0.0000 0.0000 0.0000 0.0000 15.9769 0.0000
# 6 0.0000 0.0000 0.0000 0.0000 0.0000 12.1134
#
#
#
# Elastic Compliance Matrix: (Units=1/GPa)
#
#
# Indices 1 2 3 4 5 6 
#
# 1 0.052934 -0.002700 0.001358 0.000000 0.000000 0.000000
# 2 -0.002700 0.008066 -0.003885 0.000000 0.000000 0.000000
# 3 0.001358 -0.003885 0.015112 0.000000 0.000000 0.000000
# 4 0.000000 0.000000 0.000000 0.033163 0.000000 0.000000
# 5 0.000000 0.000000 0.000000 0.000000 0.062590 0.000000
# 6 0.000000 0.000000 0.000000 0.000000 0.000000 0.082553
#
#
# Mechanical properties :
#
#
# Convention : Reuss Voigt Hill
#
# Bulk Modulus (GPa) = 15.23075 35.96870 25.59972
# Shear Modulus (GPa) = 17.43625 24.69678 21.06652
#
# Velocity S-wave (km/s) = 2.82186 3.35838 3.10174
# Velocity P-wave (km/s) = 4.19200 5.60934 4.95164
#
# Compressibility (1/GPa) = 0.06565665
#
# Stress axis : x y z
#
# Youngs Moduli (GPa) = 18.89137 123.98370 66.17219
#
# Poissons Ratio (x) = 0.33474 -0.08984
# Poissons Ratio (y) = 0.05100 0.25711
# Poissons Ratio (z) = -0.02565 0.48173
#
# Static dielectric constant tensor:
#      x y z
#    x 1.810080 0.000000 0.000000 
#    y 0.000000 1.948100 0.000000 
#    z 0.000000 0.000000 1.769890 
# 
# From -- ./inp_files/25171.got.cif
#   From: 2010.05.17/outbox.cif.g08.bks.cpg/sg44_13_cif.got.tgz:25171.got - 2010.06.03 19:37:08.
