data_PCOD9375531
_publ_section_title
;
Structure prediction by ZEFSAII (Michael W. Deem and Ramdas Pophale) SiO2 
 PCOD9375531
Probable space group: I M M 2
;
_chemical_formula_sum "Si O2"
_cell_formula_units_Z 38
_cell_length_a 8.195279
_cell_length_b 24.595316
_cell_length_c 9.843328
_cell_angle_alpha 90.000000
_cell_angle_beta 90.000000
_cell_angle_gamma 90.000000
_cell_volume 1984.075101
_symmetry_space_group_name_H-M "I M M 2"
_symmetry_group_IT_number 44
_symmetry_cell_setting 'orthorhombic'
loop_
_space_group_symop_operation_xyz
x,y,z
-x,-y,z
-x,y,z
x,-y,z
1/2+x,1/2+y,1/2+z
1/2-x,1/2-y,1/2+z
1/2-x,1/2+y,1/2+z
1/2+x,1/2-y,1/2+z
loop_
_atom_site_type_symbol
_atom_site_label
_atom_site_fract_x
_atom_site_fract_y
_atom_site_fract_z
Si Si1 0.500000 0.563751 0.206851
Si Si2 0.323347 0.902814 0.857101
Si Si3 0.000000 0.111531 0.411807
Si Si4 0.500000 0.500000 0.743482
Si Si5 0.825028 0.500000 0.572175
Si Si6 0.690632 0.812443 0.465592
Si Si7 0.812202 0.282575 0.283307
O O1 0.500000 0.500000 0.217074
O O2 0.335402 0.583878 0.273780
O O3 0.500000 0.584201 0.057022
O O4 0.500000 0.912247 0.787216
O O5 0.312804 0.837922 0.873023
O O6 0.321455 0.945112 0.981131
O O7 0.000000 0.058996 0.315629
O O8 0.167800 0.146930 0.410792
O O9 0.665325 0.500000 0.659263
O O10 0.000000 0.500000 0.646093
O O11 0.500000 0.831664 0.465171
O O12 0.705068 0.761036 0.363718
O O13 0.730056 0.796539 0.624773
O O14 0.000000 0.262640 0.279250
#
# Coordination Sequence:
#
# PCOD9375531 Si02
#       7
#     4   8   4   2   4   8   8
#     4  12  21  36  68  96 121 171 217 266 335 374
#     4  10  21  38  65  97 131 163 213 271 322 393
#     4  12  26  45  64  93 132 173 223 268 321 399
#     4  12  28  46  66  94 134 172 224 272 326 396
#     4  10  22  43  65  95 135 170 213 270 330 392
#     4  11  25  43  66  96 135 175 221 273 331 392
#     4  10  22  41  65  99 131 174 223 270 326 395
#
# _framework density 19.1525
#
# number of rings (size 3 to 8) (size 9 to 14) (size 15 to 20)
#    0.000    1.263    4.737    0.632    2.947    2.526 
#    0.000    2.105    0.000    0.000    0.000    0.000 
#    0.000    0.000    0.000    0.000    0.000    0.000 
#
# Total GULP energy -105789.509820 kJ/mol
# GULP energy per Si atom -5567.868938 kJ/mol
# Density = 1.910891 g / cm^3
# Si number density = 19.152500 Si / 1000 Ang^3
#
#
#
# Elastic Constant Matrix: (Units=GPa)
#
#
# Indices 1 2 3 4 5 6 
#
# 1 182.5141 80.1613 60.8728 0.0041 -0.0001 -0.0004
# 2 80.1613 119.5190 43.2100 -0.0122 -0.0014 0.0009
# 3 60.8728 43.2100 66.5382 -0.0273 -0.0032 0.0029
# 4 0.0041 -0.0122 -0.0273 85.2389 0.0035 -0.0039
# 5 -0.0001 -0.0014 -0.0032 0.0035 31.9294 0.0002
# 6 -0.0004 0.0009 0.0029 -0.0039 0.0002 30.4434
#
#
#
# Elastic Compliance Matrix: (Units=1/GPa)
#
#
# Indices 1 2 3 4 5 6 
#
# 1 0.009193 -0.004084 -0.005758 -0.000003 -0.000001 0.000001
# 2 -0.004084 0.012748 -0.004542 0.000001 0.000000 0.000000
# 3 -0.005758 -0.004542 0.023247 0.000007 0.000002 -0.000002
# 4 -0.000003 0.000001 0.000007 0.011732 -0.000001 0.000001
# 5 -0.000001 0.000000 0.000002 -0.000001 0.031319 0.000000
# 6 0.000001 0.000000 -0.000002 0.000001 0.000000 0.032848
#
#
# Mechanical properties :
#
#
# Convention : Reuss Voigt Hill
#
# Bulk Modulus (GPa) = 60.90580 81.89551 71.40066
# Shear Modulus (GPa) = 32.18955 41.81081 37.00018
#
# Velocity S-wave (km/s) = 4.10408 4.67738 4.40007
# Velocity P-wave (km/s) = 7.37071 8.48664 7.94828
#
# Compressibility (1/GPa) = 0.01641880
#
# Stress axis : x y z
#
# Youngs Moduli (GPa) = 108.77418 78.44168 43.01657
#
# Poissons Ratio (x) = 0.32037 0.24770
# Poissons Ratio (y) = 0.44425 0.19540
# Poissons Ratio (z) = 0.62636 0.35631
#
# Static dielectric constant tensor:
#      x y z
#    x 1.677010 0.000000 0.000000 
#    y 0.000000 1.618170 0.000010 
#    z 0.000000 0.000010 1.656190 
# 
# From -- ./inp_files/4499.got.cif
#   From: 2010.05.17/outbox.cif.g08.bks.cpg/sg44_3_cif.got.tgz:4499.got - 2010.06.03 19:37:08.
