data_PCOD9375847
_publ_section_title
;
Structure prediction by ZEFSAII (Michael W. Deem and Ramdas Pophale) SiO2 
 PCOD9375847
Probable space group: I M M 2
;
_chemical_formula_sum "Si O2"
_cell_formula_units_Z 48
_cell_length_a 7.719148
_cell_length_b 19.105207
_cell_length_c 15.123589
_cell_angle_alpha 90.000000
_cell_angle_beta 90.000000
_cell_angle_gamma 90.000000
_cell_volume 2230.365208
_symmetry_space_group_name_H-M "I M M 2"
_symmetry_group_IT_number 44
_symmetry_cell_setting 'orthorhombic'
loop_
_space_group_symop_operation_xyz
x,y,z
-x,-y,z
-x,y,z
x,-y,z
1/2+x,1/2+y,1/2+z
1/2-x,1/2-y,1/2+z
1/2-x,1/2+y,1/2+z
1/2+x,1/2-y,1/2+z
loop_
_atom_site_type_symbol
_atom_site_label
_atom_site_fract_x
_atom_site_fract_y
_atom_site_fract_z
Si Si1 0.710421 0.109323 0.635060
Si Si2 0.297488 0.254677 0.701839
Si Si3 0.704210 0.151490 0.044196
Si Si4 0.288212 0.924606 0.439314
Si Si5 0.712825 0.000000 0.979075
Si Si6 0.198754 0.730772 0.900789
Si Si7 0.788531 0.500000 0.277462
O O1 0.500000 0.107350 0.634214
O O2 0.766112 0.188964 0.644161
O O3 0.761639 0.076565 0.542537
O O4 0.767529 0.066543 0.720398
O O5 0.500000 0.244510 0.721631
O O6 0.278060 0.319881 0.636520
O O7 0.207749 0.253340 0.796748
O O8 0.500000 0.145705 0.057478
O O9 0.770154 0.073780 0.020622
O O10 0.729282 0.207610 0.963805
O O11 0.500000 0.924373 0.431821
O O12 0.225922 0.848412 0.406932
O O13 0.230902 0.000000 0.400779
O O14 0.500000 0.000000 0.980353
O O15 0.769940 0.000000 0.877234
O O16 0.000000 0.725196 0.931055
O O17 0.000000 0.500000 0.279257
#
# Coordination Sequence:
#
# PCOD9375847 Si02
#       7
#     8   8   8   8   4   8   4
#     4   9  15  26  50  81 110 138 177 231 287 342
#     4  11  22  38  59  86 117 157 203 246 298 356
#     4  11  22  40  63  87 118 157 202 252 304 360
#     4   9  16  30  53  83 114 146 187 236 285 342
#     4   9  20  36  55  84 117 152 200 250 296 360
#     4  11  22  38  60  89 121 156 199 246 300 360
#     4   9  14  24  48  82 111 136 178 236 290 342
#
# _framework density 21.521139999999999
#
# number of rings (size 3 to 8) (size 9 to 14) (size 15 to 20)
#    0.000    2.000    2.500    2.500    0.000    2.667 
#    1.500    1.667    0.000    1.500    0.000    1.167 
#    0.000    0.000    0.000    0.000    0.000    0.000 
#
# Total GULP energy -133855.776489 kJ/mol
# GULP energy per Si atom -5577.324020 kJ/mol
# Density = 2.147216 g / cm^3
# Si number density = 21.521140 Si / 1000 Ang^3
#
#
#
# Elastic Constant Matrix: (Units=GPa)
#
#
# Indices 1 2 3 4 5 6 
#
# 1 33.4109 -0.0689 -10.6065 0.0000 0.0000 0.0000
# 2 -0.0689 137.1431 11.8264 0.0000 0.0000 0.0000
# 3 -10.6065 11.8264 49.8326 0.0000 0.0000 0.0000
# 4 0.0000 0.0000 0.0000 31.0463 0.0000 0.0000
# 5 0.0000 0.0000 0.0000 0.0000 20.1838 0.0000
# 6 0.0000 0.0000 0.0000 0.0000 0.0000 29.7396
#
#
#
# Elastic Compliance Matrix: (Units=1/GPa)
#
#
# Indices 1 2 3 4 5 6 
#
# 1 0.032145 -0.000586 0.006981 0.000000 0.000000 0.000000
# 2 -0.000586 0.007455 -0.001894 0.000000 0.000000 0.000000
# 3 0.006981 -0.001894 0.022002 0.000000 0.000000 0.000000
# 4 0.000000 0.000000 0.000000 0.032210 0.000000 0.000000
# 5 0.000000 0.000000 0.000000 0.000000 0.049545 0.000000
# 6 0.000000 0.000000 0.000000 0.000000 0.000000 0.033625
#
#
# Mechanical properties :
#
#
# Convention : Reuss Voigt Hill
#
# Bulk Modulus (GPa) = 14.16332 24.74317 19.45324
# Shear Modulus (GPa) = 26.10765 30.80965 28.45865
#
# Velocity S-wave (km/s) = 3.48676 3.78775 3.64037
# Velocity P-wave (km/s) = 4.77550 5.53638 5.16996
#
# Compressibility (1/GPa) = 0.07060493
#
# Stress axis : x y z
#
# Youngs Moduli (GPa) = 31.10876 134.14405 45.44942
#
# Poissons Ratio (x) = 0.07859 -0.31728
# Poissons Ratio (y) = 0.01822 0.08607
# Poissons Ratio (z) = -0.21717 0.25405
#
# Static dielectric constant tensor:
#      x y z
#    x 1.809270 0.000000 0.000000 
#    y 0.000000 1.847960 0.000000 
#    z 0.000000 0.000000 1.725870 
# 
# From -- ./inp_files/16144.got.cif
#   From: 2010.05.17/outbox.cif.g08.bks.cpg/sg44_9_cif.got.tgz:16144.got - 2010.06.03 19:37:08.
