data_PCOD9375214
_publ_section_title
;
Structure prediction by ZEFSAII (Michael W. Deem and Ramdas Pophale) SiO2 
 PCOD9375214
Probable space group: I M M 2
;
_chemical_formula_sum "Si O2"
_cell_formula_units_Z 58
_cell_length_a 7.598738
_cell_length_b 15.340099
_cell_length_c 24.411754
_cell_angle_alpha 90.000000
_cell_angle_beta 90.000000
_cell_angle_gamma 90.000000
_cell_volume 2845.565704
_symmetry_space_group_name_H-M "I M M 2"
_symmetry_group_IT_number 44
_symmetry_cell_setting 'orthorhombic'
loop_
_space_group_symop_operation_xyz
x,y,z
-x,-y,z
-x,y,z
x,-y,z
1/2+x,1/2+y,1/2+z
1/2-x,1/2-y,1/2+z
1/2-x,1/2+y,1/2+z
1/2+x,1/2-y,1/2+z
loop_
_atom_site_type_symbol
_atom_site_label
_atom_site_fract_x
_atom_site_fract_y
_atom_site_fract_z
Si Si1 0.297537 0.245606 0.255570
Si Si2 0.500000 0.000000 0.161574
Si Si3 0.292933 0.900539 0.955612
Si Si4 0.203877 0.151511 0.148674
Si Si5 0.713047 0.599215 0.330063
Si Si6 0.298575 0.745793 0.539822
Si Si7 0.713243 0.900486 0.466592
Si Si8 0.292180 0.599518 0.840769
O O1 0.500000 0.263209 0.240629
O O2 0.201769 0.213324 0.201637
O O3 0.223961 0.330463 0.286332
O O4 0.293714 0.167767 0.300077
O O5 0.656599 0.924442 0.160240
O O6 0.500000 0.900066 0.968597
O O7 0.269517 0.878069 0.891814
O O8 0.227425 0.000000 0.963264
O O9 0.205019 0.830780 0.994739
O O10 0.271369 0.205187 0.095752
O O11 0.000000 0.121943 0.138327
O O12 0.500000 0.601100 0.329871
O O13 0.770208 0.500000 0.319101
O O14 0.500000 0.769177 0.552726
O O15 0.218759 0.830507 0.510358
O O16 0.500000 0.899054 0.467559
O O17 0.765568 0.877043 0.404446
O O18 0.770975 0.000000 0.476736
O O19 0.500000 0.599837 0.829238
O O20 0.226417 0.500000 0.833212
#
# Coordination Sequence:
#
# PCOD9375214 Si02
#       8
#     8   2   8   8   8   8   8   8
#     4  11  22  38  59  85 118 158 205 253 304 365
#     4  12  26  48  68  90 126 160 210 248 304 360
#     4  10  21  33  53  84 117 152 195 243 302 367
#     4  11  26  44  65  93 124 162 205 252 303 362
#     4   9  19  37  59  83 116 157 199 249 307 364
#     4  10  22  38  57  83 116 153 198 247 300 360
#     4   9  18  36  59  83 113 153 196 245 302 364
#     4  10  21  34  52  83 119 154 195 245 305 368
#
# _framework density 20.38259
#
# number of rings (size 3 to 8) (size 9 to 14) (size 15 to 20)
#    0.000    1.931    0.690    2.276    2.897    6.621 
#    0.000    0.690    0.000    0.828    0.000    0.000 
#    0.000    0.000    0.000    0.000    0.000    0.000 
#
# Total GULP energy -161705.472847 kJ/mol
# GULP energy per Si atom -5576.050788 kJ/mol
# Density = 2.033620 g / cm^3
# Si number density = 20.382590 Si / 1000 Ang^3
#
#
#
# Elastic Constant Matrix: (Units=GPa)
#
#
# Indices 1 2 3 4 5 6 
#
# 1 74.1996 5.8166 3.4787 0.0000 0.0000 0.0000
# 2 5.8166 95.3501 80.4884 0.0000 0.0000 0.0000
# 3 3.4787 80.4884 106.1272 0.0000 0.0000 0.0000
# 4 0.0000 0.0000 0.0000 -16.8392 0.0000 0.0000
# 5 0.0000 0.0000 0.0000 0.0000 13.1817 0.0000
# 6 0.0000 0.0000 0.0000 0.0000 0.0000 21.4643
#
#
#
# Elastic Compliance Matrix: (Units=1/GPa)
#
#
# Indices 1 2 3 4 5 6 
#
# 1 0.013552 -0.001255 0.000508 0.000000 0.000000 0.000000
# 2 -0.001255 0.029265 -0.022154 0.000000 0.000000 0.000000
# 3 0.000508 -0.022154 0.026208 0.000000 0.000000 0.000000
# 4 0.000000 0.000000 0.000000 -0.059385 0.000000 0.000000
# 5 0.000000 0.000000 0.000000 0.000000 0.075863 0.000000
# 6 0.000000 0.000000 0.000000 0.000000 0.000000 0.046589
#
#
# Mechanical properties :
#
#
# Convention : Reuss Voigt Hill
#
# Bulk Modulus (GPa) = 43.06284 50.58268 46.82276
# Shear Modulus (GPa) = 26.93453 15.95424 21.44438
#
# Velocity S-wave (km/s) = 3.63912 2.80078 3.24712
# Velocity P-wave (km/s) = 6.23143 5.94388 6.08935
#
# Compressibility (1/GPa) = 0.02322188
#
# Stress axis : x y z
#
# Youngs Moduli (GPa) = 73.79108 34.17021 38.15638
#
# Poissons Ratio (x) = 0.04290 -0.01938
# Poissons Ratio (y) = 0.09264 0.84532
# Poissons Ratio (z) = -0.03748 0.75701
#
# Static dielectric constant tensor:
#      x y z
#    x 1.830400 0.000000 0.000000 
#    y 0.000000 1.729220 0.000000 
#    z 0.000000 0.000000 1.696130 
# 
# From -- ./inp_files/25031.got.cif
#   From: 2010.05.17/outbox.cif.g08.bks.cpg/sg44_13_cif.got.tgz:25031.got - 2010.06.03 19:37:08.
