data_PCOD9375926
_publ_section_title
;
Structure prediction by ZEFSAII (Michael W. Deem and Ramdas Pophale) SiO2 
 PCOD9375926
Probable space group: I M M 2
;
_chemical_formula_sum "Si O2"
_cell_formula_units_Z 56
_cell_length_a 26.083177
_cell_length_b 7.503936
_cell_length_c 13.116336
_cell_angle_alpha 90.000000
_cell_angle_beta 90.000000
_cell_angle_gamma 90.000000
_cell_volume 2567.214419
_symmetry_space_group_name_H-M "I M M 2"
_symmetry_group_IT_number 44
_symmetry_cell_setting 'orthorhombic'
loop_
_space_group_symop_operation_xyz
x,y,z
-x,-y,z
-x,y,z
x,-y,z
1/2+x,1/2+y,1/2+z
1/2-x,1/2-y,1/2+z
1/2-x,1/2+y,1/2+z
1/2+x,1/2-y,1/2+z
loop_
_atom_site_type_symbol
_atom_site_label
_atom_site_fract_x
_atom_site_fract_y
_atom_site_fract_z
Si Si1 0.760677 0.294778 0.247250
Si Si2 0.057500 0.218361 0.636619
Si Si3 0.334995 0.719175 0.511569
Si Si4 0.889982 0.207169 0.436745
Si Si5 0.626531 0.300663 0.713557
Si Si6 0.349385 0.282422 0.278242
Si Si7 0.723442 0.797039 0.988869
O O1 0.767378 0.500000 0.216684
O O2 0.811794 0.186971 0.226052
O O3 0.703662 0.227923 0.221945
O O4 0.759852 0.299947 0.370492
O O5 0.072927 0.281026 0.523203
O O6 0.100974 0.275337 0.716075
O O7 0.000000 0.271743 0.663473
O O8 0.059016 0.000000 0.634857
O O9 0.334395 0.500000 0.512470
O O10 0.374307 0.780029 0.599942
O O11 0.349559 0.774108 0.396808
O O12 0.276021 0.777543 0.536581
O O13 0.890262 0.284915 0.321498
O O14 0.832607 0.211889 0.485011
O O15 0.902827 0.000000 0.422812
O O16 0.604379 0.500000 0.707422
O O17 0.347817 0.500000 0.278223
O O18 0.716763 0.000000 0.022338
#
# Coordination Sequence:
#
# PCOD9375926 Si02
#       7
#     8   8   8   8   8   8   8
#     4   8  14  24  38  57  81 109 138 163 190 232
#     4   9  17  28  42  59  79 106 141 179 213 240
#     4   8  14  24  38  56  80 109 136 160 194 243
#     4   9  17  27  40  60  83 106 133 167 206 242
#     4   9  16  25  38  59  87 112 131 155 196 250
#     4   8  14  25  40  56  75 104 141 174 201 231
#     4   8  14  25  39  56  80 111 139 159 188 237
#
# _framework density 21.813528000000002
#
# number of rings (size 3 to 8) (size 9 to 14) (size 15 to 20)
#    0.000    3.571    0.000    1.714    2.000    0.000 
#    0.000    0.000    0.000    1.286    0.000    6.000 
#    0.000    0.000    0.000    0.000    0.000    1.286 
#
# Total GULP energy -155920.689783 kJ/mol
# GULP energy per Si atom -5568.596064 kJ/mol
# Density = 2.176388 g / cm^3
# Si number density = 21.813528 Si / 1000 Ang^3
#
#
#
# Elastic Constant Matrix: (Units=GPa)
#
#
# Indices 1 2 3 4 5 6 
#
# 1 74.8941 0.1657 8.0120 0.0000 0.0000 0.0000
# 2 0.1657 58.6823 9.3994 0.0000 0.0000 0.0000
# 3 8.0120 9.3994 78.2641 0.0000 0.0000 0.0000
# 4 0.0000 0.0000 0.0000 -0.7826 0.0000 0.0000
# 5 0.0000 0.0000 0.0000 0.0000 26.5759 0.0000
# 6 0.0000 0.0000 0.0000 0.0000 0.0000 6.3397
#
#
#
# Elastic Compliance Matrix: (Units=1/GPa)
#
#
# Indices 1 2 3 4 5 6 
#
# 1 0.013502 0.000187 -0.001405 0.000000 0.000000 0.000000
# 2 0.000187 0.017378 -0.002106 0.000000 0.000000 0.000000
# 3 -0.001405 -0.002106 0.013174 0.000000 0.000000 0.000000
# 4 0.000000 0.000000 0.000000 -1.277736 0.000000 0.000000
# 5 0.000000 0.000000 0.000000 0.000000 0.037628 0.000000
# 6 0.000000 0.000000 0.000000 0.000000 0.000000 0.157736
#
#
# Mechanical properties :
#
#
# Convention : Reuss Voigt Hill
#
# Bulk Modulus (GPa) = 26.73378 27.44384 27.08881
# Shear Modulus (GPa) = -4.90580 19.37750 7.23585
#
# Velocity S-wave (km/s) = -1.50128 2.98371 1.82328
# Velocity P-wave (km/s) = 3.04583 4.94757 4.10826
#
# Compressibility (1/GPa) = 0.03740586
#
# Stress axis : x y z
#
# Youngs Moduli (GPa) = 74.06288 57.54490 75.90714
#
# Poissons Ratio (x) = -0.01075 0.10662
# Poissons Ratio (y) = -0.01384 0.15987
# Poissons Ratio (z) = 0.10403 0.12120
#
# Static dielectric constant tensor:
#      x y z
#    x 1.765700 0.000000 0.000000 
#    y 0.000000 1.956180 0.000000 
#    z 0.000000 0.000000 1.929900 
# 
# From -- ./inp_files/19207.got.cif
#   From: 2010.05.17/outbox.cif.g08.bks.cpg/sg44_10_cif.got.tgz:19207.got - 2010.06.03 19:37:08.
