data_PCOD9375609
_publ_section_title
;
Structure prediction by ZEFSAII (Michael W. Deem and Ramdas Pophale) SiO2 
 PCOD9375609
Probable space group: I M M 2
;
_chemical_formula_sum "Si O2"
_cell_formula_units_Z 58
_cell_length_a 14.393529
_cell_length_b 19.144517
_cell_length_c 11.400466
_cell_angle_alpha 90.000000
_cell_angle_beta 90.000000
_cell_angle_gamma 90.000000
_cell_volume 3141.480041
_symmetry_space_group_name_H-M "I M M 2"
_symmetry_group_IT_number 44
_symmetry_cell_setting 'orthorhombic'
loop_
_space_group_symop_operation_xyz
x,y,z
-x,-y,z
-x,y,z
x,-y,z
1/2+x,1/2+y,1/2+z
1/2-x,1/2-y,1/2+z
1/2-x,1/2+y,1/2+z
1/2+x,1/2-y,1/2+z
loop_
_atom_site_type_symbol
_atom_site_label
_atom_site_fract_x
_atom_site_fract_y
_atom_site_fract_z
Si Si1 0.328662 0.615136 0.027310
Si Si2 0.098967 0.081562 0.192898
Si Si3 0.284659 0.080577 0.307600
Si Si4 0.890962 0.267333 0.430304
Si Si5 0.768446 0.178901 0.769413
Si Si6 0.392976 0.806804 0.188725
Si Si7 0.895666 0.920099 0.911984
Si Si8 0.000000 0.000000 0.537947
O O1 0.279896 0.633594 0.150896
O O2 0.416010 0.561754 0.037067
O O3 0.248840 0.586348 0.940987
O O4 0.363678 0.688653 0.970772
O O5 0.193983 0.111353 0.239954
O O6 0.000000 0.112546 0.232703
O O7 0.097412 0.000000 0.232670
O O8 0.100794 0.081456 0.052818
O O9 0.371040 0.124404 0.262806
O O10 0.296736 0.000000 0.275327
O O11 0.829076 0.296436 0.323707
O O12 0.873550 0.312530 0.549444
O O13 0.000000 0.269821 0.403083
O O14 0.827865 0.247656 0.742352
O O15 0.821292 0.133393 0.866380
O O16 0.500000 0.785381 0.199131
O O17 0.000000 0.903395 0.867805
O O18 0.875742 0.000000 0.875846
#
# Coordination Sequence:
#
# PCOD9375609 Si02
#       8
#     8   8   8   8   8   8   8   2
#     4  11  24  36  60  98 127 165 206 258 327 388
#     4   8  16  29  48  78 113 145 183 239 303 359
#     4  11  21  36  58  84 119 157 204 257 315 375
#     4  10  21  42  65  87 121 164 216 262 313 378
#     4  11  22  37  60  84 126 163 206 254 315 395
#     4  10  22  39  60  86 116 157 210 265 314 373
#     4   9  18  31  51  83 119 157 203 254 315 376
#     4  12  24  40  64 104 144 164 214 272 336 410
#
# _framework density 18.462634999999999
#
# number of rings (size 3 to 8) (size 9 to 14) (size 15 to 20)
#    0.000    1.931    2.759    2.069    3.862    0.276 
#    0.000    0.690    0.000    1.241    0.000    0.000 
#    0.000    0.000    0.000    0.000    0.000    0.000 
#
# Total GULP energy -161435.455822 kJ/mol
# GULP energy per Si atom -5566.739856 kJ/mol
# Density = 1.842061 g / cm^3
# Si number density = 18.462635 Si / 1000 Ang^3
#
#
#
# Elastic Constant Matrix: (Units=GPa)
#
#
# Indices 1 2 3 4 5 6 
#
# 1 83.1458 25.1623 46.3385 0.0000 0.0000 0.0000
# 2 25.1623 65.0844 30.6513 0.0000 0.0000 0.0000
# 3 46.3385 30.6513 67.9799 0.0000 0.0000 0.0000
# 4 0.0000 0.0000 0.0000 19.8231 0.0000 0.0000
# 5 0.0000 0.0000 0.0000 0.0000 17.3522 0.0000
# 6 0.0000 0.0000 0.0000 0.0000 0.0000 31.3679
#
#
#
# Elastic Compliance Matrix: (Units=1/GPa)
#
#
# Indices 1 2 3 4 5 6 
#
# 1 0.019530 -0.001626 -0.012579 0.000000 0.000000 0.000000
# 2 -0.001626 0.019642 -0.007748 0.000000 0.000000 0.000000
# 3 -0.012579 -0.007748 0.026778 0.000000 0.000000 0.000000
# 4 0.000000 0.000000 0.000000 0.050446 0.000000 0.000000
# 5 0.000000 0.000000 0.000000 0.000000 0.057630 0.000000
# 6 0.000000 0.000000 0.000000 0.000000 0.000000 0.031880
#
#
# Mechanical properties :
#
#
# Convention : Reuss Voigt Hill
#
# Bulk Modulus (GPa) = 45.36473 46.72380 46.04426
# Shear Modulus (GPa) = 19.44311 21.31251 20.37781
#
# Velocity S-wave (km/s) = 3.24868 3.40127 3.32585
# Velocity P-wave (km/s) = 6.22064 6.38647 6.30410
#
# Compressibility (1/GPa) = 0.02204356
#
# Stress axis : x y z
#
# Youngs Moduli (GPa) = 51.20375 50.91065 37.34366
#
# Poissons Ratio (x) = 0.08279 0.46975
# Poissons Ratio (y) = 0.08327 0.28934
# Poissons Ratio (z) = 0.64410 0.39445
#
# Static dielectric constant tensor:
#      x y z
#    x 1.648350 0.000000 0.000000 
#    y 0.000000 1.662520 0.000000 
#    z 0.000000 0.000000 1.699930 
# 
# From -- ./inp_files/13409.got.cif
#   From: 2010.05.17/outbox.cif.g08.bks.cpg/sg44_7_cif.got.tgz:13409.got - 2010.06.03 19:37:08.
