data_PCOD9375442
_publ_section_title
;
Structure prediction by ZEFSAII (Michael W. Deem and Ramdas Pophale) SiO2 
 PCOD9375442
Probable space group: I M M 2
;
_chemical_formula_sum "Si O2"
_cell_formula_units_Z 48
_cell_length_a 8.705502
_cell_length_b 14.714112
_cell_length_c 20.735111
_cell_angle_alpha 90.000000
_cell_angle_beta 90.000000
_cell_angle_gamma 90.000000
_cell_volume 2656.037740
_symmetry_space_group_name_H-M "I M M 2"
_symmetry_group_IT_number 44
_symmetry_cell_setting 'orthorhombic'
loop_
_space_group_symop_operation_xyz
x,y,z
-x,-y,z
-x,y,z
x,-y,z
1/2+x,1/2+y,1/2+z
1/2-x,1/2-y,1/2+z
1/2-x,1/2+y,1/2+z
1/2+x,1/2-y,1/2+z
loop_
_atom_site_type_symbol
_atom_site_label
_atom_site_fract_x
_atom_site_fract_y
_atom_site_fract_z
Si Si1 0.815878 0.695270 0.937070
Si Si2 0.683617 0.192560 0.674512
Si Si3 0.683388 0.316082 0.797953
Si Si4 0.182896 0.000000 0.640865
Si Si5 0.683790 0.500000 0.596158
Si Si6 0.683818 0.000000 0.497224
Si Si7 0.683085 0.000000 0.240664
Si Si8 0.816295 0.308506 0.555473
O O1 0.745618 0.713649 0.867196
O O2 0.779551 0.591338 0.958041
O O3 0.000000 0.704219 0.935497
O O4 0.746784 0.760441 0.991466
O O5 0.500000 0.191335 0.664418
O O6 0.716010 0.243368 0.741639
O O7 0.758927 0.249655 0.616537
O O8 0.747784 0.090934 0.671790
O O9 0.500000 0.329603 0.800412
O O10 0.763408 0.410296 0.778079
O O11 0.230852 0.000000 0.565506
O O12 0.000000 0.000000 0.646236
O O13 0.500000 0.500000 0.594215
O O14 0.738590 0.500000 0.670487
O O15 0.749343 0.409285 0.563717
O O16 0.500000 0.000000 0.510010
O O17 0.500000 0.000000 0.233112
O O18 0.000000 0.310847 0.555039
#
# Coordination Sequence:
#
# PCOD9375442 Si02
#       8
#     8   8   8   4   4   4   4   8
#     4  11  23  40  63  92 129 169 207 254 313 373
#     4  11  23  41  64  89 125 167 206 252 311 372
#     4  11  24  41  63  91 127 167 209 258 313 373
#     4  12  24  37  62  95 124 158 207 263 306 357
#     4  12  24  41  64  93 126 164 210 258 313 368
#     4  10  21  37  60  88 125 165 202 247 310 373
#     4  12  23  37  62  94 129 165 205 258 317 374
#     4  12  24  40  64  94 126 162 209 259 309 368
#
# _framework density 18.072030999999999
#
# number of rings (size 3 to 8) (size 9 to 14) (size 15 to 20)
#    0.000    0.667    3.333    5.750    0.000    3.333 
#    0.000    0.833    0.000    3.000    0.000    0.000 
#    0.000    0.000    0.000    0.000    0.000    0.000 
#
# Total GULP energy -134312.360046 kJ/mol
# GULP energy per Si atom -5596.348335 kJ/mol
# Density = 1.803090 g / cm^3
# Si number density = 18.072031 Si / 1000 Ang^3
#
#
#
# Elastic Constant Matrix: (Units=GPa)
#
#
# Indices 1 2 3 4 5 6 
#
# 1 117.7179 66.9283 72.2797 0.0000 0.0000 0.0000
# 2 66.9283 155.1911 75.5346 0.0000 0.0000 0.0000
# 3 72.2797 75.5346 148.6036 0.0000 0.0000 0.0000
# 4 0.0000 0.0000 0.0000 -57.9566 0.0000 0.0000
# 5 0.0000 0.0000 0.0000 0.0000 33.4626 0.0000
# 6 0.0000 0.0000 0.0000 0.0000 0.0000 -66.3522
#
#
#
# Elastic Compliance Matrix: (Units=1/GPa)
#
#
# Indices 1 2 3 4 5 6 
#
# 1 0.013376 -0.003457 -0.004749 0.000000 0.000000 0.000000
# 2 -0.003457 0.009456 -0.003125 0.000000 0.000000 0.000000
# 3 -0.004749 -0.003125 0.010627 0.000000 0.000000 0.000000
# 4 0.000000 0.000000 0.000000 -0.017254 0.000000 0.000000
# 5 0.000000 0.000000 0.000000 0.000000 0.029884 0.000000
# 6 0.000000 0.000000 0.000000 0.000000 0.000000 -0.015071
#
#
# Mechanical properties :
#
#
# Convention : Reuss Voigt Hill
#
# Bulk Modulus (GPa) = 92.61240 94.55532 93.58386
# Shear Modulus (GPa) = 87.29266 -4.38457 41.45405
#
# Velocity S-wave (km/s) = 6.95755 -1.55930 4.79458
# Velocity P-wave (km/s) = 10.76572 7.01377 9.08553
#
# Compressibility (1/GPa) = 0.01079769
#
# Stress axis : x y z
#
# Youngs Moduli (GPa) = 74.75858 105.75854 94.09754
#
# Poissons Ratio (x) = 0.36565 0.44685
# Poissons Ratio (y) = 0.25847 0.29401
# Poissons Ratio (z) = 0.35501 0.33045
#
# Static dielectric constant tensor:
#      x y z
#    x 1.601610 0.000000 0.000000 
#    y 0.000000 1.601480 0.000000 
#    z 0.000000 0.000000 1.592240 
# 
# From -- ./inp_files/20377.got.cif
#   From: 2010.05.17/outbox.cif.g08.bks.cpg/sg44_11_cif.got.tgz:20377.got - 2010.06.03 19:37:08.
