data_PCOD9375059
_publ_section_title
;
Structure prediction by ZEFSAII (Michael W. Deem and Ramdas Pophale) SiO2 
 PCOD9375059
Probable space group: I M M 2
;
_chemical_formula_sum "Si O2"
_cell_formula_units_Z 56
_cell_length_a 21.787518
_cell_length_b 7.899324
_cell_length_c 14.517693
_cell_angle_alpha 90.000000
_cell_angle_beta 90.000000
_cell_angle_gamma 90.000000
_cell_volume 2498.591709
_symmetry_space_group_name_H-M "I M M 2"
_symmetry_group_IT_number 44
_symmetry_cell_setting 'orthorhombic'
loop_
_space_group_symop_operation_xyz
x,y,z
-x,-y,z
-x,y,z
x,-y,z
1/2+x,1/2+y,1/2+z
1/2-x,1/2-y,1/2+z
1/2-x,1/2+y,1/2+z
1/2+x,1/2-y,1/2+z
loop_
_atom_site_type_symbol
_atom_site_label
_atom_site_fract_x
_atom_site_fract_y
_atom_site_fract_z
Si Si1 0.873211 0.189581 0.857130
Si Si2 0.212612 0.689233 0.708908
Si Si3 0.500000 0.798694 0.272086
Si Si4 0.500000 0.705554 0.058100
Si Si5 0.069905 0.296337 0.035449
Si Si6 0.069773 0.703674 0.248652
Si Si7 0.311747 0.695035 0.841382
Si Si8 0.139766 0.797311 0.527062
O O1 0.831279 0.311954 0.798163
O O2 0.940475 0.214921 0.815564
O O3 0.850932 0.000000 0.840706
O O4 0.881001 0.224634 0.964755
O O5 0.228879 0.500000 0.677886
O O6 0.272631 0.772940 0.756578
O O7 0.173059 0.765790 0.625160
O O8 0.500000 0.764900 0.163848
O O9 0.500000 0.000000 0.291286
O O10 0.500000 0.500000 0.053941
O O11 0.431947 0.763387 0.022343
O O12 0.070674 0.500000 0.027367
O O13 0.080221 0.253127 0.141514
O O14 0.000000 0.241028 0.012303
O O15 0.076792 0.500000 0.258034
O O16 0.118238 0.798355 0.309708
O O17 0.000000 0.746321 0.272657
O O18 0.290564 0.500000 0.848995
O O19 0.316667 0.770320 0.944229
O O20 0.136625 0.000000 0.515489
#
# Coordination Sequence:
#
# PCOD9375059 Si02
#       8
#     8   8   4   4   8   8   8   8
#     4  12  23  35  56  88 122 160 209 256 309 370
#     4  11  24  42  61  87 124 163 209 257 308 375
#     4  12  22  34  56  87 124 161 198 251 320 372
#     4  10  20  36  62  93 124 159 210 263 312 374
#     4   9  18  34  56  82 117 159 199 240 296 359
#     4   9  20  39  62  90 121 157 202 252 308 374
#     4  10  24  43  64  91 122 161 207 256 314 380
#     4  10  22  41  65  93 125 164 210 260 315 375
#
# _framework density 22.412627000000001
#
# number of rings (size 3 to 8) (size 9 to 14) (size 15 to 20)
#    0.000    1.714    2.143    3.214    1.000    3.714 
#    0.000    5.714    0.000    0.000    0.000    0.000 
#    0.000    0.000    0.000    0.000    0.000    0.000 
#
# Total GULP energy -156223.568391 kJ/mol
# GULP energy per Si atom -5579.413157 kJ/mol
# Density = 2.236161 g / cm^3
# Si number density = 22.412627 Si / 1000 Ang^3
#
#
#
# Elastic Constant Matrix: (Units=GPa)
#
#
# Indices 1 2 3 4 5 6 
#
# 1 86.4386 5.0607 48.1150 0.0000 0.0000 0.0000
# 2 5.0607 39.5784 11.5159 0.0000 0.0000 0.0000
# 3 48.1150 11.5159 74.5209 0.0000 0.0000 0.0000
# 4 0.0000 0.0000 0.0000 18.6373 0.0000 0.0000
# 5 0.0000 0.0000 0.0000 0.0000 16.5661 0.0000
# 6 0.0000 0.0000 0.0000 0.0000 0.0000 11.8165
#
#
#
# Elastic Compliance Matrix: (Units=1/GPa)
#
#
# Indices 1 2 3 4 5 6 
#
# 1 0.018108 0.001138 -0.011868 0.000000 0.000000 0.000000
# 2 0.001138 0.026527 -0.004834 0.000000 0.000000 0.000000
# 3 -0.011868 -0.004834 0.021828 0.000000 0.000000 0.000000
# 4 0.000000 0.000000 0.000000 0.053656 0.000000 0.000000
# 5 0.000000 0.000000 0.000000 0.000000 0.060364 0.000000
# 6 0.000000 0.000000 0.000000 0.000000 0.000000 0.084628
#
#
# Mechanical properties :
#
#
# Convention : Reuss Voigt Hill
#
# Bulk Modulus (GPa) = 28.29940 36.65791 32.47866
# Shear Modulus (GPa) = 16.23281 18.46039 17.34660
#
# Velocity S-wave (km/s) = 2.69415 2.87306 2.78504
# Velocity P-wave (km/s) = 4.72566 5.23425 4.98645
#
# Compressibility (1/GPa) = 0.03533643
#
# Stress axis : x y z
#
# Youngs Moduli (GPa) = 55.22350 37.69699 45.81182
#
# Poissons Ratio (x) = -0.04288 0.54367
# Poissons Ratio (y) = -0.06282 0.22145
# Poissons Ratio (z) = 0.65537 0.18222
#
# Static dielectric constant tensor:
#      x y z
#    x 1.872620 0.000000 0.000000 
#    y 0.000000 1.837710 0.000000 
#    z 0.000000 0.000000 1.852130 
# 
# From -- ./inp_files/19230.got.cif
#   From: 2010.05.17/outbox.cif.g08.bks.cpg/sg44_10_cif.got.tgz:19230.got - 2010.06.03 19:37:08.
