data_PCOD9375194
_publ_section_title
;
Structure prediction by ZEFSAII (Michael W. Deem and Ramdas Pophale) SiO2 
 PCOD9375194
Probable space group: I M M 2
;
_chemical_formula_sum "Si O2"
_cell_formula_units_Z 32
_cell_length_a 8.847441
_cell_length_b 15.476367
_cell_length_c 12.195508
_cell_angle_alpha 90.000000
_cell_angle_beta 90.000000
_cell_angle_gamma 90.000000
_cell_volume 1669.885103
_symmetry_space_group_name_H-M "I M M 2"
_symmetry_group_IT_number 44
_symmetry_cell_setting 'orthorhombic'
loop_
_space_group_symop_operation_xyz
x,y,z
-x,-y,z
-x,y,z
x,-y,z
1/2+x,1/2+y,1/2+z
1/2-x,1/2-y,1/2+z
1/2-x,1/2+y,1/2+z
1/2+x,1/2-y,1/2+z
loop_
_atom_site_type_symbol
_atom_site_label
_atom_site_fract_x
_atom_site_fract_y
_atom_site_fract_z
Si Si1 0.673477 0.398629 0.536250
Si Si2 0.318238 0.357595 0.287361
Si Si3 0.180414 0.000000 0.385722
Si Si4 0.178511 0.658330 0.750999
Si Si5 0.819589 0.500000 0.129088
O O1 0.500000 0.366642 0.547055
O O2 0.673456 0.500000 0.562718
O O3 0.719179 0.388080 0.410226
O O4 0.779384 0.353418 0.623770
O O5 0.500000 0.367785 0.272764
O O6 0.280939 0.256413 0.281028
O O7 0.236829 0.416632 0.197709
O O8 0.236162 0.085194 0.320642
O O9 0.248716 0.000000 0.507886
O O10 0.000000 0.000000 0.390469
O O11 0.000000 0.646435 0.768245
O O12 0.000000 0.500000 0.121223
#
# Coordination Sequence:
#
# PCOD9375194 Si02
#       5
#     8   8   4   8   4
#     4  10  20  39  66  90 122 167 209 256 315 376
#     4  10  23  44  66  92 128 169 210 259 318 376
#     4  12  26  45  66  89 128 175 213 259 323 380
#     4  11  24  41  65  97 128 163 212 266 315 373
#     4  12  26  43  66  95 128 167 215 265 313 376
#
# _framework density 19.162994999999999
#
# number of rings (size 3 to 8) (size 9 to 14) (size 15 to 20)
#    0.000    1.250    2.500    3.000    3.500    3.000 
#    0.000    0.000    0.000    0.000    0.000    0.000 
#    0.000    0.000    0.000    0.000    0.000    0.000 
#
# Total GULP energy -89438.656867 kJ/mol
# GULP energy per Si atom -5589.916054 kJ/mol
# Density = 1.911938 g / cm^3
# Si number density = 19.162995 Si / 1000 Ang^3
#
#
#
# Elastic Constant Matrix: (Units=GPa)
#
#
# Indices 1 2 3 4 5 6 
#
# 1 90.1667 65.4352 50.2960 0.0000 0.0000 0.0000
# 2 65.4352 113.7836 52.4627 0.0000 0.0000 0.0000
# 3 50.2960 52.4627 110.1115 0.0000 0.0000 0.0000
# 4 0.0000 0.0000 0.0000 23.5900 0.0000 0.0000
# 5 0.0000 0.0000 0.0000 0.0000 33.7422 0.0000
# 6 0.0000 0.0000 0.0000 0.0000 0.0000 18.0539
#
#
#
# Elastic Compliance Matrix: (Units=1/GPa)
#
#
# Indices 1 2 3 4 5 6 
#
# 1 0.020911 -0.009767 -0.004898 0.000000 0.000000 0.000000
# 2 -0.009767 0.015825 -0.003078 0.000000 0.000000 0.000000
# 3 -0.004898 -0.003078 0.012786 0.000000 0.000000 0.000000
# 4 0.000000 0.000000 0.000000 0.042391 0.000000 0.000000
# 5 0.000000 0.000000 0.000000 0.000000 0.029636 0.000000
# 6 0.000000 0.000000 0.000000 0.000000 0.000000 0.055390
#
#
# Mechanical properties :
#
#
# Convention : Reuss Voigt Hill
#
# Bulk Modulus (GPa) = 71.25358 72.27218 71.76288
# Shear Modulus (GPa) = 23.03044 24.80174 23.91609
#
# Velocity S-wave (km/s) = 3.47049 3.60147 3.53659
# Velocity P-wave (km/s) = 7.30224 7.42230 7.36251
#
# Compressibility (1/GPa) = 0.01403438
#
# Stress axis : x y z
#
# Youngs Moduli (GPa) = 47.82193 63.19124 78.21262
#
# Poissons Ratio (x) = 0.61720 0.38308
# Poissons Ratio (y) = 0.46709 0.24077
# Poissons Ratio (z) = 0.23423 0.19453
#
# Static dielectric constant tensor:
#      x y z
#    x 1.653290 0.000000 0.000000 
#    y 0.000000 1.670430 0.000000 
#    z 0.000000 0.000000 1.637890 
# 
# From -- ./inp_files/10660.got.cif
#   From: 2010.05.17/outbox.cif.g08.bks.cpg/sg44_6_cif.got.tgz:10660.got - 2010.06.03 19:37:08.
