data_PCOD9375257
_publ_section_title
;
Structure prediction by ZEFSAII (Michael W. Deem and Ramdas Pophale) SiO2 
 PCOD9375257
Probable space group: I M M 2
;
_chemical_formula_sum "Si O2"
_cell_formula_units_Z 48
_cell_length_a 7.868079
_cell_length_b 9.045967
_cell_length_c 34.873245
_cell_angle_alpha 90.000000
_cell_angle_beta 90.000000
_cell_angle_gamma 90.000000
_cell_volume 2482.081696
_symmetry_space_group_name_H-M "I M M 2"
_symmetry_group_IT_number 44
_symmetry_cell_setting 'orthorhombic'
loop_
_space_group_symop_operation_xyz
x,y,z
-x,-y,z
-x,y,z
x,-y,z
1/2+x,1/2+y,1/2+z
1/2-x,1/2-y,1/2+z
1/2-x,1/2+y,1/2+z
1/2+x,1/2-y,1/2+z
loop_
_atom_site_type_symbol
_atom_site_label
_atom_site_fract_x
_atom_site_fract_y
_atom_site_fract_z
Si Si1 0.307359 0.324839 0.887580
Si Si2 0.300869 0.669150 0.312750
Si Si3 0.000000 0.678934 0.016595
Si Si4 0.795305 0.330186 0.652623
Si Si5 0.298953 0.329538 0.736794
Si Si6 0.803526 0.822487 0.573619
Si Si7 0.000000 0.823288 0.933245
O O1 0.500000 0.297885 0.901241
O O2 0.273709 0.500000 0.889537
O O3 0.292512 0.270230 0.843748
O O4 0.166572 0.238302 0.911658
O O5 0.500000 0.670524 0.322964
O O6 0.239720 0.500000 0.314632
O O7 0.281432 0.733015 0.270194
O O8 0.167995 0.718822 0.041134
O O9 0.000000 0.500000 0.011162
O O10 0.000000 0.759763 0.976144
O O11 0.735701 0.500000 0.649133
O O12 0.733656 0.272855 0.693742
O O13 0.747058 0.241402 0.614714
O O14 0.000000 0.330150 0.653997
O O15 0.500000 0.331973 0.743438
O O16 0.235212 0.500000 0.738414
O O17 0.000000 0.774899 0.566166
O O18 0.803980 0.000000 0.576006
O O19 0.000000 0.000000 0.932532
#
# Coordination Sequence:
#
# PCOD9375257 Si02
#       7
#     8   8   4   8   8   8   4
#     4  11  24  43  69  96 124 165 210 253 307 374
#     4  11  23  38  58  86 120 159 203 255 312 365
#     4  10  22  40  62  88 120 158 202 250 304 372
#     4   9  18  33  53  78 110 149 194 245 302 359
#     4  10  21  35  52  79 114 155 203 252 301 362
#     4   9  19  36  58  84 115 153 197 246 300 361
#     4  12  26  44  66  98 132 164 204 258 318 374
#
# _framework density 19.338605999999999
#
# number of rings (size 3 to 8) (size 9 to 14) (size 15 to 20)
#    0.000    1.833    0.833    2.750    1.167    7.333 
#    0.000    3.333    0.000    0.000    0.000    0.000 
#    0.000    0.000    0.000    0.000    0.000    0.000 
#
# Total GULP energy -134065.786911 kJ/mol
# GULP energy per Si atom -5586.074455 kJ/mol
# Density = 1.929459 g / cm^3
# Si number density = 19.338606 Si / 1000 Ang^3
#
#
#
# Elastic Constant Matrix: (Units=GPa)
#
#
# Indices 1 2 3 4 5 6 
#
# 1 91.1771 51.5811 59.7327 0.0000 0.0000 0.0000
# 2 51.5811 74.8892 57.2128 0.0000 0.0000 0.0000
# 3 59.7327 57.2128 141.2547 0.0000 0.0000 0.0000
# 4 0.0000 0.0000 0.0000 36.4480 0.0000 0.0000
# 5 0.0000 0.0000 0.0000 0.0000 13.7300 0.0000
# 6 0.0000 0.0000 0.0000 0.0000 0.0000 1.2250
#
#
#
# Elastic Compliance Matrix: (Units=1/GPa)
#
#
# Indices 1 2 3 4 5 6 
#
# 1 0.019450 -0.010300 -0.004053 0.000000 0.000000 0.000000
# 2 -0.010300 0.024791 -0.005686 0.000000 0.000000 0.000000
# 3 -0.004053 -0.005686 0.011096 0.000000 0.000000 0.000000
# 4 0.000000 0.000000 0.000000 0.027436 0.000000 0.000000
# 5 0.000000 0.000000 0.000000 0.000000 0.072833 0.000000
# 6 0.000000 0.000000 0.000000 0.000000 0.000000 0.816343
#
#
# Mechanical properties :
#
#
# Convention : Reuss Voigt Hill
#
# Bulk Modulus (GPa) = 65.53154 71.59714 68.56434
# Shear Modulus (GPa) = 4.91587 19.53355 12.22471
#
# Velocity S-wave (km/s) = 1.59609 3.18162 2.51697
# Velocity P-wave (km/s) = 6.11201 7.11339 6.63162
#
# Compressibility (1/GPa) = 0.01525983
#
# Stress axis : x y z
#
# Youngs Moduli (GPa) = 51.41417 40.33726 90.12166
#
# Poissons Ratio (x) = 0.41548 0.36526
# Poissons Ratio (y) = 0.52957 0.51239
# Poissons Ratio (z) = 0.20838 0.22934
#
# Static dielectric constant tensor:
#      x y z
#    x 1.693830 0.000000 0.000000 
#    y 0.000000 1.659530 0.000000 
#    z 0.000000 0.000000 1.646900 
# 
# From -- ./inp_files/26927.got.cif
#   From: 2010.05.17/outbox.cif.g08.bks.cpg/sg44_14_cif.got.tgz:26927.got - 2010.06.03 19:37:08.
