data_PCOD9375603
_publ_section_title
;
Structure prediction by ZEFSAII (Michael W. Deem and Ramdas Pophale) SiO2 
 PCOD9375603
Probable space group: I M M 2
;
_chemical_formula_sum "Si O2"
_cell_formula_units_Z 40
_cell_length_a 15.865108
_cell_length_b 8.238695
_cell_length_c 15.867130
_cell_angle_alpha 90.000000
_cell_angle_beta 90.000000
_cell_angle_gamma 90.000000
_cell_volume 2073.957432
_symmetry_space_group_name_H-M "I M M 2"
_symmetry_group_IT_number 44
_symmetry_cell_setting 'orthorhombic'
loop_
_space_group_symop_operation_xyz
x,y,z
-x,-y,z
-x,y,z
x,-y,z
1/2+x,1/2+y,1/2+z
1/2-x,1/2-y,1/2+z
1/2-x,1/2+y,1/2+z
1/2+x,1/2-y,1/2+z
loop_
_atom_site_type_symbol
_atom_site_label
_atom_site_fract_x
_atom_site_fract_y
_atom_site_fract_z
Si Si1 0.672320 0.309502 0.904840
Si Si2 0.000000 0.680194 0.466756
Si Si3 0.000000 0.000000 0.577996
Si Si4 0.748814 0.681923 0.718668
Si Si5 0.639044 0.500000 0.217001
Si Si6 0.685897 0.809439 0.546532
Si Si7 0.000000 0.683686 0.969276
Si Si8 0.500000 0.500000 0.356202
O O1 0.652654 0.500000 0.922191
O O2 0.699709 0.301201 0.807251
O O3 0.587909 0.205242 0.917303
O O4 0.748351 0.264739 0.970495
O O5 0.000000 0.500000 0.504715
O O6 0.000000 0.831703 0.529034
O O7 0.918011 0.000000 0.635079
O O8 0.786392 0.500000 0.718948
O O9 0.810948 0.832926 0.717711
O O10 0.698697 0.705401 0.630999
O O11 0.581283 0.500000 0.298386
O O12 0.588318 0.801082 0.519019
O O13 0.703266 0.000000 0.565816
O O14 0.000000 0.834186 0.907262
O O15 0.000000 0.500000 0.932001
#
# Coordination Sequence:
#
# PCOD9375603 Si02
#       8
#     8   4   2   8   4   8   4   2
#     4  10  22  42  65  92 134 175 214 272 329 384
#     4  12  25  40  66  97 125 173 226 266 325 397
#     4  11  24  44  62  91 138 170 212 283 336 383
#     4  11  24  41  65  97 129 171 221 267 326 394
#     4  11  24  42  64  93 132 172 218 277 332 391
#     4  10  21  41  67  93 132 176 215 268 327 388
#     4  10  23  42  64  97 133 169 216 268 327 391
#     4  11  24  40  66  95 126 174 224 271 328 399
#
# _framework density 19.286799999999999
#
# number of rings (size 3 to 8) (size 9 to 14) (size 15 to 20)
#    0.000    1.400    2.000    2.400    2.800    6.400 
#    0.000    4.000    0.000    0.000    0.000    0.000 
#    0.000    0.000    0.000    0.000    0.000    0.000 
#
# Total GULP energy -111557.236739 kJ/mol
# GULP energy per Si atom -5577.861837 kJ/mol
# Density = 1.924290 g / cm^3
# Si number density = 19.286800 Si / 1000 Ang^3
#
#
#
# Elastic Constant Matrix: (Units=GPa)
#
#
# Indices 1 2 3 4 5 6 
#
# 1 120.3773 68.6145 47.0165 0.0000 0.0000 0.0000
# 2 68.6145 169.7957 68.8133 0.0000 0.0000 0.0000
# 3 47.0165 68.8133 120.7786 0.0000 0.0000 0.0000
# 4 0.0000 0.0000 0.0000 109.4741 0.0000 0.0000
# 5 0.0000 0.0000 0.0000 0.0000 37.6446 0.0000
# 6 0.0000 0.0000 0.0000 0.0000 0.0000 11.2281
#
#
#
# Elastic Compliance Matrix: (Units=1/GPa)
#
#
# Indices 1 2 3 4 5 6 
#
# 1 0.011277 -0.003612 -0.002332 0.000000 0.000000 0.000000
# 2 -0.003612 0.008814 -0.003616 0.000000 0.000000 0.000000
# 3 -0.002332 -0.003616 0.011248 0.000000 0.000000 0.000000
# 4 0.000000 0.000000 0.000000 0.009135 0.000000 0.000000
# 5 0.000000 0.000000 0.000000 0.000000 0.026564 0.000000
# 6 0.000000 0.000000 0.000000 0.000000 0.000000 0.089062
#
#
# Mechanical properties :
#
#
# Convention : Reuss Voigt Hill
#
# Bulk Modulus (GPa) = 81.83848 86.64892 84.24370
# Shear Modulus (GPa) = 27.88741 46.76985 37.32863
#
# Velocity S-wave (km/s) = 3.80667 4.92974 4.40415
# Velocity P-wave (km/s) = 7.86419 8.79927 8.34484
#
# Compressibility (1/GPa) = 0.01221919
#
# Stress axis : x y z
#
# Youngs Moduli (GPa) = 88.67797 113.45020 88.90799
#
# Poissons Ratio (x) = 0.40977 0.20733
# Poissons Ratio (y) = 0.32029 0.32149
# Poissons Ratio (z) = 0.20679 0.41023
#
# Static dielectric constant tensor:
#      x y z
#    x 1.692230 0.000000 0.000000 
#    y 0.000000 1.595790 0.000000 
#    z 0.000000 0.000000 1.691540 
# 
# From -- ./inp_files/15844.got.cif
#   From: 2010.05.17/outbox.cif.g08.bks.cpg/sg44_8_cif.got.tgz:15844.got - 2010.06.03 19:37:08.
