data_PCOD9375841
_publ_section_title
;
Structure prediction by ZEFSAII (Michael W. Deem and Ramdas Pophale) SiO2 
 PCOD9375841
Probable space group: I M M 2
;
_chemical_formula_sum "Si O2"
_cell_formula_units_Z 56
_cell_length_a 14.724634
_cell_length_b 8.468851
_cell_length_c 23.424886
_cell_angle_alpha 90.000000
_cell_angle_beta 90.000000
_cell_angle_gamma 90.000000
_cell_volume 2921.100417
_symmetry_space_group_name_H-M "I M M 2"
_symmetry_group_IT_number 44
_symmetry_cell_setting 'orthorhombic'
loop_
_space_group_symop_operation_xyz
x,y,z
-x,-y,z
-x,y,z
x,-y,z
1/2+x,1/2+y,1/2+z
1/2-x,1/2-y,1/2+z
1/2-x,1/2+y,1/2+z
1/2+x,1/2-y,1/2+z
loop_
_atom_site_type_symbol
_atom_site_label
_atom_site_fract_x
_atom_site_fract_y
_atom_site_fract_z
Si Si1 0.351404 0.821060 0.538020
Si Si2 0.104371 0.688451 0.809544
Si Si3 0.098823 0.191798 0.455863
Si Si4 0.702929 0.691435 0.197065
Si Si5 0.294186 0.686042 0.420314
Si Si6 0.097724 0.307058 0.160632
Si Si7 0.642158 0.678835 0.078494
O O1 0.346600 0.728014 0.479153
O O2 0.399995 0.755501 0.594169
O O3 0.247640 0.832057 0.560161
O O4 0.383514 0.000000 0.526467
O O5 0.103383 0.500000 0.804694
O O6 0.157495 0.757091 0.755361
O O7 0.155684 0.734821 0.867357
O O8 0.000000 0.745705 0.810571
O O9 0.190028 0.254542 0.426731
O O10 0.099157 0.251348 0.521824
O O11 0.000000 0.231421 0.430336
O O12 0.106251 0.000000 0.457825
O O13 0.703057 0.500000 0.193467
O O14 0.808452 0.743592 0.190423
O O15 0.645955 0.750795 0.141611
O O16 0.293118 0.500000 0.412220
O O17 0.100447 0.500000 0.159280
O O18 0.000000 0.260377 0.186004
O O19 0.605977 0.500000 0.083941
#
# Coordination Sequence:
#
# PCOD9375841 Si02
#       7
#     8   8   8   8   8   8   8
#     4   8  14  28  50  75 106 143 179 211 247 298
#     4  11  25  43  59  73  94 132 182 230 275 326
#     4   9  17  32  56  84 114 148 182 213 251 309
#     4   9  17  32  55  81 109 139 173 218 265 307
#     4  11  22  36  55  79 109 141 176 224 275 320
#     4   8  14  27  52  85 115 143 175 208 248 308
#     4   7  12  25  47  75 105 138 174 208 247 298
#
# _framework density 19.170857999999999
#
# number of rings (size 3 to 8) (size 9 to 14) (size 15 to 20)
#    0.000    3.000    0.000    4.286    0.000    2.571 
#    0.000   10.000    0.000    3.857    0.000    0.000 
#    0.000    0.000    0.000    0.000    0.000    0.000 
#
# Total GULP energy -155909.432110 kJ/mol
# GULP energy per Si atom -5568.194004 kJ/mol
# Density = 1.912722 g / cm^3
# Si number density = 19.170858 Si / 1000 Ang^3
#
#
#
# Elastic Constant Matrix: (Units=GPa)
#
#
# Indices 1 2 3 4 5 6 
#
# 1 141.9329 14.4654 57.0932 0.0000 0.0000 0.0000
# 2 14.4654 20.7959 6.7612 0.0000 0.0000 0.0000
# 3 57.0932 6.7612 107.9620 0.0000 0.0000 0.0000
# 4 0.0000 0.0000 0.0000 26.2482 0.0000 0.0000
# 5 0.0000 0.0000 0.0000 0.0000 19.3882 0.0000
# 6 0.0000 0.0000 0.0000 0.0000 0.0000 11.2076
#
#
#
# Elastic Compliance Matrix: (Units=1/GPa)
#
#
# Indices 1 2 3 4 5 6 
#
# 1 0.009441 -0.005047 -0.004677 0.000000 0.000000 0.000000
# 2 -0.005047 0.051783 -0.000574 0.000000 0.000000 0.000000
# 3 -0.004677 -0.000574 0.011772 0.000000 0.000000 0.000000
# 4 0.000000 0.000000 0.000000 0.038098 0.000000 0.000000
# 5 0.000000 0.000000 0.000000 0.000000 0.051578 0.000000
# 6 0.000000 0.000000 0.000000 0.000000 0.000000 0.089225
#
#
# Mechanical properties :
#
#
# Convention : Reuss Voigt Hill
#
# Bulk Modulus (GPa) = 19.08354 47.48116 33.28235
# Shear Modulus (GPa) = 17.24380 24.19351 20.71866
#
# Velocity S-wave (km/s) = 3.00239 3.55631 3.29102
# Velocity P-wave (km/s) = 4.68990 6.45633 5.64267
#
# Compressibility (1/GPa) = 0.05240117
#
# Stress axis : x y z
#
# Youngs Moduli (GPa) = 105.91933 19.31120 84.94995
#
# Poissons Ratio (x) = 0.09746 0.39728
# Poissons Ratio (y) = 0.53454 0.04878
# Poissons Ratio (z) = 0.49535 0.01109
#
# Static dielectric constant tensor:
#      x y z
#    x 1.712710 0.000000 0.000000 
#    y 0.000000 1.663480 0.000000 
#    z 0.000000 0.000000 1.663700 
# 
# From -- ./inp_files/24134.got.cif
#   From: 2010.05.17/outbox.cif.g08.bks.cpg/sg44_13_cif.got.tgz:24134.got - 2010.06.03 19:37:08.
