data_PCOD9375391
_publ_section_title
;
Structure prediction by ZEFSAII (Michael W. Deem and Ramdas Pophale) SiO2 
 PCOD9375391
Probable space group: I M M 2
;
_chemical_formula_sum "Si O2"
_cell_formula_units_Z 48
_cell_length_a 8.443678
_cell_length_b 14.930869
_cell_length_c 21.056957
_cell_angle_alpha 90.000000
_cell_angle_beta 90.000000
_cell_angle_gamma 90.000000
_cell_volume 2654.681104
_symmetry_space_group_name_H-M "I M M 2"
_symmetry_group_IT_number 44
_symmetry_cell_setting 'orthorhombic'
loop_
_space_group_symop_operation_xyz
x,y,z
-x,-y,z
-x,y,z
x,-y,z
1/2+x,1/2+y,1/2+z
1/2-x,1/2-y,1/2+z
1/2-x,1/2+y,1/2+z
1/2+x,1/2-y,1/2+z
loop_
_atom_site_type_symbol
_atom_site_label
_atom_site_fract_x
_atom_site_fract_y
_atom_site_fract_z
Si Si1 0.810178 0.189737 0.134910
Si Si2 0.309623 0.000000 0.184755
Si Si3 0.689604 0.308925 0.250084
Si Si4 0.310499 0.000000 0.790212
Si Si5 0.689951 0.000000 0.937762
Si Si6 0.192934 0.500000 0.833155
Si Si7 0.191504 0.812562 0.991608
Si Si8 0.806578 0.694585 0.873399
O O1 0.745912 0.258435 0.187104
O O2 0.000000 0.191919 0.136774
O O3 0.753691 0.089979 0.152698
O O4 0.757077 0.210223 0.062994
O O5 0.262289 0.000000 0.258987
O O6 0.500000 0.000000 0.181855
O O7 0.500000 0.309552 0.250871
O O8 0.750743 0.409692 0.257233
O O9 0.743605 0.252149 0.311966
O O10 0.255936 0.000000 0.864040
O O11 0.500000 0.000000 0.790182
O O12 0.751480 0.088974 0.971879
O O13 0.500000 0.000000 0.938648
O O14 0.246349 0.407784 0.865252
O O15 0.000000 0.500000 0.834616
O O16 0.246081 0.743142 0.937657
O O17 0.000000 0.813064 0.990831
O O18 0.000000 0.694308 0.873316
#
# Coordination Sequence:
#
# PCOD9375391 Si02
#       8
#     8   4   8   4   4   4   8   8
#     4  11  23  37  54  83 122 156 187 235 298 347
#     4  11  20  34  57  85 113 147 193 235 281 349
#     4  11  21  37  62  85 110 153 199 237 278 340
#     4  11  23  38  57  88 122 148 185 243 302 343
#     4  11  22  34  55  87 117 147 185 242 299 339
#     4   9  16  30  55  86 106 126 179 242 278 313
#     4  10  21  37  56  80 114 155 192 228 281 351
#     4   9  17  32  56  82 107 141 190 236 271 326
#
# _framework density 18.081267
#
# number of rings (size 3 to 8) (size 9 to 14) (size 15 to 20)
#    0.000    1.667    3.333    2.250    0.000    4.000 
#    0.000    0.833    0.000    3.000    0.000    0.000 
#    0.000    0.000    0.000    0.000    0.000    0.000 
#
# Total GULP energy -134057.037329 kJ/mol
# GULP energy per Si atom -5585.709889 kJ/mol
# Density = 1.804011 g / cm^3
# Si number density = 18.081267 Si / 1000 Ang^3
#
#
#
# Elastic Constant Matrix: (Units=GPa)
#
#
# Indices 1 2 3 4 5 6 
#
# 1 27.2756 25.0287 32.2368 0.0000 0.0000 0.0000
# 2 25.0287 176.1719 108.1413 0.0000 0.0000 0.0000
# 3 32.2368 108.1413 187.2631 0.0000 0.0000 0.0000
# 4 0.0000 0.0000 0.0000 19.5583 0.0000 0.0000
# 5 0.0000 0.0000 0.0000 0.0000 23.3123 0.0000
# 6 0.0000 0.0000 0.0000 0.0000 0.0000 21.2345
#
#
#
# Elastic Compliance Matrix: (Units=1/GPa)
#
#
# Indices 1 2 3 4 5 6 
#
# 1 0.046806 -0.002639 -0.006533 0.000000 0.000000 0.000000
# 2 -0.002639 0.008942 -0.004710 0.000000 0.000000 0.000000
# 3 -0.006533 -0.004710 0.009185 0.000000 0.000000 0.000000
# 4 0.000000 0.000000 0.000000 0.051129 0.000000 0.000000
# 5 0.000000 0.000000 0.000000 0.000000 0.042896 0.000000
# 6 0.000000 0.000000 0.000000 0.000000 0.000000 0.047093
#
#
# Mechanical properties :
#
#
# Convention : Reuss Voigt Hill
#
# Bulk Modulus (GPa) = 26.90455 80.16938 53.53697
# Shear Modulus (GPa) = 20.30825 27.84129 24.07477
#
# Velocity S-wave (km/s) = 3.35500 3.92827 3.65290
# Velocity P-wave (km/s) = 5.46993 8.06286 6.88948
#
# Compressibility (1/GPa) = 0.03716843
#
# Stress axis : x y z
#
# Youngs Moduli (GPa) = 21.36459 111.82949 108.87877
#
# Poissons Ratio (x) = 0.29515 0.71136
# Poissons Ratio (y) = 0.05639 0.51278
# Poissons Ratio (z) = 0.13958 0.52667
#
# Static dielectric constant tensor:
#      x y z
#    x 1.618460 0.000000 0.000000 
#    y 0.000000 1.585080 0.000000 
#    z 0.000000 0.000000 1.618990 
# 
# From -- ./inp_files/20395.got.cif
#   From: 2010.05.17/outbox.cif.g08.bks.cpg/sg44_11_cif.got.tgz:20395.got - 2010.06.03 19:37:08.
