data_PCOD9375545
_publ_section_title
;
Structure prediction by ZEFSAII (Michael W. Deem and Ramdas Pophale) SiO2 
 PCOD9375545
Probable space group: I M M 2
;
_chemical_formula_sum "Si O2"
_cell_formula_units_Z 56
_cell_length_a 20.294136
_cell_length_b 11.442811
_cell_length_c 12.769332
_cell_angle_alpha 90.000000
_cell_angle_beta 90.000000
_cell_angle_gamma 90.000000
_cell_volume 2965.319339
_symmetry_space_group_name_H-M "I M M 2"
_symmetry_group_IT_number 44
_symmetry_cell_setting 'orthorhombic'
loop_
_space_group_symop_operation_xyz
x,y,z
-x,-y,z
-x,y,z
x,-y,z
1/2+x,1/2+y,1/2+z
1/2-x,1/2-y,1/2+z
1/2-x,1/2+y,1/2+z
1/2+x,1/2-y,1/2+z
loop_
_atom_site_type_symbol
_atom_site_label
_atom_site_fract_x
_atom_site_fract_y
_atom_site_fract_z
Si Si1 0.427249 0.361173 0.536900
Si Si2 0.273056 0.871594 0.623974
Si Si3 0.810754 0.365320 0.579625
Si Si4 0.572875 0.862013 0.229192
Si Si5 0.575049 0.359945 0.781703
Si Si6 0.166113 0.704451 0.918873
Si Si7 0.193682 0.707889 0.348807
O O1 0.500000 0.315363 0.504872
O O2 0.430181 0.500000 0.534250
O O3 0.416795 0.328874 0.658478
O O4 0.367986 0.320155 0.464938
O O5 0.234798 0.746944 0.609187
O O6 0.321409 0.870224 0.523630
O O7 0.304076 0.860628 0.739286
O O8 0.238095 0.000000 0.620147
O O9 0.792140 0.500000 0.614408
O O10 0.880457 0.332135 0.631605
O O11 0.813523 0.366121 0.454263
O O12 0.500000 0.807150 0.230118
O O13 0.614816 0.840520 0.333788
O O14 0.564934 0.000000 0.221758
O O15 0.500000 0.327701 0.811975
O O16 0.580668 0.500000 0.790260
O O17 0.632872 0.297095 0.843406
O O18 0.236100 0.726592 0.863622
#
# Coordination Sequence:
#
# PCOD9375545 Si02
#       7
#     8   8   8   8   8   8   8
#     4   9  18  34  59  90 121 157 205 257 309 369
#     4  11  23  39  59  91 127 157 199 262 320 365
#     4  10  23  42  62  86 119 167 214 250 301 373
#     4  10  21  39  61  85 118 162 211 255 297 364
#     4   9  19  37  62  91 123 161 207 258 314 377
#     4  11  21  36  59  87 121 164 201 255 309 373
#     4  11  22  37  61  90 124 164 200 256 317 373
#
# _framework density 18.884982000000001
#
# number of rings (size 3 to 8) (size 9 to 14) (size 15 to 20)
#    0.000    1.857    2.857    2.143    0.000    6.857 
#    0.000    0.000    0.000    2.571    0.000    0.000 
#    0.000    0.000    0.000    0.000    0.000    0.000 
#
# Total GULP energy -155868.152370 kJ/mol
# GULP energy per Si atom -5566.719728 kJ/mol
# Density = 1.884200 g / cm^3
# Si number density = 18.884982 Si / 1000 Ang^3
#
#
#
# Elastic Constant Matrix: (Units=GPa)
#
#
# Indices 1 2 3 4 5 6 
#
# 1 108.5163 39.0337 35.9992 0.0000 0.0000 0.0000
# 2 39.0337 79.4423 22.4920 0.0000 0.0000 0.0000
# 3 35.9992 22.4920 104.8034 0.0000 0.0000 0.0000
# 4 0.0000 0.0000 0.0000 21.7755 0.0000 0.0000
# 5 0.0000 0.0000 0.0000 0.0000 41.0625 0.0000
# 6 0.0000 0.0000 0.0000 0.0000 0.0000 24.2267
#
#
#
# Elastic Compliance Matrix: (Units=1/GPa)
#
#
# Indices 1 2 3 4 5 6 
#
# 1 0.012046 -0.005054 -0.003053 0.000000 0.000000 0.000000
# 2 -0.005054 0.015523 -0.001595 0.000000 0.000000 0.000000
# 3 -0.003053 -0.001595 0.010933 0.000000 0.000000 0.000000
# 4 0.000000 0.000000 0.000000 0.045923 0.000000 0.000000
# 5 0.000000 0.000000 0.000000 0.000000 0.024353 0.000000
# 6 0.000000 0.000000 0.000000 0.000000 0.000000 0.041277
#
#
# Mechanical properties :
#
#
# Convention : Reuss Voigt Hill
#
# Bulk Modulus (GPa) = 52.36601 54.20132 53.28366
# Shear Modulus (GPa) = 28.43730 30.42877 29.43303
#
# Velocity S-wave (km/s) = 3.88469 4.01841 3.95212
# Velocity P-wave (km/s) = 6.92172 7.09177 7.00726
#
# Compressibility (1/GPa) = 0.01909636
#
# Stress axis : x y z
#
# Youngs Moduli (GPa) = 83.01440 64.42109 91.46854
#
# Poissons Ratio (x) = 0.32561 0.27925
# Poissons Ratio (y) = 0.41959 0.14591
# Poissons Ratio (z) = 0.25344 0.10277
#
# Static dielectric constant tensor:
#      x y z
#    x 1.696370 0.000000 0.000000 
#    y 0.000000 1.675790 0.000000 
#    z 0.000000 0.000000 1.674410 
# 
# From -- ./inp_files/12447.got.cif
#   From: 2010.05.17/outbox.cif.g08.bks.cpg/sg44_7_cif.got.tgz:12447.got - 2010.06.03 19:37:08.
