data_PCOD9375662
_publ_section_title
;
Structure prediction by ZEFSAII (Michael W. Deem and Ramdas Pophale) SiO2 
 PCOD9375662
Probable space group: I M M 2
;
_chemical_formula_sum "Si O2"
_cell_formula_units_Z 48
_cell_length_a 8.053893
_cell_length_b 19.968586
_cell_length_c 15.368128
_cell_angle_alpha 90.000000
_cell_angle_beta 90.000000
_cell_angle_gamma 90.000000
_cell_volume 2471.576957
_symmetry_space_group_name_H-M "I M M 2"
_symmetry_group_IT_number 44
_symmetry_cell_setting 'orthorhombic'
loop_
_space_group_symop_operation_xyz
x,y,z
-x,-y,z
-x,y,z
x,-y,z
1/2+x,1/2+y,1/2+z
1/2-x,1/2-y,1/2+z
1/2-x,1/2+y,1/2+z
1/2+x,1/2-y,1/2+z
loop_
_atom_site_type_symbol
_atom_site_label
_atom_site_fract_x
_atom_site_fract_y
_atom_site_fract_z
Si Si1 0.500000 0.922340 0.225711
Si Si2 0.305320 0.332882 0.477854
Si Si3 0.195083 0.283795 0.118531
Si Si4 0.810836 0.749213 0.809627
Si Si5 0.500000 0.919393 0.032453
Si Si6 0.801228 0.925425 0.542120
Si Si7 0.185260 0.109725 0.342415
O O1 0.500000 0.890230 0.131128
O O2 0.668501 0.909263 0.277513
O O3 0.500000 0.000000 0.207003
O O4 0.500000 0.350926 0.494495
O O5 0.264734 0.269630 0.541897
O O6 0.292059 0.308766 0.378156
O O7 0.169629 0.389873 0.492925
O O8 0.284431 0.268117 0.209498
O O9 0.000000 0.276240 0.135266
O O10 0.229005 0.359802 0.088151
O O11 0.690459 0.690074 0.839634
O O12 0.000000 0.723908 0.820642
O O13 0.500000 0.000000 0.026655
O O14 0.774069 0.916323 0.438678
O O15 0.000000 0.923840 0.555471
O O16 0.740958 0.000000 0.568160
O O17 0.000000 0.086290 0.318598
#
# Coordination Sequence:
#
# PCOD9375662 Si02
#       7
#     4   8   8   8   4   8   8
#     4  11  24  40  60  91 129 170 212 258 319 387
#     4  10  24  43  65  96 129 162 213 270 319 376
#     4  11  23  38  62  99 129 165 214 265 320 379
#     4  11  22  39  64  93 124 166 214 263 322 376
#     4  11  26  44  68  93 122 172 216 262 330 385
#     4  10  22  39  60  90 131 177 214 258 326 389
#     4  11  22  38  61  93 129 169 211 263 318 382
#
# _framework density 19.420798999999999
#
# number of rings (size 3 to 8) (size 9 to 14) (size 15 to 20)
#    0.000    1.333    2.500    2.500    5.833    3.667 
#    0.000    2.500    0.000    1.000    0.000    0.000 
#    0.000    0.000    0.000    0.000    0.000    0.000 
#
# Total GULP energy -133969.235840 kJ/mol
# GULP energy per Si atom -5582.051493 kJ/mol
# Density = 1.937660 g / cm^3
# Si number density = 19.420799 Si / 1000 Ang^3
#
#
#
# Elastic Constant Matrix: (Units=GPa)
#
#
# Indices 1 2 3 4 5 6 
#
# 1 82.7016 39.9177 33.7788 0.0000 0.0000 0.0000
# 2 39.9177 105.6143 19.6529 0.0000 0.0000 0.0000
# 3 33.7788 19.6529 75.3468 -0.0001 0.0000 0.0000
# 4 0.0000 0.0000 -0.0001 24.8764 0.0000 0.0000
# 5 0.0000 0.0000 0.0000 0.0000 30.0022 0.0000
# 6 0.0000 0.0000 0.0000 0.0000 0.0000 18.0305
#
#
#
# Elastic Compliance Matrix: (Units=1/GPa)
#
#
# Indices 1 2 3 4 5 6 
#
# 1 0.017263 -0.005344 -0.006345 0.000000 0.000000 0.000000
# 2 -0.005344 0.011606 -0.000631 0.000000 0.000000 0.000000
# 3 -0.006345 -0.000631 0.016281 0.000000 0.000000 0.000000
# 4 0.000000 0.000000 0.000000 0.040199 0.000000 0.000000
# 5 0.000000 0.000000 0.000000 0.000000 0.033331 0.000000
# 6 0.000000 0.000000 0.000000 0.000000 0.000000 0.055462
#
#
# Mechanical properties :
#
#
# Convention : Reuss Voigt Hill
#
# Bulk Modulus (GPa) = 48.75985 50.04016 49.40001
# Shear Modulus (GPa) = 24.31695 25.93604 25.12649
#
# Velocity S-wave (km/s) = 3.54235 3.65838 3.60084
# Velocity P-wave (km/s) = 6.47245 6.60812 6.54063
#
# Compressibility (1/GPa) = 0.02050868
#
# Stress axis : x y z
#
# Youngs Moduli (GPa) = 57.92867 86.16498 61.42026
#
# Poissons Ratio (x) = 0.46045 0.38972
# Poissons Ratio (y) = 0.30956 0.03878
# Poissons Ratio (z) = 0.36757 0.05441
#
# Static dielectric constant tensor:
#      x y z
#    x 1.715640 0.000000 0.000000 
#    y 0.000000 1.668950 0.000000 
#    z 0.000000 0.000000 1.680690 
# 
# From -- ./inp_files/16179.got.cif
#   From: 2010.05.17/outbox.cif.g08.bks.cpg/sg44_9_cif.got.tgz:16179.got - 2010.06.03 19:37:08.
