data_PCOD9375530
_publ_section_title
;
Structure prediction by ZEFSAII (Michael W. Deem and Ramdas Pophale) SiO2 
 PCOD9375530
Probable space group: I M M 2
;
_chemical_formula_sum "Si O2"
_cell_formula_units_Z 48
_cell_length_a 15.174648
_cell_length_b 15.663095
_cell_length_c 9.051589
_cell_angle_alpha 90.000000
_cell_angle_beta 90.000000
_cell_angle_gamma 90.000000
_cell_volume 2151.399353
_symmetry_space_group_name_H-M "I M M 2"
_symmetry_group_IT_number 44
_symmetry_cell_setting 'orthorhombic'
loop_
_space_group_symop_operation_xyz
x,y,z
-x,-y,z
-x,y,z
x,-y,z
1/2+x,1/2+y,1/2+z
1/2-x,1/2-y,1/2+z
1/2-x,1/2+y,1/2+z
1/2+x,1/2-y,1/2+z
loop_
_atom_site_type_symbol
_atom_site_label
_atom_site_fract_x
_atom_site_fract_y
_atom_site_fract_z
Si Si1 0.097940 0.744641 0.752420
Si Si2 0.903774 0.101846 0.252393
Si Si3 0.267713 0.149808 0.438322
Si Si4 0.336450 0.598412 0.433270
Si Si5 0.834002 0.683008 0.465265
Si Si6 0.100308 0.597046 0.184028
O O1 0.158702 0.670335 0.817844
O O2 0.096193 0.715279 0.583088
O O3 0.000000 0.745513 0.814196
O O4 0.140323 0.836420 0.798968
O O5 0.821579 0.118136 0.360883
O O6 0.884998 0.129020 0.083253
O O7 0.000000 0.134254 0.302403
O O8 0.908775 0.000000 0.243454
O O9 0.238256 0.242905 0.490798
O O10 0.320236 0.101809 0.566062
O O11 0.360501 0.500000 0.399060
O O12 0.232333 0.602642 0.473257
O O13 0.878726 0.668288 0.307156
O O14 0.100627 0.500000 0.245350
O O15 0.000000 0.610565 0.125714
#
# Coordination Sequence:
#
# PCOD9375530 Si02
#       6
#     8   8   8   8   8   8
#     4  11  23  39  64 100 136 174 224 278 336 403
#     4  10  21  38  64  98 135 179 228 281 345 410
#     4  11  22  42  65  98 132 175 226 281 342 397
#     4  10  21  40  66  97 137 182 226 278 342 409
#     4  11  23  41  63  96 134 178 227 276 338 398
#     4  11  25  45  70  99 138 188 232 276 337 411
#
# _framework density 22.311060999999999
#
# number of rings (size 3 to 8) (size 9 to 14) (size 15 to 20)
#    0.000    1.333    1.667    4.500    2.333    2.333 
#    0.000    0.833    0.000    4.000    0.000    0.000 
#    0.000    0.000    0.000    0.000    0.000    0.000 
#
# Total GULP energy -133659.033987 kJ/mol
# GULP energy per Si atom -5569.126416 kJ/mol
# Density = 2.226028 g / cm^3
# Si number density = 22.311061 Si / 1000 Ang^3
#
#
#
# Elastic Constant Matrix: (Units=GPa)
#
#
# Indices 1 2 3 4 5 6 
#
# 1 168.6289 36.3994 51.9562 0.0000 0.0000 0.0000
# 2 36.3994 69.1943 42.6740 0.0000 0.0000 0.0000
# 3 51.9562 42.6740 100.9264 0.0000 0.0000 0.0000
# 4 0.0000 0.0000 0.0000 -1.1934 0.0000 0.0000
# 5 0.0000 0.0000 0.0000 0.0000 15.5332 0.0000
# 6 0.0000 0.0000 0.0000 0.0000 0.0000 24.1983
#
#
#
# Elastic Compliance Matrix: (Units=1/GPa)
#
#
# Indices 1 2 3 4 5 6 
#
# 1 0.007256 -0.002047 -0.002870 0.000000 0.000000 0.000000
# 2 -0.002047 0.020128 -0.007457 0.000000 0.000000 0.000000
# 3 -0.002870 -0.007457 0.014538 0.000000 0.000000 0.000000
# 4 0.000000 0.000000 0.000000 -0.837916 0.000000 0.000000
# 5 0.000000 0.000000 0.000000 0.000000 0.064378 0.000000
# 6 0.000000 0.000000 0.000000 0.000000 0.000000 0.041325
#
#
# Mechanical properties :
#
#
# Convention : Reuss Voigt Hill
#
# Bulk Modulus (GPa) = 58.22390 66.75651 62.49021
# Shear Modulus (GPa) = -7.57785 21.55561 6.98888
#
# Velocity S-wave (km/s) = -1.84495 3.11165 1.77180
# Velocity P-wave (km/s) = 4.64916 6.54947 5.67936
#
# Compressibility (1/GPa) = 0.01717508
#
# Stress axis : x y z
#
# Youngs Moduli (GPa) = 137.81076 49.68298 68.78333
#
# Poissons Ratio (x) = 0.10171 0.19740
# Poissons Ratio (y) = 0.28213 0.51288
# Poissons Ratio (z) = 0.39550 0.37046
#
# Static dielectric constant tensor:
#      x y z
#    x 1.917040 0.000000 0.000000 
#    y 0.000000 1.852570 0.000000 
#    z 0.000000 0.000000 1.932410 
# 
# From -- ./inp_files/7134.got.cif
#   From: 2010.05.17/outbox.cif.g08.bks.cpg/sg44_4_cif.got.tgz:7134.got - 2010.06.03 19:37:08.
