data_PCOD9375016
_publ_section_title
;
Structure prediction by ZEFSAII (Michael W. Deem and Ramdas Pophale) SiO2 
 PCOD9375016
Probable space group: I M M 2
;
_chemical_formula_sum "Si O2"
_cell_formula_units_Z 48
_cell_length_a 15.121674
_cell_length_b 8.907456
_cell_length_c 19.540954
_cell_angle_alpha 90.000000
_cell_angle_beta 90.000000
_cell_angle_gamma 90.000000
_cell_volume 2632.081419
_symmetry_space_group_name_H-M "I M M 2"
_symmetry_group_IT_number 44
_symmetry_cell_setting 'orthorhombic'
loop_
_space_group_symop_operation_xyz
x,y,z
-x,-y,z
-x,y,z
x,-y,z
1/2+x,1/2+y,1/2+z
1/2-x,1/2-y,1/2+z
1/2-x,1/2+y,1/2+z
1/2+x,1/2-y,1/2+z
loop_
_atom_site_type_symbol
_atom_site_label
_atom_site_fract_x
_atom_site_fract_y
_atom_site_fract_z
Si Si1 0.853587 0.177987 0.689790
Si Si2 0.145011 0.320569 0.191148
Si Si3 0.500000 0.180541 0.444780
Si Si4 0.351955 0.821497 0.335350
Si Si5 0.500000 0.820623 0.095096
Si Si6 0.500000 0.679214 0.594155
Si Si7 0.855592 0.820912 0.338555
Si Si8 0.500000 0.180264 0.935481
O O1 0.749238 0.209082 0.679283
O O2 0.876510 0.236751 0.765689
O O3 0.914652 0.257045 0.634212
O O4 0.867094 0.000000 0.686600
O O5 0.131436 0.500000 0.192369
O O6 0.084730 0.245741 0.133776
O O7 0.121695 0.251194 0.265074
O O8 0.585112 0.218250 0.398314
O O9 0.500000 0.264595 0.516364
O O10 0.500000 0.000000 0.456651
O O11 0.248746 0.792687 0.350361
O O12 0.362250 0.000000 0.322816
O O13 0.500000 0.000000 0.099778
O O14 0.500000 0.778125 0.015326
O O15 0.500000 0.500000 0.597899
O O16 0.915324 0.747419 0.396605
O O17 0.869885 0.000000 0.336061
O O18 0.500000 0.000000 0.929765
#
# Coordination Sequence:
#
# PCOD9375016 Si02
#       8
#     8   8   4   8   4   4   8   4
#     4  10  21  37  61  88 112 143 187 234 278 326
#     4  10  21  39  61  84 112 147 185 230 280 332
#     4  10  21  38  57  81 114 151 185 220 271 334
#     4   9  19  36  60  86 113 146 183 224 276 333
#     4  11  24  39  56  80 116 156 188 225 278 333
#     4  12  25  38  55  82 114 150 189 232 279 330
#     4  10  20  36  59  86 112 142 183 231 277 327
#     4  11  24  39  54  77 110 151 190 227 278 333
#
# _framework density 18.236519000000001
#
# number of rings (size 3 to 8) (size 9 to 14) (size 15 to 20)
#    0.000    1.833    0.000    3.750    0.000    6.667 
#    0.000    5.000    0.000    0.000    0.000    0.000 
#    0.000    0.000    0.000    0.000    0.000    0.000 
#
# Total GULP energy -134140.581228 kJ/mol
# GULP energy per Si atom -5589.190885 kJ/mol
# Density = 1.819501 g / cm^3
# Si number density = 18.236519 Si / 1000 Ang^3
#
#
#
# Elastic Constant Matrix: (Units=GPa)
#
#
# Indices 1 2 3 4 5 6 
#
# 1 101.4527 70.1600 106.1972 0.0000 0.0000 0.0000
# 2 70.1600 89.0256 92.6317 0.0000 0.0000 0.0000
# 3 106.1972 92.6317 192.9240 0.0000 0.0000 0.0000
# 4 0.0000 0.0000 0.0000 34.3872 0.0000 0.0000
# 5 0.0000 0.0000 0.0000 0.0000 -38.0481 0.0000
# 6 0.0000 0.0000 0.0000 0.0000 0.0000 245.2943
#
#
#
# Elastic Compliance Matrix: (Units=1/GPa)
#
#
# Indices 1 2 3 4 5 6 
#
# 1 0.028780 -0.012384 -0.009896 0.000000 0.000000 0.000000
# 2 -0.012384 0.027776 -0.006520 0.000000 0.000000 0.000000
# 3 -0.009896 -0.006520 0.013761 0.000000 0.000000 0.000000
# 4 0.000000 0.000000 0.000000 0.029081 0.000000 0.000000
# 5 0.000000 0.000000 0.000000 0.000000 -0.026283 0.000000
# 6 0.000000 0.000000 0.000000 0.000000 0.000000 0.004077
#
#
# Mechanical properties :
#
#
# Convention : Reuss Voigt Hill
#
# Bulk Modulus (GPa) = 78.63108 102.37557 90.50332
# Shear Modulus (GPa) = 35.96308 55.95424 45.95866
#
# Velocity S-wave (km/s) = 4.44558 5.54519 5.02555
# Velocity P-wave (km/s) = 8.34038 9.86197 9.13291
#
# Compressibility (1/GPa) = 0.01271762
#
# Stress axis : x y z
#
# Youngs Moduli (GPa) = 34.74632 36.00179 72.66849
#
# Poissons Ratio (x) = 0.44586 0.71913
# Poissons Ratio (y) = 0.43031 0.47377
# Poissons Ratio (z) = 0.34385 0.23472
#
# Static dielectric constant tensor:
#      x y z
#    x 1.631930 0.000000 0.000000 
#    y 0.000000 1.605390 0.000000 
#    z 0.000000 0.000000 1.580540 
# 
# From -- ./inp_files/20389.got.cif
#   From: 2010.05.17/outbox.cif.g08.bks.cpg/sg44_11_cif.got.tgz:20389.got - 2010.06.03 19:37:08.
