data_PCOD9375697
_publ_section_title
;
Structure prediction by ZEFSAII (Michael W. Deem and Ramdas Pophale) SiO2 
 PCOD9375697
Probable space group: I M M 2
;
_chemical_formula_sum "Si O2"
_cell_formula_units_Z 58
_cell_length_a 22.417374
_cell_length_b 14.697289
_cell_length_c 8.965433
_cell_angle_alpha 90.000000
_cell_angle_beta 90.000000
_cell_angle_gamma 90.000000
_cell_volume 2953.882669
_symmetry_space_group_name_H-M "I M M 2"
_symmetry_group_IT_number 44
_symmetry_cell_setting 'orthorhombic'
loop_
_space_group_symop_operation_xyz
x,y,z
-x,-y,z
-x,y,z
x,-y,z
1/2+x,1/2+y,1/2+z
1/2-x,1/2-y,1/2+z
1/2-x,1/2+y,1/2+z
1/2+x,1/2-y,1/2+z
loop_
_atom_site_type_symbol
_atom_site_label
_atom_site_fract_x
_atom_site_fract_y
_atom_site_fract_z
Si Si1 0.103966 0.138667 0.741950
Si Si2 0.570051 0.901951 0.517328
Si Si3 0.871809 0.245903 0.208598
Si Si4 0.930413 0.898950 0.418980
Si Si5 0.667335 0.896424 0.937738
Si Si6 0.500000 0.500000 0.328885
Si Si7 0.305790 0.604735 0.501055
Si Si8 0.431019 0.153481 0.182813
O O1 0.108206 0.105944 0.569942
O O2 0.163032 0.128414 0.842098
O O3 0.082844 0.242038 0.723203
O O4 0.052556 0.078890 0.819219
O O5 0.500000 0.900688 0.552429
O O6 0.596832 0.812336 0.590800
O O7 0.576086 0.897581 0.339269
O O8 0.594616 0.000000 0.568935
O O9 0.915094 0.182284 0.307819
O O10 0.839690 0.316644 0.317821
O O11 0.830600 0.175461 0.120829
O O12 0.000000 0.892448 0.466627
O O13 0.922976 0.000000 0.351087
O O14 0.616250 0.879830 0.061268
O O15 0.660343 0.000000 0.880978
O O16 0.734505 0.889526 0.998016
O O17 0.322134 0.500000 0.536029
O O18 0.500000 0.144637 0.131749
#
# Coordination Sequence:
#
# PCOD9375697 Si02
#       8
#     8   8   8   8   8   2   8   8
#     4  12  20  39  67  96 130 168 215 269 327 393
#     4  10  22  40  62  93 129 164 211 272 331 387
#     4  12  24  39  64  90 129 171 214 267 337 390
#     4  11  21  38  60  96 133 167 208 266 330 400
#     4  11  27  46  66  93 130 174 228 277 325 392
#     4  12  20  36  72 106 126 172 218 286 328 400
#     4  11  26  46  64  94 133 176 222 270 328 403
#     4  11  22  41  71  96 123 167 225 273 327 387
#
# _framework density 19.635173000000002
#
# number of rings (size 3 to 8) (size 9 to 14) (size 15 to 20)
#    0.000    0.828    5.517    1.655    1.931    1.379 
#    1.241    0.000    0.000    6.621    0.000    0.000 
#    0.000    0.000    0.000    0.000    0.000    0.000 
#
# Total GULP energy -161668.399804 kJ/mol
# GULP energy per Si atom -5574.772407 kJ/mol
# Density = 1.959048 g / cm^3
# Si number density = 19.635173 Si / 1000 Ang^3
#
#
#
# Elastic Constant Matrix: (Units=GPa)
#
#
# Indices 1 2 3 4 5 6 
#
# 1 112.6786 52.1773 59.3882 0.0000 0.0000 0.0000
# 2 52.1773 170.0829 53.3354 0.0000 0.0000 0.0000
# 3 59.3882 53.3354 81.1525 0.0000 0.0000 0.0000
# 4 0.0000 0.0000 0.0000 -275.8954 0.0000 0.0000
# 5 0.0000 0.0000 0.0000 0.0000 18.2766 0.0000
# 6 0.0000 0.0000 0.0000 0.0000 0.0000 30.1280
#
#
#
# Elastic Compliance Matrix: (Units=1/GPa)
#
#
# Indices 1 2 3 4 5 6 
#
# 1 0.014719 -0.001433 -0.009830 0.000000 0.000000 0.000000
# 2 -0.001433 0.007545 -0.003910 0.000000 0.000000 0.000000
# 3 -0.009830 -0.003910 0.022086 0.000000 0.000000 0.000000
# 4 0.000000 0.000000 0.000000 -0.003625 0.000000 0.000000
# 5 0.000000 0.000000 0.000000 0.000000 0.054715 0.000000
# 6 0.000000 0.000000 0.000000 0.000000 0.000000 0.033192
#
#
# Mechanical properties :
#
#
# Convention : Reuss Voigt Hill
#
# Bulk Modulus (GPa) = 71.40694 77.07955 74.24325
# Shear Modulus (GPa) = 30.55356 -32.23061 -0.83852
#
# Velocity S-wave (km/s) = 3.94898 -4.05591 -0.65420
# Velocity P-wave (km/s) = 7.56560 4.17220 6.10924
#
# Compressibility (1/GPa) = 0.01400424
#
# Stress axis : x y z
#
# Youngs Moduli (GPa) = 67.93794 132.53286 45.27749
#
# Poissons Ratio (x) = 0.18992 0.44507
# Poissons Ratio (y) = 0.09736 0.17705
# Poissons Ratio (z) = 0.66783 0.51824
#
# Static dielectric constant tensor:
#      x y z
#    x 1.659070 0.000000 0.000000 
#    y 0.000000 1.697260 0.000000 
#    z 0.000000 0.000000 1.709040 
# 
# From -- ./inp_files/9434.got.cif
#   From: 2010.05.17/outbox.cif.g08.bks.cpg/sg44_5_cif.got.tgz:9434.got - 2010.06.03 19:37:08.
