data_PCOD9375872
_publ_section_title
;
Structure prediction by ZEFSAII (Michael W. Deem and Ramdas Pophale) SiO2 
 PCOD9375872
Probable space group: I M M 2
;
_chemical_formula_sum "Si O2"
_cell_formula_units_Z 58
_cell_length_a 7.871381
_cell_length_b 15.437507
_cell_length_c 24.303714
_cell_angle_alpha 90.000000
_cell_angle_beta 90.000000
_cell_angle_gamma 90.000000
_cell_volume 2953.253638
_symmetry_space_group_name_H-M "I M M 2"
_symmetry_group_IT_number 44
_symmetry_cell_setting 'orthorhombic'
loop_
_space_group_symop_operation_xyz
x,y,z
-x,-y,z
-x,y,z
x,-y,z
1/2+x,1/2+y,1/2+z
1/2-x,1/2-y,1/2+z
1/2-x,1/2+y,1/2+z
1/2+x,1/2-y,1/2+z
loop_
_atom_site_type_symbol
_atom_site_label
_atom_site_fract_x
_atom_site_fract_y
_atom_site_fract_z
Si Si1 0.306110 0.235094 0.265380
Si Si2 0.500000 0.000000 0.170564
Si Si3 0.294452 0.901129 0.957340
Si Si4 0.198348 0.145155 0.159898
Si Si5 0.794801 0.598143 0.331792
Si Si6 0.301600 0.738779 0.548214
Si Si7 0.797937 0.903583 0.482714
Si Si8 0.294787 0.601351 0.858836
O O1 0.500000 0.234690 0.247390
O O2 0.196601 0.205689 0.213625
O O3 0.263670 0.328320 0.290593
O O4 0.281392 0.164859 0.313955
O O5 0.654287 0.925667 0.169487
O O6 0.500000 0.898752 0.958227
O O7 0.239836 0.882123 0.894698
O O8 0.242978 0.000000 0.970852
O O9 0.231469 0.832499 0.001128
O O10 0.254838 0.199298 0.106110
O O11 0.000000 0.114030 0.151382
O O12 0.739312 0.500000 0.318623
O O13 0.000000 0.598378 0.332422
O O14 0.500000 0.752784 0.553709
O O15 0.230323 0.829624 0.527057
O O16 0.735433 0.878907 0.421239
O O17 0.000000 0.910989 0.476048
O O18 0.732088 0.000000 0.496501
O O19 0.500000 0.611118 0.856313
O O20 0.256094 0.500000 0.847775
#
# Coordination Sequence:
#
# PCOD9375872 Si02
#       8
#     8   2   8   8   8   8   8   8
#     4  12  24  38  58  88 122 162 211 255 307 372
#     4  12  26  48  72  94 122 164 218 252 312 364
#     4   9  19  34  58  87 118 157 202 248 306 372
#     4  11  27  46  65  94 129 165 208 258 308 369
#     4   9  19  38  61  87 117 158 204 254 317 373
#     4  11  24  38  57  86 121 160 201 249 310 367
#     4   9  19  37  61  87 116 156 203 252 309 367
#     4   9  19  35  57  86 119 158 201 249 312 372
#
# _framework density 19.639355999999999
#
# number of rings (size 3 to 8) (size 9 to 14) (size 15 to 20)
#    0.000    1.931    0.690    4.345    3.862    5.517 
#    0.000    3.448    0.000    0.828    0.000    0.000 
#    0.000    0.000    0.000    0.000    0.000    0.000 
#
# Total GULP energy -161603.847405 kJ/mol
# GULP energy per Si atom -5572.546462 kJ/mol
# Density = 1.959466 g / cm^3
# Si number density = 19.639356 Si / 1000 Ang^3
#
#
#
# Elastic Constant Matrix: (Units=GPa)
#
#
# Indices 1 2 3 4 5 6 
#
# 1 47.2031 13.5385 13.3748 0.0000 0.0000 0.0000
# 2 13.5385 101.8301 79.5895 0.0000 0.0000 0.0000
# 3 13.3748 79.5895 98.6510 0.0000 0.0000 0.0000
# 4 0.0000 0.0000 0.0000 -33.5755 0.0000 0.0000
# 5 0.0000 0.0000 0.0000 0.0000 23.6277 0.0000
# 6 0.0000 0.0000 0.0000 0.0000 0.0000 4.9078
#
#
#
# Elastic Compliance Matrix: (Units=1/GPa)
#
#
# Indices 1 2 3 4 5 6 
#
# 1 0.022129 -0.001616 -0.001696 0.000000 0.000000 0.000000
# 2 -0.001616 0.026700 -0.021322 0.000000 0.000000 0.000000
# 3 -0.001696 -0.021322 0.027569 0.000000 0.000000 0.000000
# 4 0.000000 0.000000 0.000000 -0.029784 0.000000 0.000000
# 5 0.000000 0.000000 0.000000 0.000000 0.042323 0.000000
# 6 0.000000 0.000000 0.000000 0.000000 0.000000 0.203759
#
#
# Mechanical properties :
#
#
# Convention : Reuss Voigt Hill
#
# Bulk Modulus (GPa) = 36.86068 51.18776 44.02422
# Shear Modulus (GPa) = 14.24464 8.40409 11.32436
#
# Velocity S-wave (km/s) = 2.69608 2.07087 2.40389
# Velocity P-wave (km/s) = 5.33866 5.64256 5.49271
#
# Compressibility (1/GPa) = 0.02712918
#
# Stress axis : x y z
#
# Youngs Moduli (GPa) = 45.18904 37.45262 36.27266
#
# Poissons Ratio (x) = 0.06054 0.06152
# Poissons Ratio (y) = 0.07305 0.77341
# Poissons Ratio (z) = 0.07664 0.79857
#
# Static dielectric constant tensor:
#      x y z
#    x 1.714670 0.000000 0.000000 
#    y 0.000000 1.694990 0.000000 
#    z 0.000000 0.000000 1.691730 
# 
# From -- ./inp_files/25067.got.cif
#   From: 2010.05.17/outbox.cif.g08.bks.cpg/sg44_13_cif.got.tgz:25067.got - 2010.06.03 19:37:08.
