data_PCOD9375058
_publ_section_title
;
Structure prediction by ZEFSAII (Michael W. Deem and Ramdas Pophale) SiO2 
 PCOD9375058
Probable space group: I M M 2
;
_chemical_formula_sum "Si O2"
_cell_formula_units_Z 48
_cell_length_a 23.229877
_cell_length_b 8.919355
_cell_length_c 11.707596
_cell_angle_alpha 90.000000
_cell_angle_beta 90.000000
_cell_angle_gamma 90.000000
_cell_volume 2425.761436
_symmetry_space_group_name_H-M "I M M 2"
_symmetry_group_IT_number 44
_symmetry_cell_setting 'orthorhombic'
loop_
_space_group_symop_operation_xyz
x,y,z
-x,-y,z
-x,y,z
x,-y,z
1/2+x,1/2+y,1/2+z
1/2-x,1/2-y,1/2+z
1/2-x,1/2+y,1/2+z
1/2+x,1/2-y,1/2+z
loop_
_atom_site_type_symbol
_atom_site_label
_atom_site_fract_x
_atom_site_fract_y
_atom_site_fract_z
Si Si1 0.150771 0.324578 0.830930
Si Si2 0.361275 0.677885 0.575252
Si Si3 0.433069 0.331854 0.178429
Si Si4 0.066507 0.679524 0.264254
Si Si5 0.646209 0.328172 0.955192
Si Si6 0.232288 0.679550 0.624095
O O1 0.158823 0.500000 0.855690
O O2 0.092417 0.292435 0.761433
O O3 0.199604 0.273976 0.740208
O O4 0.146988 0.231527 0.946030
O O5 0.370755 0.500000 0.580976
O O6 0.411934 0.762090 0.641527
O O7 0.299518 0.713296 0.632568
O O8 0.500000 0.311773 0.157594
O O9 0.423763 0.500000 0.227747
O O10 0.398802 0.327273 0.060239
O O11 0.068294 0.500000 0.268440
O O12 0.112758 0.745125 0.354010
O O13 0.000000 0.726620 0.287376
O O14 0.658802 0.500000 0.921470
O O15 0.702513 0.254063 0.013013
O O16 0.224949 0.500000 0.613102
#
# Coordination Sequence:
#
# PCOD9375058 Si02
#       6
#     8   8   8   8   8   8
#     4  10  21  38  58  84 118 152 193 243 298 360
#     4  11  24  41  62  88 118 158 204 250 304 365
#     4   9  18  34  57  85 116 152 195 241 290 347
#     4  11  25  43  62  88 124 166 210 254 306 366
#     4  10  20  36  62  93 123 157 199 248 301 358
#     4   9  21  40  61  89 122 155 197 248 304 363
#
# _framework density 19.787603000000001
#
# number of rings (size 3 to 8) (size 9 to 14) (size 15 to 20)
#    0.000    2.000    0.000    2.500    2.333    5.667 
#    0.000    0.000    0.000    0.000    0.000    0.000 
#    0.000    0.000    0.000    0.000    0.000    0.000 
#
# Total GULP energy -134004.732259 kJ/mol
# GULP energy per Si atom -5583.530511 kJ/mol
# Density = 1.974257 g / cm^3
# Si number density = 19.787603 Si / 1000 Ang^3
#
#
#
# Elastic Constant Matrix: (Units=GPa)
#
#
# Indices 1 2 3 4 5 6 
#
# 1 56.8806 23.9923 11.7645 0.0000 0.0000 0.0000
# 2 23.9923 47.4959 20.8394 0.0000 0.0000 0.0000
# 3 11.7645 20.8394 64.8867 0.0000 0.0000 0.0000
# 4 0.0000 0.0000 0.0000 37.2287 0.0000 0.0000
# 5 0.0000 0.0000 0.0000 0.0000 16.4496 0.0000
# 6 0.0000 0.0000 0.0000 0.0000 0.0000 24.6509
#
#
#
# Elastic Compliance Matrix: (Units=1/GPa)
#
#
# Indices 1 2 3 4 5 6 
#
# 1 0.022355 -0.011075 -0.000496 0.000000 0.000000 0.000000
# 2 -0.011075 0.029994 -0.007625 0.000000 0.000000 0.000000
# 3 -0.000496 -0.007625 0.017950 0.000000 0.000000 0.000000
# 4 0.000000 0.000000 0.000000 0.026861 0.000000 0.000000
# 5 0.000000 0.000000 0.000000 0.000000 0.060792 0.000000
# 6 0.000000 0.000000 0.000000 0.000000 0.000000 0.040566
#
#
# Mechanical properties :
#
#
# Convention : Reuss Voigt Hill
#
# Bulk Modulus (GPa) = 31.34093 31.38397 31.36245
# Shear Modulus (GPa) = 20.19821 23.17697 21.68759
#
# Velocity S-wave (km/s) = 3.19839 3.42612 3.31421
# Velocity P-wave (km/s) = 5.43255 5.61658 5.52533
#
# Compressibility (1/GPa) = 0.03190716
#
# Stress axis : x y z
#
# Youngs Moduli (GPa) = 44.73347 33.33958 55.70892
#
# Poissons Ratio (x) = 0.36922 0.02765
# Poissons Ratio (y) = 0.49540 0.42480
# Poissons Ratio (z) = 0.02220 0.25422
#
# Static dielectric constant tensor:
#      x y z
#    x 1.694730 0.000000 0.000000 
#    y 0.000000 1.685470 0.000000 
#    z 0.000000 0.000000 1.691520 
# 
# From -- ./inp_files/11140.got.cif
#   From: 2010.05.17/outbox.cif.g08.bks.cpg/sg44_6_cif.got.tgz:11140.got - 2010.06.03 19:37:08.
