data_PCOD9375162
_publ_section_title
;
Structure prediction by ZEFSAII (Michael W. Deem and Ramdas Pophale) SiO2 
 PCOD9375162
Probable space group: I M M 2
;
_chemical_formula_sum "Si O2"
_cell_formula_units_Z 40
_cell_length_a 8.761411
_cell_length_b 11.884483
_cell_length_c 20.408800
_cell_angle_alpha 90.000000
_cell_angle_beta 90.000000
_cell_angle_gamma 90.000000
_cell_volume 2125.063036
_symmetry_space_group_name_H-M "I M M 2"
_symmetry_group_IT_number 44
_symmetry_cell_setting 'orthorhombic'
loop_
_space_group_symop_operation_xyz
x,y,z
-x,-y,z
-x,y,z
x,-y,z
1/2+x,1/2+y,1/2+z
1/2-x,1/2-y,1/2+z
1/2-x,1/2+y,1/2+z
1/2+x,1/2-y,1/2+z
loop_
_atom_site_type_symbol
_atom_site_label
_atom_site_fract_x
_atom_site_fract_y
_atom_site_fract_z
Si Si1 0.818186 0.500000 0.507380
Si Si2 0.818972 0.500000 0.663878
Si Si3 0.182840 0.630787 0.864038
Si Si4 0.185435 0.749457 0.489772
Si Si5 0.818667 0.781690 0.233556
Si Si6 0.817514 0.868557 0.625607
O O1 0.799752 0.500000 0.585862
O O2 0.760216 0.379853 0.482052
O O3 0.000000 0.500000 0.494580
O O4 0.743927 0.609816 0.694628
O O5 0.000000 0.500000 0.678488
O O6 0.227269 0.500000 0.852602
O O7 0.247404 0.673426 0.932954
O O8 0.248785 0.707092 0.805802
O O9 0.000000 0.636357 0.863780
O O10 0.228186 0.796960 0.561473
O O11 0.000000 0.751813 0.486631
O O12 0.763466 0.676570 0.190542
O O13 0.000000 0.784407 0.237624
O O14 0.000000 0.853377 0.633749
O O15 0.787306 0.000000 0.614008
#
# Coordination Sequence:
#
# PCOD9375162 Si02
#       6
#     4   4   8   8   8   8
#     4   9  18  35  63  91 119 154 191 238 299 355
#     4  11  19  37  65  91 121 154 193 246 299 357
#     4  11  24  41  61  85 118 160 202 250 303 355
#     4  10  20  38  63  91 120 155 199 245 296 358
#     4  12  24  38  61  92 122 156 199 250 302 359
#     4  10  21  39  64  91 121 161 202 244 299 360
#
# _framework density 18.822970999999999
#
# number of rings (size 3 to 8) (size 9 to 14) (size 15 to 20)
#    0.000    1.400    3.000    3.300    0.000    3.200 
#    1.800    0.500    0.000    0.000    0.000    0.000 
#    0.000    0.000    0.000    0.000    0.000    0.000 
#
# Total GULP energy -111744.344258 kJ/mol
# GULP energy per Si atom -5587.217213 kJ/mol
# Density = 1.878013 g / cm^3
# Si number density = 18.822971 Si / 1000 Ang^3
#
#
#
# Elastic Constant Matrix: (Units=GPa)
#
#
# Indices 1 2 3 4 5 6 
#
# 1 49.8322 30.8175 37.6586 0.0000 0.0000 0.0000
# 2 30.8175 61.8592 41.8342 0.0000 0.0000 0.0000
# 3 37.6586 41.8342 100.9803 0.0000 0.0000 0.0000
# 4 0.0000 0.0000 0.0000 50.0053 0.0000 0.0000
# 5 0.0000 0.0000 0.0000 0.0000 31.1206 0.0000
# 6 0.0000 0.0000 0.0000 0.0000 0.0000 23.9886
#
#
#
# Elastic Compliance Matrix: (Units=1/GPa)
#
#
# Indices 1 2 3 4 5 6 
#
# 1 0.032692 -0.011172 -0.007564 0.000000 0.000000 0.000000
# 2 -0.011172 0.026275 -0.006719 0.000000 0.000000 0.000000
# 3 -0.007564 -0.006719 0.015507 0.000000 0.000000 0.000000
# 4 0.000000 0.000000 0.000000 0.019998 0.000000 0.000000
# 5 0.000000 0.000000 0.000000 0.000000 0.032133 0.000000
# 6 0.000000 0.000000 0.000000 0.000000 0.000000 0.041686
#
#
# Mechanical properties :
#
#
# Convention : Reuss Voigt Hill
#
# Bulk Modulus (GPa) = 42.43437 48.14359 45.28898
# Shear Modulus (GPa) = 22.02099 27.84699 24.93399
#
# Velocity S-wave (km/s) = 3.42409 3.85049 3.64353
# Velocity P-wave (km/s) = 6.18267 6.73802 6.46631
#
# Compressibility (1/GPa) = 0.02356580
#
# Stress axis : x y z
#
# Youngs Moduli (GPa) = 30.58845 38.05857 64.48591
#
# Poissons Ratio (x) = 0.42517 0.48775
# Poissons Ratio (y) = 0.34172 0.43329
# Poissons Ratio (z) = 0.23136 0.25572
#
# Static dielectric constant tensor:
#      x y z
#    x 1.628550 0.000000 0.000000 
#    y 0.000000 1.629730 0.000000 
#    z 0.000000 0.000000 1.627140 
# 
# From -- ./inp_files/20047.got.cif
#   From: 2010.05.17/outbox.cif.g08.bks.cpg/sg44_11_cif.got.tgz:20047.got - 2010.06.03 19:37:08.
