data_PCOD9375815
_publ_section_title
;
Structure prediction by ZEFSAII (Michael W. Deem and Ramdas Pophale) SiO2 
 PCOD9375815
Probable space group: I M M 2
;
_chemical_formula_sum "Si O2"
_cell_formula_units_Z 48
_cell_length_a 8.614876
_cell_length_b 17.042429
_cell_length_c 19.039185
_cell_angle_alpha 90.000000
_cell_angle_beta 90.000000
_cell_angle_gamma 90.000000
_cell_volume 2795.302918
_symmetry_space_group_name_H-M "I M M 2"
_symmetry_group_IT_number 44
_symmetry_cell_setting 'orthorhombic'
loop_
_space_group_symop_operation_xyz
x,y,z
-x,-y,z
-x,y,z
x,-y,z
1/2+x,1/2+y,1/2+z
1/2-x,1/2-y,1/2+z
1/2-x,1/2+y,1/2+z
1/2+x,1/2-y,1/2+z
loop_
_atom_site_type_symbol
_atom_site_label
_atom_site_fract_x
_atom_site_fract_y
_atom_site_fract_z
Si Si1 0.189030 0.817173 0.654310
Si Si2 0.189400 0.911109 0.517049
Si Si3 0.684703 0.000000 0.886994
Si Si4 0.313385 0.163910 0.072553
Si Si5 0.313941 0.344661 0.313127
Si Si6 0.186993 0.240051 0.431997
Si Si7 0.816644 0.000000 0.044561
O O1 0.237677 0.878201 0.593599
O O2 0.234590 0.730507 0.628056
O O3 0.240781 0.836219 0.732720
O O4 0.000000 0.818442 0.654323
O O5 0.235495 0.845968 0.459546
O O6 0.000000 0.911377 0.517081
O O7 0.242068 0.000000 0.504953
O O8 0.746094 0.077236 0.848136
O O9 0.500000 0.000000 0.886993
O O10 0.741500 0.000000 0.967156
O O11 0.500000 0.156118 0.075068
O O12 0.274838 0.199858 0.995712
O O13 0.237953 0.079617 0.081699
O O14 0.500000 0.350038 0.313228
O O15 0.262561 0.271763 0.361335
O O16 0.000000 0.240586 0.424637
O O17 0.000000 0.000000 0.036903
#
# Coordination Sequence:
#
# PCOD9375815 Si02
#       7
#     8   8   4   8   8   8   4
#     4   8  17  31  50  77 104 132 168 207 252 305
#     4   8  14  27  50  77  99 125 170 216 247 292
#     4  12  24  36  50  74 108 143 172 201 254 323
#     4   9  17  33  53  73 101 139 175 205 246 309
#     4  11  21  33  52  79 107 133 168 214 258 301
#     4   9  17  30  50  74 100 135 174 207 250 304
#     4  12  22  32  52  82 106 127 168 223 266 297
#
# _framework density 17.171662000000001
#
# number of rings (size 3 to 8) (size 9 to 14) (size 15 to 20)
#    0.000    2.500    1.667    4.000    1.167    0.000 
#    0.000    1.667    1.833    2.500    0.000    0.000 
#    0.000    0.000    0.000    0.000    0.000    0.000 
#
# Total GULP energy -133839.027381 kJ/mol
# GULP energy per Si atom -5576.626141 kJ/mol
# Density = 1.713258 g / cm^3
# Si number density = 17.171662 Si / 1000 Ang^3
#
#
#
# Elastic Constant Matrix: (Units=GPa)
#
#
# Indices 1 2 3 4 5 6 
#
# 1 27.0804 22.4999 10.9308 0.0000 0.0000 0.0000
# 2 22.4999 148.3609 41.5439 0.0000 0.0000 0.0000
# 3 10.9308 41.5439 66.6044 0.0000 0.0000 0.0000
# 4 0.0000 0.0000 0.0000 17.6190 0.0000 0.0000
# 5 0.0000 0.0000 0.0000 0.0000 19.1832 0.0000
# 6 0.0000 0.0000 0.0000 0.0000 0.0000 13.7391
#
#
#
# Elastic Compliance Matrix: (Units=1/GPa)
#
#
# Indices 1 2 3 4 5 6 
#
# 1 0.042959 -0.005502 -0.003619 0.000000 0.000000 0.000000
# 2 -0.005502 0.008871 -0.004630 0.000000 0.000000 0.000000
# 3 -0.003619 -0.004630 0.018496 0.000000 0.000000 0.000000
# 4 0.000000 0.000000 0.000000 0.056757 0.000000 0.000000
# 5 0.000000 0.000000 0.000000 0.000000 0.052129 0.000000
# 6 0.000000 0.000000 0.000000 0.000000 0.000000 0.072785
#
#
# Mechanical properties :
#
#
# Convention : Reuss Voigt Hill
#
# Bulk Modulus (GPa) = 23.35103 43.55500 33.45301
# Shear Modulus (GPa) = 17.01992 21.24634 19.13313
#
# Velocity S-wave (km/s) = 3.15169 3.52133 3.34163
# Velocity P-wave (km/s) = 5.18385 6.47708 5.86621
#
# Compressibility (1/GPa) = 0.04282466
#
# Stress axis : x y z
#
# Youngs Moduli (GPa) = 23.27815 112.72291 54.06548
#
# Poissons Ratio (x) = 0.62017 0.19564
# Poissons Ratio (y) = 0.12807 0.25035
# Poissons Ratio (z) = 0.08423 0.52196
#
# Static dielectric constant tensor:
#      x y z
#    x 1.580670 0.000000 0.000000 
#    y 0.000000 1.585260 0.000000 
#    z 0.000000 0.000000 1.569740 
# 
# From -- ./inp_files/20344.got.cif
#   From: 2010.05.17/outbox.cif.g08.bks.cpg/sg44_11_cif.got.tgz:20344.got - 2010.06.03 19:37:08.
