data_PCOD9375577
_publ_section_title
;
Structure prediction by ZEFSAII (Michael W. Deem and Ramdas Pophale) SiO2 
 PCOD9375577
Probable space group: I M M 2
;
_chemical_formula_sum "Si O2"
_cell_formula_units_Z 58
_cell_length_a 17.687640
_cell_length_b 15.001597
_cell_length_c 11.380922
_cell_angle_alpha 90.000000
_cell_angle_beta 90.000000
_cell_angle_gamma 90.000000
_cell_volume 3019.846247
_symmetry_space_group_name_H-M "I M M 2"
_symmetry_group_IT_number 44
_symmetry_cell_setting 'orthorhombic'
loop_
_space_group_symop_operation_xyz
x,y,z
-x,-y,z
-x,y,z
x,-y,z
1/2+x,1/2+y,1/2+z
1/2-x,1/2-y,1/2+z
1/2-x,1/2+y,1/2+z
1/2+x,1/2-y,1/2+z
loop_
_atom_site_type_symbol
_atom_site_label
_atom_site_fract_x
_atom_site_fract_y
_atom_site_fract_z
Si Si1 0.086490 0.402335 0.302150
Si Si2 0.360960 0.728233 0.404685
Si Si3 0.916793 0.894075 0.101125
Si Si4 0.087282 0.597260 0.020768
Si Si5 0.132317 0.656014 0.690974
Si Si6 0.794038 0.103407 0.298616
Si Si7 0.811080 0.727067 0.439633
Si Si8 0.500000 0.000000 0.183494
O O1 0.114387 0.500000 0.342912
O O2 0.085860 0.403057 0.161290
O O3 0.135681 0.323127 0.348334
O O4 0.000000 0.394157 0.343101
O O5 0.408035 0.657495 0.478836
O O6 0.365839 0.820352 0.477573
O O7 0.388231 0.760722 0.277022
O O8 0.274483 0.696718 0.411516
O O9 0.851120 0.869941 0.192794
O O10 0.000000 0.872617 0.150875
O O11 0.912016 0.000000 0.082116
O O12 0.114116 0.500000 0.979391
O O13 0.000000 0.606434 0.979605
O O14 0.209011 0.617154 0.750581
O O15 0.158601 0.696023 0.565898
O O16 0.067447 0.580196 0.683441
O O17 0.810325 0.168432 0.407839
O O18 0.806581 0.000000 0.326206
#
# Coordination Sequence:
#
# PCOD9375577 Si02
#       8
#     8   8   8   8   8   8   8   2
#     4   9  20  37  60  90 120 154 203 264 323 381
#     4  11  23  37  61  84 129 163 205 267 311 386
#     4  10  21  39  66  92 114 160 217 269 324 368
#     4   9  19  35  59  90 119 150 197 262 326 375
#     4  11  26  41  60  98 129 170 220 255 332 398
#     4  10  21  44  67  90 130 166 218 281 317 382
#     4  11  24  38  60  88 126 170 211 256 325 385
#     4  12  28  44  68  96 138 188 212 268 324 418
#
# _framework density 19.206275999999999
#
# number of rings (size 3 to 8) (size 9 to 14) (size 15 to 20)
#    0.000    1.793    2.069    2.069    6.759    2.759 
#    0.000    0.690    0.000    0.000    0.000    0.000 
#    0.000    0.000    0.000    0.000    0.000    0.000 
#
# Total GULP energy -161546.180021 kJ/mol
# GULP energy per Si atom -5570.557932 kJ/mol
# Density = 1.916256 g / cm^3
# Si number density = 19.206276 Si / 1000 Ang^3
#
#
#
# Elastic Constant Matrix: (Units=GPa)
#
#
# Indices 1 2 3 4 5 6 
#
# 1 100.2849 46.7787 29.7666 0.0000 0.0000 0.0000
# 2 46.7787 76.9800 40.8324 0.0000 0.0000 0.0000
# 3 29.7666 40.8324 71.1236 0.0000 0.0000 0.0000
# 4 0.0000 0.0000 0.0000 2.9518 0.0000 0.0000
# 5 0.0000 0.0000 0.0000 0.0000 11.5731 0.0000
# 6 0.0000 0.0000 0.0000 0.0000 0.0000 34.0739
#
#
#
# Elastic Compliance Matrix: (Units=1/GPa)
#
#
# Indices 1 2 3 4 5 6 
#
# 1 0.014013 -0.007771 -0.001403 0.000000 0.000000 0.000000
# 2 -0.007771 0.022988 -0.009945 0.000000 0.000000 0.000000
# 3 -0.001403 -0.009945 0.020357 0.000000 0.000000 0.000000
# 4 0.000000 0.000000 0.000000 0.338782 0.000000 0.000000
# 5 0.000000 0.000000 0.000000 0.000000 0.086408 0.000000
# 6 0.000000 0.000000 0.000000 0.000000 0.000000 0.029348
#
#
# Mechanical properties :
#
#
# Convention : Reuss Voigt Hill
#
# Bulk Modulus (GPa) = 52.30446 53.68265 52.99356
# Shear Modulus (GPa) = 8.98462 18.45380 13.71921
#
# Velocity S-wave (km/s) = 2.16521 3.10307 2.67556
# Velocity P-wave (km/s) = 5.79163 6.39140 6.09889
#
# Compressibility (1/GPa) = 0.01911883
#
# Stress axis : x y z
#
# Youngs Moduli (GPa) = 71.36262 43.50157 49.12344
#
# Poissons Ratio (x) = 0.33805 0.06894
# Poissons Ratio (y) = 0.55455 0.48854
# Poissons Ratio (z) = 0.10015 0.43263
#
# Static dielectric constant tensor:
#      x y z
#    x 1.706460 0.000000 0.000000 
#    y 0.000000 1.665470 0.000000 
#    z 0.000000 0.000000 1.707490 
# 
# From -- ./inp_files/13404.got.cif
#   From: 2010.05.17/outbox.cif.g08.bks.cpg/sg44_7_cif.got.tgz:13404.got - 2010.06.03 19:37:08.
