data_PCOD9375023
_publ_section_title
;
Structure prediction by ZEFSAII (Michael W. Deem and Ramdas Pophale) SiO2 
 PCOD9375023
Probable space group: I M M 2
;
_chemical_formula_sum "Si O2"
_cell_formula_units_Z 40
_cell_length_a 7.593354
_cell_length_b 9.222867
_cell_length_c 30.475669
_cell_angle_alpha 90.000000
_cell_angle_beta 90.000000
_cell_angle_gamma 90.000000
_cell_volume 2134.287107
_symmetry_space_group_name_H-M "I M M 2"
_symmetry_group_IT_number 44
_symmetry_cell_setting 'orthorhombic'
loop_
_space_group_symop_operation_xyz
x,y,z
-x,-y,z
-x,y,z
x,-y,z
1/2+x,1/2+y,1/2+z
1/2-x,1/2-y,1/2+z
1/2-x,1/2+y,1/2+z
1/2+x,1/2-y,1/2+z
loop_
_atom_site_type_symbol
_atom_site_label
_atom_site_fract_x
_atom_site_fract_y
_atom_site_fract_z
Si Si1 0.298269 0.823489 0.159290
Si Si2 0.500000 0.675492 0.728258
Si Si3 0.202484 0.328120 0.878314
Si Si4 0.500000 0.826374 0.822348
Si Si5 0.713128 0.332139 0.976326
Si Si6 0.215093 0.333420 0.563016
O O1 0.500000 0.776521 0.166349
O O2 0.169114 0.785666 0.198603
O O3 0.234467 0.774062 0.111007
O O4 0.299780 0.000000 0.156671
O O5 0.500000 0.500000 0.735176
O O6 0.500000 0.757959 0.773959
O O7 0.252335 0.500000 0.876777
O O8 0.331705 0.235738 0.848474
O O9 0.219082 0.280569 0.929171
O O10 0.000000 0.316114 0.864386
O O11 0.500000 0.000000 0.821302
O O12 0.500000 0.323107 0.974598
O O13 0.763099 0.500000 0.980451
O O14 0.773589 0.249647 0.019721
O O15 0.271757 0.500000 0.559869
O O16 0.000000 0.331984 0.563423
#
# Coordination Sequence:
#
# PCOD9375023 Si02
#       6
#     8   4   8   4   8   8
#     4   8  15  30  52  78 107 139 180 231 274 319
#     4  10  20  36  60  82 102 140 196 238 279 338
#     4  10  21  40  64  85 110 150 200 244 282 340
#     4  12  26  42  60  84 120 152 184 242 311 360
#     4   9  16  29  51  79 111 145 183 228 277 329
#     4   8  14  26  46  73 107 146 182 218 270 329
#
# _framework density 18.741619
#
# number of rings (size 3 to 8) (size 9 to 14) (size 15 to 20)
#    0.000    2.800    1.000    2.100    0.000    2.000 
#    1.800    3.000    0.000    1.200    0.000    0.000 
#    0.000    0.000    0.000    0.000    0.000    0.000 
#
# Total GULP energy -111552.248012 kJ/mol
# GULP energy per Si atom -5577.612401 kJ/mol
# Density = 1.869896 g / cm^3
# Si number density = 18.741619 Si / 1000 Ang^3
#
#
#
# Elastic Constant Matrix: (Units=GPa)
#
#
# Indices 1 2 3 4 5 6 
#
# 1 86.7451 39.1855 74.5167 0.0000 0.0000 0.0000
# 2 39.1855 60.1754 78.0774 0.0000 0.0000 0.0000
# 3 74.5167 78.0774 200.2123 0.0000 0.0000 0.0000
# 4 0.0000 0.0000 0.0000 31.5184 0.0000 0.0000
# 5 0.0000 0.0000 0.0000 0.0000 -84.3335 0.0000
# 6 0.0000 0.0000 0.0000 0.0000 0.0000 8.1556
#
#
#
# Elastic Compliance Matrix: (Units=1/GPa)
#
#
# Indices 1 2 3 4 5 6 
#
# 1 0.017998 -0.006131 -0.004308 0.000000 0.000000 0.000000
# 2 -0.006131 0.035727 -0.011651 0.000000 0.000000 0.000000
# 3 -0.004308 -0.011651 0.011142 0.000000 0.000000 0.000000
# 4 0.000000 0.000000 0.000000 0.031728 0.000000 0.000000
# 5 0.000000 0.000000 0.000000 0.000000 -0.011858 0.000000
# 6 0.000000 0.000000 0.000000 0.000000 0.000000 0.122615
#
#
# Mechanical properties :
#
#
# Convention : Reuss Voigt Hill
#
# Bulk Modulus (GPa) = 48.33713 81.18801 64.76257
# Shear Modulus (GPa) = 19.34783 1.42498 10.38640
#
# Velocity S-wave (km/s) = 3.21650 0.87291 2.35668
# Velocity P-wave (km/s) = 6.29617 6.66556 6.48350
#
# Compressibility (1/GPa) = 0.02068803
#
# Stress axis : x y z
#
# Youngs Moduli (GPa) = 55.56160 27.98972 89.75381
#
# Poissons Ratio (x) = 0.17160 0.38665
# Poissons Ratio (y) = 0.34063 1.04572
# Poissons Ratio (z) = 0.23935 0.32611
#
# Static dielectric constant tensor:
#      x y z
#    x 1.685770 0.000000 0.000000 
#    y 0.000000 1.627880 0.000000 
#    z 0.000000 0.000000 1.642030 
# 
# From -- ./inp_files/25978.got.cif
#   From: 2010.05.17/outbox.cif.g08.bks.cpg/sg44_13_cif.got.tgz:25978.got - 2010.06.03 19:37:08.
