data_PCOD9375073
_publ_section_title
;
Structure prediction by ZEFSAII (Michael W. Deem and Ramdas Pophale) SiO2 
 PCOD9375073
Probable space group: I M M 2
;
_chemical_formula_sum "Si O2"
_cell_formula_units_Z 48
_cell_length_a 16.765692
_cell_length_b 8.914344
_cell_length_c 18.603047
_cell_angle_alpha 90.000000
_cell_angle_beta 90.000000
_cell_angle_gamma 90.000000
_cell_volume 2780.321103
_symmetry_space_group_name_H-M "I M M 2"
_symmetry_group_IT_number 44
_symmetry_cell_setting 'orthorhombic'
loop_
_space_group_symop_operation_xyz
x,y,z
-x,-y,z
-x,y,z
x,-y,z
1/2+x,1/2+y,1/2+z
1/2-x,1/2-y,1/2+z
1/2-x,1/2+y,1/2+z
1/2+x,1/2-y,1/2+z
loop_
_atom_site_type_symbol
_atom_site_label
_atom_site_fract_x
_atom_site_fract_y
_atom_site_fract_z
Si Si1 0.677824 0.177680 0.303740
Si Si2 0.259443 0.678668 0.080800
Si Si3 0.500000 0.178258 0.698491
Si Si4 0.663594 0.677758 0.457512
Si Si5 0.500000 0.678042 0.541730
Si Si6 0.592569 0.819835 0.155782
Si Si7 0.334992 0.321792 0.713480
O O1 0.662429 0.268326 0.375688
O O2 0.619917 0.217957 0.237210
O O3 0.767186 0.202153 0.273454
O O4 0.668075 0.000000 0.317851
O O5 0.255415 0.500000 0.084871
O O6 0.346903 0.737059 0.102628
O O7 0.200196 0.750398 0.140395
O O8 0.230224 0.736695 0.003824
O O9 0.500000 0.228446 0.614846
O O10 0.419353 0.247758 0.730764
O O11 0.500000 0.000000 0.704402
O O12 0.677599 0.500000 0.461675
O O13 0.578686 0.709405 0.495307
O O14 0.500000 0.500000 0.560172
O O15 0.500000 0.784636 0.144487
O O16 0.603947 0.000000 0.148257
O O17 0.344186 0.500000 0.702412
#
# Coordination Sequence:
#
# PCOD9375073 Si02
#       7
#     8   8   4   8   4   8   8
#     4   9  20  36  56  81 110 145 182 223 272 324
#     4  11  21  34  55  82 110 142 185 231 273 322
#     4  12  22  32  56  88 112 139 182 233 272 320
#     4  11  22  36  55  79 113 151 183 221 273 329
#     4  10  22  36  52  78 114 151 180 217 274 332
#     4   9  19  37  59  82 109 145 184 223 272 329
#     4  10  20  37  57  78 110 149 184 223 275 329
#
# _framework density 17.264192999999999
#
# number of rings (size 3 to 8) (size 9 to 14) (size 15 to 20)
#    0.000    1.833    1.667    4.250    1.167    4.333 
#    0.000    0.000    1.833    0.000    0.000    0.000 
#    0.000    0.000    0.000    0.000    0.000    0.000 
#
# Total GULP energy -134040.050472 kJ/mol
# GULP energy per Si atom -5585.002103 kJ/mol
# Density = 1.722490 g / cm^3
# Si number density = 17.264193 Si / 1000 Ang^3
#
#
#
# Elastic Constant Matrix: (Units=GPa)
#
#
# Indices 1 2 3 4 5 6 
#
# 1 115.0886 55.0477 22.7828 0.0000 0.0000 0.0000
# 2 55.0477 84.7027 33.8652 0.0000 0.0000 0.0000
# 3 22.7828 33.8652 54.6140 0.0000 0.0000 0.0000
# 4 0.0000 0.0000 0.0000 31.3970 0.0000 0.0000
# 5 0.0000 0.0000 0.0000 0.0000 13.4376 0.0000
# 6 0.0000 0.0000 0.0000 0.0000 0.0000 16.5916
#
#
#
# Elastic Compliance Matrix: (Units=1/GPa)
#
#
# Indices 1 2 3 4 5 6 
#
# 1 0.012611 -0.008100 -0.000238 0.000000 0.000000 0.000000
# 2 -0.008100 0.020901 -0.009581 0.000000 0.000000 0.000000
# 3 -0.000238 -0.009581 0.024351 0.000000 0.000000 0.000000
# 4 0.000000 0.000000 0.000000 0.031850 0.000000 0.000000
# 5 0.000000 0.000000 0.000000 0.000000 0.074418 0.000000
# 6 0.000000 0.000000 0.000000 0.000000 0.000000 0.060272
#
#
# Mechanical properties :
#
#
# Convention : Reuss Voigt Hill
#
# Bulk Modulus (GPa) = 45.40593 53.08853 49.24723
# Shear Modulus (GPa) = 18.68588 21.79921 20.24254
#
# Velocity S-wave (km/s) = 3.29348 3.55728 3.42792
# Velocity P-wave (km/s) = 6.38908 6.90578 6.65245
#
# Compressibility (1/GPa) = 0.02202355
#
# Stress axis : x y z
#
# Youngs Moduli (GPa) = 79.29899 47.84435 41.06673
#
# Poissons Ratio (x) = 0.38756 0.00976
# Poissons Ratio (y) = 0.64236 0.39347
# Poissons Ratio (z) = 0.01885 0.45841
#
# Static dielectric constant tensor:
#      x y z
#    x 1.590650 0.000000 0.000000 
#    y 0.000000 1.573640 0.000000 
#    z 0.000000 0.000000 1.555470 
# 
# From -- ./inp_files/21726.got.cif
#   From: 2010.05.17/outbox.cif.g08.bks.cpg/sg44_11_cif.got.tgz:21726.got - 2010.06.03 19:37:08.
