data_PCOD9375678
_publ_section_title
;
Structure prediction by ZEFSAII (Michael W. Deem and Ramdas Pophale) SiO2 
 PCOD9375678
Probable space group: I M M 2
;
_chemical_formula_sum "Si O2"
_cell_formula_units_Z 40
_cell_length_a 7.735033
_cell_length_b 8.242361
_cell_length_c 31.083189
_cell_angle_alpha 90.000000
_cell_angle_beta 90.000000
_cell_angle_gamma 90.000000
_cell_volume 1981.706674
_symmetry_space_group_name_H-M "I M M 2"
_symmetry_group_IT_number 44
_symmetry_cell_setting 'orthorhombic'
loop_
_space_group_symop_operation_xyz
x,y,z
-x,-y,z
-x,y,z
x,-y,z
1/2+x,1/2+y,1/2+z
1/2-x,1/2-y,1/2+z
1/2-x,1/2+y,1/2+z
1/2+x,1/2-y,1/2+z
loop_
_atom_site_type_symbol
_atom_site_label
_atom_site_fract_x
_atom_site_fract_y
_atom_site_fract_z
Si Si1 0.300662 0.803448 0.156630
Si Si2 0.500000 0.807674 0.718907
Si Si3 0.196917 0.305739 0.878576
Si Si4 0.500000 0.696519 0.817028
Si Si5 0.792565 0.185410 0.971197
Si Si6 0.206902 0.314557 0.563331
O O1 0.500000 0.751609 0.164151
O O2 0.238515 0.743324 0.109300
O O3 0.168850 0.752778 0.193287
O O4 0.302065 0.000000 0.154035
O O5 0.500000 0.746618 0.767700
O O6 0.500000 0.000000 0.718820
O O7 0.188387 0.500000 0.874782
O O8 0.330697 0.245063 0.842956
O O9 0.262058 0.267211 0.926778
O O10 0.000000 0.242390 0.873606
O O11 0.500000 0.500000 0.818796
O O12 0.000000 0.181506 0.969982
O O13 0.725649 0.000000 0.971039
O O14 0.746291 0.263064 0.017207
O O15 0.277383 0.500000 0.560964
O O16 0.000000 0.324544 0.566668
#
# Coordination Sequence:
#
# PCOD9375678 Si02
#       6
#     8   4   8   4   8   8
#     4   9  19  38  63  86 112 152 200 243 281 335
#     4  12  26  40  58  88 120 150 186 240 311 360
#     4   9  19  36  55  76 106 141 178 226 277 328
#     4  10  22  40  60  80 102 140 196 240 277 338
#     4   9  17  28  47  78 110 142 178 218 269 326
#     4   8  15  28  49  79 108 139 183 229 269 316
#
# _framework density 20.184622999999998
#
# number of rings (size 3 to 8) (size 9 to 14) (size 15 to 20)
#    0.000    2.800    0.000    2.100    2.800    2.000 
#    0.000    3.000    0.000    1.200    0.000    0.000 
#    0.000    0.000    0.000    0.000    0.000    0.000 
#
# Total GULP energy -111485.094646 kJ/mol
# GULP energy per Si atom -5574.254732 kJ/mol
# Density = 2.013868 g / cm^3
# Si number density = 20.184623 Si / 1000 Ang^3
#
#
#
# Elastic Constant Matrix: (Units=GPa)
#
#
# Indices 1 2 3 4 5 6 
#
# 1 98.3570 15.6784 93.6705 0.0000 0.0000 0.0000
# 2 15.6784 9.9598 13.8441 0.0000 0.0000 0.0000
# 3 93.6705 13.8441 227.0999 0.0000 0.0000 0.0000
# 4 0.0000 0.0000 0.0000 23.7015 0.0000 0.0000
# 5 0.0000 0.0000 0.0000 0.0000 38.8574 0.0000
# 6 0.0000 0.0000 0.0000 0.0000 0.0000 6.5769
#
#
#
# Elastic Compliance Matrix: (Units=1/GPa)
#
#
# Indices 1 2 3 4 5 6 
#
# 1 0.020483 -0.022398 -0.007083 0.000000 0.000000 0.000000
# 2 -0.022398 0.134192 0.001058 0.000000 0.000000 0.000000
# 3 -0.007083 0.001058 0.007260 0.000000 0.000000 0.000000
# 4 0.000000 0.000000 0.000000 0.042191 0.000000 0.000000
# 5 0.000000 0.000000 0.000000 0.000000 0.025735 0.000000
# 6 0.000000 0.000000 0.000000 0.000000 0.000000 0.152047
#
#
# Mechanical properties :
#
#
# Convention : Reuss Voigt Hill
#
# Bulk Modulus (GPa) = 9.51576 64.64475 37.08026
# Shear Modulus (GPa) = 10.55329 27.97539 19.26434
#
# Velocity S-wave (km/s) = 2.28905 3.72691 3.09270
# Velocity P-wave (km/s) = 3.42212 7.11450 5.58243
#
# Compressibility (1/GPa) = 0.10508878
#
# Stress axis : x y z
#
# Youngs Moduli (GPa) = 48.82088 7.45200 137.73407
#
# Poissons Ratio (x) = 0.16691 0.97558
# Poissons Ratio (y) = 1.09351 -0.14575
# Poissons Ratio (z) = 0.34580 -0.00789
#
# Static dielectric constant tensor:
#      x y z
#    x 1.725880 0.000000 0.000000 
#    y 0.000000 1.724920 0.000000 
#    z 0.000000 0.000000 1.733350 
# 
# From -- ./inp_files/25966.got.cif
#   From: 2010.05.17/outbox.cif.g08.bks.cpg/sg44_13_cif.got.tgz:25966.got - 2010.06.03 19:37:08.
