data_PCOD9375903
_publ_section_title
;
Structure prediction by ZEFSAII (Michael W. Deem and Ramdas Pophale) SiO2 
 PCOD9375903
Probable space group: I M M 2
;
_chemical_formula_sum "Si O2"
_cell_formula_units_Z 64
_cell_length_a 29.560994
_cell_length_b 7.408927
_cell_length_c 14.839648
_cell_angle_alpha 90.000000
_cell_angle_beta 90.000000
_cell_angle_gamma 90.000000
_cell_volume 3250.109166
_symmetry_space_group_name_H-M "I M M 2"
_symmetry_group_IT_number 44
_symmetry_cell_setting 'orthorhombic'
loop_
_space_group_symop_operation_xyz
x,y,z
-x,-y,z
-x,y,z
x,-y,z
1/2+x,1/2+y,1/2+z
1/2-x,1/2-y,1/2+z
1/2-x,1/2+y,1/2+z
1/2+x,1/2-y,1/2+z
loop_
_atom_site_type_symbol
_atom_site_label
_atom_site_fract_x
_atom_site_fract_y
_atom_site_fract_z
Si Si1 0.638775 0.221778 0.638130
Si Si2 0.050465 0.284217 0.241232
Si Si3 0.828136 0.284303 0.944208
Si Si4 0.233225 0.205533 0.492615
Si Si5 0.266775 0.794467 0.700963
Si Si6 0.949535 0.215784 0.452345
Si Si7 0.361225 0.278222 0.055448
Si Si8 0.828136 0.215697 0.749370
O O1 0.591949 0.283130 0.681303
O O2 0.646210 0.277777 0.534138
O O3 0.682890 0.283241 0.695022
O O4 0.639745 0.000000 0.639844
O O5 0.049140 0.500000 0.229022
O O6 0.059087 0.250001 0.346789
O O7 0.000000 0.214224 0.220081
O O8 0.823945 0.500000 0.954468
O O9 0.849277 0.250000 0.846789
O O10 0.776647 0.208831 0.944984
O O11 0.250000 0.197036 0.596789
O O12 0.182890 0.283241 0.498556
O O13 0.228143 0.000000 0.458708
O O14 0.223353 0.708831 0.748594
O O15 0.271857 0.000000 0.734870
O O16 0.908051 0.283130 0.512275
O O17 0.000000 0.285775 0.473497
O O18 0.950860 0.000000 0.464554
O O19 0.360255 0.500000 0.053734
O O20 0.353790 0.222223 0.159440
O O21 0.823945 0.000000 0.739110
#
# Coordination Sequence:
#
# PCOD9375903 Si02
#       8
#     8   8   8   8   8   8   8   8
#     4   8  14  26  43  60  80 109 140 164 193 241
#     4   9  17  29  45  64  83 103 130 165 204 244
#     4   9  16  26  41  60  82 109 139 168 197 232
#     4   7  11  21  37  55  74 100 134 164 188 222
#     4   7  11  21  37  55  74 100 134 164 188 222
#     4   9  17  29  45  64  83 103 130 165 204 244
#     4   8  14  26  43  60  80 109 140 164 193 241
#     4   9  16  26  41  60  82 109 139 168 197 232
#
# _framework density 19.691647
#
# number of rings (size 3 to 8) (size 9 to 14) (size 15 to 20)
#    0.000    3.750    0.000    3.000    0.000    1.000 
#    0.000    1.250    0.000    7.500    0.000    0.000 
#    0.000    0.000    0.000    0.000    0.000    0.000 
#
# Total GULP energy -178158.597811 kJ/mol
# GULP energy per Si atom -5567.456182 kJ/mol
# Density = 1.964683 g / cm^3
# Si number density = 19.691647 Si / 1000 Ang^3
#
#
#
# Elastic Constant Matrix: (Units=GPa)
#
#
# Indices 1 2 3 4 5 6 
#
# 1 181.5759 10.2518 90.7350 0.0000 0.0000 0.0000
# 2 10.2518 67.1388 0.0248 0.0000 0.0000 0.0000
# 3 90.7350 0.0248 99.5538 0.0000 0.0000 0.0000
# 4 0.0000 0.0000 0.0000 13.9364 0.0000 0.0000
# 5 0.0000 0.0000 0.0000 0.0000 -14.5921 0.0000
# 6 0.0000 0.0000 0.0000 0.0000 0.0000 -2.0348
#
#
#
# Elastic Compliance Matrix: (Units=1/GPa)
#
#
# Indices 1 2 3 4 5 6 
#
# 1 0.010275 -0.001566 -0.009365 0.000000 0.000000 0.000000
# 2 -0.001566 0.015133 0.001423 0.000000 0.000000 0.000000
# 3 -0.009365 0.001423 0.018580 0.000000 0.000000 0.000000
# 4 0.000000 0.000000 0.000000 0.071755 0.000000 0.000000
# 5 0.000000 0.000000 0.000000 0.000000 -0.068530 0.000000
# 6 0.000000 0.000000 0.000000 0.000000 0.000000 -0.491438
#
#
# Mechanical properties :
#
#
# Convention : Reuss Voigt Hill
#
# Bulk Modulus (GPa) = 40.04218 61.14353 50.59286
# Shear Modulus (GPa) = -11.99367 15.94569 1.97601
#
# Velocity S-wave (km/s) = -2.47062 2.84873 1.00282
# Velocity P-wave (km/s) = 3.49859 6.47598 5.20473
#
# Compressibility (1/GPa) = 0.02497366
#
# Stress axis : x y z
#
# Youngs Moduli (GPa) = 97.32003 66.08054 53.82231
#
# Poissons Ratio (x) = 0.10345 0.50403
# Poissons Ratio (y) = 0.15236 -0.07659
# Poissons Ratio (z) = 0.91138 -0.09404
#
# Static dielectric constant tensor:
#      x y z
#    x 1.709490 0.000000 0.000000 
#    y 0.000000 1.776380 0.000000 
#    z 0.000000 0.000000 1.693240 
# 
# From -- ./inp_files/19698.got.cif
#   From: 2010.05.17/outbox.cif.g08.bks.cpg/sg44_10_cif.got.tgz:19698.got - 2010.06.03 19:37:08.
