data_PCOD9375667
_publ_section_title
;
Structure prediction by ZEFSAII (Michael W. Deem and Ramdas Pophale) SiO2 
 PCOD9375667
Probable space group: I M M 2
;
_chemical_formula_sum "Si O2"
_cell_formula_units_Z 34
_cell_length_a 12.591146
_cell_length_b 10.263448
_cell_length_c 12.818443
_cell_angle_alpha 90.000000
_cell_angle_beta 90.000000
_cell_angle_gamma 90.000000
_cell_volume 1656.509087
_symmetry_space_group_name_H-M "I M M 2"
_symmetry_group_IT_number 44
_symmetry_cell_setting 'orthorhombic'
loop_
_space_group_symop_operation_xyz
x,y,z
-x,-y,z
-x,y,z
x,-y,z
1/2+x,1/2+y,1/2+z
1/2-x,1/2-y,1/2+z
1/2-x,1/2+y,1/2+z
1/2+x,1/2-y,1/2+z
loop_
_atom_site_type_symbol
_atom_site_label
_atom_site_fract_x
_atom_site_fract_y
_atom_site_fract_z
Si Si1 0.621670 0.852524 0.254250
Si Si2 0.500000 0.500000 0.040845
Si Si3 0.197667 0.350121 0.312218
Si Si4 0.116116 0.653514 0.081751
Si Si5 0.655434 0.250026 0.028900
O O1 0.500000 0.829739 0.286907
O O2 0.702931 0.746757 0.298056
O O3 0.626483 0.836965 0.128724
O O4 0.652125 0.000000 0.283495
O O5 0.592182 0.384822 0.040456
O O6 0.233816 0.500000 0.317282
O O7 0.128991 0.335957 0.207125
O O8 0.135677 0.313541 0.416922
O O9 0.121568 0.500000 0.055811
O O10 0.218186 0.723803 0.035458
O O11 0.000000 0.703258 0.050314
#
# Coordination Sequence:
#
# PCOD9375667 Si02
#       5
#     8   2   8   8   8
#     4  10  22  39  62  90 124 163 211 264 314 374
#     4  12  24  36  64  96 124 166 210 266 328 372
#     4  10  23  39  61  89 123 160 207 260 316 378
#     4   9  19  37  59  84 116 157 200 248 305 369
#     4  11  22  39  61  89 127 162 209 258 315 378
#
# _framework density 20.525089000000001
#
# number of rings (size 3 to 8) (size 9 to 14) (size 15 to 20)
#    0.000    1.882    2.353    0.706    4.941    1.412 
#    0.000    2.353    0.000   12.000    0.000    0.000 
#    0.000    0.000    0.000    0.000    0.000    0.000 
#
# Total GULP energy -94703.972073 kJ/mol
# GULP energy per Si atom -5570.821887 kJ/mol
# Density = 2.047837 g / cm^3
# Si number density = 20.525089 Si / 1000 Ang^3
#
#
#
# Elastic Constant Matrix: (Units=GPa)
#
#
# Indices 1 2 3 4 5 6 
#
# 1 134.3285 43.9522 -6.5963 0.0000 0.0000 0.0000
# 2 43.9522 107.7486 10.9407 0.0000 0.0000 0.0000
# 3 -6.5963 10.9407 97.3326 0.0000 0.0000 0.0000
# 4 0.0000 0.0000 0.0000 2.6091 0.0000 0.0000
# 5 0.0000 0.0000 0.0000 0.0000 -10.1810 0.0000
# 6 0.0000 0.0000 0.0000 0.0000 0.0000 21.0633
#
#
#
# Elastic Compliance Matrix: (Units=1/GPa)
#
#
# Indices 1 2 3 4 5 6 
#
# 1 0.008686 -0.003644 0.000998 0.000000 0.000000 0.000000
# 2 -0.003644 0.010917 -0.001474 0.000000 0.000000 0.000000
# 3 0.000998 -0.001474 0.010507 0.000000 0.000000 0.000000
# 4 0.000000 0.000000 0.000000 0.383281 0.000000 0.000000
# 5 0.000000 0.000000 0.000000 0.000000 -0.098223 0.000000
# 6 0.000000 0.000000 0.000000 0.000000 0.000000 0.047476
#
#
# Mechanical properties :
#
#
# Convention : Reuss Voigt Hill
#
# Bulk Modulus (GPa) = 45.72493 48.44475 47.08484
# Shear Modulus (GPa) = 13.22137 22.10581 17.66359
#
# Velocity S-wave (km/s) = 2.54078 3.28535 2.93676
# Velocity P-wave (km/s) = 5.56177 6.16809 5.87276
#
# Compressibility (1/GPa) = 0.02186991
#
# Stress axis : x y z
#
# Youngs Moduli (GPa) = 115.12868 91.59871 95.17090
#
# Poissons Ratio (x) = 0.33383 -0.09501
# Poissons Ratio (y) = 0.41958 0.14030
# Poissons Ratio (z) = -0.11493 0.13503
#
# Static dielectric constant tensor:
#      x y z
#    x 1.725730 0.000000 0.000000 
#    y 0.000000 1.679300 0.000000 
#    z 0.000000 0.000000 1.771520 
# 
# From -- ./inp_files/11847.got.cif
#   From: 2010.05.17/outbox.cif.g08.bks.cpg/sg44_6_cif.got.tgz:11847.got - 2010.06.03 19:37:08.
