data_PCOD9375041
_publ_section_title
;
Structure prediction by ZEFSAII (Michael W. Deem and Ramdas Pophale) SiO2 
 PCOD9375041
Probable space group: I M M 2
;
_chemical_formula_sum "Si O2"
_cell_formula_units_Z 48
_cell_length_a 8.014930
_cell_length_b 8.380744
_cell_length_c 35.786303
_cell_angle_alpha 90.000000
_cell_angle_beta 90.000000
_cell_angle_gamma 90.000000
_cell_volume 2403.804497
_symmetry_space_group_name_H-M "I M M 2"
_symmetry_group_IT_number 44
_symmetry_cell_setting 'orthorhombic'
loop_
_space_group_symop_operation_xyz
x,y,z
-x,-y,z
-x,y,z
x,-y,z
1/2+x,1/2+y,1/2+z
1/2-x,1/2-y,1/2+z
1/2-x,1/2+y,1/2+z
1/2+x,1/2-y,1/2+z
loop_
_atom_site_type_symbol
_atom_site_label
_atom_site_fract_x
_atom_site_fract_y
_atom_site_fract_z
Si Si1 0.303863 0.311291 0.208300
Si Si2 0.808119 0.310614 0.948068
Si Si3 0.500000 0.190981 0.082113
Si Si4 0.815509 0.693297 0.129090
Si Si5 0.000000 0.690423 0.496791
Si Si6 0.302162 0.815817 0.787433
Si Si7 0.799798 0.816858 0.867014
O O1 0.500000 0.301209 0.200502
O O2 0.258036 0.500000 0.211198
O O3 0.210128 0.248498 0.171858
O O4 0.267993 0.241784 0.249294
O O5 0.812900 0.500000 0.952475
O O6 0.667438 0.243776 0.975417
O O7 0.757274 0.270118 0.905422
O O8 0.000000 0.249771 0.953850
O O9 0.335311 0.247788 0.103783
O O10 0.500000 0.000000 0.081751
O O11 0.500000 0.250807 0.039445
O O12 0.807207 0.500000 0.130016
O O13 0.000000 0.739799 0.115737
O O14 0.000000 0.500000 0.497607
O O15 0.500000 0.821784 0.783246
O O16 0.261088 0.744061 0.827851
O O17 0.236134 0.000000 0.789617
O O18 0.000000 0.820587 0.864934
O O19 0.736908 0.000000 0.869693
#
# Coordination Sequence:
#
# PCOD9375041 Si02
#       7
#     8   8   4   8   4   8   8
#     4   9  15  26  47  76 112 150 190 241 294 337
#     4  10  22  40  62  89 120 155 192 237 297 359
#     4  11  25  43  61  87 121 155 193 241 299 363
#     4  10  20  36  61  90 119 155 197 244 296 349
#     4  11  25  43  65  89 115 151 197 247 297 353
#     4   9  16  24  39  71 111 147 189 242 290 332
#     4   9  17  30  49  75 109 150 194 239 288 342
#
# _framework density 19.968346
#
# number of rings (size 3 to 8) (size 9 to 14) (size 15 to 20)
#    0.000    2.333    0.833    2.000    1.167    7.333 
#    0.000    3.333    0.000    1.000    0.000    0.000 
#    0.000    0.000    0.000    0.000    0.000    0.000 
#
# Total GULP energy -133866.422573 kJ/mol
# GULP energy per Si atom -5577.767607 kJ/mol
# Density = 1.992290 g / cm^3
# Si number density = 19.968346 Si / 1000 Ang^3
#
#
#
# Elastic Constant Matrix: (Units=GPa)
#
#
# Indices 1 2 3 4 5 6 
#
# 1 111.5819 23.0134 93.9886 0.0000 0.0000 0.0000
# 2 23.0134 19.9612 20.6493 0.0000 0.0000 0.0000
# 3 93.9886 20.6493 166.0287 0.0000 0.0000 0.0000
# 4 0.0000 0.0000 0.0000 17.6647 0.0000 0.0000
# 5 0.0000 0.0000 0.0000 0.0000 9.3669 0.0000
# 6 0.0000 0.0000 0.0000 0.0000 0.0000 13.6093
#
#
#
# Elastic Compliance Matrix: (Units=1/GPa)
#
#
# Indices 1 2 3 4 5 6 
#
# 1 0.019607 -0.012765 -0.009512 0.000000 0.000000 0.000000
# 2 -0.012765 0.065805 -0.000958 0.000000 0.000000 0.000000
# 3 -0.009512 -0.000958 0.011527 0.000000 0.000000 0.000000
# 4 0.000000 0.000000 0.000000 0.056610 0.000000 0.000000
# 5 0.000000 0.000000 0.000000 0.000000 0.106759 0.000000
# 6 0.000000 0.000000 0.000000 0.000000 0.000000 0.073479
#
#
# Mechanical properties :
#
#
# Convention : Reuss Voigt Hill
#
# Bulk Modulus (GPa) = 19.81414 63.65271 41.73342
# Shear Modulus (GPa) = 12.59192 18.78955 15.69073
#
# Velocity S-wave (km/s) = 2.51389 3.07085 2.80622
# Velocity P-wave (km/s) = 4.28608 6.67229 5.60758
#
# Compressibility (1/GPa) = 0.05046902
#
# Stress axis : x y z
#
# Youngs Moduli (GPa) = 51.00258 15.19635 86.75437
#
# Poissons Ratio (x) = 0.19399 0.82519
# Poissons Ratio (y) = 0.65106 0.08310
# Poissons Ratio (z) = 0.48513 0.01456
#
# Static dielectric constant tensor:
#      x y z
#    x 1.698260 0.000000 0.000000 
#    y 0.000000 1.731230 0.000000 
#    z 0.000000 0.000000 1.731940 
# 
# From -- ./inp_files/26977.got.cif
#   From: 2010.05.17/outbox.cif.g08.bks.cpg/sg44_14_cif.got.tgz:26977.got - 2010.06.03 19:37:08.
