data_PCOD9375315
_publ_section_title
;
Structure prediction by ZEFSAII (Michael W. Deem and Ramdas Pophale) SiO2 
 PCOD9375315
Probable space group: I M M 2
;
_chemical_formula_sum "Si O2"
_cell_formula_units_Z 64
_cell_length_a 13.762584
_cell_length_b 20.336152
_cell_length_c 12.514147
_cell_angle_alpha 90.000000
_cell_angle_beta 90.000000
_cell_angle_gamma 90.000000
_cell_volume 3502.434436
_symmetry_space_group_name_H-M "I M M 2"
_symmetry_group_IT_number 44
_symmetry_cell_setting 'orthorhombic'
loop_
_space_group_symop_operation_xyz
x,y,z
-x,-y,z
-x,y,z
x,-y,z
1/2+x,1/2+y,1/2+z
1/2-x,1/2-y,1/2+z
1/2-x,1/2+y,1/2+z
1/2+x,1/2-y,1/2+z
loop_
_atom_site_type_symbol
_atom_site_label
_atom_site_fract_x
_atom_site_fract_y
_atom_site_fract_z
Si Si1 0.777885 0.072486 0.324500
Si Si2 0.616935 0.790620 0.052516
Si Si3 0.616882 0.736047 0.278536
Si Si4 0.616882 0.236049 0.620166
Si Si5 0.615836 0.641467 0.459036
Si Si6 0.884164 0.641470 0.939666
Si Si7 0.277880 0.927514 0.074211
Si Si8 0.883065 0.790618 0.346191
O O1 0.681918 0.083096 0.396490
O O2 0.750007 0.075800 0.199354
O O3 0.845351 0.134996 0.347429
O O4 0.820303 0.000000 0.344453
O O5 0.500000 0.792140 0.053727
O O6 0.650652 0.752943 0.159575
O O7 0.654651 0.865005 0.051287
O O8 0.649304 0.750003 0.949351
O O9 0.500000 0.728848 0.271848
O O10 0.648402 0.672033 0.345291
O O11 0.632321 0.799807 0.353341
O O12 0.500000 0.228851 0.626855
O O13 0.632322 0.299810 0.545361
O O14 0.648402 0.172035 0.553410
O O15 0.650653 0.252946 0.739127
O O16 0.500000 0.627734 0.457268
O O17 0.681919 0.583094 0.502213
O O18 0.000000 0.627737 0.941434
O O19 0.320302 0.000000 0.054263
O O20 0.000000 0.792138 0.344979
#
# Coordination Sequence:
#
# PCOD9375315 Si02
#       8
#     8   8   8   8   8   8   8   8
#     4  11  23  34  50  79 111 143 174 209 266 325
#     4  10  21  36  55  79 107 140 179 218 257 309
#     4   8  15  30  53  79  99 128 175 220 264 299
#     4   8  15  30  53  79  99 128 175 220 264 299
#     4   9  17  32  54  76 104 134 168 221 267 305
#     4   9  17  32  54  76 104 134 168 221 267 305
#     4  11  23  34  50  79 111 143 174 209 266 325
#     4  10  21  36  55  79 107 140 179 218 257 309
#
# _framework density 18.273004
#
# number of rings (size 3 to 8) (size 9 to 14) (size 15 to 20)
#    0.000    2.500    2.500    1.500    3.500    1.000 
#    0.000    2.500    0.000    3.000    0.000    7.000 
#    0.000    0.000    0.000    0.000    0.000    0.000 
#
# Total GULP energy -178477.386255 kJ/mol
# GULP energy per Si atom -5577.418320 kJ/mol
# Density = 1.823141 g / cm^3
# Si number density = 18.273004 Si / 1000 Ang^3
#
#
#
# Elastic Constant Matrix: (Units=GPa)
#
#
# Indices 1 2 3 4 5 6 
#
# 1 60.1286 23.8592 29.7210 0.0000 0.0000 0.0000
# 2 23.8592 107.6834 68.0817 0.0000 0.0000 0.0000
# 3 29.7210 68.0817 133.5300 0.0001 0.0000 0.0000
# 4 0.0000 0.0000 0.0001 3.6887 0.0000 0.0000
# 5 0.0000 0.0000 0.0000 0.0000 15.7969 0.0000
# 6 0.0000 0.0000 0.0000 0.0000 0.0000 18.0627
#
#
#
# Elastic Compliance Matrix: (Units=1/GPa)
#
#
# Indices 1 2 3 4 5 6 
#
# 1 0.019057 -0.002274 -0.003082 0.000000 0.000000 0.000000
# 2 -0.002274 0.013975 -0.006619 0.000000 0.000000 0.000000
# 3 -0.003082 -0.006619 0.011550 0.000000 0.000000 0.000000
# 4 0.000000 0.000000 0.000000 0.271097 0.000000 0.000000
# 5 0.000000 0.000000 0.000000 0.000000 0.063304 0.000000
# 6 0.000000 0.000000 0.000000 0.000000 0.000000 0.055363
#
#
# Mechanical properties :
#
#
# Convention : Reuss Voigt Hill
#
# Bulk Modulus (GPa) = 48.47006 60.51843 54.49425
# Shear Modulus (GPa) = 10.74868 19.48834 15.11851
#
# Velocity S-wave (km/s) = 2.42797 3.26929 2.87952
# Velocity P-wave (km/s) = 5.86883 6.88781 6.39864
#
# Compressibility (1/GPa) = 0.02063129
#
# Stress axis : x y z
#
# Youngs Moduli (GPa) = 52.47473 71.55501 86.57998
#
# Poissons Ratio (x) = 0.16268 0.26688
# Poissons Ratio (y) = 0.11930 0.57311
# Poissons Ratio (z) = 0.16175 0.47365
#
# Static dielectric constant tensor:
#      x y z
#    x 1.695910 0.000000 0.000000 
#    y 0.000000 1.604190 0.000000 
#    z 0.000000 0.000000 1.640810 
# 
# From -- ./inp_files/13462.got.cif
#   From: 2010.05.17/outbox.cif.g08.bks.cpg/sg44_7_cif.got.tgz:13462.got - 2010.06.03 19:37:08.
