data_PCOD9375655
_publ_section_title
;
Structure prediction by ZEFSAII (Michael W. Deem and Ramdas Pophale) SiO2 
 PCOD9375655
Probable space group: I M M 2
;
_chemical_formula_sum "Si O2"
_cell_formula_units_Z 56
_cell_length_a 8.317390
_cell_length_b 20.845278
_cell_length_c 16.097414
_cell_angle_alpha 90.000000
_cell_angle_beta 90.000000
_cell_angle_gamma 90.000000
_cell_volume 2790.942383
_symmetry_space_group_name_H-M "I M M 2"
_symmetry_group_IT_number 44
_symmetry_cell_setting 'orthorhombic'
loop_
_space_group_symop_operation_xyz
x,y,z
-x,-y,z
-x,y,z
x,-y,z
1/2+x,1/2+y,1/2+z
1/2-x,1/2-y,1/2+z
1/2-x,1/2+y,1/2+z
1/2+x,1/2-y,1/2+z
loop_
_atom_site_type_symbol
_atom_site_label
_atom_site_fract_x
_atom_site_fract_y
_atom_site_fract_z
Si Si1 0.805121 0.573646 0.224300
Si Si2 0.307069 0.695939 0.313987
Si Si3 0.194299 0.073584 0.219443
Si Si4 0.818404 0.573884 0.047427
Si Si5 0.311295 0.252258 0.483385
Si Si6 0.183776 0.873326 0.396606
Si Si7 0.808493 0.290287 0.663587
O O1 0.752043 0.500000 0.238048
O O2 0.736140 0.624702 0.287053
O O3 0.756421 0.601932 0.133625
O O4 0.000000 0.574421 0.225704
O O5 0.500000 0.704323 0.316906
O O6 0.245745 0.703926 0.408354
O O7 0.247784 0.747971 0.243796
O O8 0.246589 0.094587 0.312696
O O9 0.246532 0.135873 0.166582
O O10 0.000000 0.071377 0.218639
O O11 0.249309 0.000000 0.200499
O O12 0.837265 0.500000 0.070064
O O13 0.000000 0.597252 0.028311
O O14 0.699303 0.577113 0.971341
O O15 0.500000 0.263551 0.495654
O O16 0.282195 0.184263 0.438042
O O17 0.234540 0.259733 0.574098
O O18 0.000000 0.853092 0.382855
O O19 0.000000 0.292223 0.671077
#
# Coordination Sequence:
#
# PCOD9375655 Si02
#       7
#     8   8   8   8   8   8   8
#     4   9  19  35  55  81 113 150 193 239 290 352
#     4  10  22  39  59  85 118 151 192 244 298 358
#     4  10  22  40  61  87 123 167 211 256 313 377
#     4   9  18  32  50  76 112 153 191 228 284 355
#     4  11  23  40  60  85 118 157 200 248 307 370
#     4  11  21  34  55  86 119 152 197 250 302 358
#     4  11  23  41  63  92 123 156 206 261 309 367
#
# _framework density 20.064907000000002
#
# number of rings (size 3 to 8) (size 9 to 14) (size 15 to 20)
#    0.000    1.857    1.429    3.429    0.000    7.143 
#    0.000    2.143    0.000    0.857    0.000    0.000 
#    0.000    0.000    0.000    0.000    0.000    0.000 
#
# Total GULP energy -155936.568514 kJ/mol
# GULP energy per Si atom -5569.163161 kJ/mol
# Density = 2.001924 g / cm^3
# Si number density = 20.064907 Si / 1000 Ang^3
#
#
#
# Elastic Constant Matrix: (Units=GPa)
#
#
# Indices 1 2 3 4 5 6 
#
# 1 14.9607 5.6513 9.5760 0.0000 0.0000 0.0000
# 2 5.6513 98.1376 27.2192 0.0000 0.0000 0.0000
# 3 9.5760 27.2192 80.2567 0.0000 0.0000 0.0000
# 4 0.0000 0.0000 0.0000 34.1897 0.0000 0.0000
# 5 0.0000 0.0000 0.0000 0.0000 37.5947 0.0000
# 6 0.0000 0.0000 0.0000 0.0000 0.0000 30.1769
#
#
#
# Elastic Compliance Matrix: (Units=1/GPa)
#
#
# Indices 1 2 3 4 5 6 
#
# 1 0.072711 -0.001966 -0.008009 0.000000 0.000000 0.000000
# 2 -0.001966 0.011301 -0.003598 0.000000 0.000000 0.000000
# 3 -0.008009 -0.003598 0.014636 0.000000 0.000000 0.000000
# 4 0.000000 0.000000 0.000000 0.029249 0.000000 0.000000
# 5 0.000000 0.000000 0.000000 0.000000 0.026599 0.000000
# 6 0.000000 0.000000 0.000000 0.000000 0.000000 0.033138
#
#
# Mechanical properties :
#
#
# Convention : Reuss Voigt Hill
#
# Bulk Modulus (GPa) = 13.98567 30.91643 22.45105
# Shear Modulus (GPa) = 20.95443 30.45283 25.70363
#
# Velocity S-wave (km/s) = 3.23512 3.90001 3.58302
# Velocity P-wave (km/s) = 4.57602 5.97677 5.32268
#
# Compressibility (1/GPa) = 0.07150175
#
# Stress axis : x y z
#
# Youngs Moduli (GPa) = 13.75317 88.48808 68.32493
#
# Poissons Ratio (x) = 0.17394 0.54721
# Poissons Ratio (y) = 0.02703 0.24585
# Poissons Ratio (z) = 0.11015 0.31840
#
# Static dielectric constant tensor:
#      x y z
#    x 1.563140 0.000000 0.000000 
#    y 0.000000 1.690870 0.000000 
#    z 0.000000 0.000000 1.766610 
# 
# From -- ./inp_files/16421.got.cif
#   From: 2010.05.17/outbox.cif.g08.bks.cpg/sg44_9_cif.got.tgz:16421.got - 2010.06.03 19:37:08.
