data_PCOD9375297
_publ_section_title
;
Structure prediction by ZEFSAII (Michael W. Deem and Ramdas Pophale) SiO2 
 PCOD9375297
Probable space group: I M M 2
;
_chemical_formula_sum "Si O2"
_cell_formula_units_Z 48
_cell_length_a 28.432414
_cell_length_b 7.290679
_cell_length_c 10.097596
_cell_angle_alpha 90.000000
_cell_angle_beta 90.000000
_cell_angle_gamma 90.000000
_cell_volume 2093.146868
_symmetry_space_group_name_H-M "I M M 2"
_symmetry_group_IT_number 44
_symmetry_cell_setting 'orthorhombic'
loop_
_space_group_symop_operation_xyz
x,y,z
-x,-y,z
-x,y,z
x,-y,z
1/2+x,1/2+y,1/2+z
1/2-x,1/2-y,1/2+z
1/2-x,1/2+y,1/2+z
1/2+x,1/2-y,1/2+z
loop_
_atom_site_type_symbol
_atom_site_label
_atom_site_fract_x
_atom_site_fract_y
_atom_site_fract_z
Si Si1 0.123848 0.776968 0.318360
Si Si2 0.723137 0.721414 0.922717
Si Si3 0.407329 0.723656 0.303716
Si Si4 0.550591 0.722639 0.033499
Si Si5 0.446059 0.276077 0.587202
Si Si6 0.195365 0.213452 0.716094
O O1 0.177308 0.718420 0.338962
O O2 0.094276 0.718698 0.446275
O O3 0.092785 0.717663 0.194034
O O4 0.125038 0.000000 0.314770
O O5 0.724228 0.500000 0.925324
O O6 0.768639 0.776205 0.838490
O O7 0.716561 0.785025 0.075949
O O8 0.406017 0.500000 0.309256
O O9 0.441488 0.775537 0.184294
O O10 0.427670 0.782702 0.443768
O O11 0.355019 0.787834 0.264021
O O12 0.500000 0.783128 0.981751
O O13 0.550730 0.500000 0.028427
O O14 0.500000 0.218653 0.612715
O O15 0.446834 0.500000 0.590477
O O16 0.186058 0.000000 0.686898
#
# Coordination Sequence:
#
# PCOD9375297 Si02
#       6
#     8   8   8   8   8   8
#     4   9  16  27  41  62  94 128 160 199 246 295
#     4  10  21  36  53  75 103 135 174 215 256 304
#     4   9  16  27  41  62  94 128 160 199 246 295
#     4   9  14  22  39  60  87 125 159 189 238 301
#     4   9  16  24  37  62  95 129 163 195 236 297
#     4  10  21  36  53  75 103 135 174 215 256 304
#
# _framework density 22.931978000000001
#
# number of rings (size 3 to 8) (size 9 to 14) (size 15 to 20)
#    0.000    2.667    1.667    1.000    2.333    4.667 
#    0.000    0.000    0.000    0.000    0.000    0.000 
#    0.000    8.000    0.000    0.000    0.000    0.000 
#
# Total GULP energy -134030.369148 kJ/mol
# GULP energy per Si atom -5584.598715 kJ/mol
# Density = 2.287978 g / cm^3
# Si number density = 22.931978 Si / 1000 Ang^3
#
#
#
# Elastic Constant Matrix: (Units=GPa)
#
#
# Indices 1 2 3 4 5 6 
#
# 1 103.0822 -6.8584 -6.8608 0.0000 0.0000 0.0000
# 2 -6.8584 92.6735 -3.8350 0.0000 0.0000 0.0000
# 3 -6.8608 -3.8350 76.6057 0.0000 0.0000 0.0000
# 4 0.0000 0.0000 0.0000 -5.6511 0.0000 0.0000
# 5 0.0000 0.0000 0.0000 0.0000 32.0252 0.0000
# 6 0.0000 0.0000 0.0000 0.0000 0.0000 -2.4868
#
#
#
# Elastic Compliance Matrix: (Units=1/GPa)
#
#
# Indices 1 2 3 4 5 6 
#
# 1 0.009813 0.000764 0.000917 0.000000 0.000000 0.000000
# 2 0.000764 0.010872 0.000613 0.000000 0.000000 0.000000
# 3 0.000917 0.000613 0.013167 0.000000 0.000000 0.000000
# 4 0.000000 0.000000 0.000000 -0.176957 0.000000 0.000000
# 5 0.000000 0.000000 0.000000 0.000000 0.031225 0.000000
# 6 0.000000 0.000000 0.000000 0.000000 0.000000 -0.402125
#
#
# Mechanical properties :
#
#
# Convention : Reuss Voigt Hill
#
# Bulk Modulus (GPa) = 26.01459 26.36147 26.18803
# Shear Modulus (GPa) = -9.88574 24.10516 7.10971
#
# Velocity S-wave (km/s) = -2.07852 3.24568 1.76269
# Velocity P-wave (km/s) = 2.36823 5.05632 3.94809
#
# Compressibility (1/GPa) = 0.03843997
#
# Stress axis : x y z
#
# Youngs Moduli (GPa) = 101.90688 91.97534 75.94939
#
# Poissons Ratio (x) = -0.07028 -0.06965
# Poissons Ratio (y) = -0.07787 -0.04654
# Poissons Ratio (z) = -0.09346 -0.05636
#
# Static dielectric constant tensor:
#      x y z
#    x 1.917030 0.000000 0.000000 
#    y 0.000000 1.978990 0.000000 
#    z 0.000000 0.000000 1.814790 
# 
# From -- ./inp_files/6019.got.cif
#   From: 2010.05.17/outbox.cif.g08.bks.cpg/sg44_4_cif.got.tgz:6019.got - 2010.06.03 19:37:08.
