data_PCOD9375834
_publ_section_title
;
Structure prediction by ZEFSAII (Michael W. Deem and Ramdas Pophale) SiO2 
 PCOD9375834
Probable space group: I M M 2
;
_chemical_formula_sum "Si O2"
_cell_formula_units_Z 48
_cell_length_a 16.605831
_cell_length_b 13.950960
_cell_length_c 10.143328
_cell_angle_alpha 90.000000
_cell_angle_beta 90.000000
_cell_angle_gamma 90.000000
_cell_volume 2349.877249
_symmetry_space_group_name_H-M "I M M 2"
_symmetry_group_IT_number 44
_symmetry_cell_setting 'orthorhombic'
loop_
_space_group_symop_operation_xyz
x,y,z
-x,-y,z
-x,y,z
x,-y,z
1/2+x,1/2+y,1/2+z
1/2-x,1/2-y,1/2+z
1/2-x,1/2+y,1/2+z
1/2+x,1/2-y,1/2+z
loop_
_atom_site_type_symbol
_atom_site_label
_atom_site_fract_x
_atom_site_fract_y
_atom_site_fract_z
Si Si1 0.883790 0.604172 0.782230
Si Si2 0.594819 0.611324 0.997062
Si Si3 0.767375 0.885227 0.964318
Si Si4 0.804819 0.110293 0.250382
Si Si5 0.588454 0.889628 0.967090
Si Si6 0.089479 0.182847 0.786014
O O1 0.910280 0.500000 0.834833
O O2 0.787558 0.607754 0.796446
O O3 0.905267 0.604894 0.626550
O O4 0.913598 0.706434 0.830921
O O5 0.500000 0.609872 0.970336
O O6 0.619981 0.500000 0.023562
O O7 0.640642 0.647922 0.868172
O O8 0.606558 0.672649 0.129580
O O9 0.677066 0.851467 0.927342
O O10 0.836558 0.865587 0.859774
O O11 0.758300 0.000000 0.983304
O O12 0.798512 0.844405 0.105052
O O13 0.833239 0.000000 0.232283
O O14 0.500000 0.845425 0.935234
O O15 0.585282 0.000000 0.919008
O O16 0.000000 0.139926 0.807887
#
# Coordination Sequence:
#
# PCOD9375834 Si02
#       6
#     8   8   8   8   8   8
#     4   9  18  33  52  74 101 133 175 226 270 312
#     4   9  18  33  52  76 107 140 174 212 257 317
#     4   9  18  32  50  78 114 145 175 215 264 317
#     4   8  16  32  53  75 100 136 178 213 255 314
#     4   8  14  28  52  78 101 129 171 221 265 308
#     4  11  22  32  48  78 111 144 179 217 268 318
#
# _framework density 20.426600000000001
#
# number of rings (size 3 to 8) (size 9 to 14) (size 15 to 20)
#    0.000    3.000    0.000    3.000    0.000    5.333 
#    0.000    1.667    0.000    0.000    0.000    9.333 
#    0.000   38.667    0.000    0.000    0.000    0.000 
#
# Total GULP energy -133607.587652 kJ/mol
# GULP energy per Si atom -5566.982819 kJ/mol
# Density = 2.038011 g / cm^3
# Si number density = 20.426600 Si / 1000 Ang^3
#
#
#
# Elastic Constant Matrix: (Units=GPa)
#
#
# Indices 1 2 3 4 5 6 
#
# 1 157.4297 6.0434 83.0476 0.0000 0.0000 0.0000
# 2 6.0434 75.5538 10.2612 0.0000 0.0000 0.0000
# 3 83.0476 10.2612 70.5370 0.0000 0.0000 0.0000
# 4 0.0000 0.0000 0.0000 5.4007 0.0000 0.0000
# 5 0.0000 0.0000 0.0000 0.0000 21.2046 0.0000
# 6 0.0000 0.0000 0.0000 0.0000 0.0000 5.1419
#
#
#
# Elastic Compliance Matrix: (Units=1/GPa)
#
#
# Indices 1 2 3 4 5 6 
#
# 1 0.016903 0.001378 -0.020102 0.000000 0.000000 0.000000
# 2 0.001378 0.013615 -0.003603 0.000000 0.000000 0.000000
# 3 -0.020102 -0.003603 0.038368 0.000000 0.000000 0.000000
# 4 0.000000 0.000000 0.000000 0.185160 0.000000 0.000000
# 5 0.000000 0.000000 0.000000 0.000000 0.047160 0.000000
# 6 0.000000 0.000000 0.000000 0.000000 0.000000 0.194481
#
#
# Mechanical properties :
#
#
# Convention : Reuss Voigt Hill
#
# Bulk Modulus (GPa) = 41.26661 55.80276 48.53468
# Shear Modulus (GPa) = 9.11714 19.96066 14.53890
#
# Velocity S-wave (km/s) = 2.11496 3.12939 2.67078
# Velocity P-wave (km/s) = 5.11960 6.35889 5.77260
#
# Compressibility (1/GPa) = 0.02423267
#
# Stress axis : x y z
#
# Youngs Moduli (GPa) = 59.16035 73.44990 26.06335
#
# Poissons Ratio (x) = -0.10122 0.52392
# Poissons Ratio (y) = -0.08152 0.09391
# Poissons Ratio (z) = 1.18922 0.26464
#
# Static dielectric constant tensor:
#      x y z
#    x 1.767530 0.000000 0.000000 
#    y 0.000000 1.814280 0.000000 
#    z 0.000000 0.000000 1.690070 
# 
# From -- ./inp_files/8126.got.cif
#   From: 2010.05.17/outbox.cif.g08.bks.cpg/sg44_5_cif.got.tgz:8126.got - 2010.06.03 19:37:08.
