data_PCOD9375622
_publ_section_title
;
Structure prediction by ZEFSAII (Michael W. Deem and Ramdas Pophale) SiO2 
 PCOD9375622
Probable space group: I M M 2
;
_chemical_formula_sum "Si O2"
_cell_formula_units_Z 56
_cell_length_a 25.538817
_cell_length_b 8.633056
_cell_length_c 14.551333
_cell_angle_alpha 90.000000
_cell_angle_beta 90.000000
_cell_angle_gamma 90.000000
_cell_volume 3208.249340
_symmetry_space_group_name_H-M "I M M 2"
_symmetry_group_IT_number 44
_symmetry_cell_setting 'orthorhombic'
loop_
_space_group_symop_operation_xyz
x,y,z
-x,-y,z
-x,y,z
x,-y,z
1/2+x,1/2+y,1/2+z
1/2-x,1/2-y,1/2+z
1/2-x,1/2+y,1/2+z
1/2+x,1/2-y,1/2+z
loop_
_atom_site_type_symbol
_atom_site_label
_atom_site_fract_x
_atom_site_fract_y
_atom_site_fract_z
Si Si1 0.183450 0.314447 0.911100
Si Si2 0.336718 0.321529 0.080149
Si Si3 0.604464 0.319316 0.269222
Si Si4 0.887765 0.318845 0.412621
Si Si5 0.289554 0.685819 0.803902
Si Si6 0.777245 0.185843 0.092456
Si Si7 0.500000 0.189585 0.961520
Si Si8 0.500000 0.185930 0.176906
O O1 0.185834 0.500000 0.918590
O O2 0.132675 0.265258 0.853357
O O3 0.236376 0.260770 0.856061
O O4 0.184228 0.239391 0.011954
O O5 0.343191 0.500000 0.049764
O O6 0.354625 0.310018 0.184779
O O7 0.277439 0.268544 0.069724
O O8 0.371646 0.210253 0.018162
O O9 0.595865 0.500000 0.290754
O O10 0.551178 0.246526 0.230186
O O11 0.887362 0.500000 0.391088
O O12 0.842173 0.240067 0.354023
O O13 0.947332 0.259706 0.409468
O O14 0.287803 0.500000 0.806372
O O15 0.290728 0.732396 0.696841
O O16 0.770886 0.000000 0.089904
O O17 0.500000 0.238965 0.069284
O O18 0.500000 0.000000 0.963206
O O19 0.500000 0.000000 0.176273
#
# Coordination Sequence:
#
# PCOD9375622 Si02
#       8
#     8   8   8   8   8   8   4   4
#     4  11  22  37  57  83 115 148 186 232 284 336
#     4  11  21  32  51  81 116 147 184 228 271 330
#     4  11  23  37  55  83 117 152 193 232 277 336
#     4  11  21  35  56  80 112 150 189 227 276 334
#     4  10  22  37  54  81 115 147 184 231 283 336
#     4  11  22  37  56  79 112 151 188 227 278 336
#     4   9  20  35  53  82 113 146 185 229 278 334
#     4  11  21  37  59  82 115 152 189 231 286 338
#
# _framework density 17.455003000000001
#
# number of rings (size 3 to 8) (size 9 to 14) (size 15 to 20)
#    0.000    1.286    4.286    2.357    0.000    2.857 
#    0.000    1.429    0.000    0.857    0.000    2.000 
#    0.000    0.000    0.000    0.000    0.000    0.000 
#
# Total GULP energy -156304.113602 kJ/mol
# GULP energy per Si atom -5582.289772 kJ/mol
# Density = 1.741527 g / cm^3
# Si number density = 17.455003 Si / 1000 Ang^3
#
#
#
# Elastic Constant Matrix: (Units=GPa)
#
#
# Indices 1 2 3 4 5 6 
#
# 1 70.3884 2.7961 11.0990 0.0000 0.0000 0.0000
# 2 2.7961 24.0939 11.5937 0.0000 0.0000 0.0000
# 3 11.0990 11.5937 71.5439 0.0000 0.0000 0.0000
# 4 0.0000 0.0000 0.0000 25.9624 0.0000 0.0000
# 5 0.0000 0.0000 0.0000 0.0000 29.6085 0.0000
# 6 0.0000 0.0000 0.0000 0.0000 0.0000 23.9735
#
#
#
# Elastic Compliance Matrix: (Units=1/GPa)
#
#
# Indices 1 2 3 4 5 6 
#
# 1 0.014573 -0.000654 -0.002155 0.000000 0.000000 0.000000
# 2 -0.000654 0.045044 -0.007198 0.000000 0.000000 0.000000
# 3 -0.002155 -0.007198 0.015478 0.000000 0.000000 0.000000
# 4 0.000000 0.000000 0.000000 0.038517 0.000000 0.000000
# 5 0.000000 0.000000 0.000000 0.000000 0.033774 0.000000
# 6 0.000000 0.000000 0.000000 0.000000 0.000000 0.041713
#
#
# Mechanical properties :
#
#
# Convention : Reuss Voigt Hill
#
# Bulk Modulus (GPa) = 18.15516 24.11154 21.13335
# Shear Modulus (GPa) = 21.98067 25.27805 23.62936
#
# Velocity S-wave (km/s) = 3.55248 3.80963 3.68330
# Velocity P-wave (km/s) = 5.22020 5.76147 5.49750
#
# Compressibility (1/GPa) = 0.05508076
#
# Stress axis : x y z
#
# Youngs Moduli (GPa) = 68.62180 22.20062 64.60741
#
# Poissons Ratio (x) = 0.01453 0.13921
# Poissons Ratio (y) = 0.04490 0.46503
# Poissons Ratio (z) = 0.14786 0.15980
#
# Static dielectric constant tensor:
#      x y z
#    x 1.597830 0.000000 0.000000 
#    y 0.000000 1.594130 0.000000 
#    z 0.000000 0.000000 1.594140 
# 
# From -- ./inp_files/16594.got.cif
#   From: 2010.05.17/outbox.cif.g08.bks.cpg/sg44_9_cif.got.tgz:16594.got - 2010.06.03 19:37:08.
