data_PCOD9375187
_publ_section_title
;
Structure prediction by ZEFSAII (Michael W. Deem and Ramdas Pophale) SiO2 
 PCOD9375187
Probable space group: I M M 2
;
_chemical_formula_sum "Si O2"
_cell_formula_units_Z 56
_cell_length_a 7.901755
_cell_length_b 21.306788
_cell_length_c 14.873688
_cell_angle_alpha 90.000000
_cell_angle_beta 90.000000
_cell_angle_gamma 90.000000
_cell_volume 2504.149262
_symmetry_space_group_name_H-M "I M M 2"
_symmetry_group_IT_number 44
_symmetry_cell_setting 'orthorhombic'
loop_
_space_group_symop_operation_xyz
x,y,z
-x,-y,z
-x,y,z
x,-y,z
1/2+x,1/2+y,1/2+z
1/2-x,1/2-y,1/2+z
1/2-x,1/2+y,1/2+z
1/2+x,1/2-y,1/2+z
loop_
_atom_site_type_symbol
_atom_site_label
_atom_site_fract_x
_atom_site_fract_y
_atom_site_fract_z
Si Si1 0.299613 0.742795 0.435560
Si Si2 0.200076 0.932405 0.329025
Si Si3 0.704168 0.878111 0.512535
Si Si4 0.314379 0.845013 0.081051
Si Si5 0.296346 0.298311 0.754448
Si Si6 0.500000 0.424278 0.337816
Si Si7 0.000000 0.073924 0.049584
Si Si8 0.303872 0.076302 0.710856
O O1 0.500000 0.735762 0.451685
O O2 0.243681 0.808302 0.482097
O O3 0.204458 0.686841 0.484221
O O4 0.265240 0.750949 0.330323
O O5 0.224700 0.923872 0.435990
O O6 0.266181 0.867902 0.285851
O O7 0.000000 0.932959 0.309802
O O8 0.271586 0.000000 0.300586
O O9 0.500000 0.881201 0.506895
O O10 0.748926 0.896644 0.613751
O O11 0.500000 0.871609 0.092992
O O12 0.276997 0.791458 0.155246
O O13 0.165982 0.895208 0.091373
O O14 0.500000 0.296621 0.751718
O O15 0.500000 0.500000 0.332415
O O16 0.500000 0.410345 0.443236
O O17 0.330701 0.403359 0.286110
O O18 0.000000 0.000000 0.061372
O O19 0.500000 0.094544 0.729151
O O20 0.300759 0.000000 0.705251
#
# Coordination Sequence:
#
# PCOD9375187 Si02
#       8
#     8   8   8   8   8   4   4   8
#     4  10  20  40  64  92 132 175 218 277 335 398
#     4   9  18  30  50  82 121 167 214 263 326 394
#     4   9  18  31  51  81 122 167 212 264 326 390
#     4  12  25  46  72 101 134 175 225 278 345 412
#     4  10  20  39  63  94 134 176 220 278 336 394
#     4   9  20  38  60  85 117 161 209 263 328 383
#     4  11  26  50  74  97 133 175 224 291 346 401
#     4   9  17  31  52  82 124 168 213 269 324 383
#
# _framework density 22.362883
#
# number of rings (size 3 to 8) (size 9 to 14) (size 15 to 20)
#    0.000    2.143    1.429    1.286    1.000    3.429 
#    2.571    1.429    0.000    0.000    0.000    0.000 
#    0.000    0.000    0.000    0.000    0.000    0.000 
#
# Total GULP energy -156531.086254 kJ/mol
# GULP energy per Si atom -5590.395938 kJ/mol
# Density = 2.231198 g / cm^3
# Si number density = 22.362883 Si / 1000 Ang^3
#
#
#
# Elastic Constant Matrix: (Units=GPa)
#
#
# Indices 1 2 3 4 5 6 
#
# 1 99.7713 16.4154 29.7137 0.0000 0.0000 0.0000
# 2 16.4154 64.6754 5.8989 0.0000 0.0000 0.0000
# 3 29.7137 5.8989 103.7309 -0.0001 0.0000 0.0000
# 4 0.0000 0.0000 -0.0001 24.4545 0.0000 0.0000
# 5 0.0000 0.0000 0.0000 0.0000 28.8246 0.0000
# 6 0.0000 0.0000 0.0000 0.0000 0.0000 4.4670
#
#
#
# Elastic Compliance Matrix: (Units=1/GPa)
#
#
# Indices 1 2 3 4 5 6 
#
# 1 0.011378 -0.002604 -0.003111 0.000000 0.000000 0.000000
# 2 -0.002604 0.016138 -0.000172 0.000000 0.000000 0.000000
# 3 -0.003111 -0.000172 0.010541 0.000000 0.000000 0.000000
# 4 0.000000 0.000000 0.000000 0.040892 0.000000 0.000000
# 5 0.000000 0.000000 0.000000 0.000000 0.034693 0.000000
# 6 0.000000 0.000000 0.000000 0.000000 0.000000 0.223864
#
#
# Mechanical properties :
#
#
# Convention : Reuss Voigt Hill
#
# Bulk Modulus (GPa) = 38.04654 41.35930 39.70292
# Shear Modulus (GPa) = 13.96484 25.95919 19.96202
#
# Velocity S-wave (km/s) = 2.50164 3.41077 2.99095
# Velocity P-wave (km/s) = 5.03929 5.83489 5.45162
#
# Compressibility (1/GPa) = 0.02628360
#
# Stress axis : x y z
#
# Youngs Moduli (GPa) = 87.88949 61.96385 94.86509
#
# Poissons Ratio (x) = 0.16136 0.29514
# Poissons Ratio (y) = 0.22887 0.01630
# Poissons Ratio (z) = 0.27344 0.01065
#
# Static dielectric constant tensor:
#      x y z
#    x 1.794640 0.000000 0.000000 
#    y 0.000000 1.833210 0.000000 
#    z 0.000000 0.000000 1.828160 
# 
# From -- ./inp_files/16512.got.cif
#   From: 2010.05.17/outbox.cif.g08.bks.cpg/sg44_9_cif.got.tgz:16512.got - 2010.06.03 19:37:08.
