data_PCOD9375174
_publ_section_title
;
Structure prediction by ZEFSAII (Michael W. Deem and Ramdas Pophale) SiO2 
 PCOD9375174
Probable space group: I M M 2
;
_chemical_formula_sum "Si O2"
_cell_formula_units_Z 64
_cell_length_a 18.624231
_cell_length_b 13.560562
_cell_length_c 12.433224
_cell_angle_alpha 90.000000
_cell_angle_beta 90.000000
_cell_angle_gamma 90.000000
_cell_volume 3140.073374
_symmetry_space_group_name_H-M "I M M 2"
_symmetry_group_IT_number 44
_symmetry_cell_setting 'orthorhombic'
loop_
_space_group_symop_operation_xyz
x,y,z
-x,-y,z
-x,y,z
x,-y,z
1/2+x,1/2+y,1/2+z
1/2-x,1/2-y,1/2+z
1/2-x,1/2+y,1/2+z
1/2+x,1/2-y,1/2+z
loop_
_atom_site_type_symbol
_atom_site_label
_atom_site_fract_x
_atom_site_fract_y
_atom_site_fract_z
Si Si1 0.078321 0.329531 0.305750
Si Si2 0.764784 0.615358 0.236938
Si Si3 0.341840 0.266070 0.393119
Si Si4 0.916982 0.114578 0.080791
Si Si5 0.415383 0.893500 0.253316
Si Si6 0.721132 0.677462 0.005572
Si Si7 0.148517 0.392198 0.518205
Si Si8 0.616760 0.388504 0.818972
O O1 0.152118 0.346529 0.238223
O O2 0.095983 0.385408 0.416353
O O3 0.074891 0.213489 0.335361
O O4 0.000000 0.358691 0.260981
O O5 0.767246 0.500000 0.261545
O O6 0.717776 0.672038 0.326620
O O7 0.724896 0.631524 0.123415
O O8 0.386517 0.328780 0.478611
O O9 0.387497 0.204377 0.309209
O O10 0.301219 0.184444 0.462920
O O11 0.868839 0.121127 0.189790
O O12 0.000000 0.144912 0.106653
O O13 0.919144 0.000000 0.052746
O O14 0.500000 0.895656 0.265648
O O15 0.394488 0.889163 0.128667
O O16 0.386160 0.000000 0.294275
O O17 0.694745 0.791702 0.015462
O O18 0.676945 0.622622 0.911461
O O19 0.186683 0.500000 0.514382
O O20 0.585979 0.500000 0.829408
#
# Coordination Sequence:
#
# PCOD9375174 Si02
#       8
#     8   8   8   8   8   8   8   8
#     4  11  23  40  64  98 134 171 219 272 330 393
#     4  12  25  43  64  95 133 175 216 268 333 396
#     4  12  23  40  66  93 131 169 211 266 326 389
#     4  10  22  40  66  97 126 165 217 271 324 382
#     4  10  22  40  64  94 129 171 216 263 321 386
#     4  11  24  41  62  96 131 169 220 268 324 382
#     4  10  20  38  65  94 128 169 217 269 321 382
#     4  10  21  41  66  91 125 170 218 268 321 381
#
# _framework density 20.381691
#
# number of rings (size 3 to 8) (size 9 to 14) (size 15 to 20)
#    0.000    1.250    3.750    3.000    0.000    3.750 
#    0.000    3.750    0.000    0.000    0.000    0.000 
#    0.000    0.000    0.000    0.000    0.000    0.000 
#
# Total GULP energy -178297.666912 kJ/mol
# GULP energy per Si atom -5571.802091 kJ/mol
# Density = 2.033530 g / cm^3
# Si number density = 20.381691 Si / 1000 Ang^3
#
#
#
# Elastic Constant Matrix: (Units=GPa)
#
#
# Indices 1 2 3 4 5 6 
#
# 1 82.7798 31.1550 57.8093 0.0000 0.0000 0.0000
# 2 31.1550 126.4505 0.2948 0.0000 0.0000 0.0000
# 3 57.8093 0.2948 284.2984 0.0000 0.0000 0.0000
# 4 0.0000 0.0000 0.0000 22.7823 0.0000 0.0000
# 5 0.0000 0.0000 0.0000 0.0000 12.2906 0.0000
# 6 0.0000 0.0000 0.0000 0.0000 0.0000 8.7942
#
#
#
# Elastic Compliance Matrix: (Units=1/GPa)
#
#
# Indices 1 2 3 4 5 6 
#
# 1 0.015778 -0.003880 -0.003204 0.000000 0.000000 0.000000
# 2 -0.003880 0.008862 0.000780 0.000000 0.000000 0.000000
# 3 -0.003204 0.000780 0.004168 0.000000 0.000000 0.000000
# 4 0.000000 0.000000 0.000000 0.043894 0.000000 0.000000
# 5 0.000000 0.000000 0.000000 0.000000 0.081363 0.000000
# 6 0.000000 0.000000 0.000000 0.000000 0.000000 0.113712
#
#
# Mechanical properties :
#
#
# Convention : Reuss Voigt Hill
#
# Bulk Modulus (GPa) = 61.72950 74.67187 68.20069
# Shear Modulus (GPa) = 17.49559 35.72472 26.61016
#
# Velocity S-wave (km/s) = 2.93302 4.19117 3.61722
# Velocity P-wave (km/s) = 6.46704 7.75484 7.14003
#
# Compressibility (1/GPa) = 0.01619971
#
# Stress axis : x y z
#
# Youngs Moduli (GPa) = 63.37836 112.83662 239.91214
#
# Poissons Ratio (x) = 0.43781 0.76876
# Poissons Ratio (y) = 0.24591 -0.18708
# Poissons Ratio (z) = 0.20309 -0.08799
#
# Static dielectric constant tensor:
#      x y z
#    x 1.756260 0.000000 0.000000 
#    y 0.000000 1.752000 0.000000 
#    z 0.000000 0.000000 1.618960 
# 
# From -- ./inp_files/14003.got.cif
#   From: 2010.05.17/outbox.cif.g08.bks.cpg/sg44_8_cif.got.tgz:14003.got - 2010.06.03 19:37:08.
