data_PCOD9375419
_publ_section_title
;
Structure prediction by ZEFSAII (Michael W. Deem and Ramdas Pophale) SiO2 
 PCOD9375419
Probable space group: I M M 2
;
_chemical_formula_sum "Si O2"
_cell_formula_units_Z 56
_cell_length_a 9.142632
_cell_length_b 19.127611
_cell_length_c 17.385295
_cell_angle_alpha 90.000000
_cell_angle_beta 90.000000
_cell_angle_gamma 90.000000
_cell_volume 3040.283164
_symmetry_space_group_name_H-M "I M M 2"
_symmetry_group_IT_number 44
_symmetry_cell_setting 'orthorhombic'
loop_
_space_group_symop_operation_xyz
x,y,z
-x,-y,z
-x,y,z
x,-y,z
1/2+x,1/2+y,1/2+z
1/2-x,1/2-y,1/2+z
1/2-x,1/2+y,1/2+z
1/2+x,1/2-y,1/2+z
loop_
_atom_site_type_symbol
_atom_site_label
_atom_site_fract_x
_atom_site_fract_y
_atom_site_fract_z
Si Si1 0.834713 0.708930 0.094560
Si Si2 0.177820 0.210446 0.944268
Si Si3 0.830591 0.076454 0.619327
Si Si4 0.828662 0.323585 0.827336
Si Si5 0.337448 0.420026 0.933884
Si Si6 0.175000 0.581298 0.523786
Si Si7 0.833117 0.859689 0.172466
O O1 0.751443 0.647565 0.138467
O O2 0.837561 0.779821 0.142816
O O3 0.000000 0.684209 0.080297
O O4 0.773040 0.736116 0.012558
O O5 0.212913 0.247717 0.863298
O O6 0.000000 0.204163 0.950489
O O7 0.251056 0.136622 0.965096
O O8 0.826439 0.077592 0.526060
O O9 0.000000 0.080335 0.642674
O O10 0.772640 0.000000 0.644052
O O11 0.790620 0.376872 0.895661
O O12 0.741736 0.353222 0.754860
O O13 0.000000 0.321716 0.809863
O O14 0.500000 0.391148 0.914561
O O15 0.332168 0.500000 0.906686
O O16 0.203229 0.500000 0.504558
O O17 0.243273 0.598179 0.607857
O O18 0.000000 0.592290 0.525697
O O19 0.000000 0.885868 0.176859
#
# Coordination Sequence:
#
# PCOD9375419 Si02
#       7
#     8   8   8   8   8   8   8
#     4   9  17  32  50  71  98 128 167 211 253 304
#     4   9  19  34  53  78 106 137 174 218 268 319
#     4   9  17  28  45  71  99 127 161 199 240 290
#     4  11  21  34  52  77 107 139 179 220 261 312
#     4   9  18  31  46  69 102 137 169 199 241 297
#     4  10  21  37  58  84 109 137 180 228 272 322
#     4  10  22  37  53  75 105 140 176 214 266 324
#
# _framework density 18.419336999999999
#
# number of rings (size 3 to 8) (size 9 to 14) (size 15 to 20)
#    0.000    2.429    1.429    3.000    0.000    6.286 
#    0.000    1.429    0.000    0.857    0.000    0.000 
#    0.000    0.000    0.000    0.000    0.000    0.000 
#
# Total GULP energy -155948.421564 kJ/mol
# GULP energy per Si atom -5569.586484 kJ/mol
# Density = 1.837741 g / cm^3
# Si number density = 18.419337 Si / 1000 Ang^3
#
#
#
# Elastic Constant Matrix: (Units=GPa)
#
#
# Indices 1 2 3 4 5 6 
#
# 1 45.9150 25.5917 0.9437 0.0000 0.0000 0.0000
# 2 25.5917 83.8125 -12.0119 0.0000 0.0000 0.0000
# 3 0.9437 -12.0119 14.3416 0.0000 0.0000 0.0000
# 4 0.0000 0.0000 0.0000 8.4477 0.0000 0.0000
# 5 0.0000 0.0000 0.0000 0.0000 18.4505 0.0000
# 6 0.0000 0.0000 0.0000 0.0000 0.0000 30.2587
#
#
#
# Elastic Compliance Matrix: (Units=1/GPa)
#
#
# Indices 1 2 3 4 5 6 
#
# 1 0.027461 -0.009823 -0.010035 0.000000 0.000000 0.000000
# 2 -0.009823 0.017073 0.014946 0.000000 0.000000 0.000000
# 3 -0.010035 0.014946 0.082906 0.000000 0.000000 0.000000
# 4 0.000000 0.000000 0.000000 0.118376 0.000000 0.000000
# 5 0.000000 0.000000 0.000000 0.000000 0.054199 0.000000
# 6 0.000000 0.000000 0.000000 0.000000 0.000000 0.033048
#
#
# Mechanical properties :
#
#
# Convention : Reuss Voigt Hill
#
# Bulk Modulus (GPa) = 8.50223 19.23512 13.86867
# Shear Modulus (GPa) = 13.08588 20.06776 16.57682
#
# Velocity S-wave (km/s) = 2.66830 3.30433 3.00320
# Velocity P-wave (km/s) = 3.75754 5.00237 4.42396
#
# Compressibility (1/GPa) = 0.11761621
#
# Stress axis : x y z
#
# Youngs Moduli (GPa) = 36.41564 58.57240 12.06187
#
# Poissons Ratio (x) = 0.57536 0.12103
# Poissons Ratio (y) = 0.35772 -0.18028
# Poissons Ratio (z) = 0.36541 -0.87542
#
# Static dielectric constant tensor:
#      x y z
#    x 1.659680 0.000000 0.000000 
#    y 0.000000 1.662310 0.000000 
#    z 0.000000 0.000000 1.654750 
# 
# From -- ./inp_files/20704.got.cif
#   From: 2010.05.17/outbox.cif.g08.bks.cpg/sg44_11_cif.got.tgz:20704.got - 2010.06.03 19:37:08.
