data_PCOD9375000
_publ_section_title
;
Structure prediction by ZEFSAII (Michael W. Deem and Ramdas Pophale) SiO2 
 PCOD9375000
Probable space group: I M M 2
;
_chemical_formula_sum "Si O2"
_cell_formula_units_Z 64
_cell_length_a 24.985149
_cell_length_b 13.965484
_cell_length_c 8.335003
_cell_angle_alpha 90.000000
_cell_angle_beta 90.000000
_cell_angle_gamma 90.000000
_cell_volume 2908.330085
_symmetry_space_group_name_H-M "I M M 2"
_symmetry_group_IT_number 44
_symmetry_cell_setting 'orthorhombic'
loop_
_space_group_symop_operation_xyz
x,y,z
-x,-y,z
-x,y,z
x,-y,z
1/2+x,1/2+y,1/2+z
1/2-x,1/2-y,1/2+z
1/2-x,1/2+y,1/2+z
1/2+x,1/2-y,1/2+z
loop_
_atom_site_type_symbol
_atom_site_label
_atom_site_fract_x
_atom_site_fract_y
_atom_site_fract_z
Si Si1 0.937073 0.606090 0.936690
Si Si2 0.718375 0.388484 0.587768
Si Si3 0.246149 0.221085 0.760447
Si Si4 0.606775 0.394665 0.750334
Si Si5 0.559132 0.703655 0.235968
Si Si6 0.942310 0.715892 0.377312
Si Si7 0.155666 0.894508 0.609853
Si Si8 0.646184 0.108006 0.729710
O O1 0.930607 0.500000 0.858766
O O2 0.927307 0.699706 0.830762
O O3 0.000000 0.610695 0.985201
O O4 0.894937 0.609741 0.080992
O O5 0.733636 0.500000 0.571173
O O6 0.747502 0.334700 0.736521
O O7 0.731841 0.325368 0.431653
O O8 0.655026 0.385826 0.625180
O O9 0.200101 0.184191 0.641816
O O10 0.303394 0.176587 0.711759
O O11 0.581212 0.500000 0.733899
O O12 0.568668 0.302797 0.752514
O O13 0.634725 0.392747 0.927106
O O14 0.500000 0.668851 0.286093
O O15 0.606207 0.626676 0.229465
O O16 0.555415 0.736853 0.051271
O O17 0.891983 0.646110 0.370724
O O18 0.000000 0.669798 0.346404
O O19 0.178048 0.000000 0.642716
O O20 0.664781 0.000000 0.755480
#
# Coordination Sequence:
#
# PCOD9375000 Si02
#       8
#     8   8   8   8   8   8   8   8
#     4   9  19  38  61  87 121 162 209 260 317 381
#     4  11  24  44  69  95 128 172 215 265 324 387
#     4  12  25  42  66  95 131 167 209 267 323 385
#     4   9  19  39  62  88 123 163 209 258 320 386
#     4   9  20  37  59  89 124 159 204 260 316 377
#     4  10  20  36  58  88 122 160 207 260 318 377
#     4  10  21  38  62  90 124 169 212 258 320 383
#     4  11  23  39  59  87 121 163 211 261 320 383
#
# _framework density 22.005755000000001
#
# number of rings (size 3 to 8) (size 9 to 14) (size 15 to 20)
#    0.000    1.875    1.250    2.250    3.500    1.750 
#    0.000    5.625    0.000    0.000    0.000    3.500 
#    0.000    0.000    0.000    0.000    0.000    0.000 
#
# Total GULP energy -178659.245894 kJ/mol
# GULP energy per Si atom -5583.101434 kJ/mol
# Density = 2.195567 g / cm^3
# Si number density = 22.005755 Si / 1000 Ang^3
#
#
#
# Elastic Constant Matrix: (Units=GPa)
#
#
# Indices 1 2 3 4 5 6 
#
# 1 63.2746 -9.2358 6.6092 0.0000 0.0000 0.0000
# 2 -9.2358 54.9736 27.9125 0.0000 0.0000 0.0000
# 3 6.6092 27.9125 43.6850 0.0000 0.0000 0.0000
# 4 0.0000 0.0000 0.0000 24.5417 0.0000 0.0000
# 5 0.0000 0.0000 0.0000 0.0000 23.1315 0.0000
# 6 0.0000 0.0000 0.0000 0.0000 0.0000 15.8825
#
#
#
# Elastic Compliance Matrix: (Units=1/GPa)
#
#
# Indices 1 2 3 4 5 6 
#
# 1 0.017422 0.006314 -0.006670 0.000000 0.000000 0.000000
# 2 0.006314 0.029214 -0.019621 0.000000 0.000000 0.000000
# 3 -0.006670 -0.019621 0.036437 0.000000 0.000000 0.000000
# 4 0.000000 0.000000 0.000000 0.040747 0.000000 0.000000
# 5 0.000000 0.000000 0.000000 0.000000 0.043231 0.000000
# 6 0.000000 0.000000 0.000000 0.000000 0.000000 0.062963
#
#
# Mechanical properties :
#
#
# Convention : Reuss Voigt Hill
#
# Bulk Modulus (GPa) = 23.19206 23.61166 23.40186
# Shear Modulus (GPa) = 17.58443 21.82094 19.70268
#
# Velocity S-wave (km/s) = 2.82987 3.15239 2.99547
# Velocity P-wave (km/s) = 4.60864 4.89930 4.75619
#
# Compressibility (1/GPa) = 0.04311821
#
# Stress axis : x y z
#
# Youngs Moduli (GPa) = 57.39738 34.23026 27.44434
#
# Poissons Ratio (x) = -0.21612 0.18305
# Poissons Ratio (y) = -0.36239 0.53850
# Poissons Ratio (z) = 0.38284 0.67165
#
# Static dielectric constant tensor:
#      x y z
#    x 1.804490 0.000000 0.000000 
#    y 0.000000 1.819990 0.000000 
#    z 0.000000 0.000000 1.851000 
# 
# From -- ./inp_files/9485.got.cif
#   From: 2010.05.17/outbox.cif.g08.bks.cpg/sg44_5_cif.got.tgz:9485.got - 2010.06.03 19:37:08.
