data_PCOD9375081
_publ_section_title
;
Structure prediction by ZEFSAII (Michael W. Deem and Ramdas Pophale) SiO2 
 PCOD9375081
Probable space group: I M M 2
;
_chemical_formula_sum "Si O2"
_cell_formula_units_Z 48
_cell_length_a 25.313555
_cell_length_b 8.918164
_cell_length_c 12.440413
_cell_angle_alpha 90.000000
_cell_angle_beta 90.000000
_cell_angle_gamma 90.000000
_cell_volume 2808.428645
_symmetry_space_group_name_H-M "I M M 2"
_symmetry_group_IT_number 44
_symmetry_cell_setting 'orthorhombic'
loop_
_space_group_symop_operation_xyz
x,y,z
-x,-y,z
-x,y,z
x,-y,z
1/2+x,1/2+y,1/2+z
1/2-x,1/2-y,1/2+z
1/2-x,1/2+y,1/2+z
1/2+x,1/2-y,1/2+z
loop_
_atom_site_type_symbol
_atom_site_label
_atom_site_fract_x
_atom_site_fract_y
_atom_site_fract_z
Si Si1 0.748849 0.675882 0.481740
Si Si2 0.848640 0.322092 0.102184
Si Si3 0.061524 0.819857 0.713915
Si Si4 0.062501 0.822157 0.962777
Si Si5 0.172105 0.178686 0.332174
Si Si6 0.863485 0.675407 0.538225
O O1 0.737089 0.500000 0.466636
O O2 0.656364 0.743662 0.717740
O O3 0.772563 0.748959 0.373282
O O4 0.800252 0.687746 0.560285
O O5 0.845762 0.500000 0.114237
O O6 0.901955 0.271909 0.042921
O O7 0.800397 0.262079 0.029481
O O8 0.073941 0.782996 0.838169
O O9 0.100420 0.741020 0.631051
O O10 0.000000 0.779998 0.694174
O O11 0.065865 0.000000 0.703261
O O12 0.000000 0.800433 0.979743
O O13 0.073611 0.000000 0.976347
O O14 0.132065 0.234018 0.426060
O O15 0.175491 0.000000 0.330136
O O16 0.874600 0.500000 0.520451
#
# Coordination Sequence:
#
# PCOD9375081 Si02
#       6
#     8   8   8   8   8   8
#     4   9  20  37  55  81 114 146 185 229 275 331
#     4  12  23  36  58  86 116 151 188 229 285 342
#     4   9  18  34  58  85 113 148 189 231 279 336
#     4   9  20  39  59  81 112 149 191 238 284 332
#     4  10  20  37  58  80 112 148 187 233 280 331
#     4   9  19  35  55  81 114 147 183 230 278 327
#
# _framework density 17.091408999999999
#
# number of rings (size 3 to 8) (size 9 to 14) (size 15 to 20)
#    1.000    1.333    0.000    4.500    0.000    2.667 
#    0.000    5.833    0.000    5.000    0.000    0.000 
#    0.000    0.000    0.000    0.000    0.000    0.000 
#
# Total GULP energy -133715.559770 kJ/mol
# GULP energy per Si atom -5571.481657 kJ/mol
# Density = 1.705251 g / cm^3
# Si number density = 17.091409 Si / 1000 Ang^3
#
#
#
# Elastic Constant Matrix: (Units=GPa)
#
#
# Indices 1 2 3 4 5 6 
#
# 1 43.9537 41.3474 43.7505 0.0000 0.0000 0.0000
# 2 41.3474 116.2774 57.8020 0.0000 0.0000 0.0000
# 3 43.7505 57.8020 94.3791 0.0000 0.0000 0.0000
# 4 0.0000 0.0000 0.0000 31.4657 0.0000 0.0000
# 5 0.0000 0.0000 0.0000 0.0000 29.0680 0.0000
# 6 0.0000 0.0000 0.0000 0.0000 0.0000 30.8336
#
#
#
# Elastic Compliance Matrix: (Units=1/GPa)
#
#
# Indices 1 2 3 4 5 6 
#
# 1 0.047497 -0.008546 -0.016784 0.000000 0.000000 0.000000
# 2 -0.008546 0.013902 -0.004553 0.000000 0.000000 0.000000
# 3 -0.016784 -0.004553 0.021164 0.000000 0.000000 0.000000
# 4 0.000000 0.000000 0.000000 0.031781 0.000000 0.000000
# 5 0.000000 0.000000 0.000000 0.000000 0.034402 0.000000
# 6 0.000000 0.000000 0.000000 0.000000 0.000000 0.032432
#
#
# Mechanical properties :
#
#
# Convention : Reuss Voigt Hill
#
# Bulk Modulus (GPa) = 43.86337 60.04557 51.95447
# Shear Modulus (GPa) = 20.11731 25.72081 22.91906
#
# Velocity S-wave (km/s) = 3.43453 3.88351 3.66590
# Velocity P-wave (km/s) = 6.43799 7.43755 6.95575
#
# Compressibility (1/GPa) = 0.02279806
#
# Stress axis : x y z
#
# Youngs Moduli (GPa) = 21.05406 71.93070 47.25013
#
# Poissons Ratio (x) = 0.61475 0.79302
# Poissons Ratio (y) = 0.17994 0.21511
# Poissons Ratio (z) = 0.35336 0.32747
#
# Static dielectric constant tensor:
#      x y z
#    x 1.573250 0.000000 0.000000 
#    y 0.000000 1.566760 0.000000 
#    z 0.000000 0.000000 1.560810 
# 
# From -- ./inp_files/24405.got.cif
#   From: 2010.05.17/outbox.cif.g08.bks.cpg/sg44_13_cif.got.tgz:24405.got - 2010.06.03 19:37:08.
