data_PCOD9375456
_publ_section_title
;
Structure prediction by ZEFSAII (Michael W. Deem and Ramdas Pophale) SiO2 
 PCOD9375456
Probable space group: I M M 2
;
_chemical_formula_sum "Si O2"
_cell_formula_units_Z 32
_cell_length_a 18.742961
_cell_length_b 7.855748
_cell_length_c 10.431720
_cell_angle_alpha 90.000000
_cell_angle_beta 90.000000
_cell_angle_gamma 90.000000
_cell_volume 1535.966227
_symmetry_space_group_name_H-M "I M M 2"
_symmetry_group_IT_number 44
_symmetry_cell_setting 'orthorhombic'
loop_
_space_group_symop_operation_xyz
x,y,z
-x,-y,z
-x,y,z
x,-y,z
1/2+x,1/2+y,1/2+z
1/2-x,1/2-y,1/2+z
1/2-x,1/2+y,1/2+z
1/2+x,1/2-y,1/2+z
loop_
_atom_site_type_symbol
_atom_site_label
_atom_site_fract_x
_atom_site_fract_y
_atom_site_fract_z
Si Si1 0.915151 0.693632 0.375000
Si Si2 0.086316 0.000000 0.190939
Si Si3 0.914940 0.000000 0.893256
Si Si4 0.317427 0.804576 0.331003
Si Si5 0.706086 0.296288 0.056227
O O1 0.902656 0.500000 0.331065
O O2 0.892164 0.832591 0.269839
O O3 0.868964 0.729182 0.500957
O O4 0.000000 0.713509 0.398134
O O5 0.106887 0.000000 0.043377
O O6 0.000000 0.000000 0.190803
O O7 0.881054 0.168824 0.832489
O O8 0.000000 0.000000 0.883215
O O9 0.279430 0.785279 0.193639
O O10 0.264122 0.759032 0.446710
O O11 0.340524 0.000000 0.348188
O O12 0.702926 0.500000 0.070485
#
# Coordination Sequence:
#
# PCOD9375456 Si02
#       5
#     8   4   4   8   8
#     4  10  21  37  63  97 132 178 229 278 335 401
#     4   9  20  39  63  95 133 174 217 277 340 396
#     4  11  26  47  71 101 142 184 231 285 347 414
#     4  11  27  45  69 103 136 183 230 284 348 408
#     4  11  24  43  68  98 136 180 229 281 344 409
#
# _framework density 20.833791999999999
#
# number of rings (size 3 to 8) (size 9 to 14) (size 15 to 20)
#    0.000    1.500    2.500    0.750    7.000    2.500 
#    0.000    2.500    0.000    0.000    0.000    0.000 
#    0.000    0.000    0.000    0.000    0.000    0.000 
#
# Total GULP energy -89471.512909 kJ/mol
# GULP energy per Si atom -5591.969557 kJ/mol
# Density = 2.078637 g / cm^3
# Si number density = 20.833792 Si / 1000 Ang^3
#
#
#
# Elastic Constant Matrix: (Units=GPa)
#
#
# Indices 1 2 3 4 5 6 
#
# 1 86.7662 60.9509 39.7895 0.0000 0.0000 0.0000
# 2 60.9509 129.9074 41.1612 0.0000 0.0000 0.0000
# 3 39.7895 41.1612 125.8824 0.0000 0.0000 0.0000
# 4 0.0000 0.0000 0.0000 24.0952 0.0000 0.0000
# 5 0.0000 0.0000 0.0000 0.0000 32.7970 0.0000
# 6 0.0000 0.0000 0.0000 0.0000 0.0000 9.7823
#
#
#
# Elastic Compliance Matrix: (Units=1/GPa)
#
#
# Indices 1 2 3 4 5 6 
#
# 1 0.018365 -0.007560 -0.003333 0.000000 0.000000 0.000000
# 2 -0.007560 0.011700 -0.001436 0.000000 0.000000 0.000000
# 3 -0.003333 -0.001436 0.009467 0.000000 0.000000 0.000000
# 4 0.000000 0.000000 0.000000 0.041502 0.000000 0.000000
# 5 0.000000 0.000000 0.000000 0.000000 0.030491 0.000000
# 6 0.000000 0.000000 0.000000 0.000000 0.000000 0.102226
#
#
# Mechanical properties :
#
#
# Convention : Reuss Voigt Hill
#
# Bulk Modulus (GPa) = 67.23435 69.59549 68.41492
# Shear Modulus (GPa) = 20.54522 26.71185 23.62854
#
# Velocity S-wave (km/s) = 3.14371 3.58458 3.37136
# Velocity P-wave (km/s) = 6.74678 7.11407 6.93286
#
# Compressibility (1/GPa) = 0.01487335
#
# Stress axis : x y z
#
# Youngs Moduli (GPa) = 54.45281 85.46975 105.63185
#
# Poissons Ratio (x) = 0.64619 0.35203
# Poissons Ratio (y) = 0.41169 0.15168
# Poissons Ratio (z) = 0.18147 0.12273
#
# Static dielectric constant tensor:
#      x y z
#    x 1.730930 0.000000 0.000000 
#    y 0.000000 1.733700 0.000000 
#    z 0.000000 0.000000 1.741740 
# 
# From -- ./inp_files/13660.got.cif
#   From: 2010.05.17/outbox.cif.g08.bks.cpg/sg44_7_cif.got.tgz:13660.got - 2010.06.03 19:37:08.
