data_PCOD9375213
_publ_section_title
;
Structure prediction by ZEFSAII (Michael W. Deem and Ramdas Pophale) SiO2 
 PCOD9375213
Probable space group: I M M 2
;
_chemical_formula_sum "Si O2"
_cell_formula_units_Z 48
_cell_length_a 7.606554
_cell_length_b 17.546783
_cell_length_c 17.456231
_cell_angle_alpha 90.000000
_cell_angle_beta 90.000000
_cell_angle_gamma 90.000000
_cell_volume 2329.892795
_symmetry_space_group_name_H-M "I M M 2"
_symmetry_group_IT_number 44
_symmetry_cell_setting 'orthorhombic'
loop_
_space_group_symop_operation_xyz
x,y,z
-x,-y,z
-x,y,z
x,-y,z
1/2+x,1/2+y,1/2+z
1/2-x,1/2-y,1/2+z
1/2-x,1/2+y,1/2+z
1/2+x,1/2-y,1/2+z
loop_
_atom_site_type_symbol
_atom_site_label
_atom_site_fract_x
_atom_site_fract_y
_atom_site_fract_z
Si Si1 0.715071 0.318799 0.140180
Si Si2 0.714237 0.148282 0.173622
Si Si3 0.788000 0.681665 0.844732
Si Si4 0.290636 0.585976 0.995222
Si Si5 0.207245 0.500000 0.406590
Si Si6 0.216083 0.500000 0.580347
Si Si7 0.710272 0.650418 0.310842
O O1 0.500000 0.319579 0.139143
O O2 0.767718 0.229979 0.138994
O O3 0.771875 0.352278 0.222516
O O4 0.778935 0.366819 0.067936
O O5 0.500000 0.147469 0.173570
O O6 0.769752 0.147858 0.262659
O O7 0.772789 0.075800 0.125294
O O8 0.735537 0.632126 0.917110
O O9 0.725661 0.769732 0.847151
O O10 0.000000 0.682693 0.843539
O O11 0.500000 0.580168 0.006702
O O12 0.219687 0.500000 0.990631
O O13 0.280287 0.500000 0.492840
O O14 0.251954 0.424202 0.359479
O O15 0.000000 0.500000 0.415738
O O16 0.000000 0.500000 0.580596
O O17 0.500000 0.656863 0.306620
#
# Coordination Sequence:
#
# PCOD9375213 Si02
#       7
#     8   8   8   8   4   4   8
#     4   8  16  32  54  74  95 134 183 218 249 302
#     4   8  15  30  51  75  99 129 172 217 255 300
#     4   9  19  35  56  80 102 134 178 217 263 313
#     4  10  21  33  51  80 108 136 174 217 265 313
#     4  11  23  33  51  86 113 134 170 215 271 319
#     4   9  18  29  47  78 107 128 164 215 261 305
#     4   9  19  37  58  77 102 140 182 218 256 311
#
# _framework density 20.601806
#
# number of rings (size 3 to 8) (size 9 to 14) (size 15 to 20)
#    0.000    3.000    0.000    2.250    4.667    1.000 
#    0.000    0.833    0.000    3.000    0.000    0.000 
#    0.000    0.000    0.000    0.000    0.000    0.000 
#
# Total GULP energy -133920.145885 kJ/mol
# GULP energy per Si atom -5580.006079 kJ/mol
# Density = 2.055491 g / cm^3
# Si number density = 20.601806 Si / 1000 Ang^3
#
#
#
# Elastic Constant Matrix: (Units=GPa)
#
#
# Indices 1 2 3 4 5 6 
#
# 1 39.9265 5.0093 4.4427 0.0000 0.0000 0.0000
# 2 5.0093 216.8163 172.4148 0.0000 0.0000 0.0000
# 3 4.4427 172.4148 199.1421 0.0000 0.0000 0.0000
# 4 0.0000 0.0000 0.0000 37.5743 0.0000 0.0000
# 5 0.0000 0.0000 0.0000 0.0000 22.1067 0.0000
# 6 0.0000 0.0000 0.0000 0.0000 0.0000 13.1601
#
#
#
# Elastic Compliance Matrix: (Units=1/GPa)
#
#
# Indices 1 2 3 4 5 6 
#
# 1 0.025121 -0.000432 -0.000186 0.000000 0.000000 0.000000
# 2 -0.000432 0.014813 -0.012815 0.000000 0.000000 0.000000
# 3 -0.000186 -0.012815 0.016121 0.000000 0.000000 0.000000
# 4 0.000000 0.000000 0.000000 0.026614 0.000000 0.000000
# 5 0.000000 0.000000 0.000000 0.000000 0.045235 0.000000
# 6 0.000000 0.000000 0.000000 0.000000 0.000000 0.075987
#
#
# Mechanical properties :
#
#
# Convention : Reuss Voigt Hill
#
# Bulk Modulus (GPa) = 34.26129 91.06873 62.66501
# Shear Modulus (GPa) = 20.79102 32.83609 26.81356
#
# Velocity S-wave (km/s) = 3.18021 3.99663 3.61157
# Velocity P-wave (km/s) = 5.49102 8.09924 6.91914
#
# Compressibility (1/GPa) = 0.02918746
#
# Stress axis : x y z
#
# Youngs Moduli (GPa) = 39.80740 67.50771 62.03055
#
# Poissons Ratio (x) = 0.02920 0.01154
# Poissons Ratio (y) = 0.01722 0.79494
# Poissons Ratio (z) = 0.00740 0.86514
#
# Static dielectric constant tensor:
#      x y z
#    x 1.794530 0.000000 0.000000 
#    y 0.000000 1.614960 0.000000 
#    z 0.000000 0.000000 1.711580 
# 
# From -- ./inp_files/16170.got.cif
#   From: 2010.05.17/outbox.cif.g08.bks.cpg/sg44_9_cif.got.tgz:16170.got - 2010.06.03 19:37:08.
