data_PCOD9375426
_publ_section_title
;
Structure prediction by ZEFSAII (Michael W. Deem and Ramdas Pophale) SiO2 
 PCOD9375426
Probable space group: I M M 2
;
_chemical_formula_sum "Si O2"
_cell_formula_units_Z 48
_cell_length_a 14.809739
_cell_length_b 8.682942
_cell_length_c 20.854402
_cell_angle_alpha 90.000000
_cell_angle_beta 90.000000
_cell_angle_gamma 90.000000
_cell_volume 2681.711447
_symmetry_space_group_name_H-M "I M M 2"
_symmetry_group_IT_number 44
_symmetry_cell_setting 'orthorhombic'
loop_
_space_group_symop_operation_xyz
x,y,z
-x,-y,z
-x,y,z
x,-y,z
1/2+x,1/2+y,1/2+z
1/2-x,1/2-y,1/2+z
1/2-x,1/2+y,1/2+z
1/2+x,1/2-y,1/2+z
loop_
_atom_site_type_symbol
_atom_site_label
_atom_site_fract_x
_atom_site_fract_y
_atom_site_fract_z
Si Si1 0.303229 0.685530 0.164630
Si Si2 0.806509 0.815448 0.283400
Si Si3 0.500000 0.313168 0.122096
Si Si4 0.500000 0.314807 0.972969
Si Si5 0.812345 0.684363 0.422052
Si Si6 0.000000 0.814478 0.224668
Si Si7 0.808951 0.814985 0.044209
Si Si8 0.500000 0.183768 0.580591
O O1 0.299264 0.500000 0.164975
O O2 0.258954 0.750429 0.228848
O O3 0.407154 0.735657 0.155329
O O4 0.246748 0.746831 0.103982
O O5 0.785170 0.748339 0.352946
O O6 0.909181 0.772995 0.262860
O O7 0.801435 0.000000 0.284795
O O8 0.500000 0.500000 0.121967
O O9 0.500000 0.265390 0.047605
O O10 0.500000 0.500000 0.970037
O O11 0.409926 0.252412 0.940096
O O12 0.818091 0.500000 0.419767
O O13 0.742659 0.726603 0.478654
O O14 0.000000 0.737336 0.154932
O O15 0.000000 0.000000 0.215498
O O16 0.909802 0.750104 0.048381
O O17 0.811155 0.000000 0.050011
O O18 0.500000 0.000000 0.577951
#
# Coordination Sequence:
#
# PCOD9375426 Si02
#       8
#     8   8   4   4   8   4   8   4
#     4  11  21  38  62  89 120 158 203 247 293 355
#     4  11  23  39  60  88 123 163 198 245 305 358
#     4   9  20  36  59  90 122 156 196 243 296 348
#     4  11  20  36  61  91 126 160 194 244 303 355
#     4  11  24  40  60  89 123 162 203 246 297 358
#     4  10  21  37  58  86 124 158 191 240 304 363
#     4  11  23  40  61  87 122 159 197 247 302 353
#     4  12  24  37  62  93 118 154 201 251 295 352
#
# _framework density 17.899016
#
# number of rings (size 3 to 8) (size 9 to 14) (size 15 to 20)
#    0.000    1.167    3.333    3.500    0.000    3.333 
#    0.000    2.500    0.000    2.000    0.000    0.000 
#    0.000    0.000    0.000    0.000    0.000    0.000 
#
# Total GULP energy -134186.817249 kJ/mol
# GULP energy per Si atom -5591.117385 kJ/mol
# Density = 1.785828 g / cm^3
# Si number density = 17.899016 Si / 1000 Ang^3
#
#
#
# Elastic Constant Matrix: (Units=GPa)
#
#
# Indices 1 2 3 4 5 6 
#
# 1 159.1299 45.6163 94.2218 0.0000 0.0000 0.0000
# 2 45.6163 61.2588 58.5952 0.0000 0.0000 0.0000
# 3 94.2218 58.5952 183.8127 0.0000 0.0000 0.0000
# 4 0.0000 0.0000 0.0000 33.9296 0.0000 0.0000
# 5 0.0000 0.0000 0.0000 0.0000 -49.4307 0.0000
# 6 0.0000 0.0000 0.0000 0.0000 0.0000 25.3055
#
#
#
# Elastic Compliance Matrix: (Units=1/GPa)
#
#
# Indices 1 2 3 4 5 6 
#
# 1 0.009512 -0.003481 -0.003766 0.000000 0.000000 0.000000
# 2 -0.003481 0.024759 -0.006108 0.000000 0.000000 0.000000
# 3 -0.003766 -0.006108 0.009318 0.000000 0.000000 0.000000
# 4 0.000000 0.000000 0.000000 0.029473 0.000000 0.000000
# 5 0.000000 0.000000 0.000000 0.000000 -0.020230 0.000000
# 6 0.000000 0.000000 0.000000 0.000000 0.000000 0.039517
#
#
# Mechanical properties :
#
#
# Convention : Reuss Voigt Hill
#
# Bulk Modulus (GPa) = 59.24739 89.00757 74.12748
# Shear Modulus (GPa) = 40.10104 15.67874 27.88989
#
# Velocity S-wave (km/s) = 4.73843 2.96286 3.95166
# Velocity P-wave (km/s) = 7.94416 7.84477 7.89462
#
# Compressibility (1/GPa) = 0.01687838
#
# Stress axis : x y z
#
# Youngs Moduli (GPa) = 105.13096 40.38972 107.31776
#
# Poissons Ratio (x) = 0.14058 0.40419
# Poissons Ratio (y) = 0.36591 0.65554
# Poissons Ratio (z) = 0.39595 0.24672
#
# Static dielectric constant tensor:
#      x y z
#    x 1.598140 0.000000 0.000000 
#    y 0.000000 1.601710 0.000000 
#    z 0.000000 0.000000 1.584330 
# 
# From -- ./inp_files/20405.got.cif
#   From: 2010.05.17/outbox.cif.g08.bks.cpg/sg44_11_cif.got.tgz:20405.got - 2010.06.03 19:37:08.
