data_PCOD9375625
_publ_section_title
;
Structure prediction by ZEFSAII (Michael W. Deem and Ramdas Pophale) SiO2 
 PCOD9375625
Probable space group: I M M 2
;
_chemical_formula_sum "Si O2"
_cell_formula_units_Z 64
_cell_length_a 25.342689
_cell_length_b 13.824559
_cell_length_c 9.010893
_cell_angle_alpha 90.000000
_cell_angle_beta 90.000000
_cell_angle_gamma 90.000000
_cell_volume 3156.979873
_symmetry_space_group_name_H-M "I M M 2"
_symmetry_group_IT_number 44
_symmetry_cell_setting 'orthorhombic'
loop_
_space_group_symop_operation_xyz
x,y,z
-x,-y,z
-x,y,z
x,-y,z
1/2+x,1/2+y,1/2+z
1/2-x,1/2-y,1/2+z
1/2-x,1/2+y,1/2+z
1/2+x,1/2-y,1/2+z
loop_
_atom_site_type_symbol
_atom_site_label
_atom_site_fract_x
_atom_site_fract_y
_atom_site_fract_z
Si Si1 0.438440 0.211590 0.822340
Si Si2 0.605462 0.610010 0.307088
Si Si3 0.768650 0.112507 0.863900
Si Si4 0.135343 0.746163 0.576063
Si Si5 0.335782 0.114828 0.343957
Si Si6 0.057867 0.614757 0.011884
Si Si7 0.563239 0.391751 0.628808
Si Si8 0.247681 0.793086 0.549709
O O1 0.500000 0.216632 0.868292
O O2 0.435378 0.138524 0.684990
O O3 0.420865 0.313929 0.750572
O O4 0.399019 0.191540 0.955058
O O5 0.588803 0.500000 0.272742
O O6 0.668438 0.610385 0.336065
O O7 0.598068 0.682116 0.170504
O O8 0.579126 0.638042 0.462701
O O9 0.744984 0.167708 0.718363
O O10 0.750933 0.000000 0.876006
O O11 0.759587 0.181114 0.006230
O O12 0.161931 0.671995 0.690667
O O13 0.185472 0.805210 0.513340
O O14 0.390166 0.145975 0.425237
O O15 0.286677 0.147329 0.443810
O O16 0.335346 0.000000 0.323974
O O17 0.055459 0.500000 0.991557
O O18 0.000000 0.655548 0.967335
O O19 0.500000 0.394737 0.634122
O O20 0.584270 0.500000 0.654186
#
# Coordination Sequence:
#
# PCOD9375625 Si02
#       8
#     8   8   8   8   8   8   8   8
#     4  10  22  37  58  87 122 156 190 240 300 359
#     4   9  18  36  58  81 111 151 195 240 288 347
#     4  10  22  39  61  87 120 160 201 250 308 366
#     4  11  24  38  58  86 124 152 195 245 302 365
#     4  11  23  41  63  87 118 157 204 254 303 363
#     4   9  20  39  63  88 114 153 201 247 299 360
#     4   9  18  34  57  85 115 150 195 239 282 344
#     4  11  22  42  60  87 122 160 202 260 301 368
#
# _framework density 20.272539999999999
#
# number of rings (size 3 to 8) (size 9 to 14) (size 15 to 20)
#    0.000    2.000    2.500    1.125    1.750    3.000 
#    0.000    0.000    0.000    0.000    0.000    0.000 
#    0.000    0.000    0.000    0.000    0.000    0.000 
#
# Total GULP energy -178507.055169 kJ/mol
# GULP energy per Si atom -5578.345474 kJ/mol
# Density = 2.022640 g / cm^3
# Si number density = 20.272540 Si / 1000 Ang^3
#
#
#
# Elastic Constant Matrix: (Units=GPa)
#
#
# Indices 1 2 3 4 5 6 
#
# 1 67.8498 1.5474 40.2214 0.0000 0.0000 0.0000
# 2 1.5474 87.6414 18.8329 0.0000 0.0000 0.0000
# 3 40.2214 18.8329 55.1690 0.0000 0.0000 0.0000
# 4 0.0000 0.0000 0.0000 -13.9548 0.0000 0.0000
# 5 0.0000 0.0000 0.0000 0.0000 36.5256 0.0000
# 6 0.0000 0.0000 0.0000 0.0000 0.0000 15.4720
#
#
#
# Elastic Compliance Matrix: (Units=1/GPa)
#
#
# Indices 1 2 3 4 5 6 
#
# 1 0.027249 0.004088 -0.021262 0.000000 0.000000 0.000000
# 2 0.004088 0.012927 -0.007393 0.000000 0.000000 0.000000
# 3 -0.021262 -0.007393 0.036151 0.000000 0.000000 0.000000
# 4 0.000000 0.000000 0.000000 -0.071660 0.000000 0.000000
# 5 0.000000 0.000000 0.000000 0.000000 0.027378 0.000000
# 6 0.000000 0.000000 0.000000 0.000000 0.000000 0.064633
#
#
# Mechanical properties :
#
#
# Convention : Reuss Voigt Hill
#
# Bulk Modulus (GPa) = 36.77432 36.87373 36.82403
# Shear Modulus (GPa) = 32.28406 17.61245 24.94825
#
# Velocity S-wave (km/s) = 3.99495 2.95071 3.51186
# Velocity P-wave (km/s) = 6.28162 5.46236 5.88626
#
# Compressibility (1/GPa) = 0.02719289
#
# Stress axis : x y z
#
# Youngs Moduli (GPa) = 36.69848 77.35992 27.66197
#
# Poissons Ratio (x) = -0.31622 0.58814
# Poissons Ratio (y) = -0.15001 0.20450
# Poissons Ratio (z) = 0.78027 0.57191
#
# Static dielectric constant tensor:
#      x y z
#    x 1.749250 0.000000 0.000000 
#    y 0.000000 1.775270 0.000000 
#    z 0.000000 0.000000 1.709540 
# 
# From -- ./inp_files/9457.got.cif
#   From: 2010.05.17/outbox.cif.g08.bks.cpg/sg44_5_cif.got.tgz:9457.got - 2010.06.03 19:37:08.
