data_PCOD9375288
_publ_section_title
;
Structure prediction by ZEFSAII (Michael W. Deem and Ramdas Pophale) SiO2 
 PCOD9375288
Probable space group: I M M 2
;
_chemical_formula_sum "Si O2"
_cell_formula_units_Z 56
_cell_length_a 14.950911
_cell_length_b 7.678697
_cell_length_c 23.228471
_cell_angle_alpha 90.000000
_cell_angle_beta 90.000000
_cell_angle_gamma 90.000000
_cell_volume 2666.710129
_symmetry_space_group_name_H-M "I M M 2"
_symmetry_group_IT_number 44
_symmetry_cell_setting 'orthorhombic'
loop_
_space_group_symop_operation_xyz
x,y,z
-x,-y,z
-x,y,z
x,-y,z
1/2+x,1/2+y,1/2+z
1/2-x,1/2-y,1/2+z
1/2-x,1/2+y,1/2+z
1/2+x,1/2-y,1/2+z
loop_
_atom_site_type_symbol
_atom_site_label
_atom_site_fract_x
_atom_site_fract_y
_atom_site_fract_z
Si Si1 0.790240 0.703202 0.832090
Si Si2 0.899198 0.205387 0.719877
Si Si3 0.286734 0.713684 0.111641
Si Si4 0.897925 0.210201 0.501223
Si Si5 0.899638 0.704167 0.368699
Si Si6 0.399985 0.787241 0.572704
Si Si7 0.102404 0.711596 0.940865
O O1 0.811972 0.500000 0.831489
O O2 0.840580 0.778135 0.777195
O O3 0.683540 0.722397 0.833450
O O4 0.830923 0.776399 0.891821
O O5 0.844732 0.277450 0.665351
O O6 0.000000 0.277057 0.726367
O O7 0.908463 0.000000 0.708520
O O8 0.287552 0.500000 0.112168
O O9 0.183267 0.768221 0.111327
O O10 0.332083 0.768047 0.051490
O O11 0.879226 0.271769 0.436635
O O12 0.000000 0.260618 0.515544
O O13 0.893770 0.000000 0.499244
O O14 0.903036 0.500000 0.356461
O O15 0.000000 0.777352 0.358962
O O16 0.500000 0.730085 0.588936
O O17 0.382054 0.731649 0.506510
O O18 0.401224 0.000000 0.572573
O O19 0.108843 0.500000 0.942803
O O20 0.000000 0.755416 0.925296
#
# Coordination Sequence:
#
# PCOD9375288 Si02
#       7
#     8   8   8   8   8   8   8
#     4  11  21  34  54  76 100 134 176 220 263 310
#     4  10  21  36  52  72 102 139 177 219 267 316
#     4   9  16  28  47  70  99 137 178 216 256 305
#     4   9  16  28  50  78 103 130 169 214 258 306
#     4  10  21  36  53  76 107 138 168 209 264 322
#     4   8  13  22  39  66  97 124 154 198 249 300
#     4   8  14  25  44  73 104 128 155 200 257 308
#
# _framework density 20.999659000000001
#
# number of rings (size 3 to 8) (size 9 to 14) (size 15 to 20)
#    0.000    2.714    0.000    3.429    0.000    5.714 
#    0.000    1.429    0.000    4.286    0.000    0.000 
#    0.000    1.143    0.000    0.000    0.000    0.000 
#
# Total GULP energy -156240.375321 kJ/mol
# GULP energy per Si atom -5580.013404 kJ/mol
# Density = 2.095186 g / cm^3
# Si number density = 20.999659 Si / 1000 Ang^3
#
#
#
# Elastic Constant Matrix: (Units=GPa)
#
#
# Indices 1 2 3 4 5 6 
#
# 1 173.4112 1.5960 80.7492 0.0000 0.0000 0.0000
# 2 1.5960 31.1832 0.6525 0.0000 0.0000 0.0000
# 3 80.7492 0.6525 53.3651 0.0000 0.0000 0.0000
# 4 0.0000 0.0000 0.0000 13.9223 0.0000 0.0000
# 5 0.0000 0.0000 0.0000 0.0000 26.9069 0.0000
# 6 0.0000 0.0000 0.0000 0.0000 0.0000 5.8291
#
#
#
# Elastic Compliance Matrix: (Units=1/GPa)
#
#
# Indices 1 2 3 4 5 6 
#
# 1 0.019526 -0.000381 -0.029541 0.000000 0.000000 0.000000
# 2 -0.000381 0.032084 0.000185 0.000000 0.000000 0.000000
# 3 -0.029541 0.000185 0.063436 0.000000 0.000000 0.000000
# 4 0.000000 0.000000 0.000000 0.071827 0.000000 0.000000
# 5 0.000000 0.000000 0.000000 0.000000 0.037165 0.000000
# 6 0.000000 0.000000 0.000000 0.000000 0.000000 0.171554
#
#
# Mechanical properties :
#
#
# Convention : Reuss Voigt Hill
#
# Bulk Modulus (GPa) = 17.99488 47.10608 32.55048
# Shear Modulus (GPa) = 10.55760 20.99578 15.77669
#
# Velocity S-wave (km/s) = 2.24464 3.16542 2.74393
# Velocity P-wave (km/s) = 3.91224 5.98668 5.05697
#
# Compressibility (1/GPa) = 0.05557137
#
# Stress axis : x y z
#
# Youngs Moduli (GPa) = 51.21386 31.16795 15.76380
#
# Poissons Ratio (x) = 0.01188 0.46568
# Poissons Ratio (y) = 0.01952 -0.00291
# Poissons Ratio (z) = 1.51291 -0.00575
#
# Static dielectric constant tensor:
#      x y z
#    x 1.773670 0.000000 0.000000 
#    y 0.000000 1.789220 0.000000 
#    z 0.000000 0.000000 1.720170 
# 
# From -- ./inp_files/23034.got.cif
#   From: 2010.05.17/outbox.cif.g08.bks.cpg/sg44_12_cif.got.tgz:23034.got - 2010.06.03 19:37:08.
