data_PCOD9375206
_publ_section_title
;
Structure prediction by ZEFSAII (Michael W. Deem and Ramdas Pophale) SiO2 
 PCOD9375206
Probable space group: I M M 2
;
_chemical_formula_sum "Si O2"
_cell_formula_units_Z 24
_cell_length_a 10.234881
_cell_length_b 11.923600
_cell_length_c 10.421411
_cell_angle_alpha 90.000000
_cell_angle_beta 90.000000
_cell_angle_gamma 90.000000
_cell_volume 1271.793848
_symmetry_space_group_name_H-M "I M M 2"
_symmetry_group_IT_number 44
_symmetry_cell_setting 'orthorhombic'
loop_
_space_group_symop_operation_xyz
x,y,z
-x,-y,z
-x,y,z
x,-y,z
1/2+x,1/2+y,1/2+z
1/2-x,1/2-y,1/2+z
1/2-x,1/2+y,1/2+z
1/2+x,1/2-y,1/2+z
loop_
_atom_site_type_symbol
_atom_site_label
_atom_site_fract_x
_atom_site_fract_y
_atom_site_fract_z
Si Si1 0.500000 0.500000 0.732121
Si Si2 0.500000 0.000000 0.131194
Si Si3 0.000000 0.755207 0.214660
Si Si4 0.000000 0.745000 0.521153
Si Si5 0.714214 0.000000 0.348914
Si Si6 0.238870 0.628234 0.088884
O O1 0.500000 0.381770 0.659224
O O2 0.367079 0.500000 0.814685
O O3 0.500000 0.887044 0.049149
O O4 0.625489 0.000000 0.224899
O O5 0.872080 0.689686 0.168581
O O6 0.000000 0.765029 0.368454
O O7 0.128415 0.802314 0.580867
O O8 0.689354 0.894144 0.442404
O O9 0.261975 0.500000 0.135669
#
# Coordination Sequence:
#
# PCOD9375206 Si02
#       6
#     2   2   4   4   4   8
#     4  12  20  40  66  84 128 164 212 254 310 374
#     4  12  26  36  62 100 128 158 210 272 314 356
#     4  12  22  40  66  96 126 164 214 265 310 377
#     4  12  25  41  63  96 129 162 214 267 313 368
#     4  10  20  43  62  92 118 171 219 232 317 393
#     4  10  22  41  69  87 122 171 213 252 309 378
#
# _framework density 18.870984
#
# number of rings (size 3 to 8) (size 9 to 14) (size 15 to 20)
#    1.000    0.000    3.333    4.000    2.333    0.000 
#    0.000    0.000    0.000    0.000    0.000    0.000 
#    0.000    0.000    0.000    0.000    0.000    0.000 
#
# Total GULP energy -66955.771781 kJ/mol
# GULP energy per Si atom -5579.647648 kJ/mol
# Density = 1.882803 g / cm^3
# Si number density = 18.870984 Si / 1000 Ang^3
#
#
#
# Elastic Constant Matrix: (Units=GPa)
#
#
# Indices 1 2 3 4 5 6 
#
# 1 155.9012 70.0668 51.2405 0.0000 0.0000 0.0000
# 2 70.0668 180.4415 24.7218 0.0000 0.0000 0.0000
# 3 51.2405 24.7218 29.5803 0.0000 0.0000 0.0000
# 4 0.0000 0.0000 0.0000 30.9262 0.0000 0.0000
# 5 0.0000 0.0000 0.0000 0.0000 1.3470 0.0000
# 6 0.0000 0.0000 0.0000 0.0000 0.0000 33.0708
#
#
#
# Elastic Compliance Matrix: (Units=1/GPa)
#
#
# Indices 1 2 3 4 5 6 
#
# 1 0.016001 -0.002728 -0.025438 0.000000 0.000000 0.000000
# 2 -0.002728 0.006724 -0.000893 0.000000 0.000000 0.000000
# 3 -0.025438 -0.000893 0.078618 0.000000 0.000000 0.000000
# 4 0.000000 0.000000 0.000000 0.032335 0.000000 0.000000
# 5 0.000000 0.000000 0.000000 0.000000 0.742371 0.000000
# 6 0.000000 0.000000 0.000000 0.000000 0.000000 0.030238
#
#
# Mechanical properties :
#
#
# Convention : Reuss Voigt Hill
#
# Bulk Modulus (GPa) = 23.13548 73.10901 48.12225
# Shear Modulus (GPa) = 5.10822 27.72840 16.41831
#
# Velocity S-wave (km/s) = 1.64706 3.83739 2.95283
# Velocity P-wave (km/s) = 3.98792 7.64589 6.09767
#
# Compressibility (1/GPa) = 0.04322365
#
# Stress axis : x y z
#
# Youngs Moduli (GPa) = 62.49507 148.72635 12.71971
#
# Poissons Ratio (x) = 0.40576 0.32357
# Poissons Ratio (y) = 0.17050 0.01136
# Poissons Ratio (z) = 1.58975 0.13288
#
# Static dielectric constant tensor:
#      x y z
#    x 1.627630 0.000000 0.000000 
#    y 0.000000 1.681130 0.000000 
#    z 0.000000 0.000000 1.634510 
# 
# From -- ./inp_files/3941.got.cif
#   From: 2010.05.17/outbox.cif.g08.bks.cpg/sg44_2_cif.got.tgz:3941.got - 2010.06.03 19:37:08.
