data_PCOD9375425
_publ_section_title
;
Structure prediction by ZEFSAII (Michael W. Deem and Ramdas Pophale) SiO2 
 PCOD9375425
Probable space group: I M M 2
;
_chemical_formula_sum "Si O2"
_cell_formula_units_Z 64
_cell_length_a 24.448317
_cell_length_b 7.817882
_cell_length_c 15.971552
_cell_angle_alpha 90.000000
_cell_angle_beta 90.000000
_cell_angle_gamma 90.000000
_cell_volume 3052.707537
_symmetry_space_group_name_H-M "I M M 2"
_symmetry_group_IT_number 44
_symmetry_cell_setting 'orthorhombic'
loop_
_space_group_symop_operation_xyz
x,y,z
-x,-y,z
-x,y,z
x,-y,z
1/2+x,1/2+y,1/2+z
1/2-x,1/2-y,1/2+z
1/2-x,1/2+y,1/2+z
1/2+x,1/2-y,1/2+z
loop_
_atom_site_type_symbol
_atom_site_label
_atom_site_fract_x
_atom_site_fract_y
_atom_site_fract_z
Si Si1 0.562191 0.702920 0.196720
Si Si2 0.357417 0.798755 0.344508
Si Si3 0.436860 0.790393 0.685848
Si Si4 0.631055 0.207476 0.034171
Si Si5 0.870031 0.291528 0.347897
Si Si6 0.256492 0.198805 0.769403
Si Si7 0.869883 0.301624 0.026473
Si Si8 0.747839 0.696769 0.580829
O O1 0.500000 0.768515 0.196763
O O2 0.560959 0.500000 0.210312
O O3 0.598868 0.778898 0.270791
O O4 0.591498 0.735461 0.108190
O O5 0.300536 0.714575 0.317210
O O6 0.378219 0.728587 0.433647
O O7 0.345618 0.000000 0.355203
O O8 0.500000 0.740691 0.681159
O O9 0.408534 0.733845 0.772129
O O10 0.402892 0.727655 0.605214
O O11 0.434536 0.000000 0.686498
O O12 0.693339 0.265411 0.052075
O O13 0.631892 0.000000 0.036297
O O14 0.614675 0.264983 0.941146
O O15 0.871719 0.500000 0.349393
O O16 0.807845 0.242852 0.324645
O O17 0.253221 0.295566 0.681490
O O18 0.266378 0.000000 0.747713
O O19 0.886783 0.500000 0.022463
O O20 0.805497 0.290344 0.046605
O O21 0.743733 0.500000 0.552503
#
# Coordination Sequence:
#
# PCOD9375425 Si02
#       8
#     8   8   8   8   8   8   8   8
#     4  11  25  43  61  82 112 155 201 244 296 354
#     4  11  23  38  59  88 118 150 194 244 294 350
#     4   9  17  32  55  82 111 145 191 239 278 329
#     4  10  21  37  59  87 116 147 189 241 290 343
#     4   9  18  33  56  87 117 149 187 232 290 346
#     4  11  20  35  60  86 118 154 189 236 293 351
#     4  10  21  37  58  86 118 154 194 237 291 349
#     4  11  21  34  56  87 121 154 191 236 286 347
#
# _framework density 20.964995999999999
#
# number of rings (size 3 to 8) (size 9 to 14) (size 15 to 20)
#    0.000    1.750    2.500    2.250    0.000    4.500 
#    0.000    3.750    0.000    0.375    0.000    0.000 
#    0.000    0.000    0.000    0.000    0.000    0.000 
#
# Total GULP energy -178804.244348 kJ/mol
# GULP energy per Si atom -5587.632636 kJ/mol
# Density = 2.091728 g / cm^3
# Si number density = 20.964996 Si / 1000 Ang^3
#
#
#
# Elastic Constant Matrix: (Units=GPa)
#
#
# Indices 1 2 3 4 5 6 
#
# 1 125.0893 -8.1020 61.0562 0.0000 0.0000 0.0000
# 2 -8.1020 28.8016 -7.6655 0.0000 0.0000 0.0000
# 3 61.0562 -7.6655 172.8480 0.0000 0.0000 0.0000
# 4 0.0000 0.0000 0.0000 3.9927 0.0000 0.0000
# 5 0.0000 0.0000 0.0000 0.0000 -1.1533 0.0000
# 6 0.0000 0.0000 0.0000 0.0000 0.0000 -213.3987
#
#
#
# Elastic Compliance Matrix: (Units=1/GPa)
#
#
# Indices 1 2 3 4 5 6 
#
# 1 0.009756 0.001849 -0.003364 0.000000 0.000000 0.000000
# 2 0.001849 0.035485 0.000921 0.000000 0.000000 0.000000
# 3 -0.003364 0.000921 0.007015 0.000000 0.000000 0.000000
# 4 0.000000 0.000000 0.000000 0.250459 0.000000 0.000000
# 5 0.000000 0.000000 0.000000 0.000000 -0.867040 0.000000
# 6 0.000000 0.000000 0.000000 0.000000 0.000000 -0.004686
#
#
# Mechanical properties :
#
#
# Convention : Reuss Voigt Hill
#
# Bulk Modulus (GPa) = 19.58215 46.36849 32.97532
# Shear Modulus (GPa) = -9.07771 -23.34853 -16.21312
#
# Velocity S-wave (km/s) = -2.08311 -3.34082 -2.78392
# Velocity P-wave (km/s) = 1.89074 2.69883 2.33008
#
# Compressibility (1/GPa) = 0.05106692
#
# Stress axis : x y z
#
# Youngs Moduli (GPa) = 102.49967 28.18060 142.55943
#
# Poissons Ratio (x) = -0.05211 0.47960
# Poissons Ratio (y) = -0.18953 -0.13123
# Poissons Ratio (z) = 0.34483 -0.02594
#
# Static dielectric constant tensor:
#      x y z
#    x 1.711530 0.000000 0.000000 
#    y 0.000000 1.780960 0.000000 
#    z 0.000000 0.000000 1.748480 
# 
# From -- ./inp_files/16758.got.cif
#   From: 2010.05.17/outbox.cif.g08.bks.cpg/sg44_9_cif.got.tgz:16758.got - 2010.06.03 19:37:08.
