data_PCOD9375944
_publ_section_title
;
Structure prediction by ZEFSAII (Michael W. Deem and Ramdas Pophale) SiO2 
 PCOD9375944
Probable space group: I M M 2
;
_chemical_formula_sum "Si O2"
_cell_formula_units_Z 48
_cell_length_a 12.956907
_cell_length_b 10.412685
_cell_length_c 18.032095
_cell_angle_alpha 90.000000
_cell_angle_beta 90.000000
_cell_angle_gamma 90.000000
_cell_volume 2432.821576
_symmetry_space_group_name_H-M "I M M 2"
_symmetry_group_IT_number 44
_symmetry_cell_setting 'orthorhombic'
loop_
_space_group_symop_operation_xyz
x,y,z
-x,-y,z
-x,y,z
x,-y,z
1/2+x,1/2+y,1/2+z
1/2-x,1/2-y,1/2+z
1/2-x,1/2+y,1/2+z
1/2+x,1/2-y,1/2+z
loop_
_atom_site_type_symbol
_atom_site_label
_atom_site_fract_x
_atom_site_fract_y
_atom_site_fract_z
Si Si1 0.795218 0.152473 0.569570
Si Si2 0.388151 0.853201 0.352884
Si Si3 0.163526 0.149333 0.411041
Si Si4 0.887766 0.719250 0.259686
Si Si5 0.839719 0.859193 0.733811
Si Si6 0.119192 0.853026 0.108509
O O1 0.859397 0.184322 0.495690
O O2 0.856117 0.165647 0.646839
O O3 0.697159 0.247260 0.576244
O O4 0.234126 0.000000 0.563935
O O5 0.500000 0.837597 0.390015
O O6 0.288069 0.836241 0.403580
O O7 0.379846 0.752848 0.286108
O O8 0.382130 0.000000 0.324652
O O9 0.117954 0.228811 0.343284
O O10 0.137094 0.000000 0.399577
O O11 0.784694 0.639707 0.244915
O O12 0.879355 0.831843 0.197937
O O13 0.000000 0.657723 0.247376
O O14 0.879585 0.000000 0.753880
O O15 0.000000 0.832927 0.085136
O O16 0.148612 0.000000 0.091062
#
# Coordination Sequence:
#
# PCOD9375944 Si02
#       6
#     8   8   8   8   8   8
#     4   9  18  31  46  67  97 128 156 190 237 289
#     4   9  18  33  53  74  94 122 163 205 240 277
#     4   9  17  30  48  71  98 125 156 197 241 283
#     4   9  17  30  50  73  96 124 159 199 241 282
#     4   9  18  32  50  73  99 127 159 195 237 285
#     4   9  17  29  47  71  94 118 155 200 241 283
#
# _framework density 19.730174999999999
#
# number of rings (size 3 to 8) (size 9 to 14) (size 15 to 20)
#    0.000    3.000    0.000    0.500    0.000    6.667 
#    0.000    9.167    0.000    3.000    0.000    0.000 
#    0.000    0.000    0.000    0.000    0.000    0.000 
#
# Total GULP energy -133676.415669 kJ/mol
# GULP energy per Si atom -5569.850653 kJ/mol
# Density = 1.968527 g / cm^3
# Si number density = 19.730175 Si / 1000 Ang^3
#
#
#
# Elastic Constant Matrix: (Units=GPa)
#
#
# Indices 1 2 3 4 5 6 
#
# 1 67.1395 1.6948 -12.0134 0.0000 0.0000 0.0000
# 2 1.6948 62.2478 15.3299 0.0000 0.0000 0.0000
# 3 -12.0134 15.3299 95.7697 0.0000 0.0000 0.0000
# 4 0.0000 0.0000 0.0000 16.9961 0.0000 0.0000
# 5 0.0000 0.0000 0.0000 0.0000 7.9486 0.0000
# 6 0.0000 0.0000 0.0000 0.0000 0.0000 3.3643
#
#
#
# Elastic Compliance Matrix: (Units=1/GPa)
#
#
# Indices 1 2 3 4 5 6 
#
# 1 0.015287 -0.000925 0.002066 0.000000 0.000000 0.000000
# 2 -0.000925 0.016780 -0.002802 0.000000 0.000000 0.000000
# 3 0.002066 -0.002802 0.011149 0.000000 0.000000 0.000000
# 4 0.000000 0.000000 0.000000 0.058837 0.000000 0.000000
# 5 0.000000 0.000000 0.000000 0.000000 0.125808 0.000000
# 6 0.000000 0.000000 0.000000 0.000000 0.000000 0.297241
#
#
# Mechanical properties :
#
#
# Convention : Reuss Voigt Hill
#
# Bulk Modulus (GPa) = 25.06629 26.13108 25.59869
# Shear Modulus (GPa) = 9.22981 20.33818 14.78399
#
# Velocity S-wave (km/s) = 2.16522 3.21412 2.74032
# Velocity P-wave (km/s) = 4.35695 5.20068 4.79740
#
# Compressibility (1/GPa) = 0.03989421
#
# Stress axis : x y z
#
# Youngs Moduli (GPa) = 65.41362 59.59450 89.69119
#
# Poissons Ratio (x) = 0.05512 -0.18528
# Poissons Ratio (y) = 0.06050 0.25132
# Poissons Ratio (z) = -0.13513 0.16699
#
# Static dielectric constant tensor:
#      x y z
#    x 1.728240 0.000000 0.000000 
#    y 0.000000 1.671850 0.000000 
#    z 0.000000 0.000000 1.685770 
# 
# From -- ./inp_files/18370.got.cif
#   From: 2010.05.17/outbox.cif.g08.bks.cpg/sg44_10_cif.got.tgz:18370.got - 2010.06.03 19:37:08.
