data_PCOD9375327
_publ_section_title
;
Structure prediction by ZEFSAII (Michael W. Deem and Ramdas Pophale) SiO2 
 PCOD9375327
Probable space group: I M M 2
;
_chemical_formula_sum "Si O2"
_cell_formula_units_Z 56
_cell_length_a 7.609911
_cell_length_b 17.188912
_cell_length_c 20.718977
_cell_angle_alpha 90.000000
_cell_angle_beta 90.000000
_cell_angle_gamma 90.000000
_cell_volume 2710.168381
_symmetry_space_group_name_H-M "I M M 2"
_symmetry_group_IT_number 44
_symmetry_cell_setting 'orthorhombic'
loop_
_space_group_symop_operation_xyz
x,y,z
-x,-y,z
-x,y,z
x,-y,z
1/2+x,1/2+y,1/2+z
1/2-x,1/2-y,1/2+z
1/2-x,1/2+y,1/2+z
1/2+x,1/2-y,1/2+z
loop_
_atom_site_type_symbol
_atom_site_label
_atom_site_fract_x
_atom_site_fract_y
_atom_site_fract_z
Si Si1 0.287700 0.085955 0.067010
Si Si2 0.203335 0.746374 0.887803
Si Si3 0.200709 0.242607 0.137514
Si Si4 0.716598 0.500000 0.808485
Si Si5 0.711719 0.084642 0.915087
Si Si6 0.209000 0.667236 0.017034
Si Si7 0.202206 0.836683 0.260140
Si Si8 0.709838 0.500000 0.959215
O O1 0.500000 0.091927 0.072570
O O2 0.203895 0.159241 0.101524
O O3 0.235926 0.000000 0.091591
O O4 0.243524 0.088805 0.991097
O O5 0.215722 0.838810 0.882223
O O6 0.277274 0.718852 0.957034
O O7 0.296573 0.704307 0.829225
O O8 0.000000 0.722011 0.885067
O O9 0.283740 0.220195 0.206438
O O10 0.000000 0.269188 0.149933
O O11 0.280833 0.303178 0.085902
O O12 0.500000 0.500000 0.809454
O O13 0.778102 0.422342 0.772117
O O14 0.772167 0.500000 0.884204
O O15 0.500000 0.087272 0.910785
O O16 0.770217 0.000000 0.890737
O O17 0.235029 0.578023 0.996739
O O18 0.000000 0.682421 0.020497
O O19 0.000000 0.848961 0.239659
O O20 0.500000 0.500000 0.956268
#
# Coordination Sequence:
#
# PCOD9375327 Si02
#       8
#     8   8   8   4   8   8   8   4
#     4   9  18  31  48  75 111 144 174 212 258 309
#     4  11  21  34  55  82 112 144 179 228 286 335
#     4  10  21  36  56  80 109 149 189 225 273 331
#     4   9  18  33  53  83 115 142 185 234 276 328
#     4   9  18  33  54  79 106 140 181 222 266 319
#     4  10  21  37  55  83 116 145 181 232 287 337
#     4  10  21  37  56  79 112 150 189 230 276 339
#     4  11  21  35  61  89 107 142 191 238 288 334
#
# _framework density 20.662922999999999
#
# number of rings (size 3 to 8) (size 9 to 14) (size 15 to 20)
#    0.000    2.143    2.857    1.500    1.000    2.286 
#    0.000    1.786    1.571    0.000    0.000    0.000 
#    0.000    0.000    0.000    0.000    0.000    0.000 
#
# Total GULP energy -156235.053985 kJ/mol
# GULP energy per Si atom -5579.823357 kJ/mol
# Density = 2.061589 g / cm^3
# Si number density = 20.662923 Si / 1000 Ang^3
#
#
#
# Elastic Constant Matrix: (Units=GPa)
#
#
# Indices 1 2 3 4 5 6 
#
# 1 43.5774 -6.2394 7.5409 0.0000 0.0000 0.0000
# 2 -6.2394 110.4167 46.3109 0.0000 0.0000 0.0000
# 3 7.5409 46.3109 112.5983 0.0000 0.0000 0.0000
# 4 0.0000 0.0000 0.0000 27.1969 0.0000 0.0000
# 5 0.0000 0.0000 0.0000 0.0000 -14.8417 0.0000
# 6 0.0000 0.0000 0.0000 0.0000 0.0000 20.6470
#
#
#
# Elastic Compliance Matrix: (Units=1/GPa)
#
#
# Indices 1 2 3 4 5 6 
#
# 1 0.023743 0.002427 -0.002588 0.000000 0.000000 0.000000
# 2 0.002427 0.011193 -0.004766 0.000000 0.000000 0.000000
# 3 -0.002588 -0.004766 0.011015 0.000000 0.000000 0.000000
# 4 0.000000 0.000000 0.000000 0.036769 0.000000 0.000000
# 5 0.000000 0.000000 0.000000 0.000000 -0.067378 0.000000
# 6 0.000000 0.000000 0.000000 0.000000 0.000000 0.048433
#
#
# Mechanical properties :
#
#
# Convention : Reuss Voigt Hill
#
# Bulk Modulus (GPa) = 27.70376 40.20193 33.95285
# Shear Modulus (GPa) = 58.36935 21.19911 39.78423
#
# Velocity S-wave (km/s) = 5.32068 3.20652 4.39269
# Velocity P-wave (km/s) = 7.15422 5.76258 6.49577
#
# Compressibility (1/GPa) = 0.03609618
#
# Stress axis : x y z
#
# Youngs Moduli (GPa) = 42.11747 89.34361 90.78750
#
# Poissons Ratio (x) = -0.21687 0.23500
# Poissons Ratio (y) = -0.10223 0.43270
# Poissons Ratio (z) = 0.10902 0.42582
#
# Static dielectric constant tensor:
#      x y z
#    x 2.077160 0.000000 0.000000 
#    y 0.000000 1.734950 0.000000 
#    z 0.000000 0.000000 1.755120 
# 
# From -- ./inp_files/23147.got.cif
#   From: 2010.05.17/outbox.cif.g08.bks.cpg/sg44_12_cif.got.tgz:23147.got - 2010.06.03 19:37:08.
