data_PCOD9375324
_publ_section_title
;
Structure prediction by ZEFSAII (Michael W. Deem and Ramdas Pophale) SiO2 
 PCOD9375324
Probable space group: I M M 2
;
_chemical_formula_sum "Si O2"
_cell_formula_units_Z 48
_cell_length_a 8.920256
_cell_length_b 18.894781
_cell_length_c 15.300206
_cell_angle_alpha 90.000000
_cell_angle_beta 90.000000
_cell_angle_gamma 90.000000
_cell_volume 2578.792859
_symmetry_space_group_name_H-M "I M M 2"
_symmetry_group_IT_number 44
_symmetry_cell_setting 'orthorhombic'
loop_
_space_group_symop_operation_xyz
x,y,z
-x,-y,z
-x,y,z
x,-y,z
1/2+x,1/2+y,1/2+z
1/2-x,1/2-y,1/2+z
1/2-x,1/2+y,1/2+z
1/2+x,1/2-y,1/2+z
loop_
_atom_site_type_symbol
_atom_site_label
_atom_site_fract_x
_atom_site_fract_y
_atom_site_fract_z
Si Si1 0.679674 0.579939 0.750000
Si Si2 0.678253 0.919186 0.772599
Si Si3 0.179403 0.801100 0.109761
Si Si4 0.678126 0.689137 0.407060
Si Si5 0.321437 0.351706 0.105414
Si Si6 0.679183 0.853616 0.417383
O O1 0.500000 0.585048 0.762883
O O2 0.713982 0.500000 0.721400
O O3 0.721374 0.638055 0.677691
O O4 0.760686 0.597540 0.840441
O O5 0.500000 0.912180 0.761487
O O6 0.734714 0.863434 0.844278
O O7 0.757530 0.901202 0.681230
O O8 0.712190 0.000000 0.798858
O O9 0.265961 0.728195 0.126084
O O10 0.000000 0.787140 0.116613
O O11 0.207389 0.824300 0.009743
O O12 0.500000 0.681090 0.391412
O O13 0.716937 0.771834 0.393120
O O14 0.500000 0.354350 0.102957
O O15 0.253996 0.369673 0.010483
O O16 0.500000 0.857956 0.426273
#
# Coordination Sequence:
#
# PCOD9375324 Si02
#       6
#     8   8   8   8   8   8
#     4  10  21  36  55  82 115 150 186 223 268 323
#     4  11  24  39  55  79 113 150 184 223 275 330
#     4   9  19  37  60  84 112 146 183 226 273 321
#     4   9  19  36  59  85 109 139 184 231 273 322
#     4  11  22  37  60  85 108 140 184 232 277 325
#     4  10  21  38  59  83 111 144 183 227 276 327
#
# _framework density 18.61336
#
# number of rings (size 3 to 8) (size 9 to 14) (size 15 to 20)
#    0.000    2.000    0.000    4.500    0.000    9.667 
#    0.000    1.667    0.000    0.000    0.000    0.000 
#    0.000    0.000    0.000    0.000    0.000    0.000 
#
# Total GULP energy -134094.039896 kJ/mol
# GULP energy per Si atom -5587.251662 kJ/mol
# Density = 1.857100 g / cm^3
# Si number density = 18.613360 Si / 1000 Ang^3
#
#
#
# Elastic Constant Matrix: (Units=GPa)
#
#
# Indices 1 2 3 4 5 6 
#
# 1 39.1690 12.5658 11.4910 0.0000 0.0000 0.0000
# 2 12.5658 15.4843 9.3829 0.0000 0.0000 0.0000
# 3 11.4910 9.3829 30.9253 0.0000 0.0000 0.0000
# 4 0.0000 0.0000 0.0000 -9.0518 0.0000 0.0000
# 5 0.0000 0.0000 0.0000 0.0000 32.9228 0.0000
# 6 0.0000 0.0000 0.0000 0.0000 0.0000 26.2880
#
#
#
# Elastic Compliance Matrix: (Units=1/GPa)
#
#
# Indices 1 2 3 4 5 6 
#
# 1 0.035241 -0.025319 -0.005413 0.000000 0.000000 0.000000
# 2 -0.025319 0.097320 -0.020120 0.000000 0.000000 0.000000
# 3 -0.005413 -0.020120 0.040452 0.000000 0.000000 0.000000
# 4 0.000000 0.000000 0.000000 -0.110475 0.000000 0.000000
# 5 0.000000 0.000000 0.000000 0.000000 0.030374 0.000000
# 6 0.000000 0.000000 0.000000 0.000000 0.000000 0.038040
#
#
# Mechanical properties :
#
#
# Convention : Reuss Voigt Hill
#
# Bulk Modulus (GPa) = 14.02325 16.93978 15.48151
# Shear Modulus (GPa) = 19.49901 13.50772 16.50337
#
# Velocity S-wave (km/s) = 3.24015 2.69681 2.98088
# Velocity P-wave (km/s) = 4.64203 4.33793 4.49255
#
# Compressibility (1/GPa) = 0.07131017
#
# Stress axis : x y z
#
# Youngs Moduli (GPa) = 28.37615 10.27540 24.72094
#
# Poissons Ratio (x) = 0.26016 0.13381
# Poissons Ratio (y) = 0.71845 0.49737
# Poissons Ratio (z) = 0.15359 0.20674
#
# Static dielectric constant tensor:
#      x y z
#    x 1.621960 0.000000 0.000000 
#    y 0.000000 1.630620 0.000000 
#    z 0.000000 0.000000 1.619850 
# 
# From -- ./inp_files/16060.got.cif
#   From: 2010.05.17/outbox.cif.g08.bks.cpg/sg44_9_cif.got.tgz:16060.got - 2010.06.03 19:37:08.
