data_PCOD9375559
_publ_section_title
;
Structure prediction by ZEFSAII (Michael W. Deem and Ramdas Pophale) SiO2 
 PCOD9375559
Probable space group: I M M 2
;
_chemical_formula_sum "Si O2"
_cell_formula_units_Z 58
_cell_length_a 19.223227
_cell_length_b 8.063458
_cell_length_c 17.722415
_cell_angle_alpha 90.000000
_cell_angle_beta 90.000000
_cell_angle_gamma 90.000000
_cell_volume 2747.075051
_symmetry_space_group_name_H-M "I M M 2"
_symmetry_group_IT_number 44
_symmetry_cell_setting 'orthorhombic'
loop_
_space_group_symop_operation_xyz
x,y,z
-x,-y,z
-x,y,z
x,-y,z
1/2+x,1/2+y,1/2+z
1/2-x,1/2-y,1/2+z
1/2-x,1/2+y,1/2+z
1/2+x,1/2-y,1/2+z
loop_
_atom_site_type_symbol
_atom_site_label
_atom_site_fract_x
_atom_site_fract_y
_atom_site_fract_z
Si Si1 0.672920 0.691029 0.908070
Si Si2 0.176334 0.808146 0.851670
Si Si3 0.578157 0.800473 0.045838
Si Si4 0.688260 0.694585 0.652474
Si Si5 0.500000 0.000000 0.535400
Si Si6 0.339713 0.195859 0.188589
Si Si7 0.106138 0.194404 0.009846
Si Si8 0.079623 0.304664 0.272505
O O1 0.688356 0.500000 0.921261
O O2 0.744904 0.768780 0.878027
O O3 0.616991 0.712964 0.841066
O O4 0.635902 0.760010 0.982920
O O5 0.149703 0.714882 0.777561
O O6 0.127351 0.781251 0.923421
O O7 0.174492 0.000000 0.831010
O O8 0.500000 0.737320 0.027989
O O9 0.604617 0.739793 0.128025
O O10 0.573180 0.000000 0.047598
O O11 0.686900 0.500000 0.675073
O O12 0.762936 0.767395 0.672719
O O13 0.673259 0.702957 0.564018
O O14 0.625993 0.777317 0.698594
O O15 0.441127 0.150805 0.533214
O O16 0.335001 0.000000 0.172409
O O17 0.080860 0.000000 0.018729
O O18 0.079213 0.500000 0.290790
O O19 0.000000 0.251234 0.260532
#
# Coordination Sequence:
#
# PCOD9375559 Si02
#       8
#     8   8   8   8   2   8   8   8
#     4  12  24  39  64  94 128 168 218 272 328 396
#     4  11  23  43  67  95 130 170 218 276 331 388
#     4  10  22  42  66  94 131 174 217 268 331 397
#     4  10  21  39  62  90 129 171 213 271 331 396
#     4  12  26  44  72  98 132 180 222 288 324 414
#     4  10  21  40  66  97 131 168 218 271 328 394
#     4  10  25  45  67  97 134 177 224 277 341 397
#     4  11  24  38  58  90 128 168 215 267 328 400
#
# _framework density 21.113364000000001
#
# number of rings (size 3 to 8) (size 9 to 14) (size 15 to 20)
#    0.000    1.379    1.379    3.517    3.862    5.793 
#    1.241    0.000    0.000    0.000    0.000    0.000 
#    0.000    0.000    0.000    0.000    0.000    0.000 
#
# Total GULP energy -161645.919971 kJ/mol
# GULP energy per Si atom -5573.997240 kJ/mol
# Density = 2.106531 g / cm^3
# Si number density = 21.113364 Si / 1000 Ang^3
#
#
#
# Elastic Constant Matrix: (Units=GPa)
#
#
# Indices 1 2 3 4 5 6 
#
# 1 20.4344 6.2212 -0.5954 0.0000 0.0000 0.0000
# 2 6.2212 47.5351 -5.2675 0.0000 0.0000 0.0000
# 3 -0.5954 -5.2675 98.0751 0.0000 0.0000 0.0000
# 4 0.0000 0.0000 0.0000 28.0184 0.0000 0.0000
# 5 0.0000 0.0000 0.0000 0.0000 -218.7121 0.0000
# 6 0.0000 0.0000 0.0000 0.0000 0.0000 29.5712
#
#
#
# Elastic Compliance Matrix: (Units=1/GPa)
#
#
# Indices 1 2 3 4 5 6 
#
# 1 0.050968 -0.006676 -0.000049 0.000000 0.000000 0.000000
# 2 -0.006676 0.022037 0.001143 0.000000 0.000000 0.000000
# 3 -0.000049 0.001143 0.010257 0.000000 0.000000 0.000000
# 4 0.000000 0.000000 0.000000 0.035691 0.000000 0.000000
# 5 0.000000 0.000000 0.000000 0.000000 -0.004572 0.000000
# 6 0.000000 0.000000 0.000000 0.000000 0.000000 0.033817
#
#
# Mechanical properties :
#
#
# Convention : Reuss Voigt Hill
#
# Bulk Modulus (GPa) = 13.86985 18.52904 16.19944
# Shear Modulus (GPa) = 27.26353 -21.17874 3.04240
#
# Velocity S-wave (km/s) = 3.59735 -3.17061 1.20171
# Velocity P-wave (km/s) = 4.88243 2.14677 3.10076
#
# Compressibility (1/GPa) = 0.07209886
#
# Stress axis : x y z
#
# Youngs Moduli (GPa) = 19.62013 45.37723 97.49099
#
# Poissons Ratio (x) = 0.30294 0.00479
# Poissons Ratio (y) = 0.13098 -0.11144
# Poissons Ratio (z) = 0.00096 -0.05187
#
# Static dielectric constant tensor:
#      x y z
#    x 1.810220 0.000000 0.000000 
#    y 0.000000 1.757840 0.000000 
#    z 0.000000 0.000000 1.774990 
# 
# From -- ./inp_files/22140.got.cif
#   From: 2010.05.17/outbox.cif.g08.bks.cpg/sg44_12_cif.got.tgz:22140.got - 2010.06.03 19:37:08.
