data_PCOD9375738
_publ_section_title
;
Structure prediction by ZEFSAII (Michael W. Deem and Ramdas Pophale) SiO2 
 PCOD9375738
Probable space group: I M M 2
;
_chemical_formula_sum "Si O2"
_cell_formula_units_Z 48
_cell_length_a 17.145132
_cell_length_b 8.743781
_cell_length_c 17.084708
_cell_angle_alpha 90.000000
_cell_angle_beta 90.000000
_cell_angle_gamma 90.000000
_cell_volume 2561.224604
_symmetry_space_group_name_H-M "I M M 2"
_symmetry_group_IT_number 44
_symmetry_cell_setting 'orthorhombic'
loop_
_space_group_symop_operation_xyz
x,y,z
-x,-y,z
-x,y,z
x,-y,z
1/2+x,1/2+y,1/2+z
1/2-x,1/2-y,1/2+z
1/2-x,1/2+y,1/2+z
1/2+x,1/2-y,1/2+z
loop_
_atom_site_type_symbol
_atom_site_label
_atom_site_fract_x
_atom_site_fract_y
_atom_site_fract_z
Si Si1 0.408471 0.681667 0.569610
Si Si2 0.181425 0.317707 0.216466
Si Si3 0.500000 0.817558 0.980263
Si Si4 0.350250 0.183505 0.241808
Si Si5 0.178271 0.682101 0.922139
Si Si6 0.500000 0.682845 0.154317
Si Si7 0.143554 0.816791 0.383895
O O1 0.500000 0.720212 0.565502
O O2 0.401045 0.500000 0.582013
O O3 0.367651 0.767748 0.641338
O O4 0.366269 0.728641 0.489387
O O5 0.183563 0.500000 0.223746
O O6 0.269308 0.252907 0.210594
O O7 0.145525 0.245056 0.295295
O O8 0.424158 0.761183 0.933229
O O9 0.500000 0.000000 0.986907
O O10 0.500000 0.742872 0.065743
O O11 0.352839 0.216828 0.334909
O O12 0.423704 0.253475 0.197921
O O13 0.348523 0.000000 0.232759
O O14 0.169172 0.500000 0.935220
O O15 0.270814 0.715744 0.919801
O O16 0.500000 0.500000 0.155390
O O17 0.133206 0.000000 0.382856
#
# Coordination Sequence:
#
# PCOD9375738 Si02
#       7
#     8   8   4   8   8   4   8
#     4  11  25  41  61  91 127 167 209 256 313 370
#     4  11  23  41  66  94 125 164 211 260 315 374
#     4  12  26  42  64  95 128 167 212 258 312 373
#     4  10  22  43  67  93 126 166 209 257 316 376
#     4   9  21  41  66  92 122 162 206 255 314 370
#     4  12  26  42  64  95 130 167 210 260 314 371
#     4  10  22  43  67  92 126 165 207 258 317 374
#
# _framework density 18.741035
#
# number of rings (size 3 to 8) (size 9 to 14) (size 15 to 20)
#    0.000    1.500    0.000    5.500    4.667    5.333 
#    0.000    0.000    0.000    0.000    0.000    0.000 
#    0.000    0.000    0.000    0.000    0.000    0.000 
#
# Total GULP energy -134228.348194 kJ/mol
# GULP energy per Si atom -5592.847841 kJ/mol
# Density = 1.869838 g / cm^3
# Si number density = 18.741035 Si / 1000 Ang^3
#
#
#
# Elastic Constant Matrix: (Units=GPa)
#
#
# Indices 1 2 3 4 5 6 
#
# 1 104.1259 54.4357 78.8104 0.0000 0.0000 0.0000
# 2 54.4357 100.5736 50.9677 0.0000 0.0000 0.0000
# 3 78.8104 50.9677 90.1824 0.0000 0.0000 0.0000
# 4 0.0000 0.0000 0.0000 39.4186 0.0000 0.0000
# 5 0.0000 0.0000 0.0000 0.0000 25.5710 0.0000
# 6 0.0000 0.0000 0.0000 0.0000 0.0000 35.3844
#
#
#
# Elastic Compliance Matrix: (Units=1/GPa)
#
#
# Indices 1 2 3 4 5 6 
#
# 1 0.029508 -0.004068 -0.023488 0.000000 0.000000 0.000000
# 2 -0.004068 0.014495 -0.004636 0.000000 0.000000 0.000000
# 3 -0.023488 -0.004636 0.034235 0.000000 0.000000 0.000000
# 4 0.000000 0.000000 0.000000 0.025369 0.000000 0.000000
# 5 0.000000 0.000000 0.000000 0.000000 0.039107 0.000000
# 6 0.000000 0.000000 0.000000 0.000000 0.000000 0.028261
#
#
# Mechanical properties :
#
#
# Convention : Reuss Voigt Hill
#
# Bulk Modulus (GPa) = 72.18976 73.70106 72.94541
# Shear Modulus (GPa) = 20.83537 27.45264 24.14401
#
# Velocity S-wave (km/s) = 3.33791 3.83148 3.59318
# Velocity P-wave (km/s) = 7.31155 7.68017 7.49813
#
# Compressibility (1/GPa) = 0.01385238
#
# Stress axis : x y z
#
# Youngs Moduli (GPa) = 33.88921 68.99113 29.20998
#
# Poissons Ratio (x) = 0.28068 0.68607
# Poissons Ratio (y) = 0.13787 0.13543
# Poissons Ratio (z) = 0.79598 0.31987
#
# Static dielectric constant tensor:
#      x y z
#    x 1.620590 0.000000 0.000000 
#    y 0.000000 1.623280 0.000000 
#    z 0.000000 0.000000 1.615410 
# 
# From -- ./inp_files/18845.got.cif
#   From: 2010.05.17/outbox.cif.g08.bks.cpg/sg44_10_cif.got.tgz:18845.got - 2010.06.03 19:37:08.
