data_PCOD9375486
_publ_section_title
;
Structure prediction by ZEFSAII (Michael W. Deem and Ramdas Pophale) SiO2 
 PCOD9375486
Probable space group: I M M 2
;
_chemical_formula_sum "Si O2"
_cell_formula_units_Z 48
_cell_length_a 13.612405
_cell_length_b 21.513068
_cell_length_c 7.546367
_cell_angle_alpha 90.000000
_cell_angle_beta 90.000000
_cell_angle_gamma 90.000000
_cell_volume 2209.912783
_symmetry_space_group_name_H-M "I M M 2"
_symmetry_group_IT_number 44
_symmetry_cell_setting 'orthorhombic'
loop_
_space_group_symop_operation_xyz
x,y,z
-x,-y,z
-x,y,z
x,-y,z
1/2+x,1/2+y,1/2+z
1/2-x,1/2-y,1/2+z
1/2-x,1/2+y,1/2+z
1/2+x,1/2-y,1/2+z
loop_
_atom_site_type_symbol
_atom_site_label
_atom_site_fract_x
_atom_site_fract_y
_atom_site_fract_z
Si Si1 0.679345 0.301274 0.149430
Si Si2 0.735456 0.571558 0.046617
Si Si3 0.395602 0.924764 0.266222
Si Si4 0.893368 0.161169 0.001270
Si Si5 0.886934 0.262149 0.296451
Si Si6 0.213934 0.429455 0.437437
O O1 0.660357 0.372287 0.083347
O O2 0.622144 0.292718 0.333744
O O3 0.795296 0.296961 0.201653
O O4 0.647082 0.254224 0.996324
O O5 0.699694 0.500000 0.019714
O O6 0.799888 0.569353 0.227303
O O7 0.803305 0.592794 0.884746
O O8 0.500000 0.898936 0.326238
O O9 0.400167 0.000000 0.282093
O O10 0.375400 0.909214 0.061336
O O11 0.805834 0.112963 0.984124
O O12 0.000000 0.130988 0.984374
O O13 0.889404 0.198671 0.182658
O O14 0.000000 0.286809 0.291922
O O15 0.237714 0.500000 0.490310
#
# Coordination Sequence:
#
# PCOD9375486 Si02
#       6
#     8   8   8   8   8   8
#     4  11  21  40  63  85 124 156 196 255 300 351
#     4   9  19  34  56  82 112 154 194 238 299 351
#     4   9  17  30  49  75 111 154 193 230 284 349
#     4  10  21  38  60  85 115 154 194 241 300 354
#     4  11  23  39  62  90 118 158 206 246 298 360
#     4   9  18  33  54  82 115 151 191 239 290 347
#
# _framework density 21.720313000000001
#
# number of rings (size 3 to 8) (size 9 to 14) (size 15 to 20)
#    0.000    2.167    1.667    1.500    0.000    1.667 
#    0.000    5.833    0.000    2.500    0.000    4.667 
#    0.000    0.000    0.000    0.000    0.000    0.000 
#
# Total GULP energy -133753.230376 kJ/mol
# GULP energy per Si atom -5573.051266 kJ/mol
# Density = 2.167088 g / cm^3
# Si number density = 21.720313 Si / 1000 Ang^3
#
#
#
# Elastic Constant Matrix: (Units=GPa)
#
#
# Indices 1 2 3 4 5 6 
#
# 1 75.1265 8.8386 7.3706 -0.0001 0.0000 0.0000
# 2 8.8386 45.9293 1.7499 0.0000 0.0000 0.0000
# 3 7.3706 1.7499 81.4149 0.0001 -0.0001 -0.0001
# 4 -0.0001 0.0000 0.0001 19.0530 0.0000 0.0000
# 5 0.0000 0.0000 -0.0001 0.0000 14.0297 0.0000
# 6 0.0000 0.0000 -0.0001 0.0000 0.0000 12.0730
#
#
#
# Elastic Compliance Matrix: (Units=1/GPa)
#
#
# Indices 1 2 3 4 5 6 
#
# 1 0.013733 -0.002598 -0.001187 0.000000 0.000000 0.000000
# 2 -0.002598 0.022282 -0.000244 0.000000 0.000000 0.000000
# 3 -0.001187 -0.000244 0.012395 0.000000 0.000000 0.000000
# 4 0.000000 0.000000 0.000000 0.052485 0.000000 0.000000
# 5 0.000000 0.000000 0.000000 0.000000 0.071278 0.000000
# 6 0.000000 0.000000 0.000000 0.000000 0.000000 0.082830
#
#
# Mechanical properties :
#
#
# Convention : Reuss Voigt Hill
#
# Bulk Modulus (GPa) = 24.78144 26.48766 25.63455
# Shear Modulus (GPa) = 18.08247 21.33190 19.70718
#
# Velocity S-wave (km/s) = 2.88846 3.13728 3.01544
# Velocity P-wave (km/s) = 4.74957 5.03435 4.89403
#
# Compressibility (1/GPa) = 0.04035278
#
# Stress axis : x y z
#
# Youngs Moduli (GPa) = 72.81738 44.87979 80.67446
#
# Poissons Ratio (x) = 0.11658 0.09580
# Poissons Ratio (y) = 0.18915 0.01967
# Poissons Ratio (z) = 0.08647 0.01094
#
# Static dielectric constant tensor:
#      x y z
#    x 1.807450 0.000000 0.000000 
#    y 0.000000 1.836700 0.000000 
#    z 0.000000 0.000000 1.816970 
# 
# From -- ./inp_files/6038.got.cif
#   From: 2010.05.17/outbox.cif.g08.bks.cpg/sg44_4_cif.got.tgz:6038.got - 2010.06.03 19:37:08.
