data_PCOD9375633
_publ_section_title
;
Structure prediction by ZEFSAII (Michael W. Deem and Ramdas Pophale) SiO2 
 PCOD9375633
Probable space group: I M M 2
;
_chemical_formula_sum "Si O2"
_cell_formula_units_Z 64
_cell_length_a 29.191208
_cell_length_b 8.676851
_cell_length_c 13.122808
_cell_angle_alpha 90.000000
_cell_angle_beta 90.000000
_cell_angle_gamma 90.000000
_cell_volume 3323.846674
_symmetry_space_group_name_H-M "I M M 2"
_symmetry_group_IT_number 44
_symmetry_cell_setting 'orthorhombic'
loop_
_space_group_symop_operation_xyz
x,y,z
-x,-y,z
-x,y,z
x,-y,z
1/2+x,1/2+y,1/2+z
1/2-x,1/2-y,1/2+z
1/2-x,1/2+y,1/2+z
1/2+x,1/2-y,1/2+z
loop_
_atom_site_type_symbol
_atom_site_label
_atom_site_fract_x
_atom_site_fract_y
_atom_site_fract_z
Si Si1 0.054228 0.315277 0.786690
Si Si2 0.054769 0.684300 0.556409
Si Si3 0.781055 0.324274 0.430922
Si Si4 0.622229 0.683050 0.891291
Si Si5 0.799684 0.677422 0.828448
Si Si6 0.742932 0.678690 0.656137
Si Si7 0.379725 0.681153 0.456567
Si Si8 0.642442 0.182554 0.675386
O O1 0.060849 0.500000 0.792937
O O2 0.069307 0.267927 0.671858
O O3 0.081020 0.237949 0.879336
O O4 0.000000 0.284836 0.794272
O O5 0.062922 0.500000 0.548423
O O6 0.080857 0.768400 0.465286
O O7 0.000000 0.708291 0.550034
O O8 0.777938 0.500000 0.390362
O O9 0.833123 0.271815 0.433347
O O10 0.751914 0.202205 0.367412
O O11 0.756299 0.321034 0.538893
O O12 0.628705 0.500000 0.894353
O O13 0.619210 0.736620 0.773143
O O14 0.814703 0.500000 0.835135
O O15 0.790136 0.726378 0.712844
O O16 0.833299 0.778648 0.895113
O O17 0.733609 0.500000 0.684335
O O18 0.696672 0.773685 0.674741
O O19 0.382876 0.500000 0.474057
O O20 0.377469 0.763214 0.566409
O O21 0.637656 0.000000 0.685278
#
# Coordination Sequence:
#
# PCOD9375633 Si02
#       8
#     8   8   8   8   8   8   8   8
#     4   9  20  42  70  96 123 156 197 247 302 360
#     4   9  20  42  70  96 123 156 197 247 302 360
#     4  11  22  37  57  84 118 160 206 251 298 354
#     4  12  25  40  60  90 127 162 202 251 304 365
#     4  11  22  37  57  84 118 160 206 251 298 354
#     4  10  22  38  56  79 116 159 202 254 304 351
#     4  12  25  40  60  90 127 162 202 251 304 365
#     4  12  24  40  63  85 116 163 211 255 302 359
#
# _framework density 19.254798999999998
#
# number of rings (size 3 to 8) (size 9 to 14) (size 15 to 20)
#    0.000    1.250    2.500    4.875    1.750    2.000 
#    0.000    1.875    0.000    3.750    0.000    0.000 
#    0.000    0.000    0.000    0.000    0.000    0.000 
#
# Total GULP energy -178638.863732 kJ/mol
# GULP energy per Si atom -5582.464492 kJ/mol
# Density = 1.921097 g / cm^3
# Si number density = 19.254799 Si / 1000 Ang^3
#
#
#
# Elastic Constant Matrix: (Units=GPa)
#
#
# Indices 1 2 3 4 5 6 
#
# 1 56.0657 20.9208 39.1776 0.0000 0.0000 0.0000
# 2 20.9208 68.4966 42.5495 0.0000 0.0000 0.0000
# 3 39.1776 42.5495 109.5873 0.0000 0.0000 0.0000
# 4 0.0000 0.0000 0.0000 28.3156 0.0000 0.0000
# 5 0.0000 0.0000 0.0000 0.0000 36.5443 0.0000
# 6 0.0000 0.0000 0.0000 0.0000 0.0000 30.6648
#
#
#
# Elastic Compliance Matrix: (Units=1/GPa)
#
#
# Indices 1 2 3 4 5 6 
#
# 1 0.024136 -0.002651 -0.007599 0.000000 0.000000 0.000000
# 2 -0.002651 0.019531 -0.006635 0.000000 0.000000 0.000000
# 3 -0.007599 -0.006635 0.014418 0.000000 0.000000 0.000000
# 4 0.000000 0.000000 0.000000 0.035316 0.000000 0.000000
# 5 0.000000 0.000000 0.000000 0.000000 0.027364 0.000000
# 6 0.000000 0.000000 0.000000 0.000000 0.000000 0.032611
#
#
# Mechanical properties :
#
#
# Convention : Reuss Voigt Hill
#
# Bulk Modulus (GPa) = 41.13003 48.82727 44.97865
# Shear Modulus (GPa) = 25.60798 27.87172 26.73985
#
# Velocity S-wave (km/s) = 3.65081 3.80876 3.73062
# Velocity P-wave (km/s) = 6.25927 6.68997 6.47820
#
# Compressibility (1/GPa) = 0.02431314
#
# Stress axis : x y z
#
# Youngs Moduli (GPa) = 41.43252 51.20091 69.35683
#
# Poissons Ratio (x) = 0.13574 0.52705
# Poissons Ratio (y) = 0.10985 0.46021
# Poissons Ratio (z) = 0.31485 0.33974
#
# Static dielectric constant tensor:
#      x y z
#    x 1.659230 0.000000 0.000000 
#    y 0.000000 1.658280 0.000000 
#    z 0.000000 0.000000 1.736200 
# 
# From -- ./inp_files/15118.got.cif
#   From: 2010.05.17/outbox.cif.g08.bks.cpg/sg44_8_cif.got.tgz:15118.got - 2010.06.03 19:37:08.
