data_PCOD9375764
_publ_section_title
;
Structure prediction by ZEFSAII (Michael W. Deem and Ramdas Pophale) SiO2 
 PCOD9375764
Probable space group: I M M 2
;
_chemical_formula_sum "Si O2"
_cell_formula_units_Z 58
_cell_length_a 18.091851
_cell_length_b 8.040728
_cell_length_c 17.304923
_cell_angle_alpha 90.000000
_cell_angle_beta 90.000000
_cell_angle_gamma 90.000000
_cell_volume 2517.375752
_symmetry_space_group_name_H-M "I M M 2"
_symmetry_group_IT_number 44
_symmetry_cell_setting 'orthorhombic'
loop_
_space_group_symop_operation_xyz
x,y,z
-x,-y,z
-x,y,z
x,-y,z
1/2+x,1/2+y,1/2+z
1/2-x,1/2-y,1/2+z
1/2-x,1/2+y,1/2+z
1/2+x,1/2-y,1/2+z
loop_
_atom_site_type_symbol
_atom_site_label
_atom_site_fract_x
_atom_site_fract_y
_atom_site_fract_z
Si Si1 0.210711 0.806570 0.463750
Si Si2 0.080890 0.307081 0.855122
Si Si3 0.000000 0.000000 0.382405
Si Si4 0.868482 0.188879 0.013555
Si Si5 0.824183 0.803142 0.720607
Si Si6 0.659274 0.804596 0.677249
Si Si7 0.606784 0.809408 0.847064
Si Si8 0.584479 0.803894 0.078307
O O1 0.281510 0.723025 0.501795
O O2 0.186640 0.712082 0.386396
O O3 0.142200 0.786961 0.522660
O O4 0.226636 0.000000 0.449442
O O5 0.081384 0.500000 0.833636
O O6 0.147495 0.226205 0.807400
O O7 0.000000 0.235605 0.834880
O O8 0.092122 0.293510 0.947050
O O9 0.062408 0.150675 0.378111
O O10 0.880003 0.225160 0.103612
O O11 0.887489 0.000000 0.996519
O O12 0.742122 0.740123 0.697602
O O13 0.884806 0.722030 0.664282
O O14 0.824036 0.000000 0.706204
O O15 0.612431 0.790508 0.755248
O O16 0.667404 0.000000 0.658729
O O17 0.581943 0.000000 0.864075
O O18 0.500000 0.743752 0.069645
O O19 0.585796 0.000000 0.059758
#
# Coordination Sequence:
#
# PCOD9375764 Si02
#       8
#     8   8   2   8   8   8   8   8
#     4  12  24  42  67  99 136 179 229 280 342 414
#     4  11  25  45  68  96 135 180 225 279 347 414
#     4  12  26  48  68 106 136 184 234 288 348 422
#     4  12  25  42  70 101 135 176 226 286 344 412
#     4  11  22  40  68  98 132 173 223 278 335 406
#     4  10  23  44  68  98 133 176 227 285 343 404
#     4  11  25  46  71  99 139 183 232 289 349 416
#     4  11  24  39  59  93 136 179 221 273 337 405
#
# _framework density 23.039866
#
# number of rings (size 3 to 8) (size 9 to 14) (size 15 to 20)
#    0.000    0.828    2.069    5.172    1.931    5.517 
#    1.241    0.000    0.000    0.000    0.000    0.000 
#    0.000    0.000    0.000    0.000    0.000    0.000 
#
# Total GULP energy -161969.023882 kJ/mol
# GULP energy per Si atom -5585.138755 kJ/mol
# Density = 2.298743 g / cm^3
# Si number density = 23.039866 Si / 1000 Ang^3
#
#
#
# Elastic Constant Matrix: (Units=GPa)
#
#
# Indices 1 2 3 4 5 6 
#
# 1 51.1628 0.8591 -6.3248 0.0000 0.0000 0.0000
# 2 0.8591 88.8889 6.2296 0.0000 0.0000 0.0000
# 3 -6.3248 6.2296 93.6238 0.0000 0.0000 0.0000
# 4 0.0000 0.0000 0.0000 29.4975 0.0000 0.0000
# 5 0.0000 0.0000 0.0000 0.0000 -14.4043 0.0000
# 6 0.0000 0.0000 0.0000 0.0000 0.0000 38.4926
#
#
#
# Elastic Compliance Matrix: (Units=1/GPa)
#
#
# Indices 1 2 3 4 5 6 
#
# 1 0.019717 -0.000285 0.001351 0.000000 0.000000 0.000000
# 2 -0.000285 0.011307 -0.000772 0.000000 0.000000 0.000000
# 3 0.001351 -0.000772 0.010824 0.000000 0.000000 0.000000
# 4 0.000000 0.000000 0.000000 0.033901 0.000000 0.000000
# 5 0.000000 0.000000 0.000000 0.000000 -0.069424 0.000000
# 6 0.000000 0.000000 0.000000 0.000000 0.000000 0.025979
#
#
# Mechanical properties :
#
#
# Convention : Reuss Voigt Hill
#
# Bulk Modulus (GPa) = 23.56491 26.13371 24.84931
# Shear Modulus (GPa) = 109.02430 26.24461 67.63445
#
# Velocity S-wave (km/s) = 6.88641 3.37871 5.42394
# Velocity P-wave (km/s) = 8.57206 5.15639 7.07349
#
# Compressibility (1/GPa) = 0.04243598
#
# Stress axis : x y z
#
# Youngs Moduli (GPa) = 50.71705 88.44215 92.39023
#
# Poissons Ratio (x) = 0.02523 -0.12482
# Poissons Ratio (y) = 0.01447 0.07129
# Poissons Ratio (z) = -0.06852 0.06824
#
# Static dielectric constant tensor:
#      x y z
#    x 1.936720 0.000000 0.000000 
#    y 0.000000 1.803000 0.000000 
#    z 0.000000 0.000000 1.896570 
# 
# From -- ./inp_files/22132.got.cif
#   From: 2010.05.17/outbox.cif.g08.bks.cpg/sg44_12_cif.got.tgz:22132.got - 2010.06.03 19:37:08.
