data_PCOD9375487
_publ_section_title
;
Structure prediction by ZEFSAII (Michael W. Deem and Ramdas Pophale) SiO2 
 PCOD9375487
Probable space group: I M M 2
;
_chemical_formula_sum "Si O2"
_cell_formula_units_Z 48
_cell_length_a 7.880175
_cell_length_b 23.123824
_cell_length_c 12.029417
_cell_angle_alpha 90.000000
_cell_angle_beta 90.000000
_cell_angle_gamma 90.000000
_cell_volume 2191.997717
_symmetry_space_group_name_H-M "I M M 2"
_symmetry_group_IT_number 44
_symmetry_cell_setting 'orthorhombic'
loop_
_space_group_symop_operation_xyz
x,y,z
-x,-y,z
-x,y,z
x,-y,z
1/2+x,1/2+y,1/2+z
1/2-x,1/2-y,1/2+z
1/2-x,1/2+y,1/2+z
1/2+x,1/2-y,1/2+z
loop_
_atom_site_type_symbol
_atom_site_label
_atom_site_fract_x
_atom_site_fract_y
_atom_site_fract_z
Si Si1 0.301219 0.065537 0.051770
Si Si2 0.303798 0.366219 0.151584
Si Si3 0.200898 0.242897 0.085469
Si Si4 0.700437 0.065308 0.446623
Si Si5 0.802050 0.649462 0.760483
Si Si6 0.694455 0.340395 0.391682
O O1 0.500000 0.066773 0.018941
O O2 0.290543 0.099620 0.167091
O O3 0.246286 0.000000 0.064652
O O4 0.198031 0.100564 0.960970
O O5 0.500000 0.383334 0.165693
O O6 0.290789 0.303931 0.093419
O O7 0.224836 0.353642 0.272875
O O8 0.220300 0.413875 0.073106
O O9 0.225065 0.205177 0.198319
O O10 0.000000 0.252314 0.071146
O O11 0.266611 0.206158 0.979263
O O12 0.500000 0.062738 0.419302
O O13 0.771130 0.117291 0.369003
O O14 0.768555 0.000000 0.429235
O O15 0.000000 0.664278 0.781204
O O16 0.500000 0.322020 0.369773
#
# Coordination Sequence:
#
# PCOD9375487 Si02
#       6
#     8   8   8   8   8   8
#     4   9  17  31  55  85 112 141 182 230 276 328
#     4  11  24  40  58  82 114 154 194 238 292 349
#     4  10  21  38  60  86 113 145 190 241 293 350
#     4  10  22  40  61  86 119 160 201 240 289 349
#     4   9  18  35  59  86 117 151 187 234 290 343
#     4   9  21  39  55  76 110 147 184 228 284 344
#
# _framework density 21.897832999999999
#
# number of rings (size 3 to 8) (size 9 to 14) (size 15 to 20)
#    0.000    2.333    0.000    1.500    2.333    6.000 
#    0.000    3.333    0.000    3.000    0.000    0.000 
#    0.000    0.000    0.000    0.000    0.000    0.000 
#
# Total GULP energy -133907.956959 kJ/mol
# GULP energy per Si atom -5579.498207 kJ/mol
# Density = 2.184799 g / cm^3
# Si number density = 21.897833 Si / 1000 Ang^3
#
#
#
# Elastic Constant Matrix: (Units=GPa)
#
#
# Indices 1 2 3 4 5 6 
#
# 1 25.2419 -4.1843 6.1630 0.0000 0.0000 0.0000
# 2 -4.1843 55.7726 5.4892 0.0000 0.0000 0.0000
# 3 6.1630 5.4892 95.9575 0.0000 0.0000 0.0000
# 4 0.0000 0.0000 0.0000 12.0951 0.0000 0.0000
# 5 0.0000 0.0000 0.0000 0.0000 24.6729 0.0000
# 6 0.0000 0.0000 0.0000 0.0000 0.0000 1.4950
#
#
#
# Elastic Compliance Matrix: (Units=1/GPa)
#
#
# Indices 1 2 3 4 5 6 
#
# 1 0.040858 0.003342 -0.002815 0.000000 0.000000 0.000000
# 2 0.003342 0.018305 -0.001262 0.000000 0.000000 0.000000
# 3 -0.002815 -0.001262 0.010674 0.000000 0.000000 0.000000
# 4 0.000000 0.000000 0.000000 0.082678 0.000000 0.000001
# 5 0.000000 0.000000 0.000000 0.000000 0.040530 0.000000
# 6 0.000000 0.000000 0.000000 0.000001 0.000000 0.668892
#
#
# Mechanical properties :
#
#
# Convention : Reuss Voigt Hill
#
# Bulk Modulus (GPa) = 14.62674 21.32306 17.97490
# Shear Modulus (GPa) = 5.64209 18.95289 12.29749
#
# Velocity S-wave (km/s) = 1.60691 2.94515 2.37235
# Velocity P-wave (km/s) = 3.18385 4.61778 3.96616
#
# Compressibility (1/GPa) = 0.06836795
#
# Stress axis : x y z
#
# Youngs Moduli (GPa) = 24.47495 54.63015 93.68314
#
# Poissons Ratio (x) = -0.18260 0.26375
# Poissons Ratio (y) = -0.08181 0.11821
# Poissons Ratio (z) = 0.06891 0.06893
#
# Static dielectric constant tensor:
#      x y z
#    x 1.804820 0.000000 0.000000 
#    y 0.000000 1.783120 0.000000 
#    z 0.000000 0.000000 1.839400 
# 
# From -- ./inp_files/11151.got.cif
#   From: 2010.05.17/outbox.cif.g08.bks.cpg/sg44_6_cif.got.tgz:11151.got - 2010.06.03 19:37:08.
