data_PCOD9375948
_publ_section_title
;
Structure prediction by ZEFSAII (Michael W. Deem and Ramdas Pophale) SiO2 
 PCOD9375948
Probable space group: I M M 2
;
_chemical_formula_sum "Si O2"
_cell_formula_units_Z 32
_cell_length_a 9.000000
_cell_length_b 27.000000
_cell_length_c 18.000000
_cell_angle_alpha 90.000000
_cell_angle_beta 90.000000
_cell_angle_gamma 90.000000
_cell_volume 4374.000000
_symmetry_space_group_name_H-M "I M M 2"
_symmetry_group_IT_number 44
_symmetry_cell_setting 'orthorhombic'
loop_
_space_group_symop_operation_xyz
x,y,z
-x,-y,z
-x,y,z
x,-y,z
1/2+x,1/2+y,1/2+z
1/2-x,1/2-y,1/2+z
1/2-x,1/2+y,1/2+z
1/2+x,1/2-y,1/2+z
loop_
_atom_site_type_symbol
_atom_site_label
_atom_site_fract_x
_atom_site_fract_y
_atom_site_fract_z
Si Si1 0.177102 0.058113 0.547940
Si Si2 0.825028 0.440940 0.205216
Si Si3 0.825380 0.143152 0.437223
Si Si4 0.177076 0.702966 0.414465
Si Si5 0.824140 0.268441 0.205365
Si Si6 0.322132 0.641951 0.298372
Si Si7 0.671514 0.734850 0.051781
Si Si8 0.676977 0.207104 0.321796
O O1 0.264123 0.071592 0.622975
O O2 0.218911 0.093104 0.479413
O O3 0.000000 0.065314 0.561238
O O4 0.202097 0.000000 0.532836
O O5 0.805939 0.500000 0.214848
O O6 0.733619 0.409611 0.264856
O O7 0.000000 0.429198 0.210326
O O8 0.812019 0.187186 0.498181
O O9 0.731357 0.158656 0.365544
O O10 0.000000 0.140783 0.417017
O O11 0.249997 0.654622 0.378424
O O12 0.194818 0.716679 0.500623
O O13 0.260510 0.747723 0.372202
O O14 0.000000 0.704769 0.398779
O O15 0.744254 0.315702 0.243525
O O16 0.782902 0.268369 0.119403
O O17 0.755146 0.219547 0.243964
O O18 0.000000 0.271126 0.217938
O O19 0.500000 0.645248 0.300647
O O20 0.500000 0.734712 0.078631
O O21 0.500000 0.209244 0.315924
#
# Coordination Sequence:
#
# PCOD9375948 Si02
#       8
#     8   8   8   8   8   8   8   8
#     4   9  17  29  45  64  86 113 144 178 215 252
#     4  10  20  32  45  62  85 112 144 181 215 247
#     4   9  17  29  43  59  83 113 143 174 209 248
#     4   9  17  30  45  60  82 109 137 171 210 249
#     4  11  20  29  43  62  86 113 142 175 210 250
#     4  11  20  30  45  62  84 113 145 177 209 250
#     4   9  17  28  42  61  85 113 142 173 209 248
#     4  10  18  28  42  59  81 108 141 176 209 248
#
# _framework density 7.3159580000000002
#
# number of rings (size 3 to 8) (size 9 to 14) (size 15 to 20)
#    0.000    2.250    0.000    7.125    0.000    4.750 
#    0.000    0.000    0.000    0.000    0.000    0.000 
#    0.000    1.000    0.000    6.500    0.000    3.625 
#
# Total GULP energy -178334.382143 kJ/mol
# GULP energy per Si atom -5572.949442 kJ/mol
# Density = 0.729931 g / cm^3
# Si number density = 7.315958 Si / 1000 Ang^3
#
#
#
# Elastic Constant Matrix: (Units=GPa)
#
#
# Indices 1 2 3 4 5 6 
#
# 1 95.4569 23.1657 24.1574 0.0000 0.0000 0.0000
# 2 23.1657 38.1322 10.7746 -0.0001 0.0000 0.0000
# 3 24.1574 10.7746 25.8071 -0.0003 0.0000 0.0000
# 4 0.0000 -0.0001 -0.0003 26.8871 0.0000 0.0000
# 5 0.0000 0.0000 0.0000 0.0000 24.7490 0.0000
# 6 0.0000 0.0000 0.0000 0.0000 0.0000 18.3014
#
#
#
# Elastic Compliance Matrix: (Units=1/GPa)
#
#
# Indices 1 2 3 4 5 6 
#
# 1 0.014759 -0.005739 -0.011419 0.000000 0.000000 0.000000
# 2 -0.005739 0.031964 -0.007973 0.000000 0.000000 0.000000
# 3 -0.011419 -0.007973 0.052767 0.000001 0.000000 0.000000
# 4 0.000000 0.000000 0.000001 0.037192 0.000000 0.000000
# 5 0.000000 0.000000 0.000000 0.000000 0.040406 0.000000
# 6 0.000000 0.000000 0.000000 0.000000 0.000000 0.054641
#
#
# Mechanical properties :
#
#
# Convention : Reuss Voigt Hill
#
# Bulk Modulus (GPa) = 20.31391 30.62127 25.46759
# Shear Modulus (GPa) = 16.75608 20.74074 18.74841
#
# Velocity S-wave (km/s) = 3.38771 3.76905 3.58346
# Velocity P-wave (km/s) = 5.40514 6.31777 5.87919
#
# Compressibility (1/GPa) = 0.04922734
#
# Stress axis : x y z
#
# Youngs Moduli (GPa) = 67.75720 31.28513 18.95139
#
# Poissons Ratio (x) = 0.17956 0.21640
# Poissons Ratio (y) = 0.38889 0.15109
# Poissons Ratio (z) = 0.77371 0.24942
#
# Static dielectric constant tensor:
#      x y z
#    x 1.486140 0.000000 0.000000 
#    y 0.000000 1.496140 0.000000 
#    z 0.000000 0.000000 1.502360 
# 
# From -- ./inp_files/20916.got.cif
#   From: 2010.05.17/outbox.ucp.g08.bks.cvg/sg44_11_cif.got.tgz:20916.got - 2010.06.11 16:32:36.
