data_PCOD9375484
_publ_section_title
;
Structure prediction by ZEFSAII (Michael W. Deem and Ramdas Pophale) SiO2 
 PCOD9375484
Probable space group: I M M 2
;
_chemical_formula_sum "Si O2"
_cell_formula_units_Z 40
_cell_length_a 8.864390
_cell_length_b 26.350848
_cell_length_c 9.131009
_cell_angle_alpha 90.000000
_cell_angle_beta 90.000000
_cell_angle_gamma 90.000000
_cell_volume 2132.859373
_symmetry_space_group_name_H-M "I M M 2"
_symmetry_group_IT_number 44
_symmetry_cell_setting 'orthorhombic'
loop_
_space_group_symop_operation_xyz
x,y,z
-x,-y,z
-x,y,z
x,-y,z
1/2+x,1/2+y,1/2+z
1/2-x,1/2-y,1/2+z
1/2-x,1/2+y,1/2+z
1/2+x,1/2-y,1/2+z
loop_
_atom_site_type_symbol
_atom_site_label
_atom_site_fract_x
_atom_site_fract_y
_atom_site_fract_z
Si Si1 0.679742 0.000000 0.883200
Si Si2 0.181875 0.903081 0.721618
Si Si3 0.318372 0.500000 0.706133
Si Si4 0.818322 0.102565 0.379776
Si Si5 0.680815 0.801115 0.215388
Si Si6 0.318288 0.700008 0.392282
O O1 0.741817 0.049597 0.800779
O O2 0.500000 0.000000 0.882984
O O3 0.740839 0.000000 0.048825
O O4 0.223417 0.900366 0.550626
O O5 0.221877 0.850783 0.803089
O O6 0.000000 0.909296 0.729912
O O7 0.500000 0.500000 0.685574
O O8 0.278785 0.550394 0.797237
O O9 0.742834 0.150102 0.300709
O O10 0.000000 0.108449 0.371916
O O11 0.500000 0.802838 0.210090
O O12 0.726194 0.749973 0.301501
O O13 0.744974 0.800249 0.051634
O O14 0.500000 0.700486 0.408344
#
# Coordination Sequence:
#
# PCOD9375484 Si02
#       6
#     4   8   4   8   8   8
#     4  12  25  38  56  86 120 150 185 238 296 338
#     4  10  21  40  63  84 111 152 198 235 275 340
#     4  10  21  38  60  84 112 152 197 234 276 340
#     4  10  21  39  63  87 113 150 194 237 282 338
#     4  11  23  38  59  88 119 150 188 238 290 337
#     4  10  22  39  59  84 115 153 194 234 280 340
#
# _framework density 18.754165
#
# number of rings (size 3 to 8) (size 9 to 14) (size 15 to 20)
#    0.000    1.600    0.000    4.500    0.000   12.000 
#    0.000    1.000    0.000    0.000    0.000    0.000 
#    0.000    0.000    0.000    0.000    0.000    0.000 
#
# Total GULP energy -111842.404269 kJ/mol
# GULP energy per Si atom -5592.120213 kJ/mol
# Density = 1.871148 g / cm^3
# Si number density = 18.754165 Si / 1000 Ang^3
#
#
#
# Elastic Constant Matrix: (Units=GPa)
#
#
# Indices 1 2 3 4 5 6 
#
# 1 33.4948 73.1199 71.7714 -0.0002 0.0000 -0.0002
# 2 73.1199 234.2427 147.2045 0.0001 -0.0003 0.0000
# 3 71.7714 147.2045 239.4698 0.0034 0.0022 -0.0006
# 4 -0.0002 0.0001 0.0034 42.4831 0.0003 0.0001
# 5 0.0000 -0.0003 0.0022 0.0003 24.8414 -0.0003
# 6 -0.0002 0.0000 -0.0006 0.0001 -0.0003 23.8121
#
#
#
# Elastic Compliance Matrix: (Units=1/GPa)
#
#
# Indices 1 2 3 4 5 6 
#
# 1 0.163040 -0.032892 -0.028646 0.000003 0.000002 0.000000
# 2 -0.032892 0.013592 0.001503 0.000000 0.000000 0.000000
# 3 -0.028646 0.001503 0.011837 -0.000001 -0.000001 0.000000
# 4 0.000003 0.000000 -0.000001 0.023539 0.000000 0.000000
# 5 0.000002 0.000000 -0.000001 0.000000 0.040255 0.000000
# 6 0.000000 0.000000 0.000000 0.000000 0.000000 0.041995
#
#
# Mechanical properties :
#
#
# Convention : Reuss Voigt Hill
#
# Bulk Modulus (GPa) = 14.61989 121.26655 67.94322
# Shear Modulus (GPa) = 11.43830 32.56809 22.00319
#
# Velocity S-wave (km/s) = 2.47231 4.17175 3.42898
# Velocity P-wave (km/s) = 3.99527 9.38116 7.21001
#
# Compressibility (1/GPa) = 0.06839995
#
# Stress axis : x y z
#
# Youngs Moduli (GPa) = 6.13347 73.57293 84.47793
#
# Poissons Ratio (x) = 2.41995 2.41992
# Poissons Ratio (y) = 0.20174 -0.12696
# Poissons Ratio (z) = 0.17570 -0.11057
#
# Static dielectric constant tensor:
#      x y z
#    x 1.629010 0.000000 0.000000 
#    y 0.000000 1.618800 0.000000 
#    z 0.000000 0.000000 1.608290 
# 
# From -- ./inp_files/4629.got.cif
#   From: 2010.05.17/outbox.cif.g08.bks.cpg/sg44_3_cif.got.tgz:4629.got - 2010.06.03 19:37:08.
