data_PCOD9375137
_publ_section_title
;
Structure prediction by ZEFSAII (Michael W. Deem and Ramdas Pophale) SiO2 
 PCOD9375137
Probable space group: I M M 2
;
_chemical_formula_sum "Si O2"
_cell_formula_units_Z 64
_cell_length_a 14.771755
_cell_length_b 18.814128
_cell_length_c 11.677198
_cell_angle_alpha 90.000000
_cell_angle_beta 90.000000
_cell_angle_gamma 90.000000
_cell_volume 3245.299886
_symmetry_space_group_name_H-M "I M M 2"
_symmetry_group_IT_number 44
_symmetry_cell_setting 'orthorhombic'
loop_
_space_group_symop_operation_xyz
x,y,z
-x,-y,z
-x,y,z
x,-y,z
1/2+x,1/2+y,1/2+z
1/2-x,1/2-y,1/2+z
1/2-x,1/2+y,1/2+z
1/2+x,1/2-y,1/2+z
loop_
_atom_site_type_symbol
_atom_site_label
_atom_site_fract_x
_atom_site_fract_y
_atom_site_fract_z
Si Si1 0.221607 0.200433 0.358580
Si Si2 0.108015 0.077280 0.786799
Si Si3 0.893686 0.271530 0.168627
Si Si4 0.609552 0.079344 0.769506
Si Si5 0.816454 0.178588 0.976315
Si Si6 0.391565 0.340697 0.066952
Si Si7 0.331351 0.082346 0.035833
Si Si8 0.897661 0.306047 0.708908
O O1 0.154965 0.218392 0.255620
O O2 0.237011 0.275230 0.421759
O O3 0.170781 0.154717 0.454861
O O4 0.319297 0.181635 0.303536
O O5 0.133509 0.138442 0.874946
O O6 0.133555 0.099208 0.658781
O O7 0.000000 0.073376 0.787573
O O8 0.145920 0.000000 0.819908
O O9 0.860583 0.352367 0.194180
O O10 0.000000 0.271557 0.189250
O O11 0.872975 0.236372 0.046474
O O12 0.500000 0.080013 0.770648
O O13 0.637750 0.000000 0.729615
O O14 0.641647 0.086938 0.901398
O O15 0.768138 0.117150 0.049309
O O16 0.500000 0.343721 0.040445
O O17 0.377583 0.266464 0.137329
O O18 0.393137 0.130250 0.117308
O O19 0.334083 0.000000 0.067738
O O20 0.000000 0.299653 0.755834
#
# Coordination Sequence:
#
# PCOD9375137 Si02
#       8
#     8   8   8   8   8   8   8   8
#     4  12  21  37  61  89 124 157 201 251 306 364
#     4  10  22  41  64  91 122 158 205 258 311 363
#     4  11  22  37  61  94 127 164 202 247 308 371
#     4   9  18  34  58  91 125 156 198 252 308 365
#     4  12  22  36  59  93 126 160 200 252 302 369
#     4  10  20  37  63  91 120 159 206 254 303 363
#     4  11  21  35  58  88 123 163 207 254 307 359
#     4  11  22  38  59  87 123 164 209 254 303 366
#
# _framework density 19.720828000000001
#
# number of rings (size 3 to 8) (size 9 to 14) (size 15 to 20)
#    0.000    1.250    5.000    1.500    0.000    3.250 
#    0.000    0.625    0.000    0.750    0.000    1.750 
#    0.000    0.000    0.000    0.000    0.000    0.000 
#
# Total GULP energy -178527.621322 kJ/mol
# GULP energy per Si atom -5578.988166 kJ/mol
# Density = 1.967594 g / cm^3
# Si number density = 19.720828 Si / 1000 Ang^3
#
#
#
# Elastic Constant Matrix: (Units=GPa)
#
#
# Indices 1 2 3 4 5 6 
#
# 1 79.2520 8.6412 39.9917 0.0000 0.0000 0.0000
# 2 8.6412 82.2690 35.3516 0.0000 0.0000 0.0000
# 3 39.9917 35.3516 89.8323 0.0000 0.0000 0.0000
# 4 0.0000 0.0000 0.0000 24.0572 0.0000 0.0000
# 5 0.0000 0.0000 0.0000 0.0000 35.5656 0.0000
# 6 0.0000 0.0000 0.0000 0.0000 0.0000 16.2046
#
#
#
# Elastic Compliance Matrix: (Units=1/GPa)
#
#
# Indices 1 2 3 4 5 6 
#
# 1 0.016471 0.001710 -0.008006 0.000000 0.000000 0.000000
# 2 0.001710 0.014807 -0.006588 0.000000 0.000000 0.000000
# 3 -0.008006 -0.006588 0.017288 0.000000 0.000000 0.000000
# 4 0.000000 0.000000 0.000000 0.041568 0.000000 0.000000
# 5 0.000000 0.000000 0.000000 0.000000 0.028117 0.000000
# 6 0.000000 0.000000 0.000000 0.000000 0.000000 0.061711
#
#
# Mechanical properties :
#
#
# Convention : Reuss Voigt Hill
#
# Bulk Modulus (GPa) = 43.86186 46.59136 45.22661
# Shear Modulus (GPa) = 23.43798 26.32340 24.88069
#
# Velocity S-wave (km/s) = 3.45119 3.65746 3.55582
# Velocity P-wave (km/s) = 6.17823 6.44304 6.31203
#
# Compressibility (1/GPa) = 0.02279885
#
# Stress axis : x y z
#
# Youngs Moduli (GPa) = 60.71163 67.53754 57.84218
#
# Poissons Ratio (x) = -0.11549 0.46307
# Poissons Ratio (y) = -0.10382 0.38107
# Poissons Ratio (z) = 0.48604 0.44494
#
# Static dielectric constant tensor:
#      x y z
#    x 1.747430 0.000000 0.000000 
#    y 0.000000 1.719900 0.000000 
#    z 0.000000 0.000000 1.720060 
# 
# From -- ./inp_files/13466.got.cif
#   From: 2010.05.17/outbox.cif.g08.bks.cpg/sg44_7_cif.got.tgz:13466.got - 2010.06.03 19:37:08.
