data_PCOD9375728
_publ_section_title
;
Structure prediction by ZEFSAII (Michael W. Deem and Ramdas Pophale) SiO2 
 PCOD9375728
Probable space group: I M M 2
;
_chemical_formula_sum "Si O2"
_cell_formula_units_Z 58
_cell_length_a 8.059003
_cell_length_b 19.468563
_cell_length_c 16.950513
_cell_angle_alpha 90.000000
_cell_angle_beta 90.000000
_cell_angle_gamma 90.000000
_cell_volume 2659.488157
_symmetry_space_group_name_H-M "I M M 2"
_symmetry_group_IT_number 44
_symmetry_cell_setting 'orthorhombic'
loop_
_space_group_symop_operation_xyz
x,y,z
-x,-y,z
-x,y,z
x,-y,z
1/2+x,1/2+y,1/2+z
1/2-x,1/2-y,1/2+z
1/2-x,1/2+y,1/2+z
1/2+x,1/2-y,1/2+z
loop_
_atom_site_type_symbol
_atom_site_label
_atom_site_fract_x
_atom_site_fract_y
_atom_site_fract_z
Si Si1 0.808115 0.325094 0.680390
Si Si2 0.500000 0.000000 0.340017
Si Si3 0.798746 0.921456 0.037939
Si Si4 0.806431 0.319906 0.227810
Si Si5 0.309023 0.306579 0.988401
Si Si6 0.698079 0.422204 0.108333
Si Si7 0.806195 0.174474 0.905187
Si Si8 0.815369 0.896392 0.332025
O O1 0.768932 0.368965 0.602980
O O2 0.774393 0.243827 0.680655
O O3 0.698777 0.355963 0.750315
O O4 0.000000 0.335026 0.700155
O O5 0.349453 0.058014 0.338621
O O6 0.000000 0.919391 0.041459
O O7 0.745917 0.000000 0.052604
O O8 0.748777 0.893298 0.951897
O O9 0.732303 0.390797 0.194248
O O10 0.779873 0.312387 0.321569
O O11 0.000000 0.319090 0.210942
O O12 0.500000 0.290140 0.012125
O O13 0.217439 0.236102 0.968244
O O14 0.312509 0.344721 0.904815
O O15 0.237149 0.363698 0.048174
O O16 0.500000 0.425340 0.094904
O O17 0.762850 0.500000 0.097066
O O18 0.000000 0.168465 0.886864
O O19 0.000000 0.928716 0.334633
#
# Coordination Sequence:
#
# PCOD9375728 Si02
#       8
#     8   2   8   8   8   8   8   8
#     4  12  24  42  66  98 132 173 229 277 336 408
#     4  12  26  40  60 102 136 184 230 268 348 414
#     4  10  24  44  66  96 133 174 217 273 345 408
#     4  12  25  43  67  97 131 174 225 281 344 397
#     4  10  22  41  66  96 130 171 217 274 339 399
#     4  10  23  44  68  97 133 176 220 269 338 412
#     4  11  23  41  68  97 128 171 225 280 334 402
#     4  11  24  42  64  96 138 181 227 281 338 408
#
# _framework density 21.808706000000001
#
# number of rings (size 3 to 8) (size 9 to 14) (size 15 to 20)
#    0.000    1.103    2.069    3.931    2.897    4.966 
#    0.000    1.379    0.000    0.000    0.000    0.000 
#    0.000    0.000    0.000    0.000    0.000    0.000 
#
# Total GULP energy -161755.808015 kJ/mol
# GULP energy per Si atom -5577.786483 kJ/mol
# Density = 2.175907 g / cm^3
# Si number density = 21.808706 Si / 1000 Ang^3
#
#
#
# Elastic Constant Matrix: (Units=GPa)
#
#
# Indices 1 2 3 4 5 6 
#
# 1 86.4222 3.6515 3.0008 0.0000 0.0000 0.0000
# 2 3.6515 76.1972 46.4167 0.0000 0.0000 0.0000
# 3 3.0008 46.4167 80.8148 0.0000 0.0000 0.0000
# 4 0.0000 0.0000 0.0000 13.0778 0.0000 0.0000
# 5 0.0000 0.0000 0.0000 0.0000 24.2655 0.0000
# 6 0.0000 0.0000 0.0000 0.0000 0.0000 -46.6305
#
#
#
# Elastic Compliance Matrix: (Units=1/GPa)
#
#
# Indices 1 2 3 4 5 6 
#
# 1 0.011596 -0.000451 -0.000171 0.000000 0.000000 0.000000
# 2 -0.000451 0.020204 -0.011588 0.000000 0.000000 0.000000
# 3 -0.000171 -0.011588 0.019036 0.000000 0.000000 0.000000
# 4 0.000000 0.000000 0.000000 0.076465 0.000000 0.000000
# 5 0.000000 0.000000 0.000000 0.000000 0.041211 0.000000
# 6 0.000000 0.000000 0.000000 0.000000 0.000000 -0.021445
#
#
# Mechanical properties :
#
#
# Convention : Reuss Voigt Hill
#
# Bulk Modulus (GPa) = 37.85668 38.84135 38.34901
# Shear Modulus (GPa) = 27.73256 10.83357 19.28306
#
# Velocity S-wave (km/s) = 3.56986 2.23122 2.97676
# Velocity P-wave (km/s) = 5.86413 4.94838 5.42561
#
# Compressibility (1/GPa) = 0.02641542
#
# Stress axis : x y z
#
# Youngs Moduli (GPa) = 86.23571 49.49423 52.53228
#
# Poissons Ratio (x) = 0.02234 0.00900
# Poissons Ratio (y) = 0.03892 0.60873
# Poissons Ratio (z) = 0.01478 0.57353
#
# Static dielectric constant tensor:
#      x y z
#    x 1.769960 0.000000 0.000000 
#    y 0.000000 1.808310 0.000000 
#    z 0.000000 0.000000 1.791670 
# 
# From -- ./inp_files/20590.got.cif
#   From: 2010.05.17/outbox.cif.g08.bks.cpg/sg44_11_cif.got.tgz:20590.got - 2010.06.03 19:37:08.
