data_PCOD9375850
_publ_section_title
;
Structure prediction by ZEFSAII (Michael W. Deem and Ramdas Pophale) SiO2 
 PCOD9375850
Probable space group: I M M 2
;
_chemical_formula_sum "Si O2"
_cell_formula_units_Z 64
_cell_length_a 15.233299
_cell_length_b 19.261768
_cell_length_c 10.990304
_cell_angle_alpha 90.000000
_cell_angle_beta 90.000000
_cell_angle_gamma 90.000000
_cell_volume 3224.777980
_symmetry_space_group_name_H-M "I M M 2"
_symmetry_group_IT_number 44
_symmetry_cell_setting 'orthorhombic'
loop_
_space_group_symop_operation_xyz
x,y,z
-x,-y,z
-x,y,z
x,-y,z
1/2+x,1/2+y,1/2+z
1/2-x,1/2-y,1/2+z
1/2-x,1/2+y,1/2+z
1/2+x,1/2-y,1/2+z
loop_
_atom_site_type_symbol
_atom_site_label
_atom_site_fract_x
_atom_site_fract_y
_atom_site_fract_z
Si Si1 0.400723 0.200406 0.907440
Si Si2 0.400719 0.580391 0.431251
Si Si3 0.397329 0.788354 0.377020
Si Si4 0.903401 0.134740 0.440507
Si Si5 0.848597 0.154078 0.704438
Si Si6 0.749650 0.644388 0.588734
Si Si7 0.275951 0.077995 0.328140
Si Si8 0.169595 0.715052 0.148513
O O1 0.500000 0.181016 0.944264
O O2 0.386034 0.189379 0.763558
O O3 0.391343 0.283373 0.915737
O O4 0.326679 0.166950 0.994927
O O5 0.500000 0.608526 0.434102
O O6 0.402991 0.500000 0.462957
O O7 0.361405 0.592247 0.298158
O O8 0.335395 0.620250 0.517431
O O9 0.500000 0.799991 0.355442
O O10 0.370668 0.723742 0.286517
O O11 0.341562 0.858695 0.358662
O O12 0.379432 0.775191 0.520576
O O13 0.904733 0.135695 0.586776
O O14 0.820987 0.094467 0.383101
O O15 0.000000 0.112752 0.393655
O O16 0.752013 0.163163 0.648126
O O17 0.774013 0.584319 0.681907
O O18 0.717578 0.710722 0.666612
O O19 0.302068 0.000000 0.365621
#
# Coordination Sequence:
#
# PCOD9375850 Si02
#       8
#     8   8   8   8   8   8   8   8
#     4  11  22  38  65  99 129 161 210 270 329 385
#     4  11  25  42  64  96 129 167 212 261 326 397
#     4  12  24  41  68 100 127 166 218 270 324 383
#     4  11  22  39  61  94 133 168 211 266 325 384
#     4  12  21  40  68  96 127 165 213 269 324 384
#     4  12  22  41  65  94 131 169 211 266 322 390
#     4  12  26  44  63  90 130 179 222 266 321 384
#     4  12  20  39  68  97 128 161 210 265 325 384
#
# _framework density 19.846328
#
# number of rings (size 3 to 8) (size 9 to 14) (size 15 to 20)
#    0.000    0.375    7.500    1.875    0.000    3.500 
#    0.000    0.000    0.000    1.125    0.000    0.000 
#    0.000    0.000    0.000    0.000    0.000    0.000 
#
# Total GULP energy -178449.622511 kJ/mol
# GULP energy per Si atom -5576.550703 kJ/mol
# Density = 1.980116 g / cm^3
# Si number density = 19.846328 Si / 1000 Ang^3
#
#
#
# Elastic Constant Matrix: (Units=GPa)
#
#
# Indices 1 2 3 4 5 6 
#
# 1 66.1726 34.2026 11.4804 0.0000 0.0000 0.0000
# 2 34.2026 63.8951 11.5277 0.0000 0.0000 0.0000
# 3 11.4804 11.5277 80.7968 0.0000 0.0000 0.0000
# 4 0.0000 0.0000 0.0000 17.9561 0.0000 0.0000
# 5 0.0000 0.0000 0.0000 0.0000 13.0599 0.0000
# 6 0.0000 0.0000 0.0000 0.0000 0.0000 20.9109
#
#
#
# Elastic Compliance Matrix: (Units=1/GPa)
#
#
# Indices 1 2 3 4 5 6 
#
# 1 0.021050 -0.011012 -0.001420 0.000000 0.000000 0.000000
# 2 -0.011012 0.021825 -0.001549 0.000000 0.000000 0.000000
# 3 -0.001420 -0.001549 0.012800 0.000000 0.000000 0.000000
# 4 0.000000 0.000000 0.000000 0.055691 0.000000 0.000000
# 5 0.000000 0.000000 0.000000 0.000000 0.076571 0.000000
# 6 0.000000 0.000000 0.000000 0.000000 0.000000 0.047822
#
#
# Mechanical properties :
#
#
# Convention : Reuss Voigt Hill
#
# Bulk Modulus (GPa) = 36.08475 36.14287 36.11381
# Shear Modulus (GPa) = 18.31791 20.62897 19.47344
#
# Velocity S-wave (km/s) = 3.04137 3.22752 3.13583
# Velocity P-wave (km/s) = 5.52764 5.66923 5.59888
#
# Compressibility (1/GPa) = 0.02771254
#
# Stress axis : x y z
#
# Youngs Moduli (GPa) = 47.50607 45.81979 78.12801
#
# Poissons Ratio (x) = 0.50455 0.11093
# Poissons Ratio (y) = 0.52312 0.12103
# Poissons Ratio (z) = 0.06745 0.07098
#
# Static dielectric constant tensor:
#      x y z
#    x 1.743120 0.000000 0.000000 
#    y 0.000000 1.704800 0.000000 
#    z 0.000000 0.000000 1.812760 
# 
# From -- ./inp_files/13448.got.cif
#   From: 2010.05.17/outbox.cif.g08.bks.cpg/sg44_7_cif.got.tgz:13448.got - 2010.06.03 19:37:08.
