data_PCOD9375647
_publ_section_title
;
Structure prediction by ZEFSAII (Michael W. Deem and Ramdas Pophale) SiO2 
 PCOD9375647
Probable space group: I M M 2
;
_chemical_formula_sum "Si O2"
_cell_formula_units_Z 48
_cell_length_a 8.838010
_cell_length_b 17.193197
_cell_length_c 17.219985
_cell_angle_alpha 90.000000
_cell_angle_beta 90.000000
_cell_angle_gamma 90.000000
_cell_volume 2616.639522
_symmetry_space_group_name_H-M "I M M 2"
_symmetry_group_IT_number 44
_symmetry_cell_setting 'orthorhombic'
loop_
_space_group_symop_operation_xyz
x,y,z
-x,-y,z
-x,y,z
x,-y,z
1/2+x,1/2+y,1/2+z
1/2-x,1/2-y,1/2+z
1/2-x,1/2+y,1/2+z
1/2+x,1/2-y,1/2+z
loop_
_atom_site_type_symbol
_atom_site_label
_atom_site_fract_x
_atom_site_fract_y
_atom_site_fract_z
Si Si1 0.181951 0.323357 0.183060
Si Si2 0.680581 0.353218 0.017327
Si Si3 0.181864 0.408836 0.343044
Si Si4 0.319578 0.000000 0.247574
Si Si5 0.318976 0.313044 0.483996
Si Si6 0.317861 0.000000 0.428230
Si Si7 0.180680 0.145361 0.158652
O O1 0.263806 0.355273 0.106655
O O2 0.221194 0.369525 0.260783
O O3 0.218859 0.231627 0.190013
O O4 0.000000 0.328782 0.170619
O O5 0.500000 0.356226 0.013490
O O6 0.740600 0.271195 0.983966
O O7 0.752658 0.424081 0.970334
O O8 0.219580 0.500000 0.342539
O O9 0.262995 0.364721 0.413002
O O10 0.000000 0.401360 0.352573
O O11 0.272558 0.000000 0.337731
O O12 0.259623 0.076504 0.204327
O O13 0.500000 0.000000 0.245129
O O14 0.500000 0.302500 0.482035
O O15 0.281017 0.352577 0.566993
O O16 0.500000 0.000000 0.433311
O O17 0.000000 0.135404 0.165375
#
# Coordination Sequence:
#
# PCOD9375647 Si02
#       7
#     8   8   8   4   8   4   8
#     4   9  20  40  63  89 121 162 199 241 303 366
#     4  11  23  40  64  93 120 156 203 252 301 357
#     4  10  22  38  60  93 126 159 200 248 301 355
#     4  11  25  39  59  90 119 150 199 251 300 349
#     4  10  22  41  63  88 120 163 203 245 302 361
#     4  11  25  43  61  88 125 162 197 245 306 363
#     4   9  20  39  61  84 117 159 200 239 296 360
#
# _framework density 18.344138999999998
#
# number of rings (size 3 to 8) (size 9 to 14) (size 15 to 20)
#    0.000    2.000    0.000    3.500    4.667    5.667 
#    0.000    0.000    0.000    0.000    0.000    0.000 
#    0.000    0.000    0.000    0.000    0.000    0.000 
#
# Total GULP energy -134101.957229 kJ/mol
# GULP energy per Si atom -5587.581551 kJ/mol
# Density = 1.830239 g / cm^3
# Si number density = 18.344139 Si / 1000 Ang^3
#
#
#
# Elastic Constant Matrix: (Units=GPa)
#
#
# Indices 1 2 3 4 5 6 
#
# 1 70.2142 74.6025 76.3603 0.0000 0.0000 0.0000
# 2 74.6025 156.3068 135.1885 0.0000 0.0000 0.0000
# 3 76.3603 135.1885 158.4736 0.0000 0.0000 0.0000
# 4 0.0000 0.0000 0.0000 27.4786 0.0000 0.0000
# 5 0.0000 0.0000 0.0000 0.0000 34.1512 0.0000
# 6 0.0000 0.0000 0.0000 0.0000 0.0000 30.7023
#
#
#
# Elastic Compliance Matrix: (Units=1/GPa)
#
#
# Indices 1 2 3 4 5 6 
#
# 1 0.032015 -0.007392 -0.009121 0.000000 0.000000 0.000000
# 2 -0.007392 0.026108 -0.018710 0.000000 0.000000 0.000000
# 3 -0.009121 -0.018710 0.026666 0.000000 0.000000 0.000000
# 4 0.000000 0.000000 0.000000 0.036392 0.000000 0.000000
# 5 0.000000 0.000000 0.000000 0.000000 0.029282 0.000000
# 6 0.000000 0.000000 0.000000 0.000000 0.000000 0.032571
#
#
# Mechanical properties :
#
#
# Convention : Reuss Voigt Hill
#
# Bulk Modulus (GPa) = 69.71692 106.36636 88.04164
# Shear Modulus (GPa) = 19.36044 25.05596 22.20820
#
# Velocity S-wave (km/s) = 3.25222 3.69980 3.48320
# Velocity P-wave (km/s) = 7.22427 8.73848 8.01720
#
# Compressibility (1/GPa) = 0.01434372
#
# Stress axis : x y z
#
# Youngs Moduli (GPa) = 31.23542 38.30300 37.50121
#
# Poissons Ratio (x) = 0.28312 0.34204
# Poissons Ratio (y) = 0.23088 0.70164
# Poissons Ratio (z) = 0.28489 0.71664
#
# Static dielectric constant tensor:
#      x y z
#    x 1.615570 0.000000 0.000000 
#    y 0.000000 1.603070 0.000000 
#    z 0.000000 0.000000 1.608260 
# 
# From -- ./inp_files/18834.got.cif
#   From: 2010.05.17/outbox.cif.g08.bks.cpg/sg44_10_cif.got.tgz:18834.got - 2010.06.03 19:37:08.
