data_PCOD9375302
_publ_section_title
;
Structure prediction by ZEFSAII (Michael W. Deem and Ramdas Pophale) SiO2 
 PCOD9375302
Probable space group: I M M 2
;
_chemical_formula_sum "Si O2"
_cell_formula_units_Z 48
_cell_length_a 9.269450
_cell_length_b 7.434772
_cell_length_c 35.414879
_cell_angle_alpha 90.000000
_cell_angle_beta 90.000000
_cell_angle_gamma 90.000000
_cell_volume 2440.660560
_symmetry_space_group_name_H-M "I M M 2"
_symmetry_group_IT_number 44
_symmetry_cell_setting 'orthorhombic'
loop_
_space_group_symop_operation_xyz
x,y,z
-x,-y,z
-x,y,z
x,-y,z
1/2+x,1/2+y,1/2+z
1/2-x,1/2-y,1/2+z
1/2-x,1/2+y,1/2+z
1/2+x,1/2-y,1/2+z
loop_
_atom_site_type_symbol
_atom_site_label
_atom_site_fract_x
_atom_site_fract_y
_atom_site_fract_z
Si Si1 0.838236 0.286749 0.825020
Si Si2 0.671046 0.500000 0.199999
Si Si3 0.329526 0.284812 0.559686
Si Si4 0.835886 0.716004 0.400196
Si Si5 0.170810 0.000000 0.610150
Si Si6 0.329707 0.716096 0.750643
Si Si7 0.666694 0.218517 0.984305
O O1 0.848940 0.500000 0.819560
O O2 0.767585 0.260605 0.865823
O O3 0.736277 0.224067 0.790998
O O4 0.000000 0.211199 0.822986
O O5 0.500000 0.500000 0.208069
O O6 0.691520 0.500000 0.155067
O O7 0.745535 0.326662 0.218895
O O8 0.500000 0.250106 0.561785
O O9 0.306755 0.500000 0.563744
O O10 0.267304 0.227268 0.518811
O O11 0.244905 0.172866 0.591053
O O12 0.841902 0.500000 0.401951
O O13 0.790730 0.778497 0.442100
O O14 0.000000 0.780112 0.393051
O O15 0.000000 0.000000 0.602181
O O16 0.500000 0.754236 0.749446
O O17 0.311382 0.500000 0.746401
O O18 0.500000 0.272560 0.990701
O O19 0.668586 0.000000 0.983943
#
# Coordination Sequence:
#
# PCOD9375302 Si02
#       7
#     8   4   8   8   4   8   8
#     4  10  21  36  53  77 112 152 194 240 289 343
#     4  11  25  43  65  93 123 155 195 247 303 361
#     4  10  21  38  62  90 121 158 197 246 304 356
#     4   9  18  32  52  79 110 147 193 242 288 342
#     4  11  25  43  63  91 123 157 201 245 293 363
#     4  10  22  41  65  90 118 157 200 244 296 358
#     4   8  15  31  54  79 110 151 198 242 287 347
#
# _framework density 19.666806000000001
#
# number of rings (size 3 to 8) (size 9 to 14) (size 15 to 20)
#    0.000    2.333    0.000    3.000    1.167    6.000 
#    1.500    5.000    0.000    0.000    0.000    0.000 
#    0.000    0.000    0.000    0.000    0.000    0.000 
#
# Total GULP energy -134013.047103 kJ/mol
# GULP energy per Si atom -5583.876963 kJ/mol
# Density = 1.962204 g / cm^3
# Si number density = 19.666806 Si / 1000 Ang^3
#
#
#
# Elastic Constant Matrix: (Units=GPa)
#
#
# Indices 1 2 3 4 5 6 
#
# 1 166.3536 56.6156 121.6042 0.0000 0.0000 0.0000
# 2 56.6156 79.1214 47.8166 0.0000 0.0000 0.0000
# 3 121.6042 47.8166 160.2059 0.0000 0.0000 0.0000
# 4 0.0000 0.0000 0.0000 37.3273 0.0000 0.0000
# 5 0.0000 0.0000 0.0000 0.0000 34.4346 0.0000
# 6 0.0000 0.0000 0.0000 0.0000 0.0000 24.6271
#
#
#
# Elastic Compliance Matrix: (Units=1/GPa)
#
#
# Indices 1 2 3 4 5 6 
#
# 1 0.014775 -0.004630 -0.009833 0.000000 0.000000 0.000000
# 2 -0.004630 0.016871 -0.001521 0.000000 0.000000 0.000000
# 3 -0.009833 -0.001521 0.014160 0.000000 0.000000 0.000000
# 4 0.000000 0.000000 0.000000 0.026790 0.000000 0.000000
# 5 0.000000 0.000000 0.000000 0.000000 0.029041 0.000000
# 6 0.000000 0.000000 0.000000 0.000000 0.000000 0.040606
#
#
# Mechanical properties :
#
#
# Convention : Reuss Voigt Hill
#
# Bulk Modulus (GPa) = 72.26699 95.30598 83.78649
# Shear Modulus (GPa) = 27.96071 31.25411 29.60741
#
# Velocity S-wave (km/s) = 3.77466 3.99078 3.88422
# Velocity P-wave (km/s) = 7.47147 8.35468 7.92539
#
# Compressibility (1/GPa) = 0.01383758
#
# Stress axis : x y z
#
# Youngs Moduli (GPa) = 67.68261 59.27339 70.62248
#
# Poissons Ratio (x) = 0.27441 0.69443
# Poissons Ratio (y) = 0.31335 0.10744
# Poissons Ratio (z) = 0.66553 0.09018
#
# Static dielectric constant tensor:
#      x y z
#    x 1.670210 0.000000 0.000000 
#    y 0.000000 1.729410 0.000000 
#    z 0.000000 0.000000 1.664580 
# 
# From -- ./inp_files/26981.got.cif
#   From: 2010.05.17/outbox.cif.g08.bks.cpg/sg44_14_cif.got.tgz:26981.got - 2010.06.03 19:37:08.
