data_PCOD9375820
_publ_section_title
;
Structure prediction by ZEFSAII (Michael W. Deem and Ramdas Pophale) SiO2 
 PCOD9375820
Probable space group: I M M 2
;
_chemical_formula_sum "Si O2"
_cell_formula_units_Z 58
_cell_length_a 15.356410
_cell_length_b 7.629814
_cell_length_c 24.452996
_cell_angle_alpha 90.000000
_cell_angle_beta 90.000000
_cell_angle_gamma 90.000000
_cell_volume 2865.073228
_symmetry_space_group_name_H-M "I M M 2"
_symmetry_group_IT_number 44
_symmetry_cell_setting 'orthorhombic'
loop_
_space_group_symop_operation_xyz
x,y,z
-x,-y,z
-x,y,z
x,-y,z
1/2+x,1/2+y,1/2+z
1/2-x,1/2-y,1/2+z
1/2-x,1/2+y,1/2+z
1/2+x,1/2-y,1/2+z
loop_
_atom_site_type_symbol
_atom_site_label
_atom_site_fract_x
_atom_site_fract_y
_atom_site_fract_z
Si Si1 0.600396 0.712084 0.756640
Si Si2 0.741110 0.796978 0.666504
Si Si3 0.000000 0.500000 0.059183
Si Si4 0.854708 0.190769 0.059184
Si Si5 0.099249 0.785982 0.736910
Si Si6 0.241108 0.296979 0.951864
Si Si7 0.899602 0.787916 0.861727
Si Si8 0.900753 0.214018 0.381459
O O1 0.500000 0.761288 0.744730
O O2 0.605176 0.500000 0.754288
O O3 0.666928 0.786853 0.713073
O O4 0.620480 0.766753 0.819004
O O5 0.704883 0.705794 0.612926
O O6 0.828885 0.724719 0.694147
O O7 0.756246 0.000000 0.652346
O O8 0.923962 0.346646 0.059183
O O9 0.897359 0.000000 0.059184
O O10 0.795114 0.205795 0.005443
O O11 0.120490 0.733247 0.799364
O O12 0.000000 0.732847 0.725027
O O13 0.101013 0.000000 0.736913
O O14 0.256247 0.500000 0.966022
O O15 0.166922 0.286855 0.905297
O O16 0.328881 0.224718 0.924218
O O17 0.000000 0.738715 0.873630
O O18 0.894821 0.000000 0.864080
O O19 0.000000 0.267154 0.393347
O O20 0.898989 0.000000 0.381456
#
# Coordination Sequence:
#
# PCOD9375820 Si02
#       8
#     8   8   2   8   8   8   8   8
#     4   9  18  32  53  83 116 156 203 248 308 370
#     4  11  21  36  57  85 120 158 208 257 301 369
#     4  12  26  52  68  94 122 152 222 244 292 376
#     4  12  27  45  66  91 126 164 198 254 308 356
#     4   8  16  33  57  84 116 157 205 258 310 361
#     4  11  21  36  57  85 120 158 208 257 301 369
#     4   9  18  32  53  83 116 156 203 248 308 370
#     4   8  16  33  57  84 116 157 205 258 310 361
#
# _framework density 20.24381
#
# number of rings (size 3 to 8) (size 9 to 14) (size 15 to 20)
#    0.000    2.207    1.379    3.517    1.931    0.552 
#    0.000    2.069    0.000   10.759    0.000    0.000 
#    0.000    0.000    0.000    0.000    0.000    0.000 
#
# Total GULP energy -161761.430734 kJ/mol
# GULP energy per Si atom -5577.980370 kJ/mol
# Density = 2.019773 g / cm^3
# Si number density = 20.243810 Si / 1000 Ang^3
#
#
#
# Elastic Constant Matrix: (Units=GPa)
#
#
# Indices 1 2 3 4 5 6 
#
# 1 115.9146 20.2195 99.7542 0.0000 0.0000 0.0000
# 2 20.2195 87.0834 25.6757 0.0000 0.0000 0.0000
# 3 99.7542 25.6757 126.0419 0.0000 0.0000 0.0000
# 4 0.0000 0.0000 0.0000 25.6463 0.0000 0.0000
# 5 0.0000 0.0000 0.0000 0.0000 -34.0109 0.0000
# 6 0.0000 0.0000 0.0000 0.0000 0.0000 2.8314
#
#
#
# Elastic Compliance Matrix: (Units=1/GPa)
#
#
# Indices 1 2 3 4 5 6 
#
# 1 0.027052 0.000033 -0.021417 0.000000 0.000000 0.000000
# 2 0.000033 0.012217 -0.002515 0.000000 0.000000 0.000000
# 3 -0.021417 -0.002515 0.025397 0.000000 0.000000 0.000000
# 4 0.000000 0.000000 0.000000 0.038992 0.000000 0.000000
# 5 0.000000 0.000000 0.000000 0.000000 -0.029402 0.000000
# 6 0.000000 0.000000 0.000000 0.000000 0.000000 0.353185
#
#
# Mechanical properties :
#
#
# Convention : Reuss Voigt Hill
#
# Bulk Modulus (GPa) = 59.28271 68.92653 64.10462
# Shear Modulus (GPa) = 10.39802 11.11939 10.75871
#
# Velocity S-wave (km/s) = 2.26882 2.34620 2.30784
# Velocity P-wave (km/s) = 6.01759 6.43907 6.23189
#
# Compressibility (1/GPa) = 0.01686832
#
# Stress axis : x y z
#
# Youngs Moduli (GPa) = 36.96525 81.85280 39.37545
#
# Poissons Ratio (x) = -0.00274 0.84331
# Poissons Ratio (y) = -0.00124 0.09904
# Poissons Ratio (z) = 0.79169 0.20587
#
# Static dielectric constant tensor:
#      x y z
#    x 1.697120 0.000000 0.000000 
#    y 0.000000 1.749740 0.000000 
#    z 0.000000 0.000000 1.686050 
# 
# From -- ./inp_files/25715.got.cif
#   From: 2010.05.17/outbox.cif.g08.bks.cpg/sg44_13_cif.got.tgz:25715.got - 2010.06.03 19:37:08.
