data_PCOD9375916
_publ_section_title
;
Structure prediction by ZEFSAII (Michael W. Deem and Ramdas Pophale) SiO2 
 PCOD9375916
Probable space group: I M M 2
;
_chemical_formula_sum "Si O2"
_cell_formula_units_Z 64
_cell_length_a 14.373445
_cell_length_b 7.304562
_cell_length_c 24.058287
_cell_angle_alpha 90.000000
_cell_angle_beta 90.000000
_cell_angle_gamma 90.000000
_cell_volume 2525.920936
_symmetry_space_group_name_H-M "I M M 2"
_symmetry_group_IT_number 44
_symmetry_cell_setting 'orthorhombic'
loop_
_space_group_symop_operation_xyz
x,y,z
-x,-y,z
-x,y,z
x,-y,z
1/2+x,1/2+y,1/2+z
1/2-x,1/2-y,1/2+z
1/2-x,1/2+y,1/2+z
1/2+x,1/2-y,1/2+z
loop_
_atom_site_type_symbol
_atom_site_label
_atom_site_fract_x
_atom_site_fract_y
_atom_site_fract_z
Si Si1 0.401743 0.211535 0.056160
Si Si2 0.856534 0.777197 0.272521
Si Si3 0.639926 0.291981 0.654880
Si Si4 0.815405 0.213621 0.916663
Si Si5 0.857378 0.791884 0.797150
Si Si6 0.308608 0.274576 0.537190
Si Si7 0.644758 0.722014 0.178971
Si Si8 0.400876 0.279743 0.895416
O O1 0.500000 0.295035 0.037077
O O2 0.404308 0.218903 0.122949
O O3 0.400242 0.000000 0.038170
O O4 0.299901 0.286931 0.040962
O O5 0.895785 0.712553 0.213278
O O6 0.752440 0.705801 0.282589
O O7 0.904071 0.730996 0.330193
O O8 0.853519 0.000000 0.269713
O O9 0.605751 0.500000 0.650941
O O10 0.636606 0.213385 0.592631
O O11 0.750439 0.291834 0.668345
O O12 0.857926 0.291722 0.859143
O O13 0.845306 0.283951 0.977012
O O14 0.701801 0.221363 0.915287
O O15 0.839720 0.000000 0.915434
O O16 0.893639 0.713517 0.738685
O O17 0.892017 0.000000 0.801330
O O18 0.307827 0.500000 0.539200
O O19 0.645899 0.500000 0.180363
O O20 0.500000 0.214330 0.919555
O O21 0.399404 0.500000 0.900267
#
# Coordination Sequence:
#
# PCOD9375916 Si02
#       8
#     8   8   8   8   8   8   8   8
#     4   9  17  28  39  51  70  96 124 151 175 200
#     4   8  13  22  37  52  65  86 115 144 176 212
#     4   8  13  23  38  53  67  85 114 148 180 212
#     4   9  16  26  39  53  70  94 123 148 170 202
#     4   8  14  23  35  52  71  88 109 142 180 211
#     4   8  14  24  38  54  70  90 118 150 176 200
#     4   9  15  23  36  53  71  89 112 144 182 217
#     4   9  17  27  36  49  72  98 121 146 175 204
#
# _framework density 25.337292000000001
#
# number of rings (size 3 to 8) (size 9 to 14) (size 15 to 20)
#    0.000    3.500    0.000    1.125    0.000    1.500 
#    0.000    3.750    0.000    0.000    0.000    0.000 
#    0.000    1.000    0.000   10.500    0.000   16.125 
#
# Total GULP energy -178234.820233 kJ/mol
# GULP energy per Si atom -5569.838132 kJ/mol
# Density = 2.527962 g / cm^3
# Si number density = 25.337292 Si / 1000 Ang^3
#
#
#
# Elastic Constant Matrix: (Units=GPa)
#
#
# Indices 1 2 3 4 5 6 
#
# 1 53.1604 -4.8660 1.3975 0.0000 0.0000 0.0000
# 2 -4.8660 113.1342 1.8038 0.0000 0.0000 0.0000
# 3 1.3975 1.8038 266.8962 0.0000 0.0000 0.0000
# 4 0.0000 0.0000 0.0000 5.6279 0.0000 0.0000
# 5 0.0000 0.0000 0.0000 0.0000 -28.5189 0.0000
# 6 0.0000 0.0000 0.0000 0.0000 0.0000 -17.4392
#
#
#
# Elastic Compliance Matrix: (Units=1/GPa)
#
#
# Indices 1 2 3 4 5 6 
#
# 1 0.018888 0.000814 -0.000104 0.000000 0.000000 0.000000
# 2 0.000814 0.008875 -0.000064 0.000000 0.000000 0.000000
# 3 -0.000104 -0.000064 0.003748 0.000000 0.000000 0.000000
# 4 0.000000 0.000000 0.000000 0.177686 0.000000 0.000000
# 5 0.000000 0.000000 0.000000 0.000000 -0.035064 0.000000
# 6 0.000000 0.000000 0.000000 0.000000 0.000000 -0.057342
#
#
# Mechanical properties :
#
#
# Convention : Reuss Voigt Hill
#
# Bulk Modulus (GPa) = 30.48599 47.76239 39.12419
# Shear Modulus (GPa) = 39.54654 20.92433 30.23543
#
# Velocity S-wave (km/s) = 3.95499 2.87685 3.45819
# Velocity P-wave (km/s) = 5.73708 5.47052 5.60538
#
# Compressibility (1/GPa) = 0.03280195
#
# Stress axis : x y z
#
# Youngs Moduli (GPa) = 52.94292 112.67481 266.82638
#
# Poissons Ratio (x) = -0.09172 0.02786
# Poissons Ratio (y) = -0.04310 0.01714
# Poissons Ratio (z) = 0.00553 0.00724
#
# Static dielectric constant tensor:
#      x y z
#    x 2.037710 0.000000 0.000000 
#    y 0.000000 1.957630 0.000000 
#    z 0.000000 0.000000 2.073510 
# 
# From -- ./inp_files/23451.got.cif
#   From: 2010.05.17/outbox.cif.g08.bks.cpg/sg44_12_cif.got.tgz:23451.got - 2010.06.03 19:37:08.
