data_PCOD9375328
_publ_section_title
;
Structure prediction by ZEFSAII (Michael W. Deem and Ramdas Pophale) SiO2 
 PCOD9375328
Probable space group: I M M 2
;
_chemical_formula_sum "Si O2"
_cell_formula_units_Z 48
_cell_length_a 16.845547
_cell_length_b 8.911066
_cell_length_c 18.733635
_cell_angle_alpha 90.000000
_cell_angle_beta 90.000000
_cell_angle_gamma 90.000000
_cell_volume 2812.139317
_symmetry_space_group_name_H-M "I M M 2"
_symmetry_group_IT_number 44
_symmetry_cell_setting 'orthorhombic'
loop_
_space_group_symop_operation_xyz
x,y,z
-x,-y,z
-x,y,z
x,-y,z
1/2+x,1/2+y,1/2+z
1/2-x,1/2-y,1/2+z
1/2-x,1/2+y,1/2+z
1/2+x,1/2-y,1/2+z
loop_
_atom_site_type_symbol
_atom_site_label
_atom_site_fract_x
_atom_site_fract_y
_atom_site_fract_z
Si Si1 0.836033 0.321478 0.992530
Si Si2 0.000000 0.821769 0.972820
Si Si3 0.000000 0.180519 0.805265
Si Si4 0.323334 0.320409 0.074645
Si Si5 0.653302 0.180127 0.229321
Si Si6 0.732771 0.319824 0.855260
Si Si7 0.592096 0.820503 0.938258
O O1 0.849154 0.500000 0.990475
O O2 0.797619 0.277329 0.916043
O O3 0.919013 0.241681 0.005299
O O4 0.767010 0.289525 0.049496
O O5 0.000000 0.778321 0.888898
O O6 0.000000 0.000000 0.977364
O O7 0.922766 0.248567 0.767733
O O8 0.000000 0.000000 0.799314
O O9 0.333871 0.500000 0.077934
O O10 0.339638 0.245784 0.150364
O O11 0.378901 0.254167 0.012272
O O12 0.729731 0.216069 0.278729
O O13 0.645075 0.000000 0.227416
O O14 0.721942 0.500000 0.860779
O O15 0.651422 0.240465 0.877509
O O16 0.500000 0.784347 0.924769
O O17 0.600113 0.000000 0.943986
#
# Coordination Sequence:
#
# PCOD9375328 Si02
#       7
#     8   4   4   8   8   8   8
#     4   9  18  35  55  76 106 144 181 217 267 323
#     4  11  21  31  53  85 111 136 177 226 267 311
#     4  11  23  35  51  83 117 146 177 216 271 325
#     4  10  22  38  56  80 110 146 182 221 273 327
#     4  11  22  37  57  81 112 147 181 222 272 325
#     4   9  19  35  56  80 106 142 182 221 271 322
#     4  10  21  36  56  82 109 141 182 226 271 319
#
# _framework density 17.068854999999999
#
# number of rings (size 3 to 8) (size 9 to 14) (size 15 to 20)
#    0.000    2.000    1.667    3.000    1.167    6.667 
#    0.000    0.000    1.833    0.000    0.000    0.000 
#    0.000    0.000    0.000    0.000    0.000    0.000 
#
# Total GULP energy -133971.893362 kJ/mol
# GULP energy per Si atom -5582.162223 kJ/mol
# Density = 1.703001 g / cm^3
# Si number density = 17.068855 Si / 1000 Ang^3
#
#
#
# Elastic Constant Matrix: (Units=GPa)
#
#
# Indices 1 2 3 4 5 6 
#
# 1 136.1163 55.9627 35.0110 0.0000 0.0000 0.0000
# 2 55.9627 52.5606 33.0699 0.0000 0.0000 0.0000
# 3 35.0110 33.0699 67.2565 0.0000 0.0000 0.0000
# 4 0.0000 0.0000 0.0000 26.3910 0.0000 0.0000
# 5 0.0000 0.0000 0.0000 0.0000 14.2677 0.0000
# 6 0.0000 0.0000 0.0000 0.0000 0.0000 28.8111
#
#
#
# Elastic Compliance Matrix: (Units=1/GPa)
#
#
# Indices 1 2 3 4 5 6 
#
# 1 0.013067 -0.013948 0.000056 0.000000 0.000000 0.000000
# 2 -0.013948 0.042436 -0.013605 0.000000 0.000000 0.000000
# 3 0.000056 -0.013605 0.021529 0.000000 0.000000 0.000000
# 4 0.000000 0.000000 0.000000 0.037892 0.000000 0.000000
# 5 0.000000 0.000000 0.000000 0.000000 0.070088 0.000000
# 6 0.000000 0.000000 0.000000 0.000000 0.000000 0.034709
#
#
# Mechanical properties :
#
#
# Convention : Reuss Voigt Hill
#
# Bulk Modulus (GPa) = 45.37585 56.00227 50.68906
# Shear Modulus (GPa) = 17.72670 22.68662 20.20666
#
# Velocity S-wave (km/s) = 3.22614 3.64967 3.44442
# Velocity P-wave (km/s) = 6.36545 7.11625 6.75129
#
# Compressibility (1/GPa) = 0.02203816
#
# Stress axis : x y z
#
# Youngs Moduli (GPa) = 76.53050 23.56477 46.44920
#
# Poissons Ratio (x) = 0.32868 -0.00261
# Poissons Ratio (y) = 1.06743 0.63195
# Poissons Ratio (z) = -0.00429 0.32060
#
# Static dielectric constant tensor:
#      x y z
#    x 1.566900 0.000000 0.000000 
#    y 0.000000 1.566860 0.000000 
#    z 0.000000 0.000000 1.557130 
# 
# From -- ./inp_files/20331.got.cif
#   From: 2010.05.17/outbox.cif.g08.bks.cpg/sg44_11_cif.got.tgz:20331.got - 2010.06.03 19:37:08.
