data_PCOD9375710
_publ_section_title
;
Structure prediction by ZEFSAII (Michael W. Deem and Ramdas Pophale) SiO2 
 PCOD9375710
Probable space group: I M M 2
;
_chemical_formula_sum "Si O2"
_cell_formula_units_Z 64
_cell_length_a 10.589752
_cell_length_b 28.323639
_cell_length_c 9.657747
_cell_angle_alpha 90.000000
_cell_angle_beta 90.000000
_cell_angle_gamma 90.000000
_cell_volume 2896.747656
_symmetry_space_group_name_H-M "I M M 2"
_symmetry_group_IT_number 44
_symmetry_cell_setting 'orthorhombic'
loop_
_space_group_symop_operation_xyz
x,y,z
-x,-y,z
-x,y,z
x,-y,z
1/2+x,1/2+y,1/2+z
1/2-x,1/2-y,1/2+z
1/2-x,1/2+y,1/2+z
1/2+x,1/2-y,1/2+z
loop_
_atom_site_type_symbol
_atom_site_label
_atom_site_fract_x
_atom_site_fract_y
_atom_site_fract_z
Si Si1 0.853226 0.446395 0.360360
Si Si2 0.766371 0.054839 0.387592
Si Si3 0.358850 0.402934 0.166459
Si Si4 0.139358 0.209529 0.669835
Si Si5 0.636715 0.150545 0.330030
Si Si6 0.133909 0.171969 0.128448
Si Si7 0.714588 0.754917 0.436819
Si Si8 0.359499 0.432370 0.576316
O O1 0.860661 0.500000 0.307237
O O2 0.761440 0.418384 0.256887
O O3 0.767904 0.448479 0.499791
O O4 0.000000 0.430010 0.377879
O O5 0.848387 0.069935 0.520186
O O6 0.663796 0.097616 0.383273
O O7 0.839035 0.059627 0.240641
O O8 0.724392 0.000000 0.400092
O O9 0.500000 0.413241 0.224743
O O10 0.349859 0.346432 0.150855
O O11 0.159818 0.233961 0.522634
O O12 0.230115 0.232288 0.785226
O O13 0.000000 0.220433 0.724679
O O14 0.500000 0.150968 0.261393
O O15 0.748767 0.165206 0.228418
O O16 0.643728 0.194572 0.435295
O O17 0.135130 0.123313 0.043920
O O18 0.000000 0.173653 0.206220
O O19 0.145400 0.215501 0.027047
O O20 0.500000 0.450576 0.539731
#
# Coordination Sequence:
#
# PCOD9375710 Si02
#       8
#     8   8   8   8   8   8   8   8
#     4  11  25  44  65  95 138 184 231 285 344 409
#     4  11  24  42  68 105 140 173 226 295 352 401
#     4  11  24  46  73 102 136 178 229 285 346 410
#     4  11  25  45  69 102 141 178 224 284 340 403
#     4  11  24  42  65  95 136 182 228 275 332 412
#     4  10  22  40  67  98 134 176 220 280 343 397
#     4  12  22  43  69 100 138 181 223 275 340 413
#     4  10  22  42  69 102 136 176 229 286 344 409
#
# _framework density 22.093741999999999
#
# number of rings (size 3 to 8) (size 9 to 14) (size 15 to 20)
#    0.000    1.125    2.500    3.375    0.000    8.750 
#    0.000    1.875    0.000    0.000    0.000    0.000 
#    0.000    0.000    0.000    0.000    0.000    0.000 
#
# Total GULP energy -178443.457022 kJ/mol
# GULP energy per Si atom -5576.358032 kJ/mol
# Density = 2.204346 g / cm^3
# Si number density = 22.093742 Si / 1000 Ang^3
#
#
#
# Elastic Constant Matrix: (Units=GPa)
#
#
# Indices 1 2 3 4 5 6 
#
# 1 167.6695 46.6719 47.7284 0.0000 0.0000 -0.0001
# 2 46.6719 179.2332 33.2109 -0.0005 0.0000 -0.0001
# 3 47.7284 33.2109 101.3963 -0.0012 0.0004 -0.0004
# 4 0.0000 -0.0005 -0.0012 28.4533 0.0001 -0.0002
# 5 0.0000 0.0000 0.0004 0.0001 23.6278 0.0002
# 6 -0.0001 -0.0001 -0.0004 -0.0002 0.0002 6.2230
#
#
#
# Elastic Compliance Matrix: (Units=1/GPa)
#
#
# Indices 1 2 3 4 5 6 
#
# 1 0.007169 -0.001322 -0.002942 0.000000 0.000000 0.000000
# 2 -0.001322 0.006184 -0.001403 0.000000 0.000000 0.000000
# 3 -0.002942 -0.001403 0.011707 0.000000 0.000000 0.000001
# 4 0.000000 0.000000 0.000000 0.035145 0.000000 0.000001
# 5 0.000000 0.000000 0.000000 0.000000 0.042323 -0.000001
# 6 0.000000 0.000000 0.000001 0.000001 -0.000001 0.160695
#
#
# Mechanical properties :
#
#
# Convention : Reuss Voigt Hill
#
# Bulk Modulus (GPa) = 72.85398 78.16906 75.51152
# Shear Modulus (GPa) = 17.91268 33.04001 25.47635
#
# Velocity S-wave (km/s) = 2.85047 3.87130 3.39942
# Velocity P-wave (km/s) = 6.62421 7.44581 7.04699
#
# Compressibility (1/GPa) = 0.01372609
#
# Stress axis : x y z
#
# Youngs Moduli (GPa) = 139.48064 161.72045 85.42186
#
# Poissons Ratio (x) = 0.21376 0.25129
# Poissons Ratio (y) = 0.18437 0.11986
# Poissons Ratio (z) = 0.41032 0.22691
#
# Static dielectric constant tensor:
#      x y z
#    x 1.821270 0.000000 0.000000 
#    y 0.000000 1.838670 0.000000 
#    z 0.000000 0.000000 1.851270 
# 
# From -- ./inp_files/6377.got.cif
#   From: 2010.05.17/outbox.cif.g08.bks.cpg/sg44_4_cif.got.tgz:6377.got - 2010.06.03 19:37:08.
