data_PCOD9375566
_publ_section_title
;
Structure prediction by ZEFSAII (Michael W. Deem and Ramdas Pophale) SiO2 
 PCOD9375566
Probable space group: I M M 2
;
_chemical_formula_sum "Si O2"
_cell_formula_units_Z 58
_cell_length_a 20.904212
_cell_length_b 14.345085
_cell_length_c 10.023219
_cell_angle_alpha 90.000000
_cell_angle_beta 90.000000
_cell_angle_gamma 90.000000
_cell_volume 3005.689724
_symmetry_space_group_name_H-M "I M M 2"
_symmetry_group_IT_number 44
_symmetry_cell_setting 'orthorhombic'
loop_
_space_group_symop_operation_xyz
x,y,z
-x,-y,z
-x,y,z
x,-y,z
1/2+x,1/2+y,1/2+z
1/2-x,1/2-y,1/2+z
1/2-x,1/2+y,1/2+z
1/2+x,1/2-y,1/2+z
loop_
_atom_site_type_symbol
_atom_site_label
_atom_site_fract_x
_atom_site_fract_y
_atom_site_fract_z
Si Si1 0.132154 0.280779 0.713580
Si Si2 0.258526 0.388518 0.618957
Si Si3 0.391572 0.397075 0.757529
Si Si4 0.925605 0.387959 0.962529
Si Si5 0.000000 0.000000 0.122818
Si Si6 0.293499 0.609997 0.311209
Si Si7 0.844788 0.388838 0.218351
Si Si8 0.572637 0.778395 0.925786
O O1 0.198223 0.333327 0.675397
O O2 0.096534 0.337286 0.828985
O O3 0.150863 0.178430 0.765851
O O4 0.090525 0.276302 0.580225
O O5 0.247131 0.500000 0.630966
O O6 0.323540 0.366778 0.699366
O O7 0.272236 0.369486 0.463294
O O8 0.383657 0.500000 0.822528
O O9 0.443194 0.419736 0.641784
O O10 0.418607 0.323146 0.860280
O O11 0.918568 0.500000 0.947246
O O12 0.000000 0.368901 0.992459
O O13 0.880776 0.356880 0.085056
O O14 0.309425 0.500000 0.303393
O O15 0.230790 0.629160 0.221093
O O16 0.852566 0.500000 0.228053
O O17 0.878741 0.343481 0.345130
O O18 0.500000 0.810487 0.906149
#
# Coordination Sequence:
#
# PCOD9375566 Si02
#       8
#     8   8   8   8   2   8   8   8
#     4  12  25  37  63  93 128 164 209 246 316 375
#     4  10  21  39  63  90 124 162 203 258 315 359
#     4   9  19  37  63  89 122 154 200 253 300 355
#     4  10  23  44  65  90 126 164 207 262 314 371
#     4   8  16  40  60  96 116 160 194 264 290 368
#     4  10  23  42  61  89 129 163 201 260 313 366
#     4  10  22  41  65  90 119 159 207 257 309 368
#     4  12  23  38  61  91 125 161 204 252 302 365
#
# _framework density 19.296735999999999
#
# number of rings (size 3 to 8) (size 9 to 14) (size 15 to 20)
#    0.414    1.241    2.069    2.069    3.862    1.931 
#    0.000    2.759    1.517    1.241    0.000    0.000 
#    0.000    0.000    0.000    0.000    0.000    0.000 
#
# Total GULP energy -161677.048025 kJ/mol
# GULP energy per Si atom -5575.070622 kJ/mol
# Density = 1.925282 g / cm^3
# Si number density = 19.296736 Si / 1000 Ang^3
#
#
#
# Elastic Constant Matrix: (Units=GPa)
#
#
# Indices 1 2 3 4 5 6 
#
# 1 36.3188 4.1340 -8.6039 0.0000 0.0000 0.0000
# 2 4.1340 28.7122 10.5280 0.0000 0.0000 0.0000
# 3 -8.6039 10.5280 59.5963 0.0000 0.0000 0.0000
# 4 0.0000 0.0000 0.0000 18.9362 0.0000 0.0000
# 5 0.0000 0.0000 0.0000 0.0000 22.1332 0.0000
# 6 0.0000 0.0000 0.0000 0.0000 0.0000 20.2325
#
#
#
# Elastic Compliance Matrix: (Units=1/GPa)
#
#
# Indices 1 2 3 4 5 6 
#
# 1 0.029511 -0.006214 0.005358 0.000000 0.000000 0.000000
# 2 -0.006214 0.038549 -0.007707 0.000000 0.000000 0.000000
# 3 0.005358 -0.007707 0.018915 0.000000 0.000000 0.000000
# 4 0.000000 0.000000 0.000000 0.052809 0.000000 0.000000
# 5 0.000000 0.000000 0.000000 0.000000 0.045181 0.000000
# 6 0.000000 0.000000 0.000000 0.000000 0.000000 0.049426
#
#
# Mechanical properties :
#
#
# Convention : Reuss Voigt Hill
#
# Bulk Modulus (GPa) = 14.31658 15.19374 14.75516
# Shear Modulus (GPa) = 18.19523 20.16500 19.18011
#
# Velocity S-wave (km/s) = 3.07403 3.23615 3.15613
# Velocity P-wave (km/s) = 4.47603 4.67486 4.57652
#
# Compressibility (1/GPa) = 0.06984907
#
# Stress axis : x y z
#
# Youngs Moduli (GPa) = 33.88620 25.94105 52.86927
#
# Poissons Ratio (x) = 0.16119 -0.28328
# Poissons Ratio (y) = 0.21056 0.40746
# Poissons Ratio (z) = -0.18157 0.19993
#
# Static dielectric constant tensor:
#      x y z
#    x 1.662250 0.000000 0.000000 
#    y 0.000000 1.684770 0.000000 
#    z 0.000000 0.000000 1.645310 
# 
# From -- ./inp_files/9439.got.cif
#   From: 2010.05.17/outbox.cif.g08.bks.cpg/sg44_5_cif.got.tgz:9439.got - 2010.06.03 19:37:08.
