data_PCOD9375788
_publ_section_title
;
Structure prediction by ZEFSAII (Michael W. Deem and Ramdas Pophale) SiO2 
 PCOD9375788
Probable space group: I M M 2
;
_chemical_formula_sum "Si O2"
_cell_formula_units_Z 56
_cell_length_a 20.930149
_cell_length_b 17.571536
_cell_length_c 6.809210
_cell_angle_alpha 90.000000
_cell_angle_beta 90.000000
_cell_angle_gamma 90.000000
_cell_volume 2504.256300
_symmetry_space_group_name_H-M "I M M 2"
_symmetry_group_IT_number 44
_symmetry_cell_setting 'orthorhombic'
loop_
_space_group_symop_operation_xyz
x,y,z
-x,-y,z
-x,y,z
x,-y,z
1/2+x,1/2+y,1/2+z
1/2-x,1/2-y,1/2+z
1/2-x,1/2+y,1/2+z
1/2+x,1/2-y,1/2+z
loop_
_atom_site_type_symbol
_atom_site_label
_atom_site_fract_x
_atom_site_fract_y
_atom_site_fract_z
Si Si1 0.791499 0.661625 0.831040
Si Si2 0.430928 0.648194 0.093538
Si Si3 0.724869 0.820501 0.836475
Si Si4 0.293279 0.407825 0.583805
Si Si5 0.430570 0.803143 0.344024
Si Si6 0.287652 0.412917 0.088927
Si Si7 0.891546 0.783820 0.211165
O O1 0.776758 0.751609 0.832690
O O2 0.777722 0.648221 0.577032
O O3 0.867409 0.645522 0.825563
O O4 0.777022 0.649969 0.091203
O O5 0.500000 0.613068 0.150923
O O6 0.423989 0.726943 0.213627
O O7 0.364676 0.601657 0.097340
O O8 0.433681 0.674911 0.869655
O O9 0.659545 0.770001 0.825062
O O10 0.300461 0.500000 0.590794
O O11 0.276915 0.398397 0.337484
O O12 0.354384 0.351254 0.596862
O O13 0.274294 0.395296 0.835751
O O14 0.500000 0.838229 0.301669
O O15 0.427800 0.770477 0.563371
O O16 0.267456 0.500000 0.081063
#
# Coordination Sequence:
#
# PCOD9375788 Si02
#       7
#     8   8   8   8   8   8   8
#     4  11  19  36  58  83 113 152 198 247 291 350
#     4  11  23  37  58  88 124 162 200 239 294 359
#     4  11  19  35  60  86 113 154 199 247 299 349
#     4  11  21  33  57  91 122 152 196 251 305 357
#     4  11  22  38  61  90 118 154 204 254 296 348
#     4  12  22  35  57  86 119 152 193 243 297 352
#     4  11  21  38  62  87 121 158 201 247 297 354
#
# _framework density 22.361927999999999
#
# number of rings (size 3 to 8) (size 9 to 14) (size 15 to 20)
#    0.000    0.857    7.143    3.000    0.000    0.286 
#    0.000    0.000    0.000    3.857    0.000    0.000 
#    0.000    0.000    0.000    0.000    0.000    0.000 
#
# Total GULP energy -155946.266824 kJ/mol
# GULP energy per Si atom -5569.509529 kJ/mol
# Density = 2.231103 g / cm^3
# Si number density = 22.361928 Si / 1000 Ang^3
#
#
#
# Elastic Constant Matrix: (Units=GPa)
#
#
# Indices 1 2 3 4 5 6 
#
# 1 179.6781 50.8360 46.0754 0.0000 0.0000 0.0000
# 2 50.8360 99.7280 24.6805 0.0000 0.0000 0.0000
# 3 46.0754 24.6805 152.7771 0.0000 0.0000 0.0000
# 4 0.0000 0.0000 0.0000 62.4138 0.0000 0.0000
# 5 0.0000 0.0000 0.0000 0.0000 9.6208 0.0000
# 6 0.0000 0.0000 0.0000 0.0000 0.0000 5.9011
#
#
#
# Elastic Compliance Matrix: (Units=1/GPa)
#
#
# Indices 1 2 3 4 5 6 
#
# 1 0.006844 -0.003102 -0.001563 0.000000 0.000000 0.000000
# 2 -0.003102 0.011851 -0.000979 0.000000 0.000000 0.000000
# 3 -0.001563 -0.000979 0.007175 0.000000 0.000000 0.000000
# 4 0.000000 0.000000 0.000000 0.016022 0.000000 0.000000
# 5 0.000000 0.000000 0.000000 0.000000 0.103941 0.000000
# 6 0.000000 0.000000 0.000000 0.000000 0.000000 0.169460
#
#
# Mechanical properties :
#
#
# Convention : Reuss Voigt Hill
#
# Bulk Modulus (GPa) = 68.57725 75.04080 71.80903
# Shear Modulus (GPa) = 15.08562 36.29323 25.68943
#
# Velocity S-wave (km/s) = 2.60015 4.03301 3.39308
# Velocity P-wave (km/s) = 6.30459 7.43755 6.89438
#
# Compressibility (1/GPa) = 0.01458209
#
# Stress axis : x y z
#
# Youngs Moduli (GPa) = 146.11554 84.38316 139.37306
#
# Poissons Ratio (x) = 0.26175 0.21783
# Poissons Ratio (y) = 0.45323 0.13644
# Poissons Ratio (z) = 0.22837 0.08261
#
# Static dielectric constant tensor:
#      x y z
#    x 1.823250 0.000000 0.000000 
#    y 0.000000 1.692920 0.000000 
#    z 0.000000 0.000000 2.171590 
# 
# From -- ./inp_files/2457.got.cif
#   From: 2010.05.17/outbox.cif.g08.bks.cpg/sg44_2_cif.got.tgz:2457.got - 2010.06.03 19:37:08.
