data_PCOD9375390
_publ_section_title
;
Structure prediction by ZEFSAII (Michael W. Deem and Ramdas Pophale) SiO2 
 PCOD9375390
Probable space group: I M M 2
;
_chemical_formula_sum "Si O2"
_cell_formula_units_Z 48
_cell_length_a 8.339188
_cell_length_b 31.743830
_cell_length_c 9.377620
_cell_angle_alpha 90.000000
_cell_angle_beta 90.000000
_cell_angle_gamma 90.000000
_cell_volume 2482.422619
_symmetry_space_group_name_H-M "I M M 2"
_symmetry_group_IT_number 44
_symmetry_cell_setting 'orthorhombic'
loop_
_space_group_symop_operation_xyz
x,y,z
-x,-y,z
-x,y,z
x,-y,z
1/2+x,1/2+y,1/2+z
1/2-x,1/2-y,1/2+z
1/2-x,1/2+y,1/2+z
1/2+x,1/2-y,1/2+z
loop_
_atom_site_type_symbol
_atom_site_label
_atom_site_fract_x
_atom_site_fract_y
_atom_site_fract_z
Si Si1 0.307735 0.291354 0.073150
Si Si2 0.306229 0.952476 0.578328
Si Si3 0.692116 0.127529 0.400274
Si Si4 0.806226 0.127758 0.077124
Si Si5 0.306213 0.452522 0.400397
Si Si6 0.693979 0.709730 0.401330
O O1 0.500000 0.291666 0.074213
O O2 0.250805 0.289678 0.237230
O O3 0.248701 0.333373 0.995270
O O4 0.250095 0.250701 0.986330
O O5 0.500000 0.952276 0.578609
O O6 0.250053 0.916116 0.471850
O O7 0.248554 0.943646 0.738979
O O8 0.252867 0.000000 0.540305
O O9 0.500000 0.127136 0.399094
O O10 0.751893 0.131845 0.239259
O O11 0.000000 0.127622 0.074465
O O12 0.749669 0.084108 0.005756
O O13 0.751786 0.167546 0.982883
O O14 0.500000 0.452459 0.401954
O O15 0.251750 0.500000 0.437901
O O16 0.500000 0.709629 0.400176
#
# Coordination Sequence:
#
# PCOD9375390 Si02
#       6
#     8   8   8   8   8   8
#     4  11  23  39  60  83 109 142 179 222 273 325
#     4   9  19  36  56  79 109 145 184 226 272 322
#     4  11  23  37  55  81 112 145 184 227 270 321
#     4  10  21  37  56  80 113 148 182 224 272 321
#     4   9  18  34  57  84 112 143 182 227 273 323
#     4  10  22  39  58  82 111 143 181 223 268 322
#
# _framework density 19.335948999999999
#
# number of rings (size 3 to 8) (size 9 to 14) (size 15 to 20)
#    0.000    2.000    0.000    3.000    0.000    8.667 
#    0.000    0.000    0.000    0.000    0.000    0.000 
#    0.000    0.000    0.000    0.000    0.000    0.000 
#
# Total GULP energy -134077.213297 kJ/mol
# GULP energy per Si atom -5586.550554 kJ/mol
# Density = 1.929194 g / cm^3
# Si number density = 19.335949 Si / 1000 Ang^3
#
#
#
# Elastic Constant Matrix: (Units=GPa)
#
#
# Indices 1 2 3 4 5 6 
#
# 1 8.2190 22.6299 20.1769 0.0000 0.0000 0.0000
# 2 22.6299 174.2697 130.3708 0.0000 0.0000 -0.0001
# 3 20.1769 130.3708 192.6424 0.0000 0.0001 -0.0002
# 4 0.0000 0.0000 0.0000 44.0607 0.0000 -0.0001
# 5 0.0000 0.0000 0.0001 0.0000 28.5061 0.0000
# 6 0.0000 -0.0001 -0.0002 -0.0001 0.0000 4.5566
#
#
#
# Elastic Compliance Matrix: (Units=1/GPa)
#
#
# Indices 1 2 3 4 5 6 
#
# 1 0.193443 -0.020179 -0.006605 0.000000 0.000000 0.000001
# 2 -0.020179 0.013727 -0.007176 0.000000 0.000000 0.000000
# 3 -0.006605 -0.007176 0.010739 0.000000 0.000000 0.000000
# 4 0.000000 0.000000 0.000000 0.022696 0.000000 0.000000
# 5 0.000000 0.000000 0.000000 0.000000 0.035080 0.000000
# 6 0.000001 0.000000 0.000000 0.000000 0.000000 0.219462
#
#
# Mechanical properties :
#
#
# Convention : Reuss Voigt Hill
#
# Bulk Modulus (GPa) = 6.66712 80.16514 43.41613
# Shear Modulus (GPa) = 8.15575 28.88825 18.52200
#
# Velocity S-wave (km/s) = 2.05599 3.86945 3.09836
# Velocity P-wave (km/s) = 3.01523 7.84300 5.94156
#
# Compressibility (1/GPa) = 0.14998983
#
# Stress axis : x y z
#
# Youngs Moduli (GPa) = 5.16948 72.84795 93.11506
#
# Poissons Ratio (x) = 1.46997 0.61501
# Poissons Ratio (y) = 0.10431 0.66823
# Poissons Ratio (z) = 0.03414 0.52279
#
# Static dielectric constant tensor:
#      x y z
#    x 1.667230 0.000000 0.000000 
#    y 0.000000 1.671670 0.000000 
#    z 0.000000 0.000000 1.637210 
# 
# From -- ./inp_files/4894.got.cif
#   From: 2010.05.17/outbox.cif.g08.bks.cpg/sg44_3_cif.got.tgz:4894.got - 2010.06.03 19:37:08.
