data_PCOD9375635
_publ_section_title
;
Structure prediction by ZEFSAII (Michael W. Deem and Ramdas Pophale) SiO2 
 PCOD9375635
Probable space group: I M M 2
;
_chemical_formula_sum "Si O2"
_cell_formula_units_Z 48
_cell_length_a 8.058491
_cell_length_b 28.952052
_cell_length_c 10.528171
_cell_angle_alpha 90.000000
_cell_angle_beta 90.000000
_cell_angle_gamma 90.000000
_cell_volume 2456.326002
_symmetry_space_group_name_H-M "I M M 2"
_symmetry_group_IT_number 44
_symmetry_cell_setting 'orthorhombic'
loop_
_space_group_symop_operation_xyz
x,y,z
-x,-y,z
-x,y,z
x,-y,z
1/2+x,1/2+y,1/2+z
1/2-x,1/2-y,1/2+z
1/2-x,1/2+y,1/2+z
1/2+x,1/2-y,1/2+z
loop_
_atom_site_type_symbol
_atom_site_label
_atom_site_fract_x
_atom_site_fract_y
_atom_site_fract_z
Si Si1 0.698810 0.353268 0.736400
Si Si2 0.305091 0.305248 0.479274
Si Si3 0.694836 0.854120 0.725968
Si Si4 0.702511 0.052051 0.846645
Si Si5 0.700062 0.051664 0.140005
Si Si6 0.695309 0.701317 0.983320
O O1 0.500000 0.348504 0.735945
O O2 0.761677 0.329568 0.606810
O O3 0.740385 0.407133 0.728120
O O4 0.759622 0.327236 0.861691
O O5 0.500000 0.316333 0.466238
O O6 0.216766 0.324381 0.354131
O O7 0.283684 0.250521 0.493082
O O8 0.500000 0.857111 0.695491
O O9 0.758420 0.905612 0.759536
O O10 0.781594 0.828774 0.609601
O O11 0.500000 0.052813 0.846398
O O12 0.753550 0.000000 0.810170
O O13 0.754053 0.060011 0.993453
O O14 0.500000 0.051935 0.139460
O O15 0.754977 0.000000 0.176025
O O16 0.500000 0.710821 0.965419
#
# Coordination Sequence:
#
# PCOD9375635 Si02
#       6
#     8   8   8   8   8   8
#     4  10  22  38  56  81 114 148 185 229 281 332
#     4  11  22  38  60  85 110 144 193 239 281 337
#     4  11  21  36  59  86 115 150 187 229 283 337
#     4   8  15  30  54  83 111 140 179 228 276 326
#     4   9  17  32  57  86 111 140 183 230 275 329
#     4  11  24  40  56  79 115 154 191 235 280 331
#
# _framework density 19.541381000000001
#
# number of rings (size 3 to 8) (size 9 to 14) (size 15 to 20)
#    0.000    2.000    1.667    3.500    0.000    3.667 
#    0.000    0.833    0.000    5.000    0.000    0.000 
#    0.000    0.000    0.000    0.000    0.000    0.000 
#
# Total GULP energy -134019.883089 kJ/mol
# GULP energy per Si atom -5584.161795 kJ/mol
# Density = 1.949690 g / cm^3
# Si number density = 19.541381 Si / 1000 Ang^3
#
#
#
# Elastic Constant Matrix: (Units=GPa)
#
#
# Indices 1 2 3 4 5 6 
#
# 1 17.1464 -13.4462 -5.6392 0.0000 0.0000 0.0000
# 2 -13.4462 131.9199 43.5181 -0.0001 -0.0001 0.0000
# 3 -5.6392 43.5181 90.9564 0.0000 -0.0001 0.0000
# 4 0.0000 -0.0001 0.0000 -11.0760 -0.0001 0.0000
# 5 0.0000 -0.0001 -0.0001 -0.0001 8.7435 0.0000
# 6 0.0000 0.0000 0.0000 0.0000 0.0000 22.1360
#
#
#
# Elastic Compliance Matrix: (Units=1/GPa)
#
#
# Indices 1 2 3 4 5 6 
#
# 1 0.063464 0.006140 0.000997 0.000000 0.000000 0.000000
# 2 0.006140 0.009595 -0.004210 0.000000 0.000000 0.000000
# 3 0.000997 -0.004210 0.013070 0.000000 0.000000 0.000000
# 4 0.000000 0.000000 0.000000 -0.090286 -0.000001 0.000000
# 5 0.000000 0.000000 0.000000 -0.000001 0.114371 0.000000
# 6 0.000000 0.000000 0.000000 0.000000 0.000000 0.045175
#
#
# Mechanical properties :
#
#
# Convention : Reuss Voigt Hill
#
# Bulk Modulus (GPa) = 10.87157 32.09866 21.48512
# Shear Modulus (GPa) = 27.74737 18.33338 23.04037
#
# Velocity S-wave (km/s) = 3.77228 3.06630 3.43746
# Velocity P-wave (km/s) = 4.95469 5.38497 5.17430
#
# Compressibility (1/GPa) = 0.09198305
#
# Stress axis : x y z
#
# Youngs Moduli (GPa) = 15.75697 104.22096 76.50870
#
# Poissons Ratio (x) = -0.63989 -0.07629
# Poissons Ratio (y) = -0.09674 0.32211
# Poissons Ratio (z) = -0.01571 0.43878
#
# Static dielectric constant tensor:
#      x y z
#    x 1.692150 0.000000 0.000000 
#    y 0.000000 1.684390 0.000000 
#    z 0.000000 0.000000 1.657280 
# 
# From -- ./inp_files/4922.got.cif
#   From: 2010.05.17/outbox.cif.g08.bks.cpg/sg44_3_cif.got.tgz:4922.got - 2010.06.03 19:37:08.
