data_PCOD9375701
_publ_section_title
;
Structure prediction by ZEFSAII (Michael W. Deem and Ramdas Pophale) SiO2 
 PCOD9375701
Probable space group: I M M 2
;
_chemical_formula_sum "Si O2"
_cell_formula_units_Z 58
_cell_length_a 17.742462
_cell_length_b 19.139392
_cell_length_c 8.250735
_cell_angle_alpha 90.000000
_cell_angle_beta 90.000000
_cell_angle_gamma 90.000000
_cell_volume 2801.784057
_symmetry_space_group_name_H-M "I M M 2"
_symmetry_group_IT_number 44
_symmetry_cell_setting 'orthorhombic'
loop_
_space_group_symop_operation_xyz
x,y,z
-x,-y,z
-x,y,z
x,-y,z
1/2+x,1/2+y,1/2+z
1/2-x,1/2-y,1/2+z
1/2-x,1/2+y,1/2+z
1/2+x,1/2-y,1/2+z
loop_
_atom_site_type_symbol
_atom_site_label
_atom_site_fract_x
_atom_site_fract_y
_atom_site_fract_z
Si Si1 0.267076 0.579927 0.105610
Si Si2 0.582879 0.224563 0.250270
Si Si3 0.297909 0.328515 0.386866
Si Si4 0.414146 0.420189 0.568240
Si Si5 0.610570 0.865050 0.567725
Si Si6 0.369595 0.784890 0.907931
Si Si7 0.500000 0.000000 0.585487
Si Si8 0.916698 0.875841 0.431523
O O1 0.249219 0.500000 0.085488
O O2 0.268737 0.604012 0.290650
O O3 0.198957 0.623189 0.029814
O O4 0.348944 0.595571 0.037076
O O5 0.500000 0.257687 0.239777
O O6 0.650025 0.279798 0.274254
O O7 0.582856 0.177949 0.412039
O O8 0.597141 0.186071 0.078215
O O9 0.354833 0.360849 0.516948
O O10 0.221354 0.287970 0.429658
O O11 0.500000 0.404935 0.510912
O O12 0.395152 0.500000 0.517466
O O13 0.415762 0.416063 0.761788
O O14 0.607668 0.824150 0.740976
O O15 0.565457 0.937377 0.583618
O O16 0.400201 0.705944 0.898661
O O17 0.000000 0.884503 0.503389
#
# Coordination Sequence:
#
# PCOD9375701 Si02
#       8
#     8   8   8   8   8   8   2   8
#     4  11  23  42  65  94 136 178 223 277 342 410
#     4  12  25  43  70 104 136 178 238 288 344 409
#     4  11  24  40  65  96 135 176 228 282 341 411
#     4  10  22  40  63  94 132 176 225 277 343 412
#     4  11  26  47  74 100 137 183 226 289 351 416
#     4  11  26  44  69 103 139 177 232 289 347 408
#     4  12  24  52  78 104 142 186 222 284 358 432
#     4  11  23  40  64  96 133 173 227 280 338 406
#
# _framework density 20.701096
#
# number of rings (size 3 to 8) (size 9 to 14) (size 15 to 20)
#    0.000    0.966    2.759    3.310    7.724    2.483 
#    0.000    1.379    0.000    0.000    0.000    0.000 
#    0.000    0.000    0.000    0.000    0.000    0.000 
#
# Total GULP energy -161582.501332 kJ/mol
# GULP energy per Si atom -5571.810391 kJ/mol
# Density = 2.065398 g / cm^3
# Si number density = 20.701096 Si / 1000 Ang^3
#
#
#
# Elastic Constant Matrix: (Units=GPa)
#
#
# Indices 1 2 3 4 5 6 
#
# 1 133.8705 0.0722 20.7930 0.0000 0.0000 0.0000
# 2 0.0722 52.1158 28.2039 0.0000 0.0000 0.0000
# 3 20.7930 28.2039 89.2632 0.0000 0.0000 0.0000
# 4 0.0000 0.0000 0.0000 16.5975 0.0000 0.0000
# 5 0.0000 0.0000 0.0000 0.0000 46.5299 0.0000
# 6 0.0000 0.0000 0.0000 0.0000 0.0000 27.3299
#
#
#
# Elastic Compliance Matrix: (Units=1/GPa)
#
#
# Indices 1 2 3 4 5 6 
#
# 1 0.007809 0.001174 -0.002190 0.000000 0.000000 0.000000
# 2 0.001174 0.023322 -0.007643 0.000000 0.000000 0.000000
# 3 -0.002190 -0.007643 0.014128 0.000000 0.000000 0.000000
# 4 0.000000 0.000000 0.000000 0.060250 0.000000 0.000000
# 5 0.000000 0.000000 0.000000 0.000000 0.021492 0.000000
# 6 0.000000 0.000000 0.000000 0.000000 0.000000 0.036590
#
#
# Mechanical properties :
#
#
# Convention : Reuss Voigt Hill
#
# Bulk Modulus (GPa) = 35.78718 41.48753 38.63735
# Shear Modulus (GPa) = 26.28502 33.17016 29.72759
#
# Velocity S-wave (km/s) = 3.56721 4.00726 3.79362
# Velocity P-wave (km/s) = 5.85591 6.44171 6.15578
#
# Compressibility (1/GPa) = 0.02794297
#
# Stress axis : x y z
#
# Youngs Moduli (GPa) = 128.04976 42.87716 70.78242
#
# Poissons Ratio (x) = -0.05036 0.15503
# Poissons Ratio (y) = -0.15039 0.54096
# Poissons Ratio (z) = 0.28046 0.32769
#
# Static dielectric constant tensor:
#      x y z
#    x 1.751670 0.000000 0.000000 
#    y 0.000000 1.726980 0.000000 
#    z 0.000000 0.000000 1.762500 
# 
# From -- ./inp_files/8332.got.cif
#   From: 2010.05.17/outbox.cif.g08.bks.cpg/sg44_5_cif.got.tgz:8332.got - 2010.06.03 19:37:08.
