data_PCOD9375574
_publ_section_title
;
Structure prediction by ZEFSAII (Michael W. Deem and Ramdas Pophale) SiO2 
 PCOD9375574
Probable space group: I M M 2
;
_chemical_formula_sum "Si O2"
_cell_formula_units_Z 64
_cell_length_a 14.821709
_cell_length_b 8.738012
_cell_length_c 24.570318
_cell_angle_alpha 90.000000
_cell_angle_beta 90.000000
_cell_angle_gamma 90.000000
_cell_volume 3182.157686
_symmetry_space_group_name_H-M "I M M 2"
_symmetry_group_IT_number 44
_symmetry_cell_setting 'orthorhombic'
loop_
_space_group_symop_operation_xyz
x,y,z
-x,-y,z
-x,y,z
x,-y,z
1/2+x,1/2+y,1/2+z
1/2-x,1/2-y,1/2+z
1/2-x,1/2+y,1/2+z
1/2+x,1/2-y,1/2+z
loop_
_atom_site_type_symbol
_atom_site_label
_atom_site_fract_x
_atom_site_fract_y
_atom_site_fract_z
Si Si1 0.307393 0.319698 0.001350
Si Si2 0.899279 0.182959 0.257763
Si Si3 0.873260 0.824976 0.870551
Si Si4 0.901009 0.683261 0.986676
Si Si5 0.400182 0.829583 0.263095
Si Si6 0.602499 0.181565 0.103133
Si Si7 0.685136 0.319232 0.874487
Si Si8 0.235560 0.824543 0.691308
O O1 0.316022 0.500000 0.014262
O O2 0.368157 0.224171 0.042198
O O3 0.199956 0.279862 0.009092
O O4 0.339015 0.300909 0.938333
O O5 0.878176 0.208552 0.322267
O O6 0.825791 0.252301 0.216717
O O7 0.000000 0.239313 0.245883
O O8 0.896626 0.000000 0.250753
O O9 0.902483 0.773967 0.930154
O O10 0.908009 0.705847 0.826312
O O11 0.766599 0.798014 0.867546
O O12 0.897372 0.000000 0.859271
O O13 0.897572 0.500000 0.976651
O O14 0.000000 0.712804 0.014152
O O15 0.500000 0.825633 0.238655
O O16 0.337036 0.700183 0.239283
O O17 0.361756 0.000000 0.253827
O O18 0.500000 0.240345 0.113576
O O19 0.681770 0.246806 0.141639
O O20 0.600718 0.000000 0.110872
O O21 0.713787 0.500000 0.870146
O O22 0.251741 0.000000 0.678054
#
# Coordination Sequence:
#
# PCOD9375574 Si02
#       8
#     8   8   8   8   8   8   8   8
#     4   9  19  36  61  93 124 159 206 258 307 359
#     4  10  21  39  65  94 126 167 209 247 295 365
#     4  11  20  29  47  79 118 157 198 246 296 349
#     4   9  18  34  55  80 116 162 204 242 294 360
#     4  11  22  35  53  78 112 155 198 242 297 362
#     4  11  25  45  67  90 119 160 207 256 315 379
#     4   9  18  35  59  86 123 167 206 245 299 361
#     4  12  25  41  63  90 120 155 198 255 313 364
#
# _framework density 20.112138999999999
#
# number of rings (size 3 to 8) (size 9 to 14) (size 15 to 20)
#    0.000    1.750    1.250    4.500    0.000    8.000 
#    0.000    1.875    0.000    2.250    0.000    0.000 
#    0.000    0.000    0.000    0.000    0.000    0.000 
#
# Total GULP energy -178325.077502 kJ/mol
# GULP energy per Si atom -5572.658672 kJ/mol
# Density = 2.006636 g / cm^3
# Si number density = 20.112139 Si / 1000 Ang^3
#
#
#
# Elastic Constant Matrix: (Units=GPa)
#
#
# Indices 1 2 3 4 5 6 
#
# 1 128.4010 38.3001 47.7574 0.0000 0.0000 0.0000
# 2 38.3001 49.4772 30.7970 0.0000 0.0000 0.0000
# 3 47.7574 30.7970 79.5858 0.0000 0.0000 0.0000
# 4 0.0000 0.0000 0.0000 29.7493 0.0000 0.0000
# 5 0.0000 0.0000 0.0000 0.0000 6.8484 0.0000
# 6 0.0000 0.0000 0.0000 0.0000 0.0000 2473.2548
#
#
#
# Elastic Compliance Matrix: (Units=1/GPa)
#
#
# Indices 1 2 3 4 5 6 
#
# 1 0.011200 -0.005910 -0.004434 0.000000 0.000000 0.000000
# 2 -0.005910 0.029743 -0.007963 0.000000 0.000000 0.000000
# 3 -0.004434 -0.007963 0.018307 0.000000 0.000000 0.000000
# 4 0.000000 0.000000 0.000000 0.033614 0.000000 0.000000
# 5 0.000000 0.000000 0.000000 0.000000 0.146020 0.000000
# 6 0.000000 0.000000 0.000000 0.000000 0.000000 0.000404
#
#
# Mechanical properties :
#
#
# Convention : Reuss Voigt Hill
#
# Bulk Modulus (GPa) = 44.17708 54.57478 49.37593
# Shear Modulus (GPa) = 17.63989 511.34444 264.49217
#
# Velocity S-wave (km/s) = 2.96476 15.96241 11.48017
# Velocity P-wave (km/s) = 5.80800 19.15530 14.15377
#
# Compressibility (1/GPa) = 0.02263617
#
# Stress axis : x y z
#
# Youngs Moduli (GPa) = 89.28451 33.62148 54.62349
#
# Poissons Ratio (x) = 0.19871 0.24220
# Poissons Ratio (y) = 0.52768 0.43497
# Poissons Ratio (z) = 0.39588 0.26773
#
# Static dielectric constant tensor:
#      x y z
#    x 1.779520 0.000000 0.000000 
#    y 0.000000 1.669380 0.000000 
#    z 0.000000 0.000000 1.745300 
# 
# From -- ./inp_files/25770.got.cif
#   From: 2010.05.17/outbox.cif.g08.bks.cpg/sg44_13_cif.got.tgz:25770.got - 2010.06.03 19:37:08.
