data_PCOD9375111
_publ_section_title
;
Structure prediction by ZEFSAII (Michael W. Deem and Ramdas Pophale) SiO2 
 PCOD9375111
Probable space group: I M M 2
;
_chemical_formula_sum "Si O2"
_cell_formula_units_Z 64
_cell_length_a 28.703092
_cell_length_b 8.889861
_cell_length_c 12.843456
_cell_angle_alpha 90.000000
_cell_angle_beta 90.000000
_cell_angle_gamma 90.000000
_cell_volume 3277.219692
_symmetry_space_group_name_H-M "I M M 2"
_symmetry_group_IT_number 44
_symmetry_cell_setting 'orthorhombic'
loop_
_space_group_symop_operation_xyz
x,y,z
-x,-y,z
-x,y,z
x,-y,z
1/2+x,1/2+y,1/2+z
1/2-x,1/2-y,1/2+z
1/2-x,1/2+y,1/2+z
1/2+x,1/2-y,1/2+z
loop_
_atom_site_type_symbol
_atom_site_label
_atom_site_fract_x
_atom_site_fract_y
_atom_site_fract_z
Si Si1 0.678632 0.670073 0.050030
Si Si2 0.552095 0.825332 0.902911
Si Si3 0.296462 0.177950 0.839554
Si Si4 0.945621 0.818114 0.039671
Si Si5 0.618249 0.320845 0.735685
Si Si6 0.694691 0.681437 0.278978
Si Si7 0.570576 0.327738 0.115958
Si Si8 0.405671 0.819966 0.327933
O O1 0.691936 0.500000 0.018691
O O2 0.703862 0.713897 0.156772
O O3 0.625189 0.666772 0.086350
O O4 0.685326 0.778146 0.953534
O O5 0.500000 0.812648 0.858130
O O6 0.587423 0.729398 0.834516
O O7 0.566259 0.000000 0.901898
O O8 0.550184 0.765544 0.020535
O O9 0.330742 0.252445 0.755026
O O10 0.242417 0.224924 0.834979
O O11 0.298072 0.000000 0.823750
O O12 0.910722 0.772967 0.133350
O O13 0.000000 0.780799 0.061307
O O14 0.942884 0.000000 0.029485
O O15 0.928535 0.742509 0.933159
O O16 0.622044 0.500000 0.734137
O O17 0.687087 0.500000 0.287500
O O18 0.647988 0.762588 0.318045
O O19 0.553895 0.500000 0.119801
O O20 0.567693 0.248660 0.227586
O O21 0.406919 0.000000 0.324690
#
# Coordination Sequence:
#
# PCOD9375111 Si02
#       8
#     8   8   8   8   8   8   8   8
#     4   9  18  35  57  80 112 152 194 243 297 360
#     4  11  23  37  57  88 122 153 192 246 302 357
#     4  11  22  36  59  89 122 159 203 257 313 369
#     4  10  23  44  67  89 120 167 217 261 310 378
#     4  11  23  40  62  88 120 161 207 254 307 373
#     4   9  21  40  59  84 120 164 209 253 307 372
#     4  10  20  37  61  85 115 156 196 240 297 362
#     4  11  23  39  63  92 123 158 202 259 317 369
#
# _framework density 19.528748
#
# number of rings (size 3 to 8) (size 9 to 14) (size 15 to 20)
#    0.000    1.750    1.250    3.750    0.000    7.250 
#    0.000    2.500    0.000    0.000    0.000    0.000 
#    0.000    0.000    0.000    0.000    0.000    0.000 
#
# Total GULP energy -178677.382774 kJ/mol
# GULP energy per Si atom -5583.668212 kJ/mol
# Density = 1.948430 g / cm^3
# Si number density = 19.528748 Si / 1000 Ang^3
#
#
#
# Elastic Constant Matrix: (Units=GPa)
#
#
# Indices 1 2 3 4 5 6 
#
# 1 51.8434 12.7031 12.5139 0.0000 0.0000 0.0000
# 2 12.7031 46.9137 12.3924 0.0000 0.0000 0.0000
# 3 12.5139 12.3924 79.3021 0.0000 0.0000 0.0000
# 4 0.0000 0.0000 0.0000 16.4558 0.0000 0.0000
# 5 0.0000 0.0000 0.0000 0.0000 21.2558 0.0000
# 6 0.0000 0.0000 0.0000 0.0000 0.0000 37.5323
#
#
#
# Elastic Compliance Matrix: (Units=1/GPa)
#
#
# Indices 1 2 3 4 5 6 
#
# 1 0.021141 -0.005052 -0.002547 0.000000 0.000000 0.000000
# 2 -0.005052 0.023441 -0.002866 0.000000 0.000000 0.000000
# 3 -0.002547 -0.002866 0.013460 0.000000 0.000000 0.000000
# 4 0.000000 0.000000 0.000000 0.060769 0.000000 0.000000
# 5 0.000000 0.000000 0.000000 0.000000 0.047046 0.000000
# 6 0.000000 0.000000 0.000000 0.000000 0.000000 0.026644
#
#
# Mechanical properties :
#
#
# Convention : Reuss Voigt Hill
#
# Bulk Modulus (GPa) = 26.94471 28.14200 27.54335
# Shear Modulus (GPa) = 22.14348 24.41209 23.27779
#
# Velocity S-wave (km/s) = 3.37098 3.53945 3.45625
# Velocity P-wave (km/s) = 5.38319 5.58081 5.48289
#
# Compressibility (1/GPa) = 0.03711304
#
# Stress axis : x y z
#
# Youngs Moduli (GPa) = 47.30050 42.66089 74.29582
#
# Poissons Ratio (x) = 0.21552 0.18921
# Poissons Ratio (y) = 0.23896 0.21292
# Poissons Ratio (z) = 0.12046 0.12226
#
# Static dielectric constant tensor:
#      x y z
#    x 1.726920 0.000000 0.000000 
#    y 0.000000 1.663790 0.000000 
#    z 0.000000 0.000000 1.666000 
# 
# From -- ./inp_files/15093.got.cif
#   From: 2010.05.17/outbox.cif.g08.bks.cpg/sg44_8_cif.got.tgz:15093.got - 2010.06.03 19:37:08.
