data_PCOD9375640
_publ_section_title
;
Structure prediction by ZEFSAII (Michael W. Deem and Ramdas Pophale) SiO2 
 PCOD9375640
Probable space group: I M M 2
;
_chemical_formula_sum "Si O2"
_cell_formula_units_Z 64
_cell_length_a 8.564716
_cell_length_b 29.843656
_cell_length_c 13.219724
_cell_angle_alpha 90.000000
_cell_angle_beta 90.000000
_cell_angle_gamma 90.000000
_cell_volume 3378.993685
_symmetry_space_group_name_H-M "I M M 2"
_symmetry_group_IT_number 44
_symmetry_cell_setting 'orthorhombic'
loop_
_space_group_symop_operation_xyz
x,y,z
-x,-y,z
-x,y,z
x,-y,z
1/2+x,1/2+y,1/2+z
1/2-x,1/2-y,1/2+z
1/2-x,1/2+y,1/2+z
1/2+x,1/2-y,1/2+z
loop_
_atom_site_type_symbol
_atom_site_label
_atom_site_fract_x
_atom_site_fract_y
_atom_site_fract_z
Si Si1 0.183017 0.287298 0.846530
Si Si2 0.680079 0.215564 0.976239
Si Si3 0.188334 0.948258 0.076574
Si Si4 0.811872 0.621837 0.965482
Si Si5 0.186985 0.853460 0.682413
Si Si6 0.188894 0.878482 0.905845
Si Si7 0.681994 0.752516 0.671622
Si Si8 0.311481 0.947936 0.294921
O O1 0.291666 0.246059 0.878448
O O2 0.225422 0.331841 0.906945
O O3 0.219962 0.286440 0.728115
O O4 0.000000 0.278095 0.862072
O O5 0.500000 0.217009 0.006912
O O6 0.736074 0.165979 0.952534
O O7 0.790332 0.240454 0.055269
O O8 0.250812 0.931679 0.185430
O O9 0.000000 0.947430 0.081245
O O10 0.239274 0.000000 0.065916
O O11 0.235707 0.919308 0.978986
O O12 0.759999 0.582048 0.890264
O O13 0.000000 0.619651 0.974515
O O14 0.743192 0.623768 0.078188
O O15 0.231691 0.879048 0.786542
O O16 0.254511 0.802968 0.686484
O O17 0.000000 0.849995 0.679939
O O18 0.000000 0.874745 0.909917
O O19 0.500000 0.750336 0.694365
O O20 0.500000 0.946250 0.292315
O O21 0.263455 0.000000 0.306474
#
# Coordination Sequence:
#
# PCOD9375640 Si02
#       8
#     8   8   8   8   8   8   8   8
#     4  11  22  37  55  80 115 151 194 241 284 339
#     4  12  24  37  56  82 113 153 197 239 285 340
#     4   9  19  38  63  89 116 147 185 233 291 349
#     4  10  22  38  58  83 115 153 192 238 291 344
#     4  11  22  37  58  81 114 155 197 241 284 337
#     4  10  22  39  58  84 117 153 192 240 292 342
#     4  12  24  38  55  78 113 155 196 241 288 340
#     4   9  19  38  62  88 117 148 184 233 293 348
#
# _framework density 18.940550999999999
#
# number of rings (size 3 to 8) (size 9 to 14) (size 15 to 20)
#    0.000    1.500    2.500    3.000    1.750    2.000 
#    0.000    0.625    0.000    0.750    0.000    0.000 
#    0.000    0.000    0.000    0.000    0.000    0.000 
#
# Total GULP energy -178542.553551 kJ/mol
# GULP energy per Si atom -5579.454798 kJ/mol
# Density = 1.889744 g / cm^3
# Si number density = 18.940551 Si / 1000 Ang^3
#
#
#
# Elastic Constant Matrix: (Units=GPa)
#
#
# Indices 1 2 3 4 5 6 
#
# 1 40.4859 30.6496 36.7216 0.0000 0.0000 0.0000
# 2 30.6496 86.8625 67.2353 0.0000 0.0000 0.0000
# 3 36.7216 67.2353 138.1709 0.0001 0.0001 -0.0002
# 4 0.0000 0.0000 0.0001 38.8170 0.0000 -0.0001
# 5 0.0000 0.0000 0.0001 0.0000 33.5797 0.0000
# 6 0.0000 0.0000 -0.0002 -0.0001 0.0000 12.1655
#
#
#
# Elastic Compliance Matrix: (Units=1/GPa)
#
#
# Indices 1 2 3 4 5 6 
#
# 1 0.036088 -0.008518 -0.005446 0.000000 0.000000 0.000000
# 2 -0.008518 0.020480 -0.007702 0.000000 0.000000 0.000000
# 3 -0.005446 -0.007702 0.012433 0.000000 0.000000 0.000000
# 4 0.000000 0.000000 0.000000 0.025762 0.000000 0.000000
# 5 0.000000 0.000000 0.000000 0.000000 0.029780 0.000000
# 6 0.000000 0.000000 0.000000 0.000000 0.000000 0.082200
#
#
# Mechanical properties :
#
#
# Convention : Reuss Voigt Hill
#
# Bulk Modulus (GPa) = 38.95850 59.41471 49.18661
# Shear Modulus (GPa) = 19.33259 25.63994 22.48626
#
# Velocity S-wave (km/s) = 3.19830 3.68327 3.44932
# Velocity P-wave (km/s) = 5.85255 7.03745 6.47217
#
# Compressibility (1/GPa) = 0.02566834
#
# Stress axis : x y z
#
# Youngs Moduli (GPa) = 27.70969 48.82906 80.43420
#
# Poissons Ratio (x) = 0.41595 0.43805
# Poissons Ratio (y) = 0.23604 0.61948
# Poissons Ratio (z) = 0.15091 0.37606
#
# Static dielectric constant tensor:
#      x y z
#    x 1.632580 0.000000 0.000000 
#    y 0.000000 1.640890 0.000000 
#    z 0.000000 0.000000 1.678790 
# 
# From -- ./inp_files/11430.got.cif
#   From: 2010.05.17/outbox.cif.g08.bks.cpg/sg44_6_cif.got.tgz:11430.got - 2010.06.03 19:37:08.
