data_PCOD9375371
_publ_section_title
;
Structure prediction by ZEFSAII (Michael W. Deem and Ramdas Pophale) SiO2 
 PCOD9375371
Probable space group: I M M 2
;
_chemical_formula_sum "Si O2"
_cell_formula_units_Z 64
_cell_length_a 20.524033
_cell_length_b 8.750323
_cell_length_c 20.627475
_cell_angle_alpha 90.000000
_cell_angle_beta 90.000000
_cell_angle_gamma 90.000000
_cell_volume 3704.527799
_symmetry_space_group_name_H-M "I M M 2"
_symmetry_group_IT_number 44
_symmetry_cell_setting 'orthorhombic'
loop_
_space_group_symop_operation_xyz
x,y,z
-x,-y,z
-x,y,z
x,-y,z
1/2+x,1/2+y,1/2+z
1/2-x,1/2-y,1/2+z
1/2-x,1/2+y,1/2+z
1/2+x,1/2-y,1/2+z
loop_
_atom_site_type_symbol
_atom_site_label
_atom_site_fract_x
_atom_site_fract_y
_atom_site_fract_z
Si Si1 0.679135 0.316824 0.167110
Si Si2 0.575904 0.184208 0.067422
Si Si3 0.924142 0.684243 0.067598
Si Si4 0.425707 0.184092 0.418587
Si Si5 0.175892 0.685044 0.310539
Si Si6 0.325591 0.316707 0.315906
Si Si7 0.321830 0.682064 0.668665
Si Si8 0.925883 0.686039 0.419140
O O1 0.684815 0.500000 0.165409
O O2 0.625000 0.260134 0.117338
O O3 0.661182 0.272089 0.241143
O O4 0.749934 0.246394 0.152369
O O5 0.500000 0.221807 0.080484
O O6 0.582015 0.000000 0.071309
O O7 0.590234 0.230802 0.992966
O O8 0.918171 0.500000 0.072012
O O9 0.874653 0.760307 0.117166
O O10 0.000000 0.722138 0.081135
O O11 0.910386 0.729210 0.992872
O O12 0.500000 0.234059 0.404212
O O13 0.374904 0.245689 0.366845
O O14 0.425089 0.000000 0.417041
O O15 0.173027 0.500000 0.305041
O O16 0.250220 0.725584 0.328798
O O17 0.161618 0.754401 0.240219
O O18 0.125420 0.736408 0.365384
O O19 0.330429 0.500000 0.319958
O O20 0.319730 0.500000 0.669848
O O21 0.925733 0.500000 0.418674
O O22 0.000000 0.734724 0.404693
#
# Coordination Sequence:
#
# PCOD9375371 Si02
#       8
#     8   8   8   8   8   8   8   8
#     4  10  21  37  54  74 103 139 179 215 253 308
#     4   9  18  33  53  79 109 138 172 215 259 302
#     4   9  19  37  57  76 103 139 174 207 250 308
#     4   9  19  35  54  76 101 130 167 210 253 302
#     4   9  18  34  53  74 103 137 173 209 249 303
#     4   9  19  33  49  72 102 134 168 211 256 300
#     4  11  22  35  53  78 106 134 170 217 264 305
#     4   8  15  30  53  78 103 134 171 207 246 299
#
# _framework density 17.276156
#
# number of rings (size 3 to 8) (size 9 to 14) (size 15 to 20)
#    0.000    2.750    0.000    3.750    0.000    5.750 
#    0.000    6.875    0.000    0.750    0.000    0.000 
#    0.000    0.000    0.000    0.000    0.000    0.000 
#
# Total GULP energy -178460.525645 kJ/mol
# GULP energy per Si atom -5576.891426 kJ/mol
# Density = 1.723684 g / cm^3
# Si number density = 17.276156 Si / 1000 Ang^3
#
#
#
# Elastic Constant Matrix: (Units=GPa)
#
#
# Indices 1 2 3 4 5 6 
#
# 1 149.2676 51.5281 143.4300 0.0000 0.0000 0.0000
# 2 51.5281 37.3970 50.9087 0.0000 0.0000 0.0000
# 3 143.4300 50.9087 160.6449 0.0000 0.0000 0.0000
# 4 0.0000 0.0000 0.0000 28.6757 0.0000 0.0000
# 5 0.0000 0.0000 0.0000 0.0000 43.1578 0.0000
# 6 0.0000 0.0000 0.0000 0.0000 0.0000 28.8240
#
#
#
# Elastic Compliance Matrix: (Units=1/GPa)
#
#
# Indices 1 2 3 4 5 6 
#
# 1 0.051355 -0.014671 -0.041202 0.000000 0.000000 0.000000
# 2 -0.014671 0.051219 -0.003132 0.000000 0.000000 0.000000
# 3 -0.041202 -0.003132 0.044005 0.000000 0.000000 0.000000
# 4 0.000000 0.000000 0.000000 0.034873 0.000000 0.000000
# 5 0.000000 0.000000 0.000000 0.000000 0.023171 0.000000
# 6 0.000000 0.000000 0.000000 0.000000 0.000000 0.034693
#
#
# Mechanical properties :
#
#
# Convention : Reuss Voigt Hill
#
# Bulk Modulus (GPa) = 35.00559 93.22703 64.11631
# Shear Modulus (GPa) = 13.62953 26.89435 20.26194
#
# Velocity S-wave (km/s) = 2.81182 3.94982 3.42837
# Velocity P-wave (km/s) = 5.55411 8.65341 7.27082
#
# Compressibility (1/GPa) = 0.02856687
#
# Stress axis : x y z
#
# Youngs Moduli (GPa) = 19.47229 19.52382 22.72491
#
# Poissons Ratio (x) = 0.28644 0.93632
# Poissons Ratio (y) = 0.28569 0.07118
# Poissons Ratio (z) = 0.80230 0.06115
#
# Static dielectric constant tensor:
#      x y z
#    x 1.567530 0.000000 0.000000 
#    y 0.000000 1.584740 0.000000 
#    z 0.000000 0.000000 1.569300 
# 
# From -- ./inp_files/24344.got.cif
#   From: 2010.05.17/outbox.cif.g08.bks.cpg/sg44_13_cif.got.tgz:24344.got - 2010.06.03 19:37:08.
