data_PCOD9375215
_publ_section_title
;
Structure prediction by ZEFSAII (Michael W. Deem and Ramdas Pophale) SiO2 
 PCOD9375215
Probable space group: I M M 2
;
_chemical_formula_sum "Si O2"
_cell_formula_units_Z 48
_cell_length_a 21.773456
_cell_length_b 17.973549
_cell_length_c 5.260729
_cell_angle_alpha 90.000000
_cell_angle_beta 90.000000
_cell_angle_gamma 90.000000
_cell_volume 2058.766715
_symmetry_space_group_name_H-M "I M M 2"
_symmetry_group_IT_number 44
_symmetry_cell_setting 'orthorhombic'
loop_
_space_group_symop_operation_xyz
x,y,z
-x,-y,z
-x,y,z
x,-y,z
1/2+x,1/2+y,1/2+z
1/2-x,1/2-y,1/2+z
1/2-x,1/2+y,1/2+z
1/2+x,1/2-y,1/2+z
loop_
_atom_site_type_symbol
_atom_site_label
_atom_site_fract_x
_atom_site_fract_y
_atom_site_fract_z
Si Si1 0.425130 0.914741 0.480000
Si Si2 0.773186 0.715159 0.851901
Si Si3 0.120358 0.805271 0.785942
Si Si4 0.566794 0.583609 0.641424
Si Si5 0.308793 0.415012 0.976467
Si Si6 0.073687 0.324180 0.475152
O O1 0.500000 0.916086 0.485823
O O2 0.405406 0.866277 0.722335
O O3 0.403852 0.000000 0.495961
O O4 0.408614 0.876493 0.213770
O O5 0.768009 0.740553 0.558573
O O6 0.839991 0.743937 0.934902
O O7 0.748425 0.631691 0.869087
O O8 0.069841 0.848020 0.946561
O O9 0.168503 0.870807 0.723498
O O10 0.095432 0.759146 0.545137
O O11 0.500000 0.587364 0.777375
O O12 0.568732 0.500000 0.521689
O O13 0.628813 0.588232 0.807055
O O14 0.293196 0.500000 0.021720
O O15 0.000000 0.320507 0.464696
#
# Coordination Sequence:
#
# PCOD9375215 Si02
#       6
#     8   8   8   8   8   8
#     4   9  18  35  55  77 111 158 207 253 306 369
#     4  10  21  40  65  91 119 163 214 267 323 378
#     4  11  22  37  61  89 130 167 219 267 332 385
#     4  10  21  37  60  93 132 174 218 266 328 402
#     4  10  22  41  63  90 126 174 219 272 332 395
#     4  10  21  33  55  88 121 161 206 254 314 379
#
# _framework density 23.314927999999998
#
# number of rings (size 3 to 8) (size 9 to 14) (size 15 to 20)
#    0.000    2.000    1.667    1.500    2.333    3.333 
#    0.000    3.333    0.000    0.000    0.000    0.000 
#    0.000    0.000    0.000    0.000    0.000    0.000 
#
# Total GULP energy -133866.479296 kJ/mol
# GULP energy per Si atom -5577.769971 kJ/mol
# Density = 2.326186 g / cm^3
# Si number density = 23.314928 Si / 1000 Ang^3
#
#
#
# Elastic Constant Matrix: (Units=GPa)
#
#
# Indices 1 2 3 4 5 6 
#
# 1 63.9757 64.1708 16.0865 0.0000 0.0000 0.0000
# 2 64.1708 193.4156 49.2800 0.0000 0.0000 0.0000
# 3 16.0865 49.2800 89.3859 0.0000 0.0000 0.0000
# 4 0.0000 0.0000 0.0000 34.0216 0.0000 0.0000
# 5 0.0000 0.0000 0.0000 0.0000 18.7597 0.0000
# 6 0.0000 0.0000 0.0000 0.0000 0.0000 35.3548
#
#
#
# Elastic Compliance Matrix: (Units=1/GPa)
#
#
# Indices 1 2 3 4 5 6 
#
# 1 0.023428 -0.007793 0.000080 0.000000 0.000000 0.000000
# 2 -0.007793 0.008608 -0.003343 0.000000 0.000000 0.000000
# 3 0.000080 -0.003343 0.013016 0.000000 0.000000 0.000000
# 4 0.000000 0.000000 0.000000 0.029393 0.000000 0.000000
# 5 0.000000 0.000000 0.000000 0.000000 0.053306 0.000000
# 6 0.000000 0.000000 0.000000 0.000000 0.000000 0.028285
#
#
# Mechanical properties :
#
#
# Convention : Reuss Voigt Hill
#
# Bulk Modulus (GPa) = 43.59276 67.31687 55.45482
# Shear Modulus (GPa) = 26.91162 32.10989 29.51075
#
# Velocity S-wave (km/s) = 3.40113 3.71512 3.56159
# Velocity P-wave (km/s) = 5.84479 6.88029 6.38357
#
# Compressibility (1/GPa) = 0.02293959
#
# Stress axis : x y z
#
# Youngs Moduli (GPa) = 42.68438 116.17644 76.82836
#
# Poissons Ratio (x) = 0.90539 -0.00617
# Poissons Ratio (y) = 0.33265 0.25684
# Poissons Ratio (z) = -0.00343 0.38838
#
# Static dielectric constant tensor:
#      x y z
#    x 1.972620 0.000000 0.000000 
#    y 0.000000 1.873800 0.000000 
#    z 0.000000 0.000000 1.900100 
# 
# From -- ./inp_files/1578.got.cif
#   From: 2010.05.17/outbox.cif.g08.bks.cpg/sg44_1_cif.got.tgz:1578.got - 2010.06.03 19:37:08.
