data_PCOD9375457
_publ_section_title
;
Structure prediction by ZEFSAII (Michael W. Deem and Ramdas Pophale) SiO2 
 PCOD9375457
Probable space group: I M M 2
;
_chemical_formula_sum "Si O2"
_cell_formula_units_Z 40
_cell_length_a 24.457418
_cell_length_b 8.056105
_cell_length_c 9.820795
_cell_angle_alpha 90.000000
_cell_angle_beta 90.000000
_cell_angle_gamma 90.000000
_cell_volume 1935.006239
_symmetry_space_group_name_H-M "I M M 2"
_symmetry_group_IT_number 44
_symmetry_cell_setting 'orthorhombic'
loop_
_space_group_symop_operation_xyz
x,y,z
-x,-y,z
-x,y,z
x,-y,z
1/2+x,1/2+y,1/2+z
1/2-x,1/2-y,1/2+z
1/2-x,1/2+y,1/2+z
1/2+x,1/2-y,1/2+z
loop_
_atom_site_type_symbol
_atom_site_label
_atom_site_fract_x
_atom_site_fract_y
_atom_site_fract_z
Si Si1 0.189007 0.686609 0.753300
Si Si2 0.000000 0.249419 0.089680
Si Si3 0.883344 0.000000 0.391762
Si Si4 0.120731 0.687264 0.187752
Si Si5 0.000000 0.000000 0.838159
Si Si6 0.767307 0.693645 0.035405
Si Si7 0.381797 0.500000 0.202843
Si Si8 0.500000 0.500000 0.837781
O O1 0.166826 0.500000 0.771296
O O2 0.223130 0.700210 0.614686
O O3 0.144706 0.831240 0.760460
O O4 0.232475 0.716454 0.874177
O O5 0.062154 0.318697 0.108109
O O6 0.000000 0.148377 0.231395
O O7 0.000000 0.152407 0.946991
O O8 0.875434 0.165217 0.300081
O O9 0.861796 0.000000 0.544252
O O10 0.947299 0.000000 0.425940
O O11 0.128216 0.500000 0.245250
O O12 0.170821 0.724905 0.086231
O O13 0.054718 0.000000 0.747047
O O14 0.757324 0.500000 0.066564
#
# Coordination Sequence:
#
# PCOD9375457 Si02
#       8
#     8   4   4   8   2   8   4   2
#     4  11  26  43  66  94 134 171 225 280 336 401
#     4   9  17  36  63  95 123 165 226 265 328 392
#     4  10  22  37  62  89 133 166 221 265 331 395
#     4  10  21  37  65  96 130 169 219 276 333 394
#     4  11  23  42  72  92 135 183 220 276 352 388
#     4  10  23  42  62  95 127 169 221 273 332 403
#     4  12  26  45  66  99 133 181 228 274 333 418
#     4   7  15  34  54  88 115 157 196 262 304 380
#
# _framework density 20.671766999999999
#
# number of rings (size 3 to 8) (size 9 to 14) (size 15 to 20)
#    0.000    1.800    1.000    2.400    5.600    0.800 
#    0.000    1.500    0.000    2.400    0.000    0.000 
#    0.000    0.000    0.000    0.000    0.000    0.000 
#
# Total GULP energy -111383.560473 kJ/mol
# GULP energy per Si atom -5569.178024 kJ/mol
# Density = 2.062472 g / cm^3
# Si number density = 20.671767 Si / 1000 Ang^3
#
#
#
# Elastic Constant Matrix: (Units=GPa)
#
#
# Indices 1 2 3 4 5 6 
#
# 1 112.3823 32.2712 11.6076 0.0000 0.0000 0.0000
# 2 32.2712 121.2111 50.5817 0.0000 0.0000 0.0000
# 3 11.6076 50.5817 90.0240 0.0000 0.0000 0.0000
# 4 0.0000 0.0000 0.0000 16.8569 0.0000 0.0000
# 5 0.0000 0.0000 0.0000 0.0000 24.9955 0.0000
# 6 0.0000 0.0000 0.0000 0.0000 0.0000 49.4762
#
#
#
# Elastic Compliance Matrix: (Units=1/GPa)
#
#
# Indices 1 2 3 4 5 6 
#
# 1 0.009639 -0.002675 0.000260 0.000000 0.000000 0.000000
# 2 -0.002675 0.011519 -0.006127 0.000000 0.000000 0.000000
# 3 0.000260 -0.006127 0.014517 0.000000 0.000000 0.000000
# 4 0.000000 0.000000 0.000000 0.059323 0.000000 0.000000
# 5 0.000000 0.000000 0.000000 0.000000 0.040007 0.000000
# 6 0.000000 0.000000 0.000000 0.000000 0.000000 0.020212
#
#
# Mechanical properties :
#
#
# Convention : Reuss Voigt Hill
#
# Bulk Modulus (GPa) = 53.78782 56.94870 55.36826
# Shear Modulus (GPa) = 28.01126 33.54285 30.77705
#
# Velocity S-wave (km/s) = 3.68509 4.03257 3.86274
# Velocity P-wave (km/s) = 6.64703 7.02076 6.83645
#
# Compressibility (1/GPa) = 0.01859157
#
# Stress axis : x y z
#
# Youngs Moduli (GPa) = 103.74029 86.81151 68.88281
#
# Poissons Ratio (x) = 0.23221 -0.01791
# Poissons Ratio (y) = 0.27750 0.42207
# Poissons Ratio (z) = -0.02698 0.53193
#
# Static dielectric constant tensor:
#      x y z
#    x 1.770560 0.000000 0.000000 
#    y 0.000000 1.764440 0.000000 
#    z 0.000000 0.000000 1.731280 
# 
# From -- ./inp_files/9646.got.cif
#   From: 2010.05.17/outbox.cif.g08.bks.cpg/sg44_5_cif.got.tgz:9646.got - 2010.06.03 19:37:08.
