data_PCOD9375011
_publ_section_title
;
Structure prediction by ZEFSAII (Michael W. Deem and Ramdas Pophale) SiO2 
 PCOD9375011
Probable space group: I M M 2
;
_chemical_formula_sum "Si O2"
_cell_formula_units_Z 48
_cell_length_a 16.251508
_cell_length_b 27.281097
_cell_length_c 5.390069
_cell_angle_alpha 90.000000
_cell_angle_beta 90.000000
_cell_angle_gamma 90.000000
_cell_volume 2389.735419
_symmetry_space_group_name_H-M "I M M 2"
_symmetry_group_IT_number 44
_symmetry_cell_setting 'orthorhombic'
loop_
_space_group_symop_operation_xyz
x,y,z
-x,-y,z
-x,y,z
x,-y,z
1/2+x,1/2+y,1/2+z
1/2-x,1/2-y,1/2+z
1/2-x,1/2+y,1/2+z
1/2+x,1/2-y,1/2+z
loop_
_atom_site_type_symbol
_atom_site_label
_atom_site_fract_x
_atom_site_fract_y
_atom_site_fract_z
Si Si1 0.902462 0.417062 0.292300
Si Si2 0.200177 0.324052 0.269630
Si Si3 0.189095 0.445464 0.779740
Si Si4 0.500000 0.375822 0.847073
Si Si5 0.500000 0.316023 0.341867
Si Si6 0.323944 0.369846 0.900797
Si Si7 0.662653 0.276791 0.563265
O O1 0.871923 0.361165 0.332735
O O2 0.867330 0.443741 0.535532
O O3 0.000000 0.421444 0.277063
O O4 0.861945 0.434776 0.032712
O O5 0.246632 0.292084 0.473637
O O6 0.274434 0.356151 0.149842
O O7 0.164357 0.281135 0.099872
O O8 0.225369 0.500000 0.802029
O O9 0.258121 0.403129 0.754642
O O10 0.500000 0.357956 0.559731
O O11 0.410389 0.398849 0.903300
O O12 0.500000 0.334641 0.062730
O O13 0.584689 0.287569 0.389494
O O14 0.346236 0.316800 0.783665
#
# Coordination Sequence:
#
# PCOD9375011 Si02
#       7
#     8   8   8   4   4   8   8
#     4  11  25  43  64  94 128 164 207 265 316 370
#     4  11  21  35  60  85 126 166 208 251 309 369
#     4  11  24  43  68  93 122 163 211 263 323 379
#     4  10  20  36  59  84 118 156 196 248 301 366
#     4  10  22  34  56  86 115 158 207 244 292 366
#     4  10  21  38  58  88 120 161 205 256 306 370
#     4  11  20  36  57  86 120 166 206 250 306 369
#
# _framework density 20.085906999999999
#
# number of rings (size 3 to 8) (size 9 to 14) (size 15 to 20)
#    0.000    1.333    5.000    1.000    1.167    2.000 
#    0.000    0.417    1.833    0.000    0.000    3.500 
#    0.000    0.000    0.000    0.000    0.000    0.000 
#
# Total GULP energy -133641.952883 kJ/mol
# GULP energy per Si atom -5568.414703 kJ/mol
# Density = 2.004019 g / cm^3
# Si number density = 20.085907 Si / 1000 Ang^3
#
#
#
# Elastic Constant Matrix: (Units=GPa)
#
#
# Indices 1 2 3 4 5 6 
#
# 1 121.6845 16.3901 29.5976 -0.0004 0.0003 -0.0011
# 2 16.3901 84.0228 13.8483 0.0062 0.0009 -0.0031
# 3 29.5976 13.8483 71.9822 0.0351 0.0060 -0.0311
# 4 -0.0004 0.0062 0.0351 -44.3469 -0.0080 -0.0516
# 5 0.0003 0.0009 0.0060 -0.0080 28.6038 0.0006
# 6 -0.0011 -0.0031 -0.0311 -0.0516 0.0006 16.9309
#
#
#
# Elastic Compliance Matrix: (Units=1/GPa)
#
#
# Indices 1 2 3 4 5 6 
#
# 1 0.009250 -0.001216 -0.003569 -0.000003 0.000001 -0.000006
# 2 -0.001216 0.012451 -0.001895 0.000000 0.000000 -0.000001
# 3 -0.003569 -0.001895 0.015725 0.000012 -0.000003 0.000028
# 4 -0.000003 0.000000 0.000012 -0.022549 -0.000006 -0.000069
# 5 0.000001 0.000000 -0.000003 -0.000006 0.034960 -0.000001
# 6 -0.000006 -0.000001 0.000028 -0.000069 -0.000001 0.059063
#
#
# Mechanical properties :
#
#
# Convention : Reuss Voigt Hill
#
# Bulk Modulus (GPa) = 41.55592 44.15127 42.85360
# Shear Modulus (GPa) = 38.37795 14.76114 26.56955
#
# Velocity S-wave (km/s) = 4.37589 2.71385 3.64097
# Velocity P-wave (km/s) = 6.80185 5.64348 6.24956
#
# Compressibility (1/GPa) = 0.02406396
#
# Stress axis : x y z
#
# Youngs Moduli (GPa) = 108.10840 80.31392 63.59438
#
# Poissons Ratio (x) = 0.09767 0.22700
# Poissons Ratio (y) = 0.13147 0.12054
# Poissons Ratio (z) = 0.38589 0.15223
#
# Static dielectric constant tensor:
#      x y z
#    x 1.746160 0.000000 0.000000 
#    y 0.000000 1.762890 0.000010 
#    z 0.000000 0.000010 1.795340 
# 
# From -- ./inp_files/1599.got.cif
#   From: 2010.05.17/outbox.cif.g08.bks.cpg/sg44_1_cif.got.tgz:1599.got - 2010.06.03 19:37:08.
