data_PCOD9375858
_publ_section_title
;
Structure prediction by ZEFSAII (Michael W. Deem and Ramdas Pophale) SiO2 
 PCOD9375858
Probable space group: I M M 2
;
_chemical_formula_sum "Si O2"
_cell_formula_units_Z 56
_cell_length_a 9.154519
_cell_length_b 18.859433
_cell_length_c 21.140396
_cell_angle_alpha 90.000000
_cell_angle_beta 90.000000
_cell_angle_gamma 90.000000
_cell_volume 3649.869027
_symmetry_space_group_name_H-M "I M M 2"
_symmetry_group_IT_number 44
_symmetry_cell_setting 'orthorhombic'
loop_
_space_group_symop_operation_xyz
x,y,z
-x,-y,z
-x,y,z
x,-y,z
1/2+x,1/2+y,1/2+z
1/2-x,1/2-y,1/2+z
1/2-x,1/2+y,1/2+z
1/2+x,1/2-y,1/2+z
loop_
_atom_site_type_symbol
_atom_site_label
_atom_site_fract_x
_atom_site_fract_y
_atom_site_fract_z
Si Si1 0.825435 0.583125 0.173610
Si Si2 0.174289 0.711226 0.482961
Si Si3 0.173923 0.849081 0.552796
Si Si4 0.674751 0.582744 0.916002
Si Si5 0.173922 0.150918 0.794424
Si Si6 0.674751 0.582744 0.431218
Si Si7 0.674289 0.788774 0.364260
O O1 0.785111 0.500000 0.173610
O O2 0.760389 0.619671 0.111330
O O3 0.760390 0.619671 0.235891
O O4 0.000000 0.588577 0.173610
O O5 0.202785 0.765500 0.540395
O O6 0.242260 0.633146 0.480747
O O7 0.249998 0.750000 0.423610
O O8 0.000000 0.708398 0.473928
O O9 0.210415 0.890385 0.487330
O O10 0.000000 0.857873 0.562879
O O11 0.500000 0.592098 0.908676
O O12 0.709903 0.500000 0.909681
O O13 0.757741 0.633146 0.866472
O O14 0.210414 0.109615 0.859890
O O15 0.202782 0.234499 0.806825
O O16 0.000000 0.142126 0.784341
O O17 0.500000 0.592098 0.438544
O O18 0.709903 0.500000 0.437539
O O19 0.500000 0.791601 0.373295
#
# Coordination Sequence:
#
# PCOD9375858 Si02
#       7
#     8   8   8   8   8   8   8
#     4  11  23  33  43  65  92 117 150 189 223 256
#     4   9  17  29  45  65  88 116 150 185 223 266
#     4   9  18  32  47  62  86 122 156 182 213 260
#     4   9  17  29  46  69  94 119 148 182 222 267
#     4   9  18  32  47  62  86 122 156 182 213 260
#     4   9  17  29  46  69  94 119 148 182 222 267
#     4   9  17  29  45  65  88 116 150 185 223 266
#
# _framework density 15.343017
#
# number of rings (size 3 to 8) (size 9 to 14) (size 15 to 20)
#    0.000    2.714    0.000    3.857    0.000    8.571 
#    0.000    0.000    0.000    0.000    0.000    1.000 
#    0.000    8.000    0.000    0.000    0.000    0.000 
#
# Total GULP energy -155952.144767 kJ/mol
# GULP energy per Si atom -5569.719456 kJ/mol
# Density = 1.530810 g / cm^3
# Si number density = 15.343017 Si / 1000 Ang^3
#
#
#
# Elastic Constant Matrix: (Units=GPa)
#
#
# Indices 1 2 3 4 5 6 
#
# 1 49.6184 66.4958 45.2999 0.0000 0.0000 0.0000
# 2 66.4958 156.5408 61.8608 0.0000 0.0000 0.0000
# 3 45.2999 61.8608 66.5852 0.0000 0.0000 0.0000
# 4 0.0000 0.0000 0.0000 24.1023 0.0000 0.0000
# 5 0.0000 0.0000 0.0000 0.0000 22.9941 0.0000
# 6 0.0000 0.0000 0.0000 0.0000 0.0000 30.2033
#
#
#
# Elastic Compliance Matrix: (Units=1/GPa)
#
#
# Indices 1 2 3 4 5 6 
#
# 1 0.078216 -0.019272 -0.035308 0.000000 0.000000 0.000000
# 2 -0.019272 0.014842 -0.000678 0.000000 0.000000 0.000000
# 3 -0.035308 -0.000678 0.039670 0.000000 0.000000 0.000000
# 4 0.000000 0.000000 0.000000 0.041490 0.000000 0.000000
# 5 0.000000 0.000000 0.000000 0.000000 0.043489 0.000000
# 6 0.000000 0.000000 0.000000 0.000000 0.000000 0.033109
#
#
# Mechanical properties :
#
#
# Convention : Reuss Voigt Hill
#
# Bulk Modulus (GPa) = 45.02139 68.89526 56.95833
# Shear Modulus (GPa) = 13.55981 22.06582 17.81282
#
# Velocity S-wave (km/s) = 2.97606 3.79643 3.41100
# Velocity P-wave (km/s) = 6.41999 8.01361 7.26066
#
# Compressibility (1/GPa) = 0.02221166
#
# Stress axis : x y z
#
# Youngs Moduli (GPa) = 12.78508 67.37444 25.20823
#
# Poissons Ratio (x) = 1.29844 0.89006
# Poissons Ratio (y) = 0.24639 0.01709
# Poissons Ratio (z) = 0.45142 0.04568
#
# Static dielectric constant tensor:
#      x y z
#    x 1.509020 0.000000 0.000000 
#    y 0.000000 1.550780 0.000000 
#    z 0.000000 0.000000 1.483810 
# 
# From -- ./inp_files/23219.got.cif
#   From: 2010.05.17/outbox.cif.g08.bks.cpg/sg44_12_cif.got.tgz:23219.got - 2010.06.03 19:37:08.
