data_PCOD9375093
_publ_section_title
;
Structure prediction by ZEFSAII (Michael W. Deem and Ramdas Pophale) SiO2 
 PCOD9375093
Probable space group: I M M 2
;
_chemical_formula_sum "Si O2"
_cell_formula_units_Z 64
_cell_length_a 25.946228
_cell_length_b 8.249794
_cell_length_c 15.305458
_cell_angle_alpha 90.000000
_cell_angle_beta 90.000000
_cell_angle_gamma 90.000000
_cell_volume 3276.149143
_symmetry_space_group_name_H-M "I M M 2"
_symmetry_group_IT_number 44
_symmetry_cell_setting 'orthorhombic'
loop_
_space_group_symop_operation_xyz
x,y,z
-x,-y,z
-x,y,z
x,-y,z
1/2+x,1/2+y,1/2+z
1/2-x,1/2-y,1/2+z
1/2-x,1/2+y,1/2+z
1/2+x,1/2-y,1/2+z
loop_
_atom_site_type_symbol
_atom_site_label
_atom_site_fract_x
_atom_site_fract_y
_atom_site_fract_z
Si Si1 0.440937 0.806092 0.044400
Si Si2 0.942603 0.194671 0.190214
Si Si3 0.263375 0.304916 0.097588
Si Si4 0.349400 0.808664 0.574693
Si Si5 0.162742 0.190543 0.879649
Si Si6 0.611651 0.696016 0.865194
Si Si7 0.225749 0.193933 0.390892
Si Si8 0.365115 0.303594 0.194249
O O1 0.500000 0.746217 0.043193
O O2 0.410261 0.749235 0.129902
O O3 0.441655 0.000000 0.043775
O O4 0.411147 0.748429 0.957864
O O5 0.899258 0.236013 0.119953
O O6 0.923115 0.253958 0.284867
O O7 0.000000 0.256070 0.170051
O O8 0.945210 0.000000 0.195560
O O9 0.261518 0.500000 0.109428
O O10 0.205297 0.241633 0.111754
O O11 0.310568 0.242307 0.154905
O O12 0.276193 0.277970 0.995522
O O13 0.348362 0.778331 0.470698
O O14 0.349934 0.000000 0.590083
O O15 0.223184 0.218104 0.857892
O O16 0.131202 0.247946 0.795093
O O17 0.153743 0.000000 0.893204
O O18 0.612632 0.500000 0.865120
O O19 0.670984 0.749256 0.853619
O O20 0.231806 0.000000 0.377593
O O21 0.363327 0.500000 0.193861
#
# Coordination Sequence:
#
# PCOD9375093 Si02
#       8
#     8   8   8   8   8   8   8   8
#     4  11  24  39  56  84 120 153 191 241 288 335
#     4  10  22  39  59  85 115 148 195 248 288 334
#     4   8  15  31  53  79 110 143 181 226 271 326
#     4  10  21  38  60  82 114 154 190 237 293 344
#     4  10  21  35  57  86 117 150 190 239 288 341
#     4  10  20  37  60  85 115 155 194 229 279 342
#     4   9  17  32  54  81 116 152 186 225 273 337
#     4  10  20  37  59  83 113 153 196 234 281 342
#
# _framework density 19.535129999999999
#
# number of rings (size 3 to 8) (size 9 to 14) (size 15 to 20)
#    0.000    2.250    1.250    2.250    1.750    3.750 
#    0.000    1.250    0.000    0.750    0.000    0.000 
#    0.000    0.000    0.000    0.000    0.000    0.000 
#
# Total GULP energy -178619.930810 kJ/mol
# GULP energy per Si atom -5581.872838 kJ/mol
# Density = 1.949067 g / cm^3
# Si number density = 19.535130 Si / 1000 Ang^3
#
#
#
# Elastic Constant Matrix: (Units=GPa)
#
#
# Indices 1 2 3 4 5 6 
#
# 1 120.5637 4.7661 41.0547 0.0000 0.0000 0.0000
# 2 4.7661 6.8574 -1.2186 0.0000 0.0000 0.0000
# 3 41.0547 -1.2186 59.3667 0.0000 0.0000 0.0000
# 4 0.0000 0.0000 0.0000 11.9197 0.0000 0.0000
# 5 0.0000 0.0000 0.0000 0.0000 28.2548 0.0000
# 6 0.0000 0.0000 0.0000 0.0000 0.0000 24.3613
#
#
#
# Elastic Compliance Matrix: (Units=1/GPa)
#
#
# Indices 1 2 3 4 5 6 
#
# 1 0.011420 -0.009375 -0.008090 0.000000 0.000000 0.000000
# 2 -0.009375 0.154058 0.009645 0.000000 0.000000 0.000000
# 3 -0.008090 0.009645 0.022637 0.000000 0.000000 0.000000
# 4 0.000000 0.000000 0.000000 0.083895 0.000000 0.000000
# 5 0.000000 0.000000 0.000000 0.000000 0.035392 0.000000
# 6 0.000000 0.000000 0.000000 0.000000 0.000000 0.041049
#
#
# Mechanical properties :
#
#
# Convention : Reuss Voigt Hill
#
# Bulk Modulus (GPa) = 5.79789 30.66583 18.23186
# Shear Modulus (GPa) = 11.86011 22.38618 17.12315
#
# Velocity S-wave (km/s) = 2.46665 3.38885 2.96384
# Velocity P-wave (km/s) = 3.32969 5.57174 4.58972
#
# Compressibility (1/GPa) = 0.17247666
#
# Stress axis : x y z
#
# Youngs Moduli (GPa) = 87.56813 6.49105 44.17590
#
# Poissons Ratio (x) = 0.06085 0.35737
# Poissons Ratio (y) = 0.82092 -0.42609
# Poissons Ratio (z) = 0.70839 -0.06261
#
# Static dielectric constant tensor:
#      x y z
#    x 1.691590 0.000000 0.000000 
#    y 0.000000 1.681860 0.000000 
#    z 0.000000 0.000000 1.676100 
# 
# From -- ./inp_files/19504.got.cif
#   From: 2010.05.17/outbox.cif.g08.bks.cpg/sg44_10_cif.got.tgz:19504.got - 2010.06.03 19:37:08.
