data_PCOD9375500
_publ_section_title
;
Structure prediction by ZEFSAII (Michael W. Deem and Ramdas Pophale) SiO2 
 PCOD9375500
Probable space group: I M M 2
;
_chemical_formula_sum "Si O2"
_cell_formula_units_Z 48
_cell_length_a 14.724771
_cell_length_b 9.050104
_cell_length_c 18.615627
_cell_angle_alpha 90.000000
_cell_angle_beta 90.000000
_cell_angle_gamma 90.000000
_cell_volume 2480.731651
_symmetry_space_group_name_H-M "I M M 2"
_symmetry_group_IT_number 44
_symmetry_cell_setting 'orthorhombic'
loop_
_space_group_symop_operation_xyz
x,y,z
-x,-y,z
-x,y,z
x,-y,z
1/2+x,1/2+y,1/2+z
1/2-x,1/2-y,1/2+z
1/2-x,1/2+y,1/2+z
1/2+x,1/2-y,1/2+z
loop_
_atom_site_type_symbol
_atom_site_label
_atom_site_fract_x
_atom_site_fract_y
_atom_site_fract_z
Si Si1 0.108012 0.326914 0.258940
Si Si2 0.392320 0.827774 0.350820
Si Si3 0.894338 0.676559 0.427110
Si Si4 0.393831 0.675306 0.200778
Si Si5 0.724192 0.675058 0.637014
Si Si6 0.723160 0.175928 0.491603
O O1 0.131457 0.500000 0.248218
O O2 0.124184 0.291170 0.342753
O O3 0.164548 0.229253 0.204212
O O4 0.000000 0.311136 0.246724
O O5 0.500000 0.817874 0.365210
O O6 0.372302 0.726757 0.282188
O O7 0.336881 0.787161 0.421655
O O8 0.371835 0.000000 0.332775
O O9 0.882127 0.500000 0.437153
O O10 0.824015 0.766178 0.474559
O O11 0.000000 0.710783 0.441434
O O12 0.500000 0.710041 0.187676
O O13 0.380980 0.500000 0.193520
O O14 0.325201 0.761914 0.150107
O O15 0.725439 0.500000 0.632466
O O16 0.688462 0.745858 0.563354
O O17 0.722088 0.000000 0.501190
#
# Coordination Sequence:
#
# PCOD9375500 Si02
#       6
#     8   8   8   8   8   8
#     4   9  19  38  63  87 113 147 185 227 276 330
#     4   9  19  37  60  85 112 143 181 225 275 331
#     4   9  19  37  60  84 110 143 182 225 277 333
#     4  10  21  38  61  86 111 143 185 232 280 332
#     4  12  25  38  55  81 115 153 189 230 279 330
#     4  11  23  37  55  81 113 150 188 227 275 329
#
# _framework density 19.349129000000001
#
# number of rings (size 3 to 8) (size 9 to 14) (size 15 to 20)
#    0.000    2.000    0.000    4.500    0.000    7.667 
#    0.000    3.333    0.000    0.000    0.000    0.000 
#    0.000    0.000    0.000    0.000    0.000    0.000 
#
# Total GULP energy -134141.922153 kJ/mol
# GULP energy per Si atom -5589.246756 kJ/mol
# Density = 1.930509 g / cm^3
# Si number density = 19.349129 Si / 1000 Ang^3
#
#
#
# Elastic Constant Matrix: (Units=GPa)
#
#
# Indices 1 2 3 4 5 6 
#
# 1 29.1161 17.9414 16.5330 0.0000 0.0000 0.0000
# 2 17.9414 56.4262 26.1530 0.0000 0.0000 0.0000
# 3 16.5330 26.1530 39.2055 0.0000 0.0000 0.0000
# 4 0.0000 0.0000 0.0000 34.3878 0.0000 0.0000
# 5 0.0000 0.0000 0.0000 0.0000 6.3909 0.0000
# 6 0.0000 0.0000 0.0000 0.0000 0.0000 30.4231
#
#
#
# Elastic Compliance Matrix: (Units=1/GPa)
#
#
# Indices 1 2 3 4 5 6 
#
# 1 0.047805 -0.008478 -0.014504 0.000000 0.000000 0.000000
# 2 -0.008478 0.027157 -0.014541 0.000000 0.000000 0.000000
# 3 -0.014504 -0.014541 0.041323 0.000000 0.000000 0.000000
# 4 0.000000 0.000000 0.000000 0.029080 0.000000 0.000000
# 5 0.000000 0.000000 0.000000 0.000000 0.156472 0.000000
# 6 0.000000 0.000000 0.000000 0.000000 0.000000 0.032870
#
#
# Mechanical properties :
#
#
# Convention : Reuss Voigt Hill
#
# Bulk Modulus (GPa) = 24.24840 27.33360 25.79100
# Shear Modulus (GPa) = 11.80638 18.51507 15.16072
#
# Velocity S-wave (km/s) = 2.47285 3.09673 2.80221
# Velocity P-wave (km/s) = 4.55111 5.19071 4.88140
#
# Compressibility (1/GPa) = 0.04123983
#
# Stress axis : x y z
#
# Youngs Moduli (GPa) = 20.91819 36.82234 24.19955
#
# Poissons Ratio (x) = 0.31217 0.35100
# Poissons Ratio (y) = 0.17734 0.35189
# Poissons Ratio (z) = 0.30341 0.53543
#
# Static dielectric constant tensor:
#      x y z
#    x 1.675640 0.000000 0.000000 
#    y 0.000000 1.642800 0.000000 
#    z 0.000000 0.000000 1.666670 
# 
# From -- ./inp_files/20300.got.cif
#   From: 2010.05.17/outbox.cif.g08.bks.cpg/sg44_11_cif.got.tgz:20300.got - 2010.06.03 19:37:08.
