data_PCOD9375811
_publ_section_title
;
Structure prediction by ZEFSAII (Michael W. Deem and Ramdas Pophale) SiO2 
 PCOD9375811
Probable space group: I M M 2
;
_chemical_formula_sum "Si O2"
_cell_formula_units_Z 48
_cell_length_a 14.102955
_cell_length_b 9.019446
_cell_length_c 24.265679
_cell_angle_alpha 90.000000
_cell_angle_beta 90.000000
_cell_angle_gamma 90.000000
_cell_volume 3086.614778
_symmetry_space_group_name_H-M "I M M 2"
_symmetry_group_IT_number 44
_symmetry_cell_setting 'orthorhombic'
loop_
_space_group_symop_operation_xyz
x,y,z
-x,-y,z
-x,y,z
x,-y,z
1/2+x,1/2+y,1/2+z
1/2-x,1/2-y,1/2+z
1/2-x,1/2+y,1/2+z
1/2+x,1/2-y,1/2+z
loop_
_atom_site_type_symbol
_atom_site_label
_atom_site_fract_x
_atom_site_fract_y
_atom_site_fract_z
Si Si1 0.611767 0.822236 0.448370
Si Si2 0.891093 0.321658 0.821591
Si Si3 0.784986 0.823211 0.049488
Si Si4 0.609224 0.177731 0.651437
Si Si5 0.609895 0.678230 0.106606
Si Si6 0.711604 0.676852 0.220887
O O1 0.500000 0.791349 0.458621
O O2 0.632070 0.781441 0.384801
O O3 0.676456 0.738216 0.491834
O O4 0.624182 0.000000 0.454267
O O5 0.889122 0.500000 0.818736
O O6 0.822857 0.255245 0.775841
O O7 0.000000 0.274023 0.810628
O O8 0.854791 0.760942 0.097073
O O9 0.681995 0.758725 0.065545
O O10 0.783841 0.000000 0.050205
O O11 0.500000 0.210899 0.663516
O O12 0.682522 0.214847 0.700253
O O13 0.618016 0.000000 0.641531
O O14 0.500000 0.716515 0.098800
O O15 0.620658 0.500000 0.100565
O O16 0.644025 0.714997 0.168818
O O17 0.706394 0.500000 0.228646
#
# Coordination Sequence:
#
# PCOD9375811 Si02
#       6
#     8   8   8   8   8   8
#     4   9  18  33  50  66  89 124 161 192 226 276
#     4   9  18  31  47  68  93 122 154 187 227 274
#     4  11  21  30  45  72 100 121 148 192 240 278
#     4   9  18  33  50  66  90 127 163 190 223 274
#     4   9  18  33  51  69  92 126 162 188 218 271
#     4   9  17  29  47  71  94 117 150 190 230 271
#
# _framework density 15.551017
#
# number of rings (size 3 to 8) (size 9 to 14) (size 15 to 20)
#    0.000    2.667    0.000    4.500    0.000    7.333 
#    0.000    1.667    0.000    1.000    0.000    4.667 
#    0.000    0.000    0.000    0.000    0.000    0.000 
#
# Total GULP energy -133819.351621 kJ/mol
# GULP energy per Si atom -5575.806318 kJ/mol
# Density = 1.551562 g / cm^3
# Si number density = 15.551017 Si / 1000 Ang^3
#
#
#
# Elastic Constant Matrix: (Units=GPa)
#
#
# Indices 1 2 3 4 5 6 
#
# 1 143.4648 56.3314 90.3135 0.0000 0.0000 0.0000
# 2 56.3314 42.4835 54.3850 0.0000 0.0000 0.0000
# 3 90.3135 54.3850 123.6783 0.0000 0.0000 0.0000
# 4 0.0000 0.0000 0.0000 28.9431 0.0000 0.0000
# 5 0.0000 0.0000 0.0000 0.0000 21.5741 0.0000
# 6 0.0000 0.0000 0.0000 0.0000 0.0000 17.2596
#
#
#
# Elastic Compliance Matrix: (Units=1/GPa)
#
#
# Indices 1 2 3 4 5 6 
#
# 1 0.015963 -0.014286 -0.005375 0.000000 0.000000 0.000000
# 2 -0.014286 0.066639 -0.018871 0.000000 0.000000 0.000000
# 3 -0.005375 -0.018871 0.020308 0.000000 0.000000 0.000000
# 4 0.000000 0.000000 0.000000 0.034551 0.000000 0.000000
# 5 0.000000 0.000000 0.000000 0.000000 0.046352 0.000000
# 6 0.000000 0.000000 0.000000 0.000000 0.000000 0.057939
#
#
# Mechanical properties :
#
#
# Convention : Reuss Voigt Hill
#
# Bulk Modulus (GPa) = 38.68950 79.07628 58.88289
# Shear Modulus (GPa) = 15.27038 20.79514 18.03276
#
# Velocity S-wave (km/s) = 3.13701 3.66077 3.40897
# Velocity P-wave (km/s) = 6.16881 8.29628 7.31035
#
# Compressibility (1/GPa) = 0.02584681
#
# Stress axis : x y z
#
# Youngs Moduli (GPa) = 62.64339 15.00627 49.24048
#
# Poissons Ratio (x) = 0.21438 0.26466
# Poissons Ratio (y) = 0.89493 0.92921
# Poissons Ratio (z) = 0.33670 0.28318
#
# Static dielectric constant tensor:
#      x y z
#    x 1.514710 0.000000 0.000000 
#    y 0.000000 1.517600 0.000000 
#    z 0.000000 0.000000 1.497050 
# 
# From -- ./inp_files/22900.got.cif
#   From: 2010.05.17/outbox.cif.g08.bks.cpg/sg44_12_cif.got.tgz:22900.got - 2010.06.03 19:37:08.
