data_PCOD9375965
_publ_section_title
;
Structure prediction by ZEFSAII (Michael W. Deem and Ramdas Pophale) SiO2 
 PCOD9375965
Probable space group: I M M 2
;
_chemical_formula_sum "Si O2"
_cell_formula_units_Z 19
_cell_length_a 12.000000
_cell_length_b 12.000000
_cell_length_c 15.000000
_cell_angle_alpha 90.000000
_cell_angle_beta 90.000000
_cell_angle_gamma 90.000000
_cell_volume 2160.000000
_symmetry_space_group_name_H-M "I M M 2"
_symmetry_group_IT_number 44
_symmetry_cell_setting 'orthorhombic'
loop_
_space_group_symop_operation_xyz
x,y,z
-x,-y,z
-x,y,z
x,-y,z
1/2+x,1/2+y,1/2+z
1/2-x,1/2-y,1/2+z
1/2-x,1/2+y,1/2+z
1/2+x,1/2-y,1/2+z
loop_
_atom_site_type_symbol
_atom_site_label
_atom_site_fract_x
_atom_site_fract_y
_atom_site_fract_z
Si Si1 0.000000 0.500000 0.378391
Si Si2 0.867012 0.209028 0.788459
Si Si3 0.632238 0.867005 0.455721
Si Si4 0.740960 0.500000 0.387929
Si Si5 0.500000 0.127900 0.706682
Si Si6 0.210908 0.245084 0.127967
Si Si7 0.133548 0.000000 0.080163
O O1 0.872899 0.500000 0.416337
O O2 0.000000 0.393642 0.312191
O O3 0.851825 0.311025 0.858669
O O4 0.795828 0.106880 0.829695
O O5 0.818156 0.235725 0.690519
O O6 0.000000 0.183575 0.785793
O O7 0.500000 0.849514 0.478487
O O8 0.706042 0.802261 0.529718
O O9 0.652985 0.000000 0.455740
O O10 0.665852 0.500000 0.476106
O O11 0.391428 0.193295 0.677032
O O12 0.500000 0.000000 0.669322
O O13 0.183782 0.114232 0.119174
O O14 0.000000 0.000000 0.090803
#
# Coordination Sequence:
#
# PCOD9375965 Si02
#       7
#     2   8   8   4   4   8   4
#     4  10  22  38  64  92 120 154 212 264 308 368
#     4  11  24  41  62  91 127 166 206 258 316 377
#     4  10  21  38  63  88 116 158 211 258 300 364
#     4  12  22  42  64  93 121 163 210 261 318 375
#     4  10  18  35  61  92 111 149 209 263 304 357
#     4  12  22  38  63  92 121 160 212 259 311 372
#     4  12  24  40  62  90 127 165 211 265 319 371
#
# _framework density 8.7962959999999999
#
# number of rings (size 3 to 8) (size 9 to 14) (size 15 to 20)
#    0.316    0.632    6.316    1.579    2.947    0.000 
#    1.895    0.000    2.316    0.000    0.000    0.000 
#    0.000    0.000    0.000    0.000    0.000    0.000 
#
# Total GULP energy -105996.723807 kJ/mol
# GULP energy per Si atom -5578.774937 kJ/mol
# Density = 0.877628 g / cm^3
# Si number density = 8.796296 Si / 1000 Ang^3
#
#
#
# Elastic Constant Matrix: (Units=GPa)
#
#
# Indices 1 2 3 4 5 6 
#
# 1 88.1543 27.5077 25.5920 0.0000 0.0000 0.0000
# 2 27.5077 137.4925 29.1183 0.0000 0.0000 0.0000
# 3 25.5920 29.1183 76.1099 0.0000 0.0000 0.0000
# 4 0.0000 0.0000 0.0000 24.5646 0.0000 0.0000
# 5 0.0000 0.0000 0.0000 0.0000 43.8015 0.0000
# 6 0.0000 0.0000 0.0000 0.0000 0.0000 17.6774
#
#
#
# Elastic Compliance Matrix: (Units=1/GPa)
#
#
# Indices 1 2 3 4 5 6 
#
# 1 0.012976 -0.001819 -0.003667 0.000000 0.000000 0.000000
# 2 -0.001819 0.008169 -0.002514 0.000000 0.000000 0.000000
# 3 -0.003667 -0.002514 0.015334 0.000000 0.000000 0.000000
# 4 0.000000 0.000000 0.000000 0.040709 0.000000 0.000000
# 5 0.000000 0.000000 0.000000 0.000000 0.022830 0.000000
# 6 0.000000 0.000000 0.000000 0.000000 0.000000 0.056569
#
#
# Mechanical properties :
#
#
# Convention : Reuss Voigt Hill
#
# Bulk Modulus (GPa) = 48.83132 51.79921 50.31526
# Shear Modulus (GPa) = 27.86842 31.84462 29.85652
#
# Velocity S-wave (km/s) = 3.98439 4.25916 4.12407
# Velocity P-wave (km/s) = 6.99887 7.32768 7.16516
#
# Compressibility (1/GPa) = 0.02047866
#
# Stress axis : x y z
#
# Youngs Moduli (GPa) = 77.06486 122.40660 65.21597
#
# Poissons Ratio (x) = 0.22271 0.23915
# Poissons Ratio (y) = 0.14022 0.16393
# Poissons Ratio (z) = 0.28261 0.30769
#
# Static dielectric constant tensor:
#      x y z
#    x 1.585870 0.000000 0.000000 
#    y 0.000000 1.604240 0.000000 
#    z 0.000000 0.000000 1.623560 
# 
# From -- ./inp_files/17524.got.cif
#   From: 2010.05.17/outbox.ucp.g08.bks.cvg/sg44_9_cif.got.tgz:17524.got - 2010.06.11 16:32:36.
