data_PCOD9375786
_publ_section_title
;
Structure prediction by ZEFSAII (Michael W. Deem and Ramdas Pophale) SiO2 
 PCOD9375786
Probable space group: I M M 2
;
_chemical_formula_sum "Si O2"
_cell_formula_units_Z 48
_cell_length_a 11.381306
_cell_length_b 11.401318
_cell_length_c 19.843476
_cell_angle_alpha 90.000000
_cell_angle_beta 90.000000
_cell_angle_gamma 90.000000
_cell_volume 2574.926929
_symmetry_space_group_name_H-M "I M M 2"
_symmetry_group_IT_number 44
_symmetry_cell_setting 'orthorhombic'
loop_
_space_group_symop_operation_xyz
x,y,z
-x,-y,z
-x,y,z
x,-y,z
1/2+x,1/2+y,1/2+z
1/2-x,1/2-y,1/2+z
1/2-x,1/2+y,1/2+z
1/2+x,1/2-y,1/2+z
loop_
_atom_site_type_symbol
_atom_site_label
_atom_site_fract_x
_atom_site_fract_y
_atom_site_fract_z
Si Si1 0.640631 0.138270 0.338950
Si Si2 0.246441 0.757512 0.711629
Si Si3 0.360842 0.500000 0.030394
Si Si4 0.500000 0.864409 0.538316
Si Si5 0.263425 0.224944 0.473477
Si Si6 0.000000 0.361946 0.199679
Si Si7 0.639215 0.500000 0.184257
Si Si8 0.137782 0.638365 0.580502
O O1 0.500000 0.159631 0.338447
O O2 0.696792 0.169169 0.267224
O O3 0.704271 0.217926 0.395147
O O4 0.657204 0.000000 0.354938
O O5 0.383224 0.790096 0.718952
O O6 0.182105 0.882313 0.718976
O O7 0.209222 0.707442 0.638337
O O8 0.500000 0.500000 0.034431
O O9 0.312260 0.500000 0.107149
O O10 0.316607 0.386134 0.992289
O O11 0.614015 0.799240 0.511153
O O12 0.500000 0.867366 0.618518
O O13 0.500000 0.000000 0.513364
O O14 0.196509 0.332312 0.508503
O O15 0.000000 0.500000 0.222584
O O16 0.500000 0.500000 0.180903
O O17 0.142552 0.500000 0.593926
O O18 0.000000 0.675253 0.582030
#
# Coordination Sequence:
#
# PCOD9375786 Si02
#       8
#     8   8   4   4   8   4   4   8
#     4  11  24  43  66  92 125 165 206 258 319 375
#     4  12  23  41  64  94 126 166 212 256 311 375
#     4  11  20  33  61  99 127 149 200 267 311 357
#     4  11  18  34  66  98 124 151 196 259 315 371
#     4  12  21  39  65  96 123 160 207 255 315 374
#     4  11  22  40  64  94 128 167 204 257 317 371
#     4  11  20  35  65  99 125 157 210 265 303 351
#     4  11  24  43  66  92 127 169 210 257 312 371
#
# _framework density 18.641306
#
# number of rings (size 3 to 8) (size 9 to 14) (size 15 to 20)
#    0.000    0.667    6.667    2.500    0.000    1.333 
#    4.500    2.917    0.000    0.000    0.000    0.000 
#    0.000    0.000    0.000    0.000    0.000    0.000 
#
# Total GULP energy -134061.971017 kJ/mol
# GULP energy per Si atom -5585.915459 kJ/mol
# Density = 1.859888 g / cm^3
# Si number density = 18.641306 Si / 1000 Ang^3
#
#
#
# Elastic Constant Matrix: (Units=GPa)
#
#
# Indices 1 2 3 4 5 6 
#
# 1 122.4271 31.6065 23.7704 0.0000 0.0000 0.0000
# 2 31.6065 60.9118 6.3495 0.0000 0.0000 0.0000
# 3 23.7704 6.3495 73.0013 0.0000 0.0000 0.0000
# 4 0.0000 0.0000 0.0000 26.2714 0.0000 0.0000
# 5 0.0000 0.0000 0.0000 0.0000 27.9985 0.0000
# 6 0.0000 0.0000 0.0000 0.0000 0.0000 29.4171
#
#
#
# Elastic Compliance Matrix: (Units=1/GPa)
#
#
# Indices 1 2 3 4 5 6 
#
# 1 0.009977 -0.004883 -0.002824 0.000000 0.000000 0.000000
# 2 -0.004883 0.018957 -0.000059 0.000000 0.000000 0.000000
# 3 -0.002824 -0.000059 0.014623 0.000000 0.000000 0.000000
# 4 0.000000 0.000000 0.000000 0.038064 0.000000 0.000000
# 5 0.000000 0.000000 0.000000 0.000000 0.035716 0.000000
# 6 0.000000 0.000000 0.000000 0.000000 0.000000 0.033994
#
#
# Mechanical properties :
#
#
# Convention : Reuss Voigt Hill
#
# Bulk Modulus (GPa) = 35.68140 42.19921 38.94030
# Shear Modulus (GPa) = 28.37619 29.71165 29.04392
#
# Velocity S-wave (km/s) = 3.90580 3.99665 3.95149
# Velocity P-wave (km/s) = 6.28673 6.63206 6.46170
#
# Compressibility (1/GPa) = 0.02802581
#
# Stress axis : x y z
#
# Youngs Moduli (GPa) = 100.23118 52.75139 68.38517
#
# Poissons Ratio (x) = 0.25756 0.19312
# Poissons Ratio (y) = 0.48938 0.00403
# Poissons Ratio (z) = 0.28305 0.00311
#
# Static dielectric constant tensor:
#      x y z
#    x 1.626000 0.000000 0.000000 
#    y 0.000000 1.633000 0.000000 
#    z 0.000000 0.000000 1.650830 
# 
# From -- ./inp_files/23761.got.cif
#   From: 2010.05.17/outbox.cif.g08.bks.cpg/sg44_12_cif.got.tgz:23761.got - 2010.06.03 19:37:08.
