data_PCOD9375937
_publ_section_title
;
Structure prediction by ZEFSAII (Michael W. Deem and Ramdas Pophale) SiO2 
 PCOD9375937
Probable space group: I M M 2
;
_chemical_formula_sum "Si O2"
_cell_formula_units_Z 48
_cell_length_a 17.106031
_cell_length_b 7.470322
_cell_length_c 19.295455
_cell_angle_alpha 90.000000
_cell_angle_beta 90.000000
_cell_angle_gamma 90.000000
_cell_volume 2465.719108
_symmetry_space_group_name_H-M "I M M 2"
_symmetry_group_IT_number 44
_symmetry_cell_setting 'orthorhombic'
loop_
_space_group_symop_operation_xyz
x,y,z
-x,-y,z
-x,y,z
x,-y,z
1/2+x,1/2+y,1/2+z
1/2-x,1/2-y,1/2+z
1/2-x,1/2+y,1/2+z
1/2+x,1/2-y,1/2+z
loop_
_atom_site_type_symbol
_atom_site_label
_atom_site_fract_x
_atom_site_fract_y
_atom_site_fract_z
Si Si1 0.670943 0.283464 0.025170
Si Si2 0.911765 0.214947 0.078648
Si Si3 0.500000 0.718550 0.052163
Si Si4 0.000000 0.782241 0.712770
Si Si5 0.840054 0.219380 0.787499
Si Si6 0.238384 0.713421 0.162297
Si Si7 0.321505 0.709973 0.442999
O O1 0.671164 0.500000 0.026512
O O2 0.581629 0.223365 0.018699
O O3 0.707513 0.220283 0.098584
O O4 0.731700 0.226641 0.966589
O O5 0.850539 0.252146 0.140067
O O6 0.873067 0.284466 0.006832
O O7 0.000000 0.280971 0.088631
O O8 0.915211 0.000000 0.073079
O O9 0.500000 0.500000 0.051523
O O10 0.500000 0.773804 0.132788
O O11 0.078301 0.727314 0.752312
O O12 0.000000 0.000000 0.711776
O O13 0.770815 0.278567 0.735770
O O14 0.838513 0.000000 0.789530
O O15 0.834117 0.284033 0.866328
O O16 0.248546 0.500000 0.163117
O O17 0.341377 0.500000 0.439252
#
# Coordination Sequence:
#
# PCOD9375937 Si02
#       7
#     8   8   4   4   8   8   8
#     4   9  16  28  46  68  91 118 150 183 218 261
#     4   9  18  31  46  66  91 119 151 184 219 263
#     4   9  14  24  45  71  93 110 143 190 224 255
#     4   9  14  22  42  73  97 112 137 182 230 265
#     4   9  16  26  44  70  96 117 143 181 225 269
#     4   9  16  28  47  69  90 115 149 186 223 261
#     4   9  18  30  45  67  95 121 144 178 225 271
#
# _framework density 19.466936
#
# number of rings (size 3 to 8) (size 9 to 14) (size 15 to 20)
#    0.000    3.000    1.667    0.000    1.167    0.333 
#    0.000    1.250    1.833    0.000    0.000    1.750 
#    0.000    0.000    0.000    0.000    0.000    0.000 
#
# Total GULP energy -133823.103134 kJ/mol
# GULP energy per Si atom -5575.962631 kJ/mol
# Density = 1.942263 g / cm^3
# Si number density = 19.466936 Si / 1000 Ang^3
#
#
#
# Elastic Constant Matrix: (Units=GPa)
#
#
# Indices 1 2 3 4 5 6 
#
# 1 153.1019 -8.3812 59.6726 0.0000 0.0000 0.0000
# 2 -8.3812 53.0886 0.6177 0.0000 0.0000 0.0000
# 3 59.6726 0.6177 97.5075 0.0000 0.0000 0.0000
# 4 0.0000 0.0000 0.0000 8.3686 0.0000 0.0000
# 5 0.0000 0.0000 0.0000 0.0000 18.4750 0.0000
# 6 0.0000 0.0000 0.0000 0.0000 0.0000 47.6389
#
#
#
# Elastic Compliance Matrix: (Units=1/GPa)
#
#
# Indices 1 2 3 4 5 6 
#
# 1 0.008685 0.001433 -0.005324 0.000000 0.000000 0.000000
# 2 0.001433 0.019074 -0.000998 0.000000 0.000000 0.000000
# 3 -0.005324 -0.000998 0.013520 0.000000 0.000000 0.000000
# 4 0.000000 0.000000 0.000000 0.119494 0.000000 0.000000
# 5 0.000000 0.000000 0.000000 0.000000 0.054127 0.000000
# 6 0.000000 0.000000 0.000000 0.000000 0.000000 0.020991
#
#
# Mechanical properties :
#
#
# Convention : Reuss Voigt Hill
#
# Bulk Modulus (GPa) = 31.74427 45.27958 38.51192
# Shear Modulus (GPa) = 19.51823 31.68243 25.60033
#
# Velocity S-wave (km/s) = 3.16988 4.03860 3.63032
# Velocity P-wave (km/s) = 5.45341 6.71248 6.11543
#
# Compressibility (1/GPa) = 0.03150175
#
# Stress axis : x y z
#
# Youngs Moduli (GPa) = 115.13815 52.42660 73.96297
#
# Poissons Ratio (x) = -0.07513 0.39380
# Poissons Ratio (y) = -0.16500 0.07380
# Poissons Ratio (z) = 0.61302 0.05231
#
# Static dielectric constant tensor:
#      x y z
#    x 1.678000 0.000000 0.000000 
#    y 0.000000 1.767830 0.000000 
#    z 0.000000 0.000000 1.661010 
# 
# From -- ./inp_files/17717.got.cif
#   From: 2010.05.17/outbox.cif.g08.bks.cpg/sg44_9_cif.got.tgz:17717.got - 2010.06.03 19:37:08.
