data_PCOD9375985
_publ_section_title
;
Structure prediction by ZEFSAII (Michael W. Deem and Ramdas Pophale) SiO2 
 PCOD9375985
Probable space group: I M M 2
;
_chemical_formula_sum "Si O2"
_cell_formula_units_Z 32
_cell_length_a 24.000000
_cell_length_b 9.000000
_cell_length_c 18.000000
_cell_angle_alpha 90.000000
_cell_angle_beta 90.000000
_cell_angle_gamma 90.000000
_cell_volume 3888.000000
_symmetry_space_group_name_H-M "I M M 2"
_symmetry_group_IT_number 44
_symmetry_cell_setting 'orthorhombic'
loop_
_space_group_symop_operation_xyz
x,y,z
-x,-y,z
-x,y,z
x,-y,z
1/2+x,1/2+y,1/2+z
1/2-x,1/2-y,1/2+z
1/2-x,1/2+y,1/2+z
1/2+x,1/2-y,1/2+z
loop_
_atom_site_type_symbol
_atom_site_label
_atom_site_fract_x
_atom_site_fract_y
_atom_site_fract_z
Si Si1 0.224281 0.673780 0.742890
Si Si2 0.108937 0.177707 0.357626
Si Si3 0.750129 0.334327 0.013577
Si Si4 0.177821 0.675652 0.148735
Si Si5 0.274296 0.171778 0.869349
Si Si6 0.062878 0.818937 0.516655
Si Si7 0.560904 0.178379 0.715148
Si Si8 0.649895 0.329002 0.133044
O O1 0.227953 0.500000 0.756072
O O2 0.277803 0.729807 0.695385
O O3 0.225659 0.767371 0.817820
O O4 0.170755 0.720725 0.696149
O O5 0.171060 0.236312 0.346680
O O6 0.091265 0.226719 0.439907
O O7 0.070130 0.247221 0.294989
O O8 0.107053 0.000000 0.353491
O O9 0.750899 0.500000 0.978782
O O10 0.804719 0.311369 0.063107
O O11 0.698893 0.334179 0.071203
O O12 0.739890 0.210381 0.953355
O O13 0.185695 0.500000 0.168197
O O14 0.114816 0.719172 0.166662
O O15 0.285004 0.000000 0.857277
O O16 0.096375 0.773944 0.589053
O O17 0.000000 0.767931 0.517430
O O18 0.063988 0.000000 0.516435
O O19 0.500000 0.219667 0.685208
O O20 0.562347 0.000000 0.723681
O O21 0.643006 0.500000 0.159006
#
# Coordination Sequence:
#
# PCOD9375985 Si02
#       8
#     8   8   8   8   8   8   8   8
#     4  11  21  32  49  71  95 125 163 203 244 294
#     4  11  20  32  47  69  99 134 173 205 234 277
#     4   9  17  31  49  69  94 127 162 198 243 291
#     4   9  18  33  50  69  97 130 160 198 243 287
#     4  12  22  32  48  71  98 129 162 202 253 297
#     4   9  17  30  49  71  97 132 170 201 234 281
#     4  10  20  33  49  71 100 135 170 201 236 282
#     4   9  17  32  50  70  98 128 160 200 244 285
#
# _framework density 8.2304530000000007
#
# number of rings (size 3 to 8) (size 9 to 14) (size 15 to 20)
#    0.000    2.000    2.500    3.750    0.000    2.750 
#    0.000    0.000    0.000    1.875    0.000    0.875 
#    0.000    3.000    0.000    0.000    0.000    0.000 
#
# Total GULP energy -178341.076977 kJ/mol
# GULP energy per Si atom -5573.158656 kJ/mol
# Density = 0.821172 g / cm^3
# Si number density = 8.230453 Si / 1000 Ang^3
#
#
#
# Elastic Constant Matrix: (Units=GPa)
#
#
# Indices 1 2 3 4 5 6 
#
# 1 18.2166 10.7256 13.1443 0.0000 0.0000 0.0000
# 2 10.7256 -7.3335 -3.4674 0.0000 0.0000 0.0000
# 3 13.1443 -3.4674 15.7760 0.0000 0.0000 0.0000
# 4 0.0000 0.0000 0.0000 20.3776 0.0000 0.0000
# 5 0.0000 0.0000 0.0000 0.0000 11.8359 0.0000
# 6 0.0000 0.0000 0.0000 0.0000 0.0000 15.4529
#
#
#
# Elastic Compliance Matrix: (Units=1/GPa)
#
#
# Indices 1 2 3 4 5 6 
#
# 1 0.033155 0.055758 -0.015369 0.000000 0.000000 0.000000
# 2 0.055758 -0.029754 -0.052996 0.000000 0.000000 0.000000
# 3 -0.015369 -0.052996 0.064545 0.000000 0.000000 0.000000
# 4 0.000000 0.000000 0.000000 0.049073 0.000000 0.000000
# 5 0.000000 0.000000 0.000000 0.000000 0.084489 0.000000
# 6 0.000000 0.000000 0.000000 0.000000 0.000000 0.064713
#
#
# Mechanical properties :
#
#
# Convention : Reuss Voigt Hill
#
# Bulk Modulus (GPa) = 23.40200 7.49600 15.44900
# Shear Modulus (GPa) = 16.35698 9.95040 13.15369
#
# Velocity S-wave (km/s) = 3.15570 2.46130 2.82988
# Velocity P-wave (km/s) = 5.24647 3.55542 4.48144
#
# Compressibility (1/GPa) = 0.04273138
#
# Stress axis : x y z
#
# Youngs Moduli (GPa) = 30.16091 -33.60893 15.49314
#
# Poissons Ratio (x) = 1.87397 0.23812
# Poissons Ratio (y) = -1.68171 0.82108
# Poissons Ratio (z) = 0.46355 -1.78114
#
# Static dielectric constant tensor:
#      x y z
#    x 1.576700 0.000000 0.000000 
#    y 0.000000 1.548400 0.000000 
#    z 0.000000 0.000000 1.583900 
# 
# From -- ./inp_files/20840.got.cif
#   From: 2010.05.17/outbox.ucp.g08.bks.cvg/sg44_11_cif.got.tgz:20840.got - 2010.06.11 16:32:36.
