data_PCOD9375378
_publ_section_title
;
Structure prediction by ZEFSAII (Michael W. Deem and Ramdas Pophale) SiO2 
 PCOD9375378
Probable space group: I M M 2
;
_chemical_formula_sum "Si O2"
_cell_formula_units_Z 48
_cell_length_a 34.611277
_cell_length_b 8.626702
_cell_length_c 7.534327
_cell_angle_alpha 90.000000
_cell_angle_beta 90.000000
_cell_angle_gamma 90.000000
_cell_volume 2249.608190
_symmetry_space_group_name_H-M "I M M 2"
_symmetry_group_IT_number 44
_symmetry_cell_setting 'orthorhombic'
loop_
_space_group_symop_operation_xyz
x,y,z
-x,-y,z
-x,y,z
x,-y,z
1/2+x,1/2+y,1/2+z
1/2-x,1/2-y,1/2+z
1/2-x,1/2+y,1/2+z
1/2+x,1/2-y,1/2+z
loop_
_atom_site_type_symbol
_atom_site_label
_atom_site_fract_x
_atom_site_fract_y
_atom_site_fract_z
Si Si1 0.069095 0.670828 0.599980
Si Si2 0.545704 0.166746 0.512022
Si Si3 0.954313 0.000000 0.578968
Si Si4 0.159034 0.679334 0.548555
Si Si5 0.547443 0.500000 0.494415
Si Si6 0.714838 0.186673 0.358904
Si Si7 0.700489 0.683684 0.738422
O O1 0.059479 0.500000 0.520643
O O2 0.050471 0.670159 0.796996
O O3 0.057287 0.831093 0.505446
O O4 0.115304 0.680882 0.615405
O O5 0.500000 0.164208 0.551858
O O6 0.560904 0.335073 0.572571
O O7 0.562621 0.000000 0.571431
O O8 0.940838 0.000000 0.785925
O O9 0.000000 0.000000 0.579568
O O10 0.169498 0.500000 0.514814
O O11 0.187859 0.742278 0.698489
O O12 0.165987 0.769187 0.367235
O O13 0.500000 0.500000 0.499562
O O14 0.698830 0.243929 0.544956
O O15 0.758995 0.238165 0.327672
O O16 0.714189 0.000000 0.358428
O O17 0.702430 0.500000 0.721183
#
# Coordination Sequence:
#
# PCOD9375378 Si02
#       7
#     8   8   4   8   4   8   8
#     4   9  17  28  44  69 104 145 183 227 289 341
#     4   8  12  19  33  54  83 118 156 198 245 304
#     4   9  16  26  44  70 104 144 186 230 280 344
#     4  10  21  37  55  78 113 151 188 239 294 345
#     4   7  10  16  26  44  70 104 144 186 230 280
#     4  10  21  37  56  79 109 146 191 239 289 349
#     4  11  22  35  56  82 107 144 192 240 290 347
#
# _framework density 21.337047999999999
#
# number of rings (size 3 to 8) (size 9 to 14) (size 15 to 20)
#    0.000    2.667    1.667    2.000    1.167    2.333 
#    0.000    0.000    0.000    0.000    0.000    0.000 
#    0.000    6.667    0.000   42.333    0.000    0.000 
#
# Total GULP energy -133776.035196 kJ/mol
# GULP energy per Si atom -5574.001467 kJ/mol
# Density = 2.128848 g / cm^3
# Si number density = 21.337048 Si / 1000 Ang^3
#
#
#
# Elastic Constant Matrix: (Units=GPa)
#
#
# Indices 1 2 3 4 5 6 
#
# 1 22.0427 13.9127 -9.8394 0.0000 0.0043 0.0000
# 2 13.9127 164.1055 13.3187 0.0000 0.0053 0.0000
# 3 -9.8394 13.3187 57.3842 0.0000 0.0251 0.0000
# 4 0.0000 0.0000 0.0000 6.1210 0.0156 0.0000
# 5 0.0043 0.0053 0.0251 0.0156********** 0.0011
# 6 0.0000 0.0000 0.0000 0.0000 0.0011 28.0903
#
#
#
# Elastic Compliance Matrix: (Units=1/GPa)
#
#
# Indices 1 2 3 4 5 6 
#
# 1 0.053401 -0.005372 0.010403 0.000000 0.000000 0.000000
# 2 -0.005372 0.006751 -0.002488 0.000000 0.000000 0.000000
# 3 0.010403 -0.002488 0.019788 0.000000 0.000000 0.000000
# 4 0.000000 0.000000 0.000000 0.163372 0.000000 0.000000
# 5 0.000000 0.000000 0.000000 0.000000 -0.000020 0.000000
# 6 0.000000 0.000000 0.000000 0.000000 0.000000 0.035599
#
#
# Mechanical properties :
#
#
# Convention : Reuss Voigt Hill
#
# Bulk Modulus (GPa) = 11.76104 30.92403 21.34254
# Shear Modulus (GPa) = 16.54831 -10127.27290 -5055.36229
#
# Velocity S-wave (km/s) = 2.78792 -68.96837 -48.72814
# Velocity P-wave (km/s) = 3.98589 79.54657 56.17726
#
# Compressibility (1/GPa) = 0.08502650
#
# Stress axis : x y z
#
# Youngs Moduli (GPa) = 18.72637 148.12720 50.53661
#
# Poissons Ratio (x) = 0.79567 -0.52574
# Poissons Ratio (y) = 0.10059 0.12573
# Poissons Ratio (z) = -0.19481 0.36853
#
# Static dielectric constant tensor:
#      x y z
#    x 50.661430 0.000000 0.000000 
#    y 0.000000 1.835450 0.000000 
#    z 0.000000 0.000000 1.735060 
# 
# From -- ./inp_files/9993.got.cif
#   From: 2010.05.17/outbox.cif.g08.bks.cpg/sg44_5_cif.got.tgz:9993.got - 2010.06.03 19:37:08.
