data_PCOD9375004
_publ_section_title
;
Structure prediction by ZEFSAII (Michael W. Deem and Ramdas Pophale) SiO2 
 PCOD9375004
Probable space group: I M M 2
;
_chemical_formula_sum "Si O2"
_cell_formula_units_Z 64
_cell_length_a 21.529394
_cell_length_b 16.877358
_cell_length_c 8.825093
_cell_angle_alpha 90.000000
_cell_angle_beta 90.000000
_cell_angle_gamma 90.000000
_cell_volume 3206.679527
_symmetry_space_group_name_H-M "I M M 2"
_symmetry_group_IT_number 44
_symmetry_cell_setting 'orthorhombic'
loop_
_space_group_symop_operation_xyz
x,y,z
-x,-y,z
-x,y,z
x,-y,z
1/2+x,1/2+y,1/2+z
1/2-x,1/2-y,1/2+z
1/2-x,1/2+y,1/2+z
1/2+x,1/2-y,1/2+z
loop_
_atom_site_type_symbol
_atom_site_label
_atom_site_fract_x
_atom_site_fract_y
_atom_site_fract_z
Si Si1 0.430682 0.689962 0.442440
Si Si2 0.307955 0.312566 0.624188
Si Si3 0.567417 0.860547 0.580945
Si Si4 0.300003 0.878511 0.621148
Si Si5 0.569876 0.654851 0.087439
Si Si6 0.183096 0.086756 0.416845
Si Si7 0.931124 0.671627 0.440005
Si Si8 0.197305 0.590323 0.474743
O O1 0.500000 0.661486 0.490976
O O2 0.370874 0.662263 0.536289
O O3 0.431720 0.784647 0.470992
O O4 0.422586 0.669731 0.266534
O O5 0.301109 0.217719 0.618244
O O6 0.314246 0.343961 0.793954
O O7 0.247447 0.353203 0.552722
O O8 0.500000 0.900421 0.564655
O O9 0.632107 0.905373 0.562716
O O10 0.570684 0.829284 0.756074
O O11 0.244332 0.907572 0.518528
O O12 0.291961 0.905195 0.793884
O O13 0.500000 0.624219 0.061182
O O14 0.574513 0.739795 0.003587
O O15 0.623296 0.600164 0.021576
O O16 0.180091 0.000000 0.343075
O O17 0.873026 0.621097 0.497782
O O18 0.000000 0.641445 0.483436
O O19 0.204079 0.500000 0.526661
#
# Coordination Sequence:
#
# PCOD9375004 Si02
#       8
#     8   8   8   8   8   8   8   8
#     4   9  18  33  57  86 109 134 178 235 283 325
#     4  11  22  38  59  82 110 150 195 235 280 343
#     4   8  15  30  53  83 112 138 177 230 278 323
#     4  10  20  36  59  83 110 149 192 233 279 340
#     4  10  20  36  59  85 112 146 190 235 280 339
#     4  12  25  39  56  82 117 151 187 237 294 342
#     4   9  18  34  58  85 113 148 191 233 277 337
#     4  11  22  36  55  82 117 150 186 238 295 341
#
# _framework density 19.958341000000001
#
# number of rings (size 3 to 8) (size 9 to 14) (size 15 to 20)
#    0.000    2.000    0.000    5.250    0.000    5.000 
#    0.000    0.625    0.000    3.750    0.000    0.000 
#    0.000    5.000    0.000    0.000    0.000    0.000 
#
# Total GULP energy -178636.879552 kJ/mol
# GULP energy per Si atom -5582.402486 kJ/mol
# Density = 1.991291 g / cm^3
# Si number density = 19.958341 Si / 1000 Ang^3
#
#
#
# Elastic Constant Matrix: (Units=GPa)
#
#
# Indices 1 2 3 4 5 6 
#
# 1 165.0536 38.6674 46.1562 0.0000 0.0000 0.0000
# 2 38.6674 74.8325 4.2893 0.0000 0.0000 0.0000
# 3 46.1562 4.2893 37.7938 0.0000 0.0000 0.0000
# 4 0.0000 0.0000 0.0000 6.6565 0.0000 0.0000
# 5 0.0000 0.0000 0.0000 0.0000 30.5477 0.0000
# 6 0.0000 0.0000 0.0000 0.0000 0.0000 -19.6717
#
#
#
# Elastic Compliance Matrix: (Units=1/GPa)
#
#
# Indices 1 2 3 4 5 6 
#
# 1 0.010678 -0.004801 -0.012495 0.000000 0.000000 0.000000
# 2 -0.004801 0.015609 0.004092 0.000000 0.000000 0.000000
# 3 -0.012495 0.004092 0.041255 0.000000 0.000000 0.000000
# 4 0.000000 0.000000 0.000000 0.150229 0.000000 0.000000
# 5 0.000000 0.000000 0.000000 0.000000 0.032736 0.000000
# 6 0.000000 0.000000 0.000000 0.000000 0.000000 -0.050834
#
#
# Mechanical properties :
#
#
# Convention : Reuss Voigt Hill
#
# Bulk Modulus (GPa) = 24.31132 50.65619 37.48376
# Shear Modulus (GPa) = 20.85135 16.07763 18.46449
#
# Velocity S-wave (km/s) = 3.23576 2.84132 3.04493
# Velocity P-wave (km/s) = 5.11543 6.01666 5.58426
#
# Compressibility (1/GPa) = 0.04113310
#
# Stress axis : x y z
#
# Youngs Moduli (GPa) = 93.65340 64.06365 24.23941
#
# Poissons Ratio (x) = 0.30758 0.30288
# Poissons Ratio (y) = 0.44964 -0.09919
# Poissons Ratio (z) = 1.17023 -0.26214
#
# Static dielectric constant tensor:
#      x y z
#    x 1.735230 0.000000 0.000000 
#    y 0.000000 1.671820 0.000000 
#    z 0.000000 0.000000 1.674990 
# 
# From -- ./inp_files/9024.got.cif
#   From: 2010.05.17/outbox.cif.g08.bks.cpg/sg44_5_cif.got.tgz:9024.got - 2010.06.03 19:37:08.
