data_PCOD9375607
_publ_section_title
;
Structure prediction by ZEFSAII (Michael W. Deem and Ramdas Pophale) SiO2 
 PCOD9375607
Probable space group: I M M 2
;
_chemical_formula_sum "Si O2"
_cell_formula_units_Z 48
_cell_length_a 28.335817
_cell_length_b 13.411585
_cell_length_c 5.435499
_cell_angle_alpha 90.000000
_cell_angle_beta 90.000000
_cell_angle_gamma 90.000000
_cell_volume 2065.643000
_symmetry_space_group_name_H-M "I M M 2"
_symmetry_group_IT_number 44
_symmetry_cell_setting 'orthorhombic'
loop_
_space_group_symop_operation_xyz
x,y,z
-x,-y,z
-x,y,z
x,-y,z
1/2+x,1/2+y,1/2+z
1/2-x,1/2-y,1/2+z
1/2-x,1/2+y,1/2+z
1/2+x,1/2-y,1/2+z
loop_
_atom_site_type_symbol
_atom_site_label
_atom_site_fract_x
_atom_site_fract_y
_atom_site_fract_z
Si Si1 0.299312 0.192721 0.674480
Si Si2 0.351818 0.203553 0.186172
Si Si3 0.055386 0.786309 0.178777
Si Si4 0.701591 0.382039 0.371175
Si Si5 0.057938 0.886300 0.681242
Si Si6 0.053638 0.617410 0.508428
O O1 0.325376 0.157766 0.425109
O O2 0.249600 0.139828 0.720416
O O3 0.292892 0.311952 0.616329
O O4 0.329192 0.177335 0.921771
O O5 0.404533 0.160071 0.173340
O O6 0.073500 0.830458 0.928139
O O7 0.074132 0.841098 0.421844
O O8 0.060468 0.670492 0.243920
O O9 0.000000 0.807156 0.172436
O O10 0.694220 0.500000 0.408019
O O11 0.661039 0.321130 0.224845
O O12 0.000000 0.883004 0.675128
O O13 0.072061 0.000000 0.699356
O O14 0.055817 0.500000 0.492626
O O15 0.000000 0.646168 0.592187
#
# Coordination Sequence:
#
# PCOD9375607 Si02
#       6
#     8   8   8   8   8   8
#     4  10  21  42  65 110 146 182 235 281 351 440
#     4  10  22  43  65 100 146 185 241 294 350 427
#     4   9  18  33  54  81 114 151 207 272 324 392
#     4  10  21  41  71 105 151 190 225 285 360 434
#     4   9  16  29  52  80 109 143 185 249 328 392
#     4  10  23  45  72  98 134 189 247 309 373 423
#
# _framework density 23.237314999999999
#
# number of rings (size 3 to 8) (size 9 to 14) (size 15 to 20)
#    1.000    1.333    1.667    0.500    0.000    5.333 
#    0.000    6.667    0.000   13.500    0.000    0.000 
#    0.000    0.000    0.000    0.000    0.000    0.000 
#
# Total GULP energy -133903.092419 kJ/mol
# GULP energy per Si atom -5579.295517 kJ/mol
# Density = 2.318443 g / cm^3
# Si number density = 23.237315 Si / 1000 Ang^3
#
#
#
# Elastic Constant Matrix: (Units=GPa)
#
#
# Indices 1 2 3 4 5 6 
#
# 1 155.0472 45.7480 66.4837 0.0000 0.0000 0.0000
# 2 45.7480 129.9966 47.3152 0.0000 0.0000 0.0000
# 3 66.4837 47.3152 168.3536 0.0000 0.0000 0.0000
# 4 0.0000 0.0000 0.0000 17.7867 0.0000 0.0000
# 5 0.0000 0.0000 0.0000 0.0000 31.6642 0.0000
# 6 0.0000 0.0000 0.0000 0.0000 0.0000 17.8206
#
#
#
# Elastic Compliance Matrix: (Units=1/GPa)
#
#
# Indices 1 2 3 4 5 6 
#
# 1 0.008162 -0.001893 -0.002691 0.000000 0.000000 0.000000
# 2 -0.001893 0.009008 -0.001784 0.000000 0.000000 0.000000
# 3 -0.002691 -0.001784 0.007504 0.000000 0.000000 0.000000
# 4 0.000000 0.000000 0.000000 0.056222 0.000000 0.000000
# 5 0.000000 0.000000 0.000000 0.000000 0.031581 0.000000
# 6 0.000000 0.000000 0.000000 0.000000 0.000000 0.056115
#
#
# Mechanical properties :
#
#
# Convention : Reuss Voigt Hill
#
# Bulk Modulus (GPa) = 83.76851 85.83238 84.80044
# Shear Modulus (GPa) = 26.98207 33.04432 30.01320
#
# Velocity S-wave (km/s) = 3.41127 3.77508 3.59778
# Velocity P-wave (km/s) = 7.18631 7.48459 7.33697
#
# Compressibility (1/GPa) = 0.01193766
#
# Stress axis : x y z
#
# Youngs Moduli (GPa) = 122.51639 111.01208 133.25998
#
# Poissons Ratio (x) = 0.21013 0.35864
# Poissons Ratio (y) = 0.23190 0.23776
# Poissons Ratio (z) = 0.32973 0.19807
#
# Static dielectric constant tensor:
#      x y z
#    x 1.949090 0.000000 0.000000 
#    y 0.000000 1.879820 0.000000 
#    z 0.000000 0.000000 1.880220 
# 
# From -- ./inp_files/3008.got.cif
#   From: 2010.05.17/outbox.cif.g08.bks.cpg/sg44_2_cif.got.tgz:3008.got - 2010.06.03 19:37:08.
