data_PCOD9375495
_publ_section_title
;
Structure prediction by ZEFSAII (Michael W. Deem and Ramdas Pophale) SiO2 
 PCOD9375495
Probable space group: I M M 2
;
_chemical_formula_sum "Si O2"
_cell_formula_units_Z 64
_cell_length_a 18.728258
_cell_length_b 14.967847
_cell_length_c 11.757605
_cell_angle_alpha 90.000000
_cell_angle_beta 90.000000
_cell_angle_gamma 90.000000
_cell_volume 3295.911825
_symmetry_space_group_name_H-M "I M M 2"
_symmetry_group_IT_number 44
_symmetry_cell_setting 'orthorhombic'
loop_
_space_group_symop_operation_xyz
x,y,z
-x,-y,z
-x,y,z
x,-y,z
1/2+x,1/2+y,1/2+z
1/2-x,1/2-y,1/2+z
1/2-x,1/2+y,1/2+z
1/2+x,1/2-y,1/2+z
loop_
_atom_site_type_symbol
_atom_site_label
_atom_site_fract_x
_atom_site_fract_y
_atom_site_fract_z
Si Si1 0.196544 0.810660 0.252830
Si Si2 0.179876 0.780465 0.635109
Si Si3 0.163515 0.599094 0.508439
Si Si4 0.584676 0.605807 0.294554
Si Si5 0.583316 0.824547 0.803674
Si Si6 0.329244 0.603339 0.512333
Si Si7 0.420002 0.107768 0.545078
Si Si8 0.732277 0.896204 0.455110
O O1 0.257495 0.738056 0.226159
O O2 0.130535 0.764431 0.314621
O O3 0.169577 0.846033 0.131605
O O4 0.236264 0.883672 0.329172
O O5 0.152918 0.683779 0.591109
O O6 0.118992 0.838658 0.692738
O O7 0.218984 0.834111 0.534575
O O8 0.154079 0.500000 0.560159
O O9 0.114176 0.609344 0.398442
O O10 0.246766 0.606387 0.472879
O O11 0.500000 0.614880 0.298028
O O12 0.602342 0.500000 0.282254
O O13 0.619563 0.637136 0.413390
O O14 0.500000 0.808989 0.822266
O O15 0.592492 0.860193 0.674821
O O16 0.347911 0.500000 0.533814
O O17 0.500000 0.139147 0.509915
O O18 0.350609 0.132797 0.470626
O O19 0.422239 0.000000 0.545529
O O20 0.737201 0.000000 0.489408
#
# Coordination Sequence:
#
# PCOD9375495 Si02
#       8
#     8   8   8   8   8   8   8   8
#     4  11  22  38  59  89 125 156 203 253 299 365
#     4  11  22  38  64  89 123 158 209 251 306 371
#     4  10  21  38  60  88 120 158 204 258 308 360
#     4  10  22  40  63  92 125 161 202 254 311 365
#     4  11  21  34  55  85 122 161 202 248 298 356
#     4   9  20  38  63  88 115 153 201 251 302 362
#     4   9  19  35  57  90 125 157 198 249 306 366
#     4  11  22  38  63  93 126 166 204 251 309 366
#
# _framework density 19.417995000000001
#
# number of rings (size 3 to 8) (size 9 to 14) (size 15 to 20)
#    0.000    1.750    2.500    1.875    1.750    2.250 
#    0.000    1.875    0.000    1.875    0.000    7.000 
#    0.000    0.000    0.000    0.000    0.000    0.000 
#
# Total GULP energy -178626.323561 kJ/mol
# GULP energy per Si atom -5582.072611 kJ/mol
# Density = 1.937380 g / cm^3
# Si number density = 19.417995 Si / 1000 Ang^3
#
#
#
# Elastic Constant Matrix: (Units=GPa)
#
#
# Indices 1 2 3 4 5 6 
#
# 1 99.0130 53.7511 51.0959 0.0000 0.0000 0.0000
# 2 53.7511 91.5391 43.4603 0.0000 0.0000 0.0000
# 3 51.0959 43.4603 58.9385 0.0000 0.0000 0.0000
# 4 0.0000 0.0000 0.0000 26.0907 0.0000 0.0000
# 5 0.0000 0.0000 0.0000 0.0000 24.1222 0.0000
# 6 0.0000 0.0000 0.0000 0.0000 0.0000 20.4016
#
#
#
# Elastic Compliance Matrix: (Units=1/GPa)
#
#
# Indices 1 2 3 4 5 6 
#
# 1 0.019852 -0.005364 -0.013255 0.000000 0.000000 0.000000
# 2 -0.005364 0.018258 -0.008813 0.000000 0.000000 0.000000
# 3 -0.013255 -0.008813 0.034957 0.000000 0.000000 0.000000
# 4 0.000000 0.000000 0.000000 0.038328 0.000000 0.000000
# 5 0.000000 0.000000 0.000000 0.000000 0.041456 0.000000
# 6 0.000000 0.000000 0.000000 0.000000 0.000000 0.049016
#
#
# Mechanical properties :
#
#
# Convention : Reuss Voigt Hill
#
# Bulk Modulus (GPa) = 54.93695 60.67837 57.80766
# Shear Modulus (GPa) = 19.02601 20.86845 19.94723
#
# Velocity S-wave (km/s) = 3.13359 3.28181 3.20856
# Velocity P-wave (km/s) = 6.43784 6.75846 6.60009
#
# Compressibility (1/GPa) = 0.01820268
#
# Stress axis : x y z
#
# Youngs Moduli (GPa) = 50.37324 54.77020 28.60645
#
# Poissons Ratio (x) = 0.29377 0.37919
# Poissons Ratio (y) = 0.27018 0.25212
# Poissons Ratio (z) = 0.66771 0.48271
#
# Static dielectric constant tensor:
#      x y z
#    x 1.664860 0.000000 0.000000 
#    y 0.000000 1.695290 0.000000 
#    z 0.000000 0.000000 1.679230 
# 
# From -- ./inp_files/13445.got.cif
#   From: 2010.05.17/outbox.cif.g08.bks.cpg/sg44_7_cif.got.tgz:13445.got - 2010.06.03 19:37:08.
