data_PCOD9375450
_publ_section_title
;
Structure prediction by ZEFSAII (Michael W. Deem and Ramdas Pophale) SiO2 
 PCOD9375450
Probable space group: I M M 2
;
_chemical_formula_sum "Si O2"
_cell_formula_units_Z 48
_cell_length_a 8.758230
_cell_length_b 23.130435
_cell_length_c 11.733853
_cell_angle_alpha 90.000000
_cell_angle_beta 90.000000
_cell_angle_gamma 90.000000
_cell_volume 2377.063533
_symmetry_space_group_name_H-M "I M M 2"
_symmetry_group_IT_number 44
_symmetry_cell_setting 'orthorhombic'
loop_
_space_group_symop_operation_xyz
x,y,z
-x,-y,z
-x,y,z
x,-y,z
1/2+x,1/2+y,1/2+z
1/2-x,1/2-y,1/2+z
1/2-x,1/2+y,1/2+z
1/2+x,1/2-y,1/2+z
loop_
_atom_site_type_symbol
_atom_site_label
_atom_site_fract_x
_atom_site_fract_y
_atom_site_fract_z
Si Si1 0.680815 0.143158 0.898490
Si Si2 0.328055 0.567985 0.957950
Si Si3 0.823728 0.844086 0.653487
Si Si4 0.323049 0.143172 0.277139
Si Si5 0.182315 0.066259 0.080447
Si Si6 0.816523 0.264273 0.957893
O O1 0.500000 0.145350 0.912107
O O2 0.728162 0.147754 0.767019
O O3 0.757467 0.199408 0.955215
O O4 0.746626 0.086802 0.961166
O O5 0.500000 0.581472 0.911466
O O6 0.311161 0.500000 0.961268
O O7 0.321706 0.596748 0.081327
O O8 0.202583 0.597373 0.879062
O O9 0.756316 0.797372 0.565200
O O10 0.000000 0.829426 0.681617
O O11 0.500000 0.149577 0.245994
O O12 0.235844 0.113844 0.172637
O O13 0.270773 0.202504 0.339569
O O14 0.000000 0.067353 0.073662
O O15 0.228306 0.000000 0.110722
O O16 0.000000 0.266974 0.964723
#
# Coordination Sequence:
#
# PCOD9375450 Si02
#       6
#     8   8   8   8   8   8
#     4  12  26  42  63  90 123 164 207 258 317 378
#     4   9  18  34  58  87 119 158 201 245 298 359
#     4  10  21  39  61  88 122 158 203 253 306 370
#     4  10  21  37  61  93 126 160 203 256 310 366
#     4  11  25  44  65  90 125 170 216 261 315 380
#     4  10  22  41  64  91 124 161 206 258 316 377
#
# _framework density 20.192981
#
# number of rings (size 3 to 8) (size 9 to 14) (size 15 to 20)
#    0.000    1.667    0.000    4.000    2.333    7.000 
#    0.000    1.667    0.000    0.000    0.000    0.000 
#    0.000    0.000    0.000    0.000    0.000    0.000 
#
# Total GULP energy -134085.887942 kJ/mol
# GULP energy per Si atom -5586.911998 kJ/mol
# Density = 2.014702 g / cm^3
# Si number density = 20.192981 Si / 1000 Ang^3
#
#
#
# Elastic Constant Matrix: (Units=GPa)
#
#
# Indices 1 2 3 4 5 6 
#
# 1 62.6020 21.6834 8.1021 0.0000 0.0000 0.0000
# 2 21.6834 62.0879 11.2023 0.0000 0.0000 0.0000
# 3 8.1021 11.2023 68.5042 0.0001 0.0000 0.0000
# 4 0.0000 0.0000 0.0001 10.0176 0.0000 0.0000
# 5 0.0000 0.0000 0.0000 0.0000 38.1099 0.0000
# 6 0.0000 0.0000 0.0000 0.0000 0.0000 20.3946
#
#
#
# Elastic Compliance Matrix: (Units=1/GPa)
#
#
# Indices 1 2 3 4 5 6 
#
# 1 0.018260 -0.006169 -0.001151 0.000000 0.000000 0.000000
# 2 -0.006169 0.018680 -0.002325 0.000000 0.000000 0.000000
# 3 -0.001151 -0.002325 0.015114 0.000000 0.000000 0.000000
# 4 0.000000 0.000000 0.000000 0.099825 0.000000 0.000000
# 5 0.000000 0.000000 0.000000 0.000000 0.026240 0.000000
# 6 0.000000 0.000000 0.000000 0.000000 0.000000 0.049033
#
#
# Mechanical properties :
#
#
# Convention : Reuss Voigt Hill
#
# Bulk Modulus (GPa) = 30.52168 30.57443 30.54806
# Shear Modulus (GPa) = 19.42783 23.85149 21.63966
#
# Velocity S-wave (km/s) = 3.10515 3.44055 3.27715
# Velocity P-wave (km/s) = 5.29186 5.56392 5.42959
#
# Compressibility (1/GPa) = 0.03276359
#
# Stress axis : x y z
#
# Youngs Moduli (GPa) = 54.76530 53.53242 66.16400
#
# Poissons Ratio (x) = 0.33026 0.07614
# Poissons Ratio (y) = 0.33787 0.15384
# Poissons Ratio (z) = 0.06302 0.12447
#
# Static dielectric constant tensor:
#      x y z
#    x 1.703880 0.000000 0.000000 
#    y 0.000000 1.705570 0.000000 
#    z 0.000000 0.000000 1.726110 
# 
# From -- ./inp_files/11163.got.cif
#   From: 2010.05.17/outbox.cif.g08.bks.cpg/sg44_6_cif.got.tgz:11163.got - 2010.06.03 19:37:08.
