data_PCOD9375042
_publ_section_title
;
Structure prediction by ZEFSAII (Michael W. Deem and Ramdas Pophale) SiO2 
 PCOD9375042
Probable space group: I M M 2
;
_chemical_formula_sum "Si O2"
_cell_formula_units_Z 40
_cell_length_a 17.442471
_cell_length_b 21.017858
_cell_length_c 5.215494
_cell_angle_alpha 90.000000
_cell_angle_beta 90.000000
_cell_angle_gamma 90.000000
_cell_volume 1912.017722
_symmetry_space_group_name_H-M "I M M 2"
_symmetry_group_IT_number 44
_symmetry_cell_setting 'orthorhombic'
loop_
_space_group_symop_operation_xyz
x,y,z
-x,-y,z
-x,y,z
x,-y,z
1/2+x,1/2+y,1/2+z
1/2-x,1/2-y,1/2+z
1/2-x,1/2+y,1/2+z
1/2+x,1/2-y,1/2+z
loop_
_atom_site_type_symbol
_atom_site_label
_atom_site_fract_x
_atom_site_fract_y
_atom_site_fract_z
Si Si1 0.343432 0.074535 0.766730
Si Si2 0.586938 0.404357 0.931735
Si Si3 0.910306 0.638161 0.766615
Si Si4 0.911743 0.787210 0.748329
Si Si5 0.830455 0.098104 0.931141
O O1 0.361566 0.110526 0.502148
O O2 0.255371 0.083823 0.851662
O O3 0.359249 0.000000 0.731954
O O4 0.392235 0.102640 0.001837
O O5 0.500000 0.421645 0.869600
O O6 0.644643 0.423768 0.710330
O O7 0.589882 0.327628 0.983439
O O8 0.613719 0.428424 0.209262
O O9 0.895181 0.713254 0.728377
O O10 0.000000 0.630618 0.831118
O O11 0.850969 0.826473 0.916384
O O12 0.000000 0.795248 0.845052
#
# Coordination Sequence:
#
# PCOD9375042 Si02
#       5
#     8   8   8   8   8
#     4  12  27  44  62  87 125 172 216 260 307 360
#     4   9  17  33  60  93 127 161 191 234 304 377
#     4  11  25  43  67  92 118 159 213 267 320 375
#     4   8  19  36  63  96 125 153 191 248 314 374
#     4  10  20  36  61  90 127 163 197 249 311 372
#
# _framework density 20.920307000000001
#
# number of rings (size 3 to 8) (size 9 to 14) (size 15 to 20)
#    1.200    0.800    0.000    3.600    2.800    4.000 
#    0.000    0.000    0.000    6.600    0.000    0.000 
#    0.000    0.000    0.000    0.000    0.000    0.000 
#
# Total GULP energy -111560.318442 kJ/mol
# GULP energy per Si atom -5578.015922 kJ/mol
# Density = 2.087269 g / cm^3
# Si number density = 20.920307 Si / 1000 Ang^3
#
#
#
# Elastic Constant Matrix: (Units=GPa)
#
#
# Indices 1 2 3 4 5 6 
#
# 1 41.8237 27.0273 1.9281 0.0000 0.0000 0.0000
# 2 27.0273 147.9070 29.0679 0.0000 0.0000 0.0000
# 3 1.9281 29.0679 98.7705 0.0000 0.0000 0.0000
# 4 0.0000 0.0000 0.0000 50.8756 0.0000 0.0000
# 5 0.0000 0.0000 0.0000 0.0000 42.4805 0.0000
# 6 0.0000 0.0000 0.0000 0.0000 0.0000 4.1271
#
#
#
# Elastic Compliance Matrix: (Units=1/GPa)
#
#
# Indices 1 2 3 4 5 6 
#
# 1 0.027202 -0.005165 0.000989 0.000000 0.000000 0.000000
# 2 -0.005165 0.008157 -0.002300 0.000000 0.000000 0.000000
# 3 0.000989 -0.002300 0.010782 0.000000 0.000000 0.000000
# 4 0.000000 0.000000 0.000000 0.019656 0.000000 0.000000
# 5 0.000000 0.000000 0.000000 0.000000 0.023540 0.000000
# 6 0.000000 0.000000 0.000000 0.000000 0.000000 0.242299
#
#
# Mechanical properties :
#
#
# Convention : Reuss Voigt Hill
#
# Bulk Modulus (GPa) = 30.13011 44.94976 37.53994
# Shear Modulus (GPa) = 14.05874 34.86183 24.46029
#
# Velocity S-wave (km/s) = 2.59514 4.08660 3.42308
# Velocity P-wave (km/s) = 4.83872 6.61815 5.79712
#
# Compressibility (1/GPa) = 0.03318939
#
# Stress axis : x y z
#
# Youngs Moduli (GPa) = 36.76193 122.59737 92.74751
#
# Poissons Ratio (x) = 0.63322 -0.09173
# Poissons Ratio (y) = 0.18988 0.21329
# Poissons Ratio (z) = -0.03636 0.28194
#
# Static dielectric constant tensor:
#      x y z
#    x 1.726360 0.000000 0.000000 
#    y 0.000000 1.797120 0.000000 
#    z 0.000000 0.000000 1.729060 
# 
# From -- ./inp_files/1975.got.cif
#   From: 2010.05.17/outbox.cif.g08.bks.cpg/sg44_1_cif.got.tgz:1975.got - 2010.06.03 19:37:08.
