data_PCOD9375034
_publ_section_title
;
Structure prediction by ZEFSAII (Michael W. Deem and Ramdas Pophale) SiO2 
 PCOD9375034
Probable space group: I M M 2
;
_chemical_formula_sum "Si O2"
_cell_formula_units_Z 40
_cell_length_a 11.996847
_cell_length_b 8.341826
_cell_length_c 20.473811
_cell_angle_alpha 90.000000
_cell_angle_beta 90.000000
_cell_angle_gamma 90.000000
_cell_volume 2048.929129
_symmetry_space_group_name_H-M "I M M 2"
_symmetry_group_IT_number 44
_symmetry_cell_setting 'orthorhombic'
loop_
_space_group_symop_operation_xyz
x,y,z
-x,-y,z
-x,y,z
x,-y,z
1/2+x,1/2+y,1/2+z
1/2-x,1/2-y,1/2+z
1/2-x,1/2+y,1/2+z
1/2+x,1/2-y,1/2+z
loop_
_atom_site_type_symbol
_atom_site_label
_atom_site_fract_x
_atom_site_fract_y
_atom_site_fract_z
Si Si1 0.870823 0.806207 0.521490
Si Si2 0.500000 0.683273 0.235407
Si Si3 0.292826 0.811991 0.156100
Si Si4 0.871663 0.691833 0.259732
Si Si5 0.746597 0.805400 0.389464
Si Si6 0.000000 0.313444 0.876605
O O1 0.798875 0.735840 0.580549
O O2 0.821993 0.759611 0.451186
O O3 0.000000 0.755772 0.528406
O O4 0.867741 0.000000 0.525683
O O5 0.500000 0.500000 0.258450
O O6 0.391927 0.716483 0.191988
O O7 0.500000 0.796675 0.298182
O O8 0.181249 0.767092 0.194735
O O9 0.314940 0.000000 0.163205
O O10 0.867224 0.500000 0.254066
O O11 0.798576 0.743542 0.322071
O O12 0.000000 0.741244 0.269304
O O13 0.619402 0.746118 0.398504
O O14 0.744324 0.000000 0.385575
O O15 0.000000 0.500000 0.895742
#
# Coordination Sequence:
#
# PCOD9375034 Si02
#       6
#     8   4   8   8   8   4
#     4  10  21  38  60  86 120 163 204 246 298 357
#     4  12  22  36  62  92 122 153 194 251 300 356
#     4  12  24  39  62  90 121 158 200 250 303 359
#     4  11  24  41  62  89 121 159 201 249 303 358
#     4  10  21  38  62  90 123 160 200 244 298 359
#     4  10  20  36  60  92 124 157 196 243 294 358
#
# _framework density 19.522393000000001
#
# number of rings (size 3 to 8) (size 9 to 14) (size 15 to 20)
#    0.000    1.200    3.000    3.900    0.000    3.200 
#    1.800    0.000    0.000    0.000    0.000    0.000 
#    0.000    0.000    0.000    0.000    0.000    0.000 
#
# Total GULP energy -111775.463998 kJ/mol
# GULP energy per Si atom -5588.773200 kJ/mol
# Density = 1.947796 g / cm^3
# Si number density = 19.522393 Si / 1000 Ang^3
#
#
#
# Elastic Constant Matrix: (Units=GPa)
#
#
# Indices 1 2 3 4 5 6 
#
# 1 120.6319 21.2996 44.2027 0.0000 0.0000 0.0000
# 2 21.2996 31.4203 12.6589 0.0000 0.0000 0.0000
# 3 44.2027 12.6589 111.3423 0.0000 0.0000 0.0000
# 4 0.0000 0.0000 0.0000 27.8134 0.0000 0.0000
# 5 0.0000 0.0000 0.0000 0.0000 35.4406 0.0000
# 6 0.0000 0.0000 0.0000 0.0000 0.0000 18.7985
#
#
#
# Elastic Compliance Matrix: (Units=1/GPa)
#
#
# Indices 1 2 3 4 5 6 
#
# 1 0.010610 -0.005759 -0.003557 0.000000 0.000000 0.000000
# 2 -0.005759 0.036481 -0.001861 0.000000 0.000000 0.000000
# 3 -0.003557 -0.001861 0.010605 0.000000 0.000000 0.000000
# 4 0.000000 0.000000 0.000000 0.035954 0.000000 0.000000
# 5 0.000000 0.000000 0.000000 0.000000 0.028216 0.000000
# 6 0.000000 0.000000 0.000000 0.000000 0.000000 0.053196
#
#
# Mechanical properties :
#
#
# Convention : Reuss Voigt Hill
#
# Bulk Modulus (GPa) = 28.29642 46.63520 37.46581
# Shear Modulus (GPa) = 23.90087 28.75939 26.33013
#
# Velocity S-wave (km/s) = 3.50277 3.84233 3.67647
# Velocity P-wave (km/s) = 5.55742 6.60489 6.10367
#
# Compressibility (1/GPa) = 0.03534016
#
# Stress axis : x y z
#
# Youngs Moduli (GPa) = 94.24980 27.41187 94.29337
#
# Poissons Ratio (x) = 0.15787 0.33544
# Poissons Ratio (y) = 0.54281 0.17550
# Poissons Ratio (z) = 0.33528 0.05102
#
# Static dielectric constant tensor:
#      x y z
#    x 1.690990 0.000000 0.000000 
#    y 0.000000 1.679630 0.000000 
#    z 0.000000 0.000000 1.637690 
# 
# From -- ./inp_files/22785.got.cif
#   From: 2010.05.17/outbox.cif.g08.bks.cpg/sg44_12_cif.got.tgz:22785.got - 2010.06.03 19:37:08.
