data_PCOD9375318
_publ_section_title
;
Structure prediction by ZEFSAII (Michael W. Deem and Ramdas Pophale) SiO2 
 PCOD9375318
Probable space group: I M M 2
;
_chemical_formula_sum "Si O2"
_cell_formula_units_Z 64
_cell_length_a 8.229428
_cell_length_b 15.099359
_cell_length_c 25.679890
_cell_angle_alpha 90.000000
_cell_angle_beta 90.000000
_cell_angle_gamma 90.000000
_cell_volume 3190.959705
_symmetry_space_group_name_H-M "I M M 2"
_symmetry_group_IT_number 44
_symmetry_cell_setting 'orthorhombic'
loop_
_space_group_symop_operation_xyz
x,y,z
-x,-y,z
-x,y,z
x,-y,z
1/2+x,1/2+y,1/2+z
1/2-x,1/2-y,1/2+z
1/2-x,1/2+y,1/2+z
1/2+x,1/2-y,1/2+z
loop_
_atom_site_type_symbol
_atom_site_label
_atom_site_fract_x
_atom_site_fract_y
_atom_site_fract_z
Si Si1 0.192486 0.601551 0.467190
Si Si2 0.195032 0.241177 0.882911
Si Si3 0.196842 0.102087 0.193709
Si Si4 0.811656 0.107703 0.079420
Si Si5 0.303416 0.898372 0.680683
Si Si6 0.194129 0.241516 0.765271
Si Si7 0.187361 0.391995 0.068085
Si Si8 0.699490 0.898289 0.454605
O O1 0.254822 0.500000 0.463970
O O2 0.265114 0.661849 0.422123
O O3 0.229550 0.635515 0.525678
O O4 0.000000 0.599656 0.460608
O O5 0.257544 0.231021 0.824191
O O6 0.254338 0.331128 0.910458
O O7 0.000000 0.247526 0.879697
O O8 0.253386 0.134752 0.136235
O O9 0.253796 0.166353 0.238971
O O10 0.000000 0.102930 0.191663
O O11 0.248236 0.000000 0.201191
O O12 0.000000 0.134189 0.076037
O O13 0.805243 0.000000 0.080943
O O14 0.500000 0.898962 0.677081
O O15 0.254270 0.835581 0.727288
O O16 0.240695 0.866349 0.623872
O O17 0.250515 0.000000 0.688863
O O18 0.000000 0.238250 0.766659
O O19 0.183564 0.500000 0.068563
O O20 0.000000 0.360960 0.067656
O O21 0.258720 0.368187 0.012010
O O22 0.500000 0.897420 0.456478
O O23 0.747460 0.000000 0.445693
#
# Coordination Sequence:
#
# PCOD9375318 Si02
#       8
#     8   8   8   8   8   8   8   8
#     4  10  21  36  55  80 109 140 174 218 273 325
#     4  10  22  37  52  74 104 141 184 222 258 308
#     4   9  19  37  60  83 107 140 182 224 267 321
#     4   8  15  31  56  83 108 135 171 215 264 322
#     4   9  18  34  56  79 103 133 171 218 270 324
#     4  11  24  37  50  75 110 145 183 228 274 316
#     4   7  11  23  47  78 102 119 151 203 258 308
#     4   8  14  28  52  78 101 125 158 204 254 305
#
# _framework density 20.056661999999999
#
# number of rings (size 3 to 8) (size 9 to 14) (size 15 to 20)
#    0.000    3.000    0.000    3.000    0.000    4.750 
#    0.000    7.500    0.000    0.375    0.000    1.750 
#    0.000    0.000    0.000    0.000    0.000    0.000 
#
# Total GULP energy -178435.615636 kJ/mol
# GULP energy per Si atom -5576.112989 kJ/mol
# Density = 2.001101 g / cm^3
# Si number density = 20.056662 Si / 1000 Ang^3
#
#
#
# Elastic Constant Matrix: (Units=GPa)
#
#
# Indices 1 2 3 4 5 6 
#
# 1 5.2992 -15.9039 -16.5805 0.0000 0.0000 0.0000
# 2 -15.9039 -395.8852 -594.3143 0.0000 0.0000 0.0000
# 3 -16.5805 -594.3143 -722.4374 0.0000 0.0000 0.0000
# 4 0.0000 0.0000 0.0000 32.4423 0.0000 0.0000
# 5 0.0000 0.0000 0.0000 0.0000 23.7129 0.0000
# 6 0.0000 0.0000 0.0000 0.0000 0.0000 17.8161
#
#
#
# Elastic Compliance Matrix: (Units=1/GPa)
#
#
# Indices 1 2 3 4 5 6 
#
# 1 0.177788 0.004327 -0.007640 0.000000 0.000000 0.000000
# 2 0.004327 0.010855 -0.009029 0.000000 0.000000 0.000000
# 3 -0.007640 -0.009029 0.006219 0.000000 0.000000 0.000000
# 4 0.000000 0.000000 0.000000 0.030824 0.000000 0.000000
# 5 0.000000 0.000000 0.000000 0.000000 0.042171 0.000000
# 6 0.000000 0.000000 0.000000 0.000000 0.000000 0.056129
#
#
# Mechanical properties :
#
#
# Convention : Reuss Voigt Hill
#
# Bulk Modulus (GPa) = 5.87623 -262.95785 -128.54081
# Shear Modulus (GPa) = 12.33365 -17.62072 -2.64354
#
# Velocity S-wave (km/s) = 2.48249 -2.96725 -1.14930
# Velocity P-wave (km/s) = 3.33964 11.96376 8.12337
#
# Compressibility (1/GPa) = 0.17017713
#
# Stress axis : x y z
#
# Youngs Moduli (GPa) = 5.62469 92.12608 160.80294
#
# Poissons Ratio (x) = -0.39858 1.22847
# Poissons Ratio (y) = -0.02434 1.45188
# Poissons Ratio (z) = 0.04297 0.83180
#
# Static dielectric constant tensor:
#      x y z
#    x 1.719130 0.000000 0.000000 
#    y 0.000000 1.721320 0.000000 
#    z 0.000000 0.000000 1.727760 
# 
# From -- ./inp_files/25104.got.cif
#   From: 2010.05.17/outbox.cif.g08.bks.cpg/sg44_13_cif.got.tgz:25104.got - 2010.06.03 19:37:08.
