data_PCOD9375133
_publ_section_title
;
Structure prediction by ZEFSAII (Michael W. Deem and Ramdas Pophale) SiO2 
 PCOD9375133
Probable space group: I M M 2
;
_chemical_formula_sum "Si O2"
_cell_formula_units_Z 64
_cell_length_a 8.847504
_cell_length_b 24.222639
_cell_length_c 15.729919
_cell_angle_alpha 90.000000
_cell_angle_beta 90.000000
_cell_angle_gamma 90.000000
_cell_volume 3371.077296
_symmetry_space_group_name_H-M "I M M 2"
_symmetry_group_IT_number 44
_symmetry_cell_setting 'orthorhombic'
loop_
_space_group_symop_operation_xyz
x,y,z
-x,-y,z
-x,y,z
x,-y,z
1/2+x,1/2+y,1/2+z
1/2-x,1/2-y,1/2+z
1/2-x,1/2+y,1/2+z
1/2+x,1/2-y,1/2+z
loop_
_atom_site_type_symbol
_atom_site_label
_atom_site_fract_x
_atom_site_fract_y
_atom_site_fract_z
Si Si1 0.678930 0.934401 0.785170
Si Si2 0.318481 0.138635 0.451166
Si Si3 0.321424 0.752799 0.688223
Si Si4 0.179533 0.133582 0.630372
Si Si5 0.318617 0.370451 0.442212
Si Si6 0.681747 0.370335 0.634821
Si Si7 0.682244 0.936537 0.290943
Si Si8 0.821276 0.746493 0.392518
O O1 0.500000 0.922281 0.782950
O O2 0.756785 0.903954 0.706207
O O3 0.747325 0.910013 0.871738
O O4 0.700928 0.000000 0.780605
O O5 0.500000 0.140815 0.455100
O O6 0.253261 0.118162 0.540462
O O7 0.272333 0.099162 0.373161
O O8 0.253764 0.199424 0.432457
O O9 0.500000 0.761484 0.669509
O O10 0.228751 0.803631 0.651071
O O11 0.275049 0.693593 0.650974
O O12 0.303862 0.751171 0.790200
O O13 0.000000 0.129461 0.626186
O O14 0.500000 0.370451 0.434316
O O15 0.278473 0.386608 0.538708
O O16 0.257289 0.308948 0.425183
O O17 0.500000 0.372877 0.643641
O O18 0.754702 0.408146 0.706444
O O19 0.500000 0.935636 0.287557
O O20 0.731790 0.000000 0.297808
O O21 0.000000 0.745449 0.411460
#
# Coordination Sequence:
#
# PCOD9375133 Si02
#       8
#     8   8   8   8   8   8   8   8
#     4  11  25  45  66  87 118 163 210 258 312 366
#     4  11  23  40  63  90 126 165 205 252 307 367
#     4  10  20  37  62  91 127 163 199 245 304 369
#     4  12  25  40  64  95 126 159 203 253 309 372
#     4  11  23  39  63  93 126 163 203 250 307 371
#     4  10  22  40  62  90 123 161 200 245 302 359
#     4  10  23  42  63  88 118 157 205 253 299 354
#     4  11  21  36  63  94 126 162 203 250 306 368
#
# _framework density 18.985028
#
# number of rings (size 3 to 8) (size 9 to 14) (size 15 to 20)
#    0.000    1.250    2.500    3.375    0.000    5.750 
#    0.000    3.750    0.000    0.000    0.000    0.000 
#    0.000    0.000    0.000    0.000    0.000    0.000 
#
# Total GULP energy -178990.161450 kJ/mol
# GULP energy per Si atom -5593.442545 kJ/mol
# Density = 1.894182 g / cm^3
# Si number density = 18.985028 Si / 1000 Ang^3
#
#
#
# Elastic Constant Matrix: (Units=GPa)
#
#
# Indices 1 2 3 4 5 6 
#
# 1 70.3309 41.0909 54.0662 0.0000 0.0000 0.0000
# 2 41.0909 82.7854 50.4316 0.0000 0.0000 0.0000
# 3 54.0662 50.4316 145.2226 0.0000 0.0000 0.0000
# 4 0.0000 0.0000 0.0000 -6.8867 0.0000 0.0000
# 5 0.0000 0.0000 0.0000 0.0000 34.3410 0.0000
# 6 0.0000 0.0000 0.0000 0.0000 0.0000 27.2457
#
#
#
# Elastic Compliance Matrix: (Units=1/GPa)
#
#
# Indices 1 2 3 4 5 6 
#
# 1 0.023489 -0.008030 -0.005956 0.000000 0.000000 0.000000
# 2 -0.008030 0.018066 -0.003284 0.000000 0.000000 0.000000
# 3 -0.005956 -0.003284 0.010244 0.000000 0.000000 0.000000
# 4 0.000000 0.000000 0.000000 -0.145208 0.000000 0.000000
# 5 0.000000 0.000000 0.000000 0.000000 0.029120 0.000000
# 6 0.000000 0.000000 0.000000 0.000000 0.000000 0.036703
#
#
# Mechanical properties :
#
#
# Convention : Reuss Voigt Hill
#
# Bulk Modulus (GPa) = 57.94580 65.50184 61.72382
# Shear Modulus (GPa) = 393.46075 21.12336 207.29206
#
# Velocity S-wave (km/s) = 14.41173 3.33923 10.46060
# Velocity P-wave (km/s) = 17.53621 7.03165 13.35969
#
# Compressibility (1/GPa) = 0.01725751
#
# Stress axis : x y z
#
# Youngs Moduli (GPa) = 42.57295 55.35260 97.61882
#
# Poissons Ratio (x) = 0.44451 0.58144
# Poissons Ratio (y) = 0.34188 0.32059
# Poissons Ratio (z) = 0.25357 0.18178
#
# Static dielectric constant tensor:
#      x y z
#    x 1.636670 0.000000 0.000000 
#    y 0.000000 1.627940 0.000000 
#    z 0.000000 0.000000 1.648760 
# 
# From -- ./inp_files/16826.got.cif
#   From: 2010.05.17/outbox.cif.g08.bks.cpg/sg44_9_cif.got.tgz:16826.got - 2010.06.03 19:37:08.
