data_PCOD9375017
_publ_section_title
;
Structure prediction by ZEFSAII (Michael W. Deem and Ramdas Pophale) SiO2 
 PCOD9375017
Probable space group: I M M 2
;
_chemical_formula_sum "Si O2"
_cell_formula_units_Z 48
_cell_length_a 7.755889
_cell_length_b 23.015489
_cell_length_c 11.999196
_cell_angle_alpha 90.000000
_cell_angle_beta 90.000000
_cell_angle_gamma 90.000000
_cell_volume 2141.923417
_symmetry_space_group_name_H-M "I M M 2"
_symmetry_group_IT_number 44
_symmetry_cell_setting 'orthorhombic'
loop_
_space_group_symop_operation_xyz
x,y,z
-x,-y,z
-x,y,z
x,-y,z
1/2+x,1/2+y,1/2+z
1/2-x,1/2-y,1/2+z
1/2-x,1/2+y,1/2+z
1/2+x,1/2-y,1/2+z
loop_
_atom_site_type_symbol
_atom_site_label
_atom_site_fract_x
_atom_site_fract_y
_atom_site_fract_z
Si Si1 0.207753 0.846821 0.178360
Si Si2 0.306242 0.154504 0.549697
Si Si3 0.702653 0.256427 0.865099
Si Si4 0.202605 0.434630 0.225797
Si Si5 0.293985 0.433153 0.867227
Si Si6 0.802038 0.867281 0.932880
O O1 0.267809 0.795480 0.261269
O O2 0.237771 0.905669 0.246922
O O3 0.000000 0.838122 0.169414
O O4 0.276981 0.854327 0.054407
O O5 0.500000 0.173545 0.580906
O O6 0.223869 0.207721 0.481174
O O7 0.223386 0.119034 0.652518
O O8 0.306964 0.104316 0.456452
O O9 0.500000 0.246075 0.848838
O O10 0.793886 0.195113 0.873247
O O11 0.273146 0.500000 0.206318
O O12 0.217950 0.415116 0.353690
O O13 0.000000 0.436676 0.196197
O O14 0.500000 0.425513 0.889649
O O15 0.250907 0.500000 0.873865
O O16 0.000000 0.885397 0.948085
#
# Coordination Sequence:
#
# PCOD9375017 Si02
#       6
#     8   8   8   8   8   8
#     4   8  18  36  55  78 111 147 184 228 285 347
#     4  10  20  36  59  86 116 151 194 242 291 344
#     4  10  21  39  61  85 115 151 190 237 299 358
#     4  10  23  42  60  82 119 165 203 239 295 356
#     4   9  17  32  56  83 111 147 189 232 284 342
#     4  11  23  38  59  87 115 150 196 243 290 349
#
# _framework density 22.409763000000002
#
# number of rings (size 3 to 8) (size 9 to 14) (size 15 to 20)
#    0.000    2.333    0.000    3.000    2.333    3.333 
#    0.000    9.167    0.000    0.000    0.000    0.000 
#    0.000    0.000    0.000    0.000    0.000    0.000 
#
# Total GULP energy -133939.057654 kJ/mol
# GULP energy per Si atom -5580.794069 kJ/mol
# Density = 2.235876 g / cm^3
# Si number density = 22.409763 Si / 1000 Ang^3
#
#
#
# Elastic Constant Matrix: (Units=GPa)
#
#
# Indices 1 2 3 4 5 6 
#
# 1 34.1971 -0.1236 0.4416 0.0000 0.0000 0.0000
# 2 -0.1236 59.4565 15.7665 0.0000 0.0000 0.0000
# 3 0.4416 15.7665 107.1224 0.0000 0.0000 -0.0001
# 4 0.0000 0.0000 0.0000 14.3079 0.0000 0.0000
# 5 0.0000 0.0000 0.0000 0.0000 28.4890 0.0000
# 6 0.0000 0.0000 -0.0001 0.0000 0.0000 -4.7025
#
#
#
# Elastic Compliance Matrix: (Units=1/GPa)
#
#
# Indices 1 2 3 4 5 6 
#
# 1 0.029244 0.000097 -0.000135 0.000000 0.000000 0.000000
# 2 0.000097 0.017502 -0.002576 0.000000 0.000000 0.000000
# 3 -0.000135 -0.002576 0.009715 0.000000 0.000000 0.000000
# 4 0.000000 0.000000 0.000000 0.069891 0.000000 0.000000
# 5 0.000000 0.000000 0.000000 0.000000 0.035101 0.000000
# 6 0.000000 0.000000 0.000000 0.000000 0.000000 -0.212654
#
#
# Mechanical properties :
#
#
# Convention : Reuss Voigt Hill
#
# Bulk Modulus (GPa) = 19.51893 25.88277 22.70085
# Shear Modulus (GPa) = -173.05484 19.93166 -76.56159
#
# Velocity S-wave (km/s) = -8.79719 2.98555 -5.85137
# Velocity P-wave (km/s) = 9.71898 4.84350 5.95815
#
# Compressibility (1/GPa) = 0.05123232
#
# Stress axis : x y z
#
# Youngs Moduli (GPa) = 34.19465 57.13496 102.93488
#
# Poissons Ratio (x) = -0.00552 0.01387
# Poissons Ratio (y) = -0.00330 0.26521
# Poissons Ratio (z) = 0.00461 0.14720
#
# Static dielectric constant tensor:
#      x y z
#    x 1.819140 0.000000 0.000000 
#    y 0.000000 1.802090 0.000000 
#    z 0.000000 0.000000 1.866380 
# 
# From -- ./inp_files/11136.got.cif
#   From: 2010.05.17/outbox.cif.g08.bks.cpg/sg44_6_cif.got.tgz:11136.got - 2010.06.03 19:37:08.
