data_PCOD9375520
_publ_section_title
;
Structure prediction by ZEFSAII (Michael W. Deem and Ramdas Pophale) SiO2 
 PCOD9375520
Probable space group: I M M 2
;
_chemical_formula_sum "Si O2"
_cell_formula_units_Z 64
_cell_length_a 31.516477
_cell_length_b 8.483846
_cell_length_c 12.127642
_cell_angle_alpha 90.000000
_cell_angle_beta 90.000000
_cell_angle_gamma 90.000000
_cell_volume 3242.700286
_symmetry_space_group_name_H-M "I M M 2"
_symmetry_group_IT_number 44
_symmetry_cell_setting 'orthorhombic'
loop_
_space_group_symop_operation_xyz
x,y,z
-x,-y,z
-x,y,z
x,-y,z
1/2+x,1/2+y,1/2+z
1/2-x,1/2-y,1/2+z
1/2-x,1/2+y,1/2+z
1/2+x,1/2-y,1/2+z
loop_
_atom_site_type_symbol
_atom_site_label
_atom_site_fract_x
_atom_site_fract_y
_atom_site_fract_z
Si Si1 0.952495 0.190173 0.787530
Si Si2 0.200726 0.816668 0.758162
Si Si3 0.076080 0.188520 0.541827
Si Si4 0.629754 0.809284 0.674953
Si Si5 0.628917 0.811765 0.417605
Si Si6 0.670922 0.182603 0.030813
Si Si7 0.953475 0.690200 0.310713
Si Si8 0.291068 0.316546 0.813857
O O1 0.945422 0.229227 0.658371
O O2 0.914983 0.264583 0.858727
O O3 0.000000 0.238765 0.821042
O O4 0.949578 0.000000 0.796716
O O5 0.167592 0.768965 0.853000
O O6 0.190377 0.715623 0.649992
O O7 0.248700 0.782476 0.793128
O O8 0.194595 0.000000 0.731169
O O9 0.121722 0.270805 0.536518
O O10 0.051232 0.242087 0.433489
O O11 0.081611 0.000000 0.539235
O O12 0.628393 0.766819 0.546224
O O13 0.586640 0.758538 0.737426
O O14 0.670541 0.737368 0.735097
O O15 0.632419 0.000000 0.682860
O O16 0.634343 0.000000 0.410237
O O17 0.675054 0.000000 0.999644
O O18 0.693350 0.286363 0.938008
O O19 0.951636 0.500000 0.317202
O O20 0.000000 0.733966 0.265632
O O21 0.281713 0.500000 0.796251
#
# Coordination Sequence:
#
# PCOD9375520 Si02
#       8
#     8   8   8   8   8   8   8   8
#     4  10  22  40  62  90 128 170 212 263 322 381
#     4  12  26  45  68  95 130 170 213 263 320 378
#     4  11  21  37  62  94 128 167 209 259 321 382
#     4  10  23  43  64  90 129 170 213 264 319 377
#     4  11  24  42  65  93 127 168 216 266 319 381
#     4  12  24  42  68  98 131 167 211 263 320 379
#     4  10  21  38  62  91 125 168 215 263 317 377
#     4  12  26  44  68  98 130 168 214 261 319 381
#
# _framework density 19.736637999999999
#
# number of rings (size 3 to 8) (size 9 to 14) (size 15 to 20)
#    0.000    1.000    2.500    4.500    1.750    3.000 
#    0.000    1.250    0.000    0.000    0.000    0.000 
#    0.000    0.000    0.000    0.000    0.000    0.000 
#
# Total GULP energy -179000.617720 kJ/mol
# GULP energy per Si atom -5593.769304 kJ/mol
# Density = 1.969172 g / cm^3
# Si number density = 19.736638 Si / 1000 Ang^3
#
#
#
# Elastic Constant Matrix: (Units=GPa)
#
#
# Indices 1 2 3 4 5 6 
#
# 1 126.2700 9.7630 38.0362 0.0000 0.0000 0.0000
# 2 9.7630 31.4868 3.3089 0.0000 0.0000 0.0000
# 3 38.0362 3.3089 104.3786 0.0000 0.0000 0.0000
# 4 0.0000 0.0000 0.0000 20.1317 0.0000 0.0000
# 5 0.0000 0.0000 0.0000 0.0000 27.0325 0.0000
# 6 0.0000 0.0000 0.0000 0.0000 0.0000 -62.2458
#
#
#
# Elastic Compliance Matrix: (Units=1/GPa)
#
#
# Indices 1 2 3 4 5 6 
#
# 1 0.009085 -0.002477 -0.003232 0.000000 0.000000 0.000000
# 2 -0.002477 0.032541 -0.000129 0.000000 0.000000 0.000000
# 3 -0.003232 -0.000129 0.010762 0.000000 0.000000 0.000000
# 4 0.000000 0.000000 0.000000 0.049673 0.000000 0.000000
# 5 0.000000 0.000000 0.000000 0.000000 0.036993 0.000000
# 6 0.000000 0.000000 0.000000 0.000000 0.000000 -0.016065
#
#
# Mechanical properties :
#
#
# Convention : Reuss Voigt Hill
#
# Bulk Modulus (GPa) = 24.56285 40.48352 32.52319
# Shear Modulus (GPa) = 33.73026 11.05215 22.39121
#
# Velocity S-wave (km/s) = 4.13851 2.36896 3.37189
# Velocity P-wave (km/s) = 5.94211 5.29519 5.62795
#
# Compressibility (1/GPa) = 0.04071189
#
# Stress axis : x y z
#
# Youngs Moduli (GPa) = 110.07603 30.73046 92.91656
#
# Poissons Ratio (x) = 0.07613 0.30030
# Poissons Ratio (y) = 0.27268 0.01198
# Poissons Ratio (z) = 0.35576 0.00396
#
# Static dielectric constant tensor:
#      x y z
#    x 1.673500 0.000000 0.000000 
#    y 0.000000 1.668310 0.000000 
#    z 0.000000 0.000000 1.669730 
# 
# From -- ./inp_files/15085.got.cif
#   From: 2010.05.17/outbox.cif.g08.bks.cpg/sg44_8_cif.got.tgz:15085.got - 2010.06.03 19:37:08.
