data_PCOD9375038
_publ_section_title
;
Structure prediction by ZEFSAII (Michael W. Deem and Ramdas Pophale) SiO2 
 PCOD9375038
Probable space group: I M M 2
;
_chemical_formula_sum "Si O2"
_cell_formula_units_Z 40
_cell_length_a 8.884540
_cell_length_b 23.951265
_cell_length_c 10.380081
_cell_angle_alpha 90.000000
_cell_angle_beta 90.000000
_cell_angle_gamma 90.000000
_cell_volume 2208.839425
_symmetry_space_group_name_H-M "I M M 2"
_symmetry_group_IT_number 44
_symmetry_cell_setting 'orthorhombic'
loop_
_space_group_symop_operation_xyz
x,y,z
-x,-y,z
-x,y,z
x,-y,z
1/2+x,1/2+y,1/2+z
1/2-x,1/2-y,1/2+z
1/2-x,1/2+y,1/2+z
1/2+x,1/2-y,1/2+z
loop_
_atom_site_type_symbol
_atom_site_label
_atom_site_fract_x
_atom_site_fract_y
_atom_site_fract_z
Si Si1 0.680234 0.367370 0.214510
Si Si2 0.321167 0.634548 0.753645
Si Si3 0.177788 0.740406 0.663434
Si Si4 0.320499 0.065487 0.486146
Si Si5 0.822478 0.642561 0.489779
O O1 0.500000 0.372571 0.207841
O O2 0.721979 0.304542 0.168087
O O3 0.757620 0.411192 0.120377
O O4 0.737205 0.372573 0.360442
O O5 0.500000 0.630833 0.748456
O O6 0.269805 0.699571 0.757910
O O7 0.247048 0.614686 0.618262
O O8 0.256246 0.600362 0.872139
O O9 0.197025 0.708520 0.526547
O O10 0.000000 0.736667 0.695373
O O11 0.500000 0.073122 0.480705
O O12 0.286896 0.000000 0.472448
O O13 0.000000 0.631273 0.479307
#
# Coordination Sequence:
#
# PCOD9375038 Si02
#       5
#     8   8   8   8   8
#     4  11  22  37  60  91 124 159 202 254 304 355
#     4  10  20  36  61  88 117 153 199 253 300 352
#     4   8  19  35  55  86 124 159 193 237 301 366
#     4  11  25  44  63  85 119 166 210 251 306 368
#     4   9  19  37  57  85 122 157 194 236 296 365
#
# _framework density 18.109057
#
# number of rings (size 3 to 8) (size 9 to 14) (size 15 to 20)
#    1.200    1.000    0.000    3.000    2.800    3.200 
#    0.000    1.000    0.000    6.000    0.000    0.000 
#    0.000    0.000    0.000    0.000    0.000    0.000 
#
# Total GULP energy -111452.416193 kJ/mol
# GULP energy per Si atom -5572.620810 kJ/mol
# Density = 1.806784 g / cm^3
# Si number density = 18.109057 Si / 1000 Ang^3
#
#
#
# Elastic Constant Matrix: (Units=GPa)
#
#
# Indices 1 2 3 4 5 6 
#
# 1 57.3499 26.0020 6.2107 -0.0004 0.0005 -0.0001
# 2 26.0020 38.7559 -2.6816 -0.0006 0.0003 0.0001
# 3 6.2107 -2.6816 60.8016 0.0013 -0.0009 -0.0004
# 4 -0.0004 -0.0006 0.0013 16.4625 0.0002 0.0000
# 5 0.0005 0.0003 -0.0009 0.0002 34.7892 -0.0002
# 6 -0.0001 0.0001 -0.0004 0.0000 -0.0002 11.1795
#
#
#
# Elastic Compliance Matrix: (Units=1/GPa)
#
#
# Indices 1 2 3 4 5 6 
#
# 1 0.025742 -0.017506 -0.003402 0.000000 0.000000 0.000000
# 2 -0.017506 0.037787 0.003455 0.000001 0.000000 0.000000
# 3 -0.003402 0.003455 0.016947 -0.000001 0.000000 0.000001
# 4 0.000000 0.000001 -0.000001 0.060744 0.000000 0.000000
# 5 0.000000 0.000000 0.000000 0.000000 0.028745 0.000000
# 6 0.000000 0.000000 0.000001 0.000000 0.000000 0.089450
#
#
# Mechanical properties :
#
#
# Convention : Reuss Voigt Hill
#
# Bulk Modulus (GPa) = 21.94444 23.99662 22.97053
# Shear Modulus (GPa) = 16.15452 20.97800 18.56626
#
# Velocity S-wave (km/s) = 2.98999 3.40726 3.20542
# Velocity P-wave (km/s) = 4.90554 5.36276 5.13923
#
# Compressibility (1/GPa) = 0.04556963
#
# Stress axis : x y z
#
# Youngs Moduli (GPa) = 38.84629 26.46420 59.00833
#
# Poissons Ratio (x) = 0.46329 0.20072
# Poissons Ratio (y) = 0.68006 -0.20386
# Poissons Ratio (z) = 0.13214 -0.09143
#
# Static dielectric constant tensor:
#      x y z
#    x 1.596250 0.000000 0.000000 
#    y 0.000000 1.616450 0.000000 
#    z 0.000000 0.000000 1.614500 
# 
# From -- ./inp_files/4446.got.cif
#   From: 2010.05.17/outbox.cif.g08.bks.cpg/sg44_3_cif.got.tgz:4446.got - 2010.06.03 19:37:08.
