data_PCOD9375730
_publ_section_title
;
Structure prediction by ZEFSAII (Michael W. Deem and Ramdas Pophale) SiO2 
 PCOD9375730
Probable space group: I M M 2
;
_chemical_formula_sum "Si O2"
_cell_formula_units_Z 48
_cell_length_a 17.307753
_cell_length_b 8.745877
_cell_length_c 17.168581
_cell_angle_alpha 90.000000
_cell_angle_beta 90.000000
_cell_angle_gamma 90.000000
_cell_volume 2598.833496
_symmetry_space_group_name_H-M "I M M 2"
_symmetry_group_IT_number 44
_symmetry_cell_setting 'orthorhombic'
loop_
_space_group_symop_operation_xyz
x,y,z
-x,-y,z
-x,y,z
x,-y,z
1/2+x,1/2+y,1/2+z
1/2-x,1/2-y,1/2+z
1/2-x,1/2+y,1/2+z
1/2+x,1/2-y,1/2+z
loop_
_atom_site_type_symbol
_atom_site_label
_atom_site_fract_x
_atom_site_fract_y
_atom_site_fract_z
Si Si1 0.679904 0.682953 0.777770
Si Si2 0.154385 0.815376 0.098716
Si Si3 0.090254 0.682573 0.423501
Si Si4 0.500000 0.686003 0.509658
Si Si5 0.179703 0.817810 0.570592
Si Si6 0.645448 0.183329 0.238495
Si Si7 0.500000 0.683781 0.329627
O O1 0.672646 0.500000 0.788789
O O2 0.649880 0.719863 0.690824
O O3 0.633705 0.766709 0.845127
O O4 0.771168 0.721144 0.776294
O O5 0.231858 0.739912 0.065542
O O6 0.077652 0.765422 0.053862
O O7 0.162538 0.000000 0.092325
O O8 0.095250 0.500000 0.432168
O O9 0.131399 0.760124 0.497064
O O10 0.000000 0.725981 0.419787
O O11 0.500000 0.500000 0.511482
O O12 0.500000 0.733045 0.419838
O O13 0.146893 0.747405 0.650755
O O14 0.177876 0.000000 0.575028
O O15 0.575618 0.253320 0.286758
O O16 0.639161 0.000000 0.235340
O O17 0.500000 0.500000 0.326700
#
# Coordination Sequence:
#
# PCOD9375730 Si02
#       7
#     8   8   8   4   8   8   4
#     4   9  20  38  63  90 118 155 201 246 296 350
#     4   9  19  39  64  90 121 160 199 241 297 356
#     4  11  25  41  60  87 121 159 199 244 302 359
#     4   9  20  37  61  92 123 158 199 241 290 351
#     4  11  23  40  63  90 119 154 200 251 302 357
#     4  10  22  42  64  87 120 161 200 245 303 358
#     4  11  23  37  59  94 125 158 203 247 294 351
#
# _framework density 18.469826000000001
#
# number of rings (size 3 to 8) (size 9 to 14) (size 15 to 20)
#    0.000    2.000    0.000    3.750    4.667    4.667 
#    0.000    1.250    0.000    0.000    0.000    0.000 
#    0.000    0.000    0.000    0.000    0.000    0.000 
#
# Total GULP energy -134099.667667 kJ/mol
# GULP energy per Si atom -5587.486153 kJ/mol
# Density = 1.842779 g / cm^3
# Si number density = 18.469826 Si / 1000 Ang^3
#
#
#
# Elastic Constant Matrix: (Units=GPa)
#
#
# Indices 1 2 3 4 5 6 
#
# 1 175.4666 71.0945 136.3845 0.0000 0.0000 0.0000
# 2 71.0945 71.9753 64.9286 0.0000 0.0000 0.0000
# 3 136.3845 64.9286 143.3669 0.0000 0.0000 0.0000
# 4 0.0000 0.0000 0.0000 31.1809 0.0000 0.0000
# 5 0.0000 0.0000 0.0000 0.0000 27.6263 0.0000
# 6 0.0000 0.0000 0.0000 0.0000 0.0000 30.9699
#
#
#
# Elastic Compliance Matrix: (Units=1/GPa)
#
#
# Indices 1 2 3 4 5 6 
#
# 1 0.022894 -0.005017 -0.019507 0.000000 0.000000 0.000000
# 2 -0.005017 0.024590 -0.006364 0.000000 0.000000 0.000000
# 3 -0.019507 -0.006364 0.028414 0.000000 0.000000 0.000000
# 4 0.000000 0.000000 0.000000 0.032071 0.000000 0.000000
# 5 0.000000 0.000000 0.000000 0.000000 0.036197 0.000000
# 6 0.000000 0.000000 0.000000 0.000000 0.000000 0.032289
#
#
# Mechanical properties :
#
#
# Convention : Reuss Voigt Hill
#
# Bulk Modulus (GPa) = 70.80798 103.95820 87.38309
# Shear Modulus (GPa) = 20.58145 25.84882 23.21513
#
# Velocity S-wave (km/s) = 3.34178 3.74507 3.54916
# Velocity P-wave (km/s) = 7.30139 8.66651 8.01307
#
# Compressibility (1/GPa) = 0.01412270
#
# Stress axis : x y z
#
# Youngs Moduli (GPa) = 43.68051 40.66714 35.19403
#
# Poissons Ratio (x) = 0.20401 0.68652
# Poissons Ratio (y) = 0.21912 0.22398
# Poissons Ratio (z) = 0.85206 0.25881
#
# Static dielectric constant tensor:
#      x y z
#    x 1.615100 0.000000 0.000000 
#    y 0.000000 1.620060 0.000000 
#    z 0.000000 0.000000 1.606050 
# 
# From -- ./inp_files/16204.got.cif
#   From: 2010.05.17/outbox.cif.g08.bks.cpg/sg44_9_cif.got.tgz:16204.got - 2010.06.03 19:37:08.
