data_PCOD9375929
_publ_section_title
;
Structure prediction by ZEFSAII (Michael W. Deem and Ramdas Pophale) SiO2 
 PCOD9375929
Probable space group: I M M 2
;
_chemical_formula_sum "Si O2"
_cell_formula_units_Z 48
_cell_length_a 16.014815
_cell_length_b 17.014384
_cell_length_c 7.005658
_cell_angle_alpha 90.000000
_cell_angle_beta 90.000000
_cell_angle_gamma 90.000000
_cell_volume 1908.917189
_symmetry_space_group_name_H-M "I M M 2"
_symmetry_group_IT_number 44
_symmetry_cell_setting 'orthorhombic'
loop_
_space_group_symop_operation_xyz
x,y,z
-x,-y,z
-x,y,z
x,-y,z
1/2+x,1/2+y,1/2+z
1/2-x,1/2-y,1/2+z
1/2-x,1/2+y,1/2+z
1/2+x,1/2-y,1/2+z
loop_
_atom_site_type_symbol
_atom_site_label
_atom_site_fract_x
_atom_site_fract_y
_atom_site_fract_z
Si Si1 0.178113 0.414457 0.815460
Si Si2 0.670347 0.746282 0.278243
Si Si3 0.134353 0.749104 0.331032
Si Si4 0.403558 0.585167 0.325988
Si Si5 0.122265 0.915573 0.371964
Si Si6 0.093190 0.414998 0.417344
O O1 0.144855 0.500000 0.880265
O O2 0.144556 0.328587 0.876023
O O3 0.276573 0.414094 0.861272
O O4 0.160551 0.412798 0.587414
O O5 0.770169 0.747517 0.262788
O O6 0.644324 0.664998 0.376170
O O7 0.634612 0.746944 0.063779
O O8 0.094738 0.833226 0.280055
O O9 0.098849 0.662981 0.292180
O O10 0.500000 0.589306 0.384378
O O11 0.366744 0.500000 0.384127
O O12 0.401850 0.584038 0.094322
O O13 0.094608 0.000000 0.292381
O O14 0.102889 0.500000 0.319931
O O15 0.000000 0.413896 0.505872
#
# Coordination Sequence:
#
# PCOD9375929 Si02
#       6
#     8   8   8   8   8   8
#     4   8  14  25  40  59  85 115 143 175 216 259
#     4   9  17  28  44  65  90 117 148 183 221 263
#     4   9  17  28  44  65  90 117 148 183 221 263
#     4   9  17  28  43  65  90 115 147 187 225 260
#     4   8  14  25  40  59  85 115 143 175 216 259
#     4   9  17  28  43  65  90 115 147 187 225 260
#
# _framework density 25.145146
#
# number of rings (size 3 to 8) (size 9 to 14) (size 15 to 20)
#    0.000    3.333    0.000    0.000    0.000    6.667 
#    0.000    0.000    0.000    1.000    0.000    7.000 
#    0.000   88.000    0.000    0.000    0.000    0.000 
#
# Total GULP energy -133804.891621 kJ/mol
# GULP energy per Si atom -5575.203818 kJ/mol
# Density = 2.508791 g / cm^3
# Si number density = 25.145146 Si / 1000 Ang^3
#
#
#
# Elastic Constant Matrix: (Units=GPa)
#
#
# Indices 1 2 3 4 5 6 
#
# 1 50.0508 43.9316 16.3494 0.0000 0.0000 0.0000
# 2 43.9316 351.1420 -3.2819 0.0000 0.0000 0.0000
# 3 16.3494 -3.2819 96.2518 0.0000 0.0000 0.0000
# 4 0.0000 0.0000 0.0000 -14.0178 0.0000 0.0000
# 5 0.0000 0.0000 0.0000 0.0000 9.7946 0.0000
# 6 0.0000 0.0000 0.0000 0.0000 0.0000 57.2313
#
#
#
# Elastic Compliance Matrix: (Units=1/GPa)
#
#
# Indices 1 2 3 4 5 6 
#
# 1 0.024018 -0.003044 -0.004184 0.000000 0.000000 0.000000
# 2 -0.003044 0.003235 0.000627 0.000000 0.000000 0.000000
# 3 -0.004184 0.000627 0.011121 0.000000 0.000000 0.000000
# 4 0.000000 0.000000 0.000000 -0.071338 0.000000 0.000000
# 5 0.000000 0.000000 0.000000 0.000000 0.102097 0.000000
# 6 0.000000 0.000000 0.000000 0.000000 0.000000 0.017473
#
#
# Mechanical properties :
#
#
# Convention : Reuss Voigt Hill
#
# Bulk Modulus (GPa) = 39.72399 67.93808 53.83103
# Shear Modulus (GPa) = 46.21165 39.96465 43.08815
#
# Velocity S-wave (km/s) = 4.29160 3.99100 4.14403
# Velocity P-wave (km/s) = 6.35526 6.95086 6.65972
#
# Compressibility (1/GPa) = 0.02517371
#
# Stress axis : x y z
#
# Youngs Moduli (GPa) = 41.63517 309.16161 89.91655
#
# Poissons Ratio (x) = 0.94110 0.37617
# Poissons Ratio (y) = 0.12674 -0.05641
# Poissons Ratio (z) = 0.17418 -0.19395
#
# Static dielectric constant tensor:
#      x y z
#    x 1.898580 0.000000 0.000000 
#    y 0.000000 2.109350 0.000000 
#    z 0.000000 0.000000 1.941290 
# 
# From -- ./inp_files/7132.got.cif
#   From: 2010.05.17/outbox.cif.g08.bks.cpg/sg44_4_cif.got.tgz:7132.got - 2010.06.03 19:37:08.
