data_PCOD9375606
_publ_section_title
;
Structure prediction by ZEFSAII (Michael W. Deem and Ramdas Pophale) SiO2 
 PCOD9375606
Probable space group: I M M 2
;
_chemical_formula_sum "Si O2"
_cell_formula_units_Z 38
_cell_length_a 15.841062
_cell_length_b 13.122849
_cell_length_c 8.844843
_cell_angle_alpha 90.000000
_cell_angle_beta 90.000000
_cell_angle_gamma 90.000000
_cell_volume 1838.664765
_symmetry_space_group_name_H-M "I M M 2"
_symmetry_group_IT_number 44
_symmetry_cell_setting 'orthorhombic'
loop_
_space_group_symop_operation_xyz
x,y,z
-x,-y,z
-x,y,z
x,-y,z
1/2+x,1/2+y,1/2+z
1/2-x,1/2-y,1/2+z
1/2-x,1/2+y,1/2+z
1/2+x,1/2-y,1/2+z
loop_
_atom_site_type_symbol
_atom_site_label
_atom_site_fract_x
_atom_site_fract_y
_atom_site_fract_z
Si Si1 0.596968 0.000000 0.482980
Si Si2 0.000000 0.340632 0.413636
Si Si3 0.659275 0.615576 0.254175
Si Si4 0.654888 0.172204 0.700336
Si Si5 0.500000 0.000000 0.183249
Si Si6 0.100282 0.109655 0.098408
Si Si7 0.500000 0.622414 0.041590
O O1 0.640652 0.899487 0.552554
O O2 0.579539 0.000000 0.301656
O O3 0.500000 0.000000 0.541995
O O4 0.914148 0.366978 0.322265
O O5 0.000000 0.401869 0.572440
O O6 0.000000 0.217353 0.428258
O O7 0.683009 0.500000 0.216455
O O8 0.747888 0.671505 0.248073
O O9 0.621911 0.617180 0.421607
O O10 0.583979 0.641899 0.140768
O O11 0.634609 0.289419 0.671788
O O12 0.000000 0.109018 0.113087
O O13 0.132945 0.000000 0.156196
O O14 0.500000 0.500000 0.997659
#
# Coordination Sequence:
#
# PCOD9375606 Si02
#       7
#     4   4   8   8   2   8   4
#     4  10  21  42  67  97 133 183 229 271 338 427
#     4  12  25  41  65 102 144 176 214 291 347 412
#     4  10  22  41  68  95 131 180 231 281 338 402
#     4  12  23  41  70 103 137 178 226 289 351 406
#     4  10  26  42  66  98 136 192 220 276 346 434
#     4  10  21  41  70  98 132 183 232 277 334 414
#     4  10  24  44  64  92 130 181 228 279 333 399
#
# _framework density 20.667171
#
# number of rings (size 3 to 8) (size 9 to 14) (size 15 to 20)
#    0.316    1.053    4.211    0.632    5.895    0.842 
#    0.000    0.000    2.316    0.000    0.000    0.000 
#    0.000    0.000    0.000    0.000    0.000    0.000 
#
# Total GULP energy -105975.549315 kJ/mol
# GULP energy per Si atom -5577.660490 kJ/mol
# Density = 2.062013 g / cm^3
# Si number density = 20.667171 Si / 1000 Ang^3
#
#
#
# Elastic Constant Matrix: (Units=GPa)
#
#
# Indices 1 2 3 4 5 6 
#
# 1 82.1673 47.7264 27.9365 0.0000 0.0000 0.0000
# 2 47.7264 126.7550 46.5229 0.0000 0.0000 0.0000
# 3 27.9365 46.5229 92.9988 0.0000 0.0000 0.0000
# 4 0.0000 0.0000 0.0000 23.8311 0.0000 0.0000
# 5 0.0000 0.0000 0.0000 0.0000 1.5320 0.0000
# 6 0.0000 0.0000 0.0000 0.0000 0.0000 -54.9218
#
#
#
# Elastic Compliance Matrix: (Units=1/GPa)
#
#
# Indices 1 2 3 4 5 6 
#
# 1 0.015932 -0.005196 -0.002186 0.000000 0.000000 0.000000
# 2 -0.005196 0.011358 -0.004121 0.000000 0.000000 0.000000
# 3 -0.002186 -0.004121 0.013471 0.000000 0.000000 0.000000
# 4 0.000000 0.000000 0.000000 0.041962 0.000000 0.000000
# 5 0.000000 0.000000 0.000000 0.000000 0.652756 0.000000
# 6 0.000000 0.000000 0.000000 0.000000 0.000000 -0.018208
#
#
# Mechanical properties :
#
#
# Convention : Reuss Voigt Hill
#
# Bulk Modulus (GPa) = 56.32584 60.69918 58.51251
# Shear Modulus (GPa) = 6.70064 6.07060 6.38562
#
# Velocity S-wave (km/s) = 1.80256 1.71572 1.75967
# Velocity P-wave (km/s) = 5.62541 5.77569 5.70104
#
# Compressibility (1/GPa) = 0.01775384
#
# Stress axis : x y z
#
# Youngs Moduli (GPa) = 62.76713 88.04123 74.23236
#
# Poissons Ratio (x) = 0.45749 0.16231
# Poissons Ratio (y) = 0.32615 0.30592
# Poissons Ratio (z) = 0.13724 0.36283
#
# Static dielectric constant tensor:
#      x y z
#    x 1.790440 0.000000 0.000000 
#    y 0.000000 1.774730 0.000000 
#    z 0.000000 0.000000 1.749870 
# 
# From -- ./inp_files/7965.got.cif
#   From: 2010.05.17/outbox.cif.g08.bks.cpg/sg44_4_cif.got.tgz:7965.got - 2010.06.03 19:37:08.
