data_PCOD9375842
_publ_section_title
;
Structure prediction by ZEFSAII (Michael W. Deem and Ramdas Pophale) SiO2 
 PCOD9375842
Probable space group: I M M 2
;
_chemical_formula_sum "Si O2"
_cell_formula_units_Z 48
_cell_length_a 23.200841
_cell_length_b 8.811025
_cell_length_c 11.733340
_cell_angle_alpha 90.000000
_cell_angle_beta 90.000000
_cell_angle_gamma 90.000000
_cell_volume 2398.566793
_symmetry_space_group_name_H-M "I M M 2"
_symmetry_group_IT_number 44
_symmetry_cell_setting 'orthorhombic'
loop_
_space_group_symop_operation_xyz
x,y,z
-x,-y,z
-x,y,z
x,-y,z
1/2+x,1/2+y,1/2+z
1/2-x,1/2-y,1/2+z
1/2-x,1/2+y,1/2+z
1/2+x,1/2-y,1/2+z
loop_
_atom_site_type_symbol
_atom_site_label
_atom_site_fract_x
_atom_site_fract_y
_atom_site_fract_z
Si Si1 0.652154 0.676126 0.501500
Si Si2 0.932226 0.171525 0.802466
Si Si3 0.854633 0.675802 0.625754
Si Si4 0.766107 0.817445 0.793561
Si Si5 0.862256 0.320132 0.244092
Si Si6 0.433827 0.318877 0.932499
O O1 0.664234 0.500000 0.532626
O O2 0.593431 0.679717 0.428453
O O3 0.700182 0.726801 0.409056
O O4 0.645246 0.775765 0.612674
O O5 0.901207 0.295302 0.725737
O O6 0.000000 0.186560 0.799150
O O7 0.916933 0.000000 0.759111
O O8 0.844114 0.500000 0.602010
O O9 0.797462 0.748928 0.681927
O O10 0.886085 0.751231 0.518177
O O11 0.699363 0.776111 0.799095
O O12 0.770685 0.000000 0.785277
O O13 0.870283 0.500000 0.257249
O O14 0.913579 0.234107 0.307732
O O15 0.500000 0.269173 0.957934
O O16 0.432768 0.500000 0.941046
#
# Coordination Sequence:
#
# PCOD9375842 Si02
#       6
#     8   8   8   8   8   8
#     4   9  19  37  58  83 117 156 199 241 291 362
#     4   9  18  35  59  84 114 156 201 243 292 353
#     4  11  22  36  60  93 124 155 198 253 306 354
#     4   9  21  41  62  87 121 159 200 246 303 367
#     4  11  24  40  61  91 122 155 199 254 308 358
#     4  11  25  44  64  87 121 168 213 249 301 373
#
# _framework density 20.011949000000001
#
# number of rings (size 3 to 8) (size 9 to 14) (size 15 to 20)
#    0.000    2.000    0.000    4.000    2.333    8.333 
#    0.000    1.667    0.000    0.000    0.000    0.000 
#    0.000    0.000    0.000    0.000    0.000    0.000 
#
# Total GULP energy -134000.430446 kJ/mol
# GULP energy per Si atom -5583.351269 kJ/mol
# Density = 1.996640 g / cm^3
# Si number density = 20.011949 Si / 1000 Ang^3
#
#
#
# Elastic Constant Matrix: (Units=GPa)
#
#
# Indices 1 2 3 4 5 6 
#
# 1 61.1633 16.7046 11.7522 0.0000 0.0000 0.0000
# 2 16.7046 44.7754 20.3382 0.0000 0.0000 0.0000
# 3 11.7522 20.3382 75.2907 0.0000 0.0000 0.0000
# 4 0.0000 0.0000 0.0000 33.1231 0.0000 0.0000
# 5 0.0000 0.0000 0.0000 0.0000 11.6218 0.0000
# 6 0.0000 0.0000 0.0000 0.0000 0.0000 20.2657
#
#
#
# Elastic Compliance Matrix: (Units=1/GPa)
#
#
# Indices 1 2 3 4 5 6 
#
# 1 0.018292 -0.006300 -0.001153 0.000000 0.000000 0.000000
# 2 -0.006300 0.027627 -0.006479 0.000000 0.000000 0.000000
# 3 -0.001153 -0.006479 0.015212 0.000000 0.000000 0.000000
# 4 0.000000 0.000000 0.000000 0.030190 0.000000 0.000000
# 5 0.000000 0.000000 0.000000 0.000000 0.086045 0.000000
# 6 0.000000 0.000000 0.000000 0.000000 0.000000 0.049344
#
#
# Mechanical properties :
#
#
# Convention : Reuss Voigt Hill
#
# Bulk Modulus (GPa) = 30.06153 30.97992 30.52073
# Shear Modulus (GPa) = 18.82059 21.83110 20.32585
#
# Velocity S-wave (km/s) = 3.07003 3.30647 3.19044
# Velocity P-wave (km/s) = 5.25559 5.48555 5.37180
#
# Compressibility (1/GPa) = 0.03326511
#
# Stress axis : x y z
#
# Youngs Moduli (GPa) = 54.66873 36.19601 65.73688
#
# Poissons Ratio (x) = 0.22805 0.07581
# Poissons Ratio (y) = 0.34444 0.42594
# Poissons Ratio (z) = 0.06305 0.23453
#
# Static dielectric constant tensor:
#      x y z
#    x 1.711950 0.000000 0.000000 
#    y 0.000000 1.701340 0.000000 
#    z 0.000000 0.000000 1.713830 
# 
# From -- ./inp_files/14587.got.cif
#   From: 2010.05.17/outbox.cif.g08.bks.cpg/sg44_8_cif.got.tgz:14587.got - 2010.06.03 19:37:08.
