data_PCOD9375645
_publ_section_title
;
Structure prediction by ZEFSAII (Michael W. Deem and Ramdas Pophale) SiO2 
 PCOD9375645
Probable space group: I M M 2
;
_chemical_formula_sum "Si O2"
_cell_formula_units_Z 48
_cell_length_a 8.858786
_cell_length_b 17.322305
_cell_length_c 17.149693
_cell_angle_alpha 90.000000
_cell_angle_beta 90.000000
_cell_angle_gamma 90.000000
_cell_volume 2631.699160
_symmetry_space_group_name_H-M "I M M 2"
_symmetry_group_IT_number 44
_symmetry_cell_setting 'orthorhombic'
loop_
_space_group_symop_operation_xyz
x,y,z
-x,-y,z
-x,y,z
x,-y,z
1/2+x,1/2+y,1/2+z
1/2-x,1/2-y,1/2+z
1/2-x,1/2+y,1/2+z
1/2+x,1/2-y,1/2+z
loop_
_atom_site_type_symbol
_atom_site_label
_atom_site_fract_x
_atom_site_fract_y
_atom_site_fract_z
Si Si1 0.818133 0.500000 0.216440
Si Si2 0.318382 0.850955 0.816969
Si Si3 0.819552 0.409656 0.628212
Si Si4 0.817948 0.000000 0.545000
Si Si5 0.180302 0.177932 0.273748
Si Si6 0.179926 0.181575 0.983337
Si Si7 0.181764 0.846071 0.453349
O O1 0.774835 0.423671 0.264664
O O2 0.747151 0.500000 0.131390
O O3 0.000000 0.500000 0.209413
O O4 0.500000 0.852394 0.829155
O O5 0.283135 0.769325 0.775616
O O6 0.240220 0.851270 0.901044
O O7 0.777380 0.500000 0.630033
O O8 0.765555 0.367742 0.706854
O O9 0.744751 0.367382 0.554732
O O10 0.000000 0.404211 0.621351
O O11 0.772184 0.922931 0.498674
O O12 0.000000 0.000000 0.548264
O O13 0.215972 0.148528 0.361089
O O14 0.000000 0.169991 0.261706
O O15 0.240318 0.269484 0.986410
O O16 0.000000 0.181022 0.984816
O O17 0.000000 0.836339 0.459564
#
# Coordination Sequence:
#
# PCOD9375645 Si02
#       7
#     4   8   8   4   8   8   8
#     4  10  22  38  60  89 122 157 194 237 288 347
#     4   9  20  40  62  86 119 158 194 235 293 351
#     4  11  25  41  59  85 119 156 196 242 296 350
#     4  10  22  38  60  91 122 155 196 241 286 339
#     4   9  19  37  62  87 116 153 197 241 289 347
#     4  11  23  39  62  89 117 152 197 245 293 347
#     4   9  20  40  63  88 120 158 194 236 294 349
#
# _framework density 18.239166999999998
#
# number of rings (size 3 to 8) (size 9 to 14) (size 15 to 20)
#    0.000    2.167    0.000    3.000    4.667    5.333 
#    0.000    0.000    0.000    0.000    0.000    0.000 
#    0.000    0.000    0.000    0.000    0.000    0.000 
#
# Total GULP energy -134059.219476 kJ/mol
# GULP energy per Si atom -5585.800811 kJ/mol
# Density = 1.819765 g / cm^3
# Si number density = 18.239167 Si / 1000 Ang^3
#
#
#
# Elastic Constant Matrix: (Units=GPa)
#
#
# Indices 1 2 3 4 5 6 
#
# 1 54.4449 69.7600 67.1405 0.0000 0.0000 0.0000
# 2 69.7600 183.3155 144.3461 0.0000 0.0000 0.0000
# 3 67.1405 144.3461 153.5627 0.0000 0.0000 0.0000
# 4 0.0000 0.0000 0.0000 27.6347 0.0000 0.0000
# 5 0.0000 0.0000 0.0000 0.0000 38.2972 0.0000
# 6 0.0000 0.0000 0.0000 0.0000 0.0000 24.4652
#
#
#
# Elastic Compliance Matrix: (Units=1/GPa)
#
#
# Indices 1 2 3 4 5 6 
#
# 1 0.041388 -0.005777 -0.012665 0.000000 0.000000 0.000000
# 2 -0.005777 0.021800 -0.017966 0.000000 0.000000 0.000000
# 3 -0.012665 -0.017966 0.028937 0.000000 0.000000 0.000000
# 4 0.000000 0.000000 0.000000 0.036186 0.000000 0.000000
# 5 0.000000 0.000000 0.000000 0.000000 0.026112 0.000000
# 6 0.000000 0.000000 0.000000 0.000000 0.000000 0.040874
#
#
# Mechanical properties :
#
#
# Convention : Reuss Voigt Hill
#
# Bulk Modulus (GPa) = 51.79003 105.97961 78.88482
# Shear Modulus (GPa) = 18.21156 25.41785 21.81471
#
# Velocity S-wave (km/s) = 3.16331 3.73713 3.46213
# Velocity P-wave (km/s) = 6.46519 8.76659 7.70233
#
# Compressibility (1/GPa) = 0.01930874
#
# Stress axis : x y z
#
# Youngs Moduli (GPa) = 24.16161 45.87064 34.55770
#
# Poissons Ratio (x) = 0.26501 0.43767
# Poissons Ratio (y) = 0.13959 0.62086
# Poissons Ratio (z) = 0.30601 0.82411
#
# Static dielectric constant tensor:
#      x y z
#    x 1.614260 0.000000 0.000000 
#    y 0.000000 1.614820 0.000000 
#    z 0.000000 0.000000 1.589040 
# 
# From -- ./inp_files/16117.got.cif
#   From: 2010.05.17/outbox.cif.g08.bks.cpg/sg44_9_cif.got.tgz:16117.got - 2010.06.03 19:37:08.
