data_PCOD9375849
_publ_section_title
;
Structure prediction by ZEFSAII (Michael W. Deem and Ramdas Pophale) SiO2 
 PCOD9375849
Probable space group: I M M 2
;
_chemical_formula_sum "Si O2"
_cell_formula_units_Z 58
_cell_length_a 24.628334
_cell_length_b 17.280642
_cell_length_c 6.840328
_cell_angle_alpha 90.000000
_cell_angle_beta 90.000000
_cell_angle_gamma 90.000000
_cell_volume 2911.198607
_symmetry_space_group_name_H-M "I M M 2"
_symmetry_group_IT_number 44
_symmetry_cell_setting 'orthorhombic'
loop_
_space_group_symop_operation_xyz
x,y,z
-x,-y,z
-x,y,z
x,-y,z
1/2+x,1/2+y,1/2+z
1/2-x,1/2-y,1/2+z
1/2-x,1/2+y,1/2+z
1/2+x,1/2-y,1/2+z
loop_
_atom_site_type_symbol
_atom_site_label
_atom_site_fract_x
_atom_site_fract_y
_atom_site_fract_z
Si Si1 0.728097 0.164389 0.877590
Si Si2 0.500000 0.500000 0.415483
Si Si3 0.060862 0.306179 0.784507
Si Si4 0.321319 0.310566 0.690973
Si Si5 0.938772 0.414555 0.146881
Si Si6 0.407285 0.364613 0.373325
Si Si7 0.190266 0.091247 0.578451
Si Si8 0.631982 0.915013 0.030947
O O1 0.685296 0.229183 0.805336
O O2 0.759909 0.130387 0.693232
O O3 0.773118 0.194002 0.030364
O O4 0.694823 0.099489 0.992617
O O5 0.451716 0.431232 0.411530
O O6 0.066405 0.214440 0.793106
O O7 0.106288 0.346580 0.655301
O O8 0.000000 0.327411 0.716980
O O9 0.068173 0.345297 0.996321
O O10 0.374135 0.336304 0.566932
O O11 0.314170 0.372996 0.863008
O O12 0.934592 0.500000 0.050543
O O13 0.896918 0.412672 0.321387
O O14 0.000000 0.409236 0.227403
O O15 0.363082 0.392204 0.211986
O O16 0.198230 0.000000 0.567521
O O17 0.622009 0.000000 0.117580
#
# Coordination Sequence:
#
# PCOD9375849 Si02
#       8
#     8   2   8   8   8   8   8   8
#     4  11  23  42  66  98 134 174 220 273 338 410
#     4  12  24  52  74 100 142 182 236 312 360 412
#     4  11  22  38  63  92 124 172 221 268 331 397
#     4  11  24  42  70  99 131 177 221 277 340 418
#     4   9  19  36  57  86 127 170 213 264 322 392
#     4  11  25  45  70  96 136 176 226 292 351 404
#     4  11  24  43  68  98 133 176 223 280 346 411
#     4  11  23  37  60  93 131 171 216 268 323 399
#
# _framework density 19.923065999999999
#
# number of rings (size 3 to 8) (size 9 to 14) (size 15 to 20)
#    0.000    1.241    2.759    2.897    2.897    3.586 
#    0.000    1.379    0.000    0.000    0.000    0.000 
#    0.000    0.000    0.000    0.000    0.000    0.000 
#
# Total GULP energy -161602.786992 kJ/mol
# GULP energy per Si atom -5572.509896 kJ/mol
# Density = 1.987772 g / cm^3
# Si number density = 19.923066 Si / 1000 Ang^3
#
#
#
# Elastic Constant Matrix: (Units=GPa)
#
#
# Indices 1 2 3 4 5 6 
#
# 1 84.4906 38.1289 17.2669 0.0000 0.0000 0.0000
# 2 38.1289 149.2257 25.9502 0.0000 0.0000 0.0000
# 3 17.2669 25.9502 56.0029 0.0000 0.0000 0.0000
# 4 0.0000 0.0000 0.0000 23.2687 0.0000 0.0000
# 5 0.0000 0.0000 0.0000 0.0000 18.0451 0.0000
# 6 0.0000 0.0000 0.0000 0.0000 0.0000 33.9997
#
#
#
# Elastic Compliance Matrix: (Units=1/GPa)
#
#
# Indices 1 2 3 4 5 6 
#
# 1 0.013783 -0.003027 -0.002847 0.000000 0.000000 0.000000
# 2 -0.003027 0.007953 -0.002752 0.000000 0.000000 0.000000
# 3 -0.002847 -0.002752 0.020009 0.000000 0.000000 0.000000
# 4 0.000000 0.000000 0.000000 0.042976 0.000000 0.000000
# 5 0.000000 0.000000 0.000000 0.000000 0.055417 0.000000
# 6 0.000000 0.000000 0.000000 0.000000 0.000000 0.029412
#
#
# Mechanical properties :
#
#
# Convention : Reuss Voigt Hill
#
# Bulk Modulus (GPa) = 40.82651 50.26792 45.54721
# Shear Modulus (GPa) = 25.64532 28.95425 27.29978
#
# Velocity S-wave (km/s) = 3.59167 3.81636 3.70572
# Velocity P-wave (km/s) = 6.14302 6.68620 6.42036
#
# Compressibility (1/GPa) = 0.02449389
#
# Stress axis : x y z
#
# Youngs Moduli (GPa) = 72.55112 125.73549 49.97665
#
# Poissons Ratio (x) = 0.38056 0.14229
# Poissons Ratio (y) = 0.21959 0.13754
# Poissons Ratio (z) = 0.20657 0.34604
#
# Static dielectric constant tensor:
#      x y z
#    x 1.688450 0.000000 0.000000 
#    y 0.000000 1.777560 0.000000 
#    z 0.000000 0.000000 1.685880 
# 
# From -- ./inp_files/3084.got.cif
#   From: 2010.05.17/outbox.cif.g08.bks.cpg/sg44_2_cif.got.tgz:3084.got - 2010.06.03 19:37:08.
