data_PCOD9375923
_publ_section_title
;
Structure prediction by ZEFSAII (Michael W. Deem and Ramdas Pophale) SiO2 
 PCOD9375923
Probable space group: I M M 2
;
_chemical_formula_sum "Si O2"
_cell_formula_units_Z 64
_cell_length_a 20.812318
_cell_length_b 7.444084
_cell_length_c 20.802252
_cell_angle_alpha 90.000000
_cell_angle_beta 90.000000
_cell_angle_gamma 90.000000
_cell_volume 3222.864683
_symmetry_space_group_name_H-M "I M M 2"
_symmetry_group_IT_number 44
_symmetry_cell_setting 'orthorhombic'
loop_
_space_group_symop_operation_xyz
x,y,z
-x,-y,z
-x,y,z
x,-y,z
1/2+x,1/2+y,1/2+z
1/2-x,1/2-y,1/2+z
1/2-x,1/2+y,1/2+z
1/2+x,1/2-y,1/2+z
loop_
_atom_site_type_symbol
_atom_site_label
_atom_site_fract_x
_atom_site_fract_y
_atom_site_fract_z
Si Si1 0.926427 0.719210 0.080620
Si Si2 0.822797 0.281253 0.184324
Si Si3 0.427952 0.215039 0.435183
Si Si4 0.927192 0.784918 0.580964
Si Si5 0.821355 0.786274 0.828873
Si Si6 0.823941 0.780420 0.683968
Si Si7 0.323204 0.780454 0.831432
Si Si8 0.927232 0.285027 0.433526
O O1 0.925150 0.500000 0.081280
O O2 0.874807 0.781134 0.132694
O O3 0.000000 0.771676 0.095291
O O4 0.911634 0.777571 0.007497
O O5 0.823498 0.500000 0.183527
O O6 0.749512 0.226965 0.169275
O O7 0.837526 0.228020 0.257790
O O8 0.500000 0.280775 0.418695
O O9 0.374884 0.254312 0.382112
O O10 0.431701 0.000000 0.439113
O O11 0.875715 0.716794 0.632287
O O12 0.908202 0.749550 0.507273
O O13 0.000000 0.715604 0.590226
O O14 0.929985 0.000000 0.588546
O O15 0.838629 0.721491 0.757078
O O16 0.749744 0.720777 0.846391
O O17 0.815117 0.000000 0.822612
O O18 0.825006 0.000000 0.682824
O O19 0.375609 0.716583 0.882419
O O20 0.323862 0.000000 0.833127
O O21 0.930135 0.500000 0.425651
O O22 0.000000 0.215365 0.424425
#
# Coordination Sequence:
#
# PCOD9375923 Si02
#       8
#     8   8   8   8   8   8   8   8
#     4   8  14  24  38  58  85 113 138 168 208 251
#     4   8  13  23  40  61  84 109 138 172 210 251
#     4   9  18  31  44  63  93 119 139 173 217 254
#     4   9  17  29  44  62  84 109 140 179 216 249
#     4   9  17  30  47  65  86 113 145 179 214 254
#     4   8  15  27  42  61  83 106 137 179 217 245
#     4   8  15  27  42  63  90 114 139 178 219 249
#     4   9  17  29  44  63  89 118 144 172 211 258
#
# _framework density 19.85811
#
# number of rings (size 3 to 8) (size 9 to 14) (size 15 to 20)
#    0.000    3.500    0.000    2.250    0.000    2.250 
#    0.000    6.250    0.000    1.500    0.000    4.375 
#    0.000    2.000    0.000    0.000    0.000    0.000 
#
# Total GULP energy -178398.028241 kJ/mol
# GULP energy per Si atom -5574.938383 kJ/mol
# Density = 1.981291 g / cm^3
# Si number density = 19.858110 Si / 1000 Ang^3
#
#
#
# Elastic Constant Matrix: (Units=GPa)
#
#
# Indices 1 2 3 4 5 6 
#
# 1 177.9397 5.0300 169.1369 0.0000 0.0000 0.0000
# 2 5.0300 58.3469 3.1834 0.0000 0.0000 0.0000
# 3 169.1369 3.1834 191.6385 0.0000 0.0000 0.0000
# 4 0.0000 0.0000 0.0000 14.0679 0.0000 0.0000
# 5 0.0000 0.0000 0.0000 0.0000 47.7724 0.0000
# 6 0.0000 0.0000 0.0000 0.0000 0.0000 3.8713
#
#
#
# Elastic Compliance Matrix: (Units=1/GPa)
#
#
# Indices 1 2 3 4 5 6 
#
# 1 0.034992 -0.001333 -0.030861 0.000000 0.000000 0.000000
# 2 -0.001333 0.017205 0.000891 0.000000 0.000000 0.000000
# 3 -0.030861 0.000891 0.032441 0.000000 0.000000 0.000000
# 4 0.000000 0.000000 0.000000 0.071084 0.000000 0.000000
# 5 0.000000 0.000000 0.000000 0.000000 0.020933 0.000000
# 6 0.000000 0.000000 0.000000 0.000000 0.000000 0.258311
#
#
# Mechanical properties :
#
#
# Convention : Reuss Voigt Hill
#
# Bulk Modulus (GPa) = 45.39033 86.95839 66.17436
# Shear Modulus (GPa) = 9.90261 29.84731 19.87496
#
# Velocity S-wave (km/s) = 2.23551 3.88110 3.16705
# Velocity P-wave (km/s) = 5.43786 7.99805 6.83883
#
# Compressibility (1/GPa) = 0.02203113
#
# Stress axis : x y z
#
# Youngs Moduli (GPa) = 28.57781 58.12199 30.82513
#
# Poissons Ratio (x) = 0.07747 0.95131
# Poissons Ratio (y) = 0.03809 -0.02745
# Poissons Ratio (z) = 0.88195 -0.05176
#
# Static dielectric constant tensor:
#      x y z
#    x 1.691610 0.000000 0.000000 
#    y 0.000000 1.789170 0.000000 
#    z 0.000000 0.000000 1.669840 
# 
# From -- ./inp_files/21440.got.cif
#   From: 2010.05.17/outbox.cif.g08.bks.cpg/sg44_11_cif.got.tgz:21440.got - 2010.06.03 19:37:08.
