data_PCOD9375143
_publ_section_title
;
Structure prediction by ZEFSAII (Michael W. Deem and Ramdas Pophale) SiO2 
 PCOD9375143
Probable space group: I M M 2
;
_chemical_formula_sum "Si O2"
_cell_formula_units_Z 26
_cell_length_a 7.770234
_cell_length_b 7.753156
_cell_length_c 22.458299
_cell_angle_alpha 90.000000
_cell_angle_beta 90.000000
_cell_angle_gamma 90.000000
_cell_volume 1352.974090
_symmetry_space_group_name_H-M "I M M 2"
_symmetry_group_IT_number 44
_symmetry_cell_setting 'orthorhombic'
loop_
_space_group_symop_operation_xyz
x,y,z
-x,-y,z
-x,y,z
x,-y,z
1/2+x,1/2+y,1/2+z
1/2-x,1/2-y,1/2+z
1/2-x,1/2+y,1/2+z
1/2+x,1/2-y,1/2+z
loop_
_atom_site_type_symbol
_atom_site_label
_atom_site_fract_x
_atom_site_fract_y
_atom_site_fract_z
Si Si1 0.792389 0.193663 0.664810
Si Si2 0.500000 0.000000 0.987784
Si Si3 0.802602 0.707752 0.798165
Si Si4 0.688718 0.500000 0.579727
Si Si5 0.000000 0.792348 0.389744
O O1 0.746754 0.220068 0.734084
O O2 0.711113 0.335405 0.622584
O O3 0.000000 0.215297 0.661841
O O4 0.748522 0.000000 0.646358
O O5 0.334854 0.000000 0.030305
O O6 0.500000 0.829371 0.946914
O O7 0.803737 0.500000 0.792152
O O8 0.667732 0.749252 0.849670
O O9 0.000000 0.763493 0.810175
O O10 0.500000 0.500000 0.552357
O O11 0.000000 0.000000 0.402054
#
# Coordination Sequence:
#
# PCOD9375143 Si02
#       5
#     8   2   8   4   4
#     4  10  20  37  65  99 135 168 208 271 337 391
#     4  12  28  48  64  88 132 184 232 262 312 400
#     4   9  18  35  62  96 133 162 201 266 332 387
#     4  12  26  44  66  92 130 182 222 273 324 388
#     4  10  24  42  64  92 126 178 214 265 322 388
#
# _framework density 19.216925
#
# number of rings (size 3 to 8) (size 9 to 14) (size 15 to 20)
#    0.000    1.846    3.077    0.000    4.308    3.077 
#    0.000    0.000    0.000    0.000    0.000    0.000 
#    0.000    0.000    0.000    0.000    0.000    0.000 
#
# Total GULP energy -72649.389513 kJ/mol
# GULP energy per Si atom -5588.414578 kJ/mol
# Density = 1.917319 g / cm^3
# Si number density = 19.216925 Si / 1000 Ang^3
#
#
#
# Elastic Constant Matrix: (Units=GPa)
#
#
# Indices 1 2 3 4 5 6 
#
# 1 121.2978 52.5873 78.5541 0.0000 0.0000 0.0000
# 2 52.5873 98.0018 64.7152 0.0000 0.0000 0.0000
# 3 78.5541 64.7152 118.5243 0.0000 0.0000 0.0000
# 4 0.0000 0.0000 0.0000 -152.3457 0.0000 0.0000
# 5 0.0000 0.0000 0.0000 0.0000 -118.0336 0.0000
# 6 0.0000 0.0000 0.0000 0.0000 0.0000 -4.7159
#
#
#
# Elastic Compliance Matrix: (Units=1/GPa)
#
#
# Indices 1 2 3 4 5 6 
#
# 1 0.014764 -0.002284 -0.008538 0.000000 0.000000 0.000000
# 2 -0.002284 0.016311 -0.007392 0.000000 0.000000 0.000000
# 3 -0.008538 -0.007392 0.018132 0.000000 0.000000 0.000000
# 4 0.000000 0.000000 0.000000 -0.006564 0.000000 0.000000
# 5 0.000000 0.000000 0.000000 0.000000 -0.008472 0.000000
# 6 0.000000 0.000000 0.000000 0.000000 0.000000 -0.212047
#
#
# Mechanical properties :
#
#
# Convention : Reuss Voigt Hill
#
# Bulk Modulus (GPa) = 78.25683 81.05968 79.65826
# Shear Modulus (GPa) = -36.44567 -45.55456 -41.00012
#
# Velocity S-wave (km/s) = -4.35965 -4.87411 -4.62404
# Velocity P-wave (km/s) = 3.93309 3.25532 3.61014
#
# Compressibility (1/GPa) = 0.01277844
#
# Stress axis : x y z
#
# Youngs Moduli (GPa) = 67.73440 61.30885 55.15249
#
# Poissons Ratio (x) = 0.14005 0.47087
# Poissons Ratio (y) = 0.15473 0.40768
# Poissons Ratio (z) = 0.57829 0.45319
#
# Static dielectric constant tensor:
#      x y z
#    x 1.715520 0.000000 0.000000 
#    y 0.000000 1.686460 0.000000 
#    z 0.000000 0.000000 1.614740 
# 
# From -- ./inp_files/19853.got.cif
#   From: 2010.05.17/outbox.cif.g08.bks.cpg/sg44_10_cif.got.tgz:19853.got - 2010.06.03 19:37:08.
