data_PCOD9375299
_publ_section_title
;
Structure prediction by ZEFSAII (Michael W. Deem and Ramdas Pophale) SiO2 
 PCOD9375299
Probable space group: I M M 2
;
_chemical_formula_sum "Si O2"
_cell_formula_units_Z 48
_cell_length_a 23.454930
_cell_length_b 9.345345
_cell_length_c 11.885297
_cell_angle_alpha 90.000000
_cell_angle_beta 90.000000
_cell_angle_gamma 90.000000
_cell_volume 2605.190697
_symmetry_space_group_name_H-M "I M M 2"
_symmetry_group_IT_number 44
_symmetry_cell_setting 'orthorhombic'
loop_
_space_group_symop_operation_xyz
x,y,z
-x,-y,z
-x,y,z
x,-y,z
1/2+x,1/2+y,1/2+z
1/2-x,1/2-y,1/2+z
1/2-x,1/2+y,1/2+z
1/2+x,1/2-y,1/2+z
loop_
_atom_site_type_symbol
_atom_site_label
_atom_site_fract_x
_atom_site_fract_y
_atom_site_fract_z
Si Si1 0.648189 0.169663 0.490110
Si Si2 0.566557 0.659837 0.634700
Si Si3 0.853679 0.165016 0.352609
Si Si4 0.228585 0.329938 0.194163
Si Si5 0.565593 0.674456 0.054443
Si Si6 0.855540 0.170248 0.754950
O O1 0.591136 0.220356 0.553379
O O2 0.697899 0.215100 0.578068
O O3 0.649376 0.247319 0.371419
O O4 0.651089 0.000000 0.475953
O O5 0.500000 0.675842 0.655131
O O6 0.576709 0.500000 0.585812
O O7 0.600368 0.665060 0.751512
O O8 0.800899 0.251750 0.300341
O O9 0.888623 0.221539 0.460083
O O10 0.836132 0.000000 0.374991
O O11 0.218784 0.500000 0.206614
O O12 0.295851 0.304850 0.190600
O O13 0.500000 0.721846 0.037880
O O14 0.565013 0.500000 0.047564
O O15 0.591747 0.713236 0.175638
O O16 0.860064 0.000000 0.775831
#
# Coordination Sequence:
#
# PCOD9375299 Si02
#       6
#     8   8   8   8   8   8
#     4  10  21  36  53  76 107 139 176 221 269 319
#     4   9  17  31  53  80 108 138 175 219 264 312
#     4   9  17  31  56  84 107 134 176 226 269 312
#     4   9  20  36  53  76 108 141 176 219 273 327
#     4   9  18  33  55  82 109 140 180 224 269 317
#     4  10  21  36  54  76 106 143 180 221 267 325
#
# _framework density 18.424755999999999
#
# number of rings (size 3 to 8) (size 9 to 14) (size 15 to 20)
#    0.000    2.667    0.000    1.000    2.333    4.333 
#    0.000    2.500    0.000    2.500    0.000    0.000 
#    0.000    0.000    0.000    0.000    0.000    0.000 
#
# Total GULP energy -133789.681101 kJ/mol
# GULP energy per Si atom -5574.570046 kJ/mol
# Density = 1.838282 g / cm^3
# Si number density = 18.424756 Si / 1000 Ang^3
#
#
#
# Elastic Constant Matrix: (Units=GPa)
#
#
# Indices 1 2 3 4 5 6 
#
# 1 48.8701 12.4955 8.1126 0.0000 0.0000 0.0000
# 2 12.4955 19.9812 22.3877 0.0000 0.0000 0.0000
# 3 8.1126 22.3877 74.8288 0.0000 0.0000 0.0000
# 4 0.0000 0.0000 0.0000 21.1606 0.0000 0.0000
# 5 0.0000 0.0000 0.0000 0.0000 16.7971 0.0000
# 6 0.0000 0.0000 0.0000 0.0000 0.0000 22.4605
#
#
#
# Elastic Compliance Matrix: (Units=1/GPa)
#
#
# Indices 1 2 3 4 5 6 
#
# 1 0.024778 -0.018781 0.002933 0.000000 0.000000 0.000000
# 2 -0.018781 0.089519 -0.024747 0.000000 0.000000 0.000000
# 3 0.002933 -0.024747 0.020450 0.000000 0.000000 0.000000
# 4 0.000000 0.000000 0.000000 0.047258 0.000000 0.000000
# 5 0.000000 0.000000 0.000000 0.000000 0.059534 0.000000
# 6 0.000000 0.000000 0.000000 0.000000 0.000000 0.044523
#
#
# Mechanical properties :
#
#
# Convention : Reuss Voigt Hill
#
# Bulk Modulus (GPa) = 18.67183 25.51907 22.09545
# Shear Modulus (GPa) = 12.98355 18.79592 15.88974
#
# Velocity S-wave (km/s) = 2.65746 3.19744 2.93987
# Velocity P-wave (km/s) = 4.42405 5.24518 4.85202
#
# Compressibility (1/GPa) = 0.05355663
#
# Stress axis : x y z
#
# Youngs Moduli (GPa) = 40.35902 11.17082 48.90043
#
# Poissons Ratio (x) = 0.20980 -0.14341
# Poissons Ratio (y) = 0.75798 1.21012
# Poissons Ratio (z) = -0.11836 0.27644
#
# Static dielectric constant tensor:
#      x y z
#    x 1.632980 0.000000 0.000000 
#    y 0.000000 1.627140 0.000000 
#    z 0.000000 0.000000 1.634210 
# 
# From -- ./inp_files/11138.got.cif
#   From: 2010.05.17/outbox.cif.g08.bks.cpg/sg44_6_cif.got.tgz:11138.got - 2010.06.03 19:37:08.
