data_PCOD9375590
_publ_section_title
;
Structure prediction by ZEFSAII (Michael W. Deem and Ramdas Pophale) SiO2 
 PCOD9375590
Probable space group: I M M 2
;
_chemical_formula_sum "Si O2"
_cell_formula_units_Z 64
_cell_length_a 31.358492
_cell_length_b 8.855997
_cell_length_c 12.106975
_cell_angle_alpha 90.000000
_cell_angle_beta 90.000000
_cell_angle_gamma 90.000000
_cell_volume 3362.236636
_symmetry_space_group_name_H-M "I M M 2"
_symmetry_group_IT_number 44
_symmetry_cell_setting 'orthorhombic'
loop_
_space_group_symop_operation_xyz
x,y,z
-x,-y,z
-x,y,z
x,-y,z
1/2+x,1/2+y,1/2+z
1/2-x,1/2-y,1/2+z
1/2-x,1/2+y,1/2+z
1/2+x,1/2-y,1/2+z
loop_
_atom_site_type_symbol
_atom_site_label
_atom_site_fract_x
_atom_site_fract_y
_atom_site_fract_z
Si Si1 0.874703 0.318727 0.607710
Si Si2 0.452330 0.318275 0.245686
Si Si3 0.569402 0.321847 0.496046
Si Si4 0.293935 0.180076 0.257168
Si Si5 0.452207 0.820281 0.726557
Si Si6 0.701878 0.822726 0.726579
Si Si7 0.874520 0.179914 0.364038
Si Si8 0.160506 0.323127 0.988482
O O1 0.875980 0.500000 0.601064
O O2 0.914932 0.261292 0.678455
O O3 0.831099 0.275480 0.671397
O O4 0.875844 0.248296 0.486461
O O5 0.500000 0.278678 0.206588
O O6 0.447210 0.500000 0.236603
O O7 0.448658 0.280717 0.375806
O O8 0.562333 0.500000 0.513482
O O9 0.550830 0.231870 0.599465
O O10 0.619405 0.282410 0.492141
O O11 0.249710 0.264397 0.240064
O O12 0.312064 0.207869 0.379742
O O13 0.286913 0.000000 0.245799
O O14 0.500000 0.785264 0.767820
O O15 0.415026 0.739467 0.794604
O O16 0.445578 0.000000 0.732716
O O17 0.668307 0.734824 0.802761
O O18 0.687196 0.803554 0.599901
O O19 0.699207 0.000000 0.753754
O O20 0.875527 0.000000 0.368603
O O21 0.146572 0.500000 0.983216
#
# Coordination Sequence:
#
# PCOD9375590 Si02
#       8
#     8   8   8   8   8   8   8   8
#     4  11  24  43  66  92 124 164 212 261 311 371
#     4  10  22  40  62  92 129 167 209 257 310 370
#     4  11  21  36  63  96 130 166 205 254 310 369
#     4  10  23  42  64  93 127 164 209 257 308 368
#     4  11  24  42  65  93 126 164 208 258 311 370
#     4  11  24  41  65  95 128 164 207 257 310 369
#     4  12  26  44  66  91 125 165 207 258 316 375
#     4  10  21  40  64  91 127 166 204 256 311 365
#
# _framework density 19.034948
#
# number of rings (size 3 to 8) (size 9 to 14) (size 15 to 20)
#    0.000    1.250    2.500    3.000    1.750    4.750 
#    0.000    0.000    0.000    0.000    0.000    0.000 
#    0.000    0.000    0.000    0.000    0.000    0.000 
#
# Total GULP energy -178946.020940 kJ/mol
# GULP energy per Si atom -5592.063154 kJ/mol
# Density = 1.899162 g / cm^3
# Si number density = 19.034948 Si / 1000 Ang^3
#
#
#
# Elastic Constant Matrix: (Units=GPa)
#
#
# Indices 1 2 3 4 5 6 
#
# 1 160.7814 71.4667 69.4268 0.0000 0.0000 0.0000
# 2 71.4667 75.7893 58.8813 0.0000 0.0000 0.0000
# 3 69.4268 58.8813 130.1629 0.0000 0.0000 0.0000
# 4 0.0000 0.0000 0.0000 32.5094 0.0000 0.0000
# 5 0.0000 0.0000 0.0000 0.0000 33.8012 0.0000
# 6 0.0000 0.0000 0.0000 0.0000 0.0000 15.4184
#
#
#
# Elastic Compliance Matrix: (Units=1/GPa)
#
#
# Indices 1 2 3 4 5 6 
#
# 1 0.010977 -0.008946 -0.001808 0.000000 0.000000 0.000000
# 2 -0.008946 0.027636 -0.007730 0.000000 0.000000 0.000000
# 3 -0.001808 -0.007730 0.012144 0.000000 0.000000 0.000000
# 4 0.000000 0.000000 0.000000 0.030760 0.000000 0.000000
# 5 0.000000 0.000000 0.000000 0.000000 0.029585 0.000000
# 6 0.000000 0.000000 0.000000 0.000000 0.000000 0.064858
#
#
# Mechanical properties :
#
#
# Convention : Reuss Voigt Hill
#
# Bulk Modulus (GPa) = 72.52389 85.14258 78.83323
# Shear Modulus (GPa) = 22.98610 27.47640 25.23125
#
# Velocity S-wave (km/s) = 3.47879 3.80343 3.64472
# Velocity P-wave (km/s) = 7.37014 8.00717 7.69525
#
# Compressibility (1/GPa) = 0.01378856
#
# Stress axis : x y z
#
# Youngs Moduli (GPa) = 91.10085 36.18506 82.34757
#
# Poissons Ratio (x) = 0.32372 0.14888
# Poissons Ratio (y) = 0.81501 0.63652
# Poissons Ratio (z) = 0.16470 0.27970
#
# Static dielectric constant tensor:
#      x y z
#    x 1.636920 0.000000 0.000000 
#    y 0.000000 1.640090 0.000000 
#    z 0.000000 0.000000 1.636390 
# 
# From -- ./inp_files/11422.got.cif
#   From: 2010.05.17/outbox.cif.g08.bks.cpg/sg44_6_cif.got.tgz:11422.got - 2010.06.03 19:37:08.
