data_PCOD9375931
_publ_section_title
;
Structure prediction by ZEFSAII (Michael W. Deem and Ramdas Pophale) SiO2 
 PCOD9375931
Probable space group: I M M 2
;
_chemical_formula_sum "Si O2"
_cell_formula_units_Z 64
_cell_length_a 18.866129
_cell_length_b 13.768656
_cell_length_c 9.815872
_cell_angle_alpha 90.000000
_cell_angle_beta 90.000000
_cell_angle_gamma 90.000000
_cell_volume 2549.783085
_symmetry_space_group_name_H-M "I M M 2"
_symmetry_group_IT_number 44
_symmetry_cell_setting 'orthorhombic'
loop_
_space_group_symop_operation_xyz
x,y,z
-x,-y,z
-x,y,z
x,-y,z
1/2+x,1/2+y,1/2+z
1/2-x,1/2-y,1/2+z
1/2-x,1/2+y,1/2+z
1/2+x,1/2-y,1/2+z
loop_
_atom_site_type_symbol
_atom_site_label
_atom_site_fract_x
_atom_site_fract_y
_atom_site_fract_z
Si Si1 0.417961 0.603973 0.673390
Si Si2 0.273801 0.843767 0.548460
Si Si3 0.875508 0.634731 0.434140
Si Si4 0.773801 0.156232 0.860808
Si Si5 0.919162 0.333136 0.136773
Si Si6 0.419161 0.666864 0.272495
Si Si7 0.124492 0.134732 0.475127
Si Si8 0.917961 0.396027 0.735877
O O1 0.500000 0.600139 0.634857
O O2 0.384329 0.500000 0.627178
O O3 0.398823 0.716767 0.638223
O O4 0.411261 0.600478 0.837654
O O5 0.250000 0.821567 0.704634
O O6 0.277575 0.749999 0.454636
O O7 0.354048 0.882252 0.557192
O O8 0.205646 0.899434 0.490570
O O9 0.794355 0.600565 0.418696
O O10 0.914879 0.624468 0.290300
O O11 0.871832 0.750000 0.454633
O O12 0.911261 0.600478 0.571613
O O13 0.854049 0.117748 0.852076
O O14 0.000000 0.343060 0.087769
O O15 0.500000 0.656940 0.321497
O O16 0.414879 0.624468 0.118967
O O17 0.398822 0.783233 0.271045
O O18 0.884329 0.500000 0.782090
O O19 0.000000 0.399860 0.774410
#
# Coordination Sequence:
#
# PCOD9375931 Si02
#       8
#     8   8   8   8   8   8   8   8
#     4   9  16  26  44  73 104 129 157 199 249 297
#     4   9  17  29  47  67  92 122 158 200 243 283
#     4   8  14  26  44  63  89 123 158 195 235 279
#     4   9  17  29  47  67  92 122 158 200 243 283
#     4   9  16  26  43  68  96 125 160 202 248 295
#     4   9  16  26  43  68  96 125 160 202 248 295
#     4   8  14  26  44  63  89 123 158 195 235 279
#     4   9  16  26  44  73 104 129 157 199 249 297
#
# _framework density 25.100176999999999
#
# number of rings (size 3 to 8) (size 9 to 14) (size 15 to 20)
#    0.000    3.250    0.000    2.250    0.000    3.500 
#    0.000    0.000    0.000   43.500    0.000    0.000 
#    0.000   16.000    0.000    0.000    0.000    0.000 
#
# Total GULP energy -178231.111180 kJ/mol
# GULP energy per Si atom -5569.722224 kJ/mol
# Density = 2.504305 g / cm^3
# Si number density = 25.100177 Si / 1000 Ang^3
#
#
#
# Elastic Constant Matrix: (Units=GPa)
#
#
# Indices 1 2 3 4 5 6 
#
# 1 150.2245 13.4200 20.6697 0.0000 0.0000 0.0000
# 2 13.4200 136.7309 19.9591 0.0000 0.0000 0.0000
# 3 20.6697 19.9591 93.7799 0.0000 0.0000 0.0000
# 4 0.0000 0.0000 0.0000 -39.0347 0.0000 0.0000
# 5 0.0000 0.0000 0.0000 0.0000 1.4879 0.0000
# 6 0.0000 0.0000 0.0000 0.0000 0.0000 -28.1848
#
#
#
# Elastic Compliance Matrix: (Units=1/GPa)
#
#
# Indices 1 2 3 4 5 6 
#
# 1 0.006894 -0.000469 -0.001420 0.000000 0.000000 0.000000
# 2 -0.000469 0.007580 -0.001510 0.000000 0.000000 0.000000
# 3 -0.001420 -0.001510 0.011297 0.000000 0.000000 0.000000
# 4 0.000000 0.000000 0.000000 -0.025618 0.000000 0.000000
# 5 0.000000 0.000000 0.000000 0.000000 0.672075 0.000000
# 6 0.000000 0.000000 0.000000 0.000000 0.000000 -0.035480
#
#
# Mechanical properties :
#
#
# Convention : Reuss Voigt Hill
#
# Bulk Modulus (GPa) = 52.70382 54.31478 53.50930
# Shear Modulus (GPa) = 7.69384 8.63281 8.16332
#
# Velocity S-wave (km/s) = 1.75269 1.85656 1.80537
# Velocity P-wave (km/s) = 5.01387 5.12659 5.07054
#
# Compressibility (1/GPa) = 0.01897396
#
# Stress axis : x y z
#
# Youngs Moduli (GPa) = 145.05453 131.92445 88.51537
#
# Poissons Ratio (x) = 0.06193 0.12565
# Poissons Ratio (y) = 0.06809 0.13364
# Poissons Ratio (z) = 0.20592 0.19918
#
# Static dielectric constant tensor:
#      x y z
#    x 1.977070 0.000000 0.000000 
#    y 0.000000 1.916610 0.000000 
#    z 0.000000 0.000000 1.980050 
# 
# From -- ./inp_files/14473.got.cif
#   From: 2010.05.17/outbox.cif.g08.bks.cpg/sg44_8_cif.got.tgz:14473.got - 2010.06.03 19:37:08.
