data_PCOD9375998
_publ_section_title
;
Structure prediction by ZEFSAII (Michael W. Deem and Ramdas Pophale) SiO2 
 PCOD9375998
Probable space group: I M M 2
;
_chemical_formula_sum "Si O2"
_cell_formula_units_Z 32
_cell_length_a 30.000000
_cell_length_b 9.000000
_cell_length_c 12.000000
_cell_angle_alpha 90.000000
_cell_angle_beta 90.000000
_cell_angle_gamma 90.000000
_cell_volume 3240.000000
_symmetry_space_group_name_H-M "I M M 2"
_symmetry_group_IT_number 44
_symmetry_cell_setting 'orthorhombic'
loop_
_space_group_symop_operation_xyz
x,y,z
-x,-y,z
-x,y,z
x,-y,z
1/2+x,1/2+y,1/2+z
1/2-x,1/2-y,1/2+z
1/2-x,1/2+y,1/2+z
1/2+x,1/2-y,1/2+z
loop_
_atom_site_type_symbol
_atom_site_label
_atom_site_fract_x
_atom_site_fract_y
_atom_site_fract_z
Si Si1 0.405643 0.327049 0.686540
Si Si2 0.363574 0.829221 0.488554
Si Si3 0.369469 0.324504 0.255562
Si Si4 0.315246 0.831035 0.066510
Si Si5 0.551284 0.322466 0.106980
Si Si6 0.552529 0.834530 0.884190
Si Si7 0.230913 0.332217 0.115237
Si Si8 0.326976 0.171806 0.806946
O O1 0.414448 0.500000 0.680671
O O2 0.398731 0.258387 0.565066
O O3 0.439896 0.245356 0.767460
O O4 0.359964 0.289206 0.752192
O O5 0.358320 0.759356 0.367968
O O6 0.316165 0.823697 0.551953
O O7 0.377099 0.000000 0.480754
O O8 0.367247 0.500000 0.274025
O O9 0.338207 0.278049 0.153420
O O10 0.418576 0.282353 0.211482
O O11 0.263268 0.793792 0.073535
O O12 0.325417 0.000000 0.098833
O O13 0.327609 0.810863 0.938071
O O14 0.500000 0.279180 0.123587
O O15 0.553053 0.500000 0.092899
O O16 0.569532 0.251469 0.992876
O O17 0.500000 0.843699 0.900703
O O18 0.571586 0.000000 0.882130
O O19 0.248698 0.500000 0.097450
O O20 0.220374 0.310924 0.246214
O O21 0.339737 0.000000 0.777979
#
# Coordination Sequence:
#
# PCOD9375998 Si02
#       8
#     8   8   8   8   8   8   8   8
#     4  11  21  35  58  84 110 145 186 230 282 340
#     4  10  22  41  61  81 111 151 193 240 290 343
#     4  11  23  38  58  85 116 153 195 240 290 349
#     4  11  23  36  55  83 113 148 188 234 284 339
#     4   9  19  37  60  87 119 153 191 239 293 345
#     4  10  20  34  56  86 118 151 187 233 287 341
#     4   9  20  38  57  79 107 143 185 237 292 338
#     4   9  20  38  56  77 108 145 184 230 280 331
#
# _framework density 9.8765429999999999
#
# number of rings (size 3 to 8) (size 9 to 14) (size 15 to 20)
#    0.000    2.000    0.000    4.125    1.750    7.250 
#    0.000    0.625    0.000    2.250    0.000    0.000 
#    0.000    0.000    0.000    0.000    0.000    0.000 
#
# Total GULP energy -178443.920378 kJ/mol
# GULP energy per Si atom -5576.372512 kJ/mol
# Density = 0.985406 g / cm^3
# Si number density = 9.876543 Si / 1000 Ang^3
#
#
#
# Elastic Constant Matrix: (Units=GPa)
#
#
# Indices 1 2 3 4 5 6 
#
# 1 32.5289 17.0929 17.8426 0.0000 0.0000 0.0000
# 2 17.0929 41.4061 35.8652 0.0000 0.0000 0.0000
# 3 17.8426 35.8652 99.1702 0.0000 0.0000 0.0000
# 4 0.0000 0.0000 0.0000 33.1653 0.0000 0.0000
# 5 0.0000 0.0000 0.0000 0.0000 12.7485 0.0000
# 6 0.0000 0.0000 0.0000 0.0000 0.0000 21.1241
#
#
#
# Elastic Compliance Matrix: (Units=1/GPa)
#
#
# Indices 1 2 3 4 5 6 
#
# 1 0.039467 -0.014768 -0.001760 0.000000 0.000000 0.000000
# 2 -0.014768 0.040694 -0.012060 0.000000 0.000000 0.000000
# 3 -0.001760 -0.012060 0.014762 0.000000 0.000000 0.000000
# 4 0.000000 0.000000 0.000000 0.030152 0.000000 0.000000
# 5 0.000000 0.000000 0.000000 0.000000 0.078440 0.000000
# 6 0.000000 0.000000 0.000000 0.000000 0.000000 0.047339
#
#
# Mechanical properties :
#
#
# Convention : Reuss Voigt Hill
#
# Bulk Modulus (GPa) = 26.49231 34.96739 30.72985
# Shear Modulus (GPa) = 15.59515 20.22790 17.91152
#
# Velocity S-wave (km/s) = 2.81286 3.20353 3.01453
# Velocity P-wave (km/s) = 4.89800 5.60572 5.26377
#
# Compressibility (1/GPa) = 0.03774681
#
# Stress axis : x y z
#
# Youngs Moduli (GPa) = 25.33741 24.57394 67.74224
#
# Poissons Ratio (x) = 0.36291 0.11923
# Poissons Ratio (y) = 0.37418 0.81697
# Poissons Ratio (z) = 0.04459 0.29636
#
# Static dielectric constant tensor:
#      x y z
#    x 1.765640 0.000000 0.000000 
#    y 0.000000 1.670420 0.000000 
#    z 0.000000 0.000000 1.680260 
# 
# From -- ./inp_files/15052.got.cif
#   From: 2010.05.17/outbox.ucp.g08.bks.cvg/sg44_8_cif.got.tgz:15052.got - 2010.06.11 16:32:36.
