data_PCOD9375437
_publ_section_title
;
Structure prediction by ZEFSAII (Michael W. Deem and Ramdas Pophale) SiO2 
 PCOD9375437
Probable space group: I M M 2
;
_chemical_formula_sum "Si O2"
_cell_formula_units_Z 64
_cell_length_a 29.812488
_cell_length_b 8.261995
_cell_length_c 13.060620
_cell_angle_alpha 90.000000
_cell_angle_beta 90.000000
_cell_angle_gamma 90.000000
_cell_volume 3216.969499
_symmetry_space_group_name_H-M "I M M 2"
_symmetry_group_IT_number 44
_symmetry_cell_setting 'orthorhombic'
loop_
_space_group_symop_operation_xyz
x,y,z
-x,-y,z
-x,y,z
x,-y,z
1/2+x,1/2+y,1/2+z
1/2-x,1/2-y,1/2+z
1/2-x,1/2+y,1/2+z
1/2+x,1/2-y,1/2+z
loop_
_atom_site_type_symbol
_atom_site_label
_atom_site_fract_x
_atom_site_fract_y
_atom_site_fract_z
Si Si1 0.278201 0.680922 0.517350
Si Si2 0.446949 0.805827 0.150248
Si Si3 0.253438 0.682048 0.817761
Si Si4 0.876334 0.304532 0.047430
Si Si5 0.624253 0.691661 0.990385
Si Si6 0.350157 0.808707 0.770773
Si Si7 0.202791 0.184700 0.641485
Si Si8 0.551812 0.197489 0.380139
O O1 0.273567 0.500000 0.560307
O O2 0.254983 0.691847 0.407560
O O3 0.329607 0.730386 0.509654
O O4 0.250565 0.806835 0.584954
O O5 0.500000 0.773167 0.141604
O O6 0.419123 0.726899 0.059030
O O7 0.432865 0.752808 0.265447
O O8 0.440733 0.000000 0.144106
O O9 0.252997 0.500000 0.858696
O O10 0.302522 0.716232 0.771518
O O11 0.212530 0.706733 0.739500
O O12 0.874161 0.500000 0.040031
O O13 0.878126 0.263859 0.168734
O O14 0.916292 0.249678 0.972782
O O15 0.629788 0.500000 0.974750
O O16 0.665929 0.746979 0.061716
O O17 0.626097 0.771614 0.878838
O O18 0.340875 0.000000 0.764871
O O19 0.191794 0.000000 0.669706
O O20 0.500000 0.248231 0.393799
O O21 0.551712 0.000000 0.379249
#
# Coordination Sequence:
#
# PCOD9375437 Si02
#       8
#     8   8   8   8   8   8   8   8
#     4  12  24  37  56  82 116 157 198 243 291 346
#     4   9  19  38  64  91 118 149 190 240 296 361
#     4  12  24  38  56  79 113 157 200 246 297 347
#     4  10  21  37  59  88 119 154 196 243 292 349
#     4  11  24  39  59  85 118 156 199 246 296 355
#     4  11  22  37  58  82 118 159 200 244 289 345
#     4  11  23  39  56  81 116 154 200 245 289 347
#     4   8  16  35  63  92 118 146 184 234 294 354
#
# _framework density 19.894500000000001
#
# number of rings (size 3 to 8) (size 9 to 14) (size 15 to 20)
#    0.000    1.500    2.500    4.125    1.750    2.250 
#    0.000    0.625    0.000    3.375    0.000    0.000 
#    0.000    0.000    0.000    0.000    0.000    0.000 
#
# Total GULP energy -178647.972534 kJ/mol
# GULP energy per Si atom -5582.749142 kJ/mol
# Density = 1.984922 g / cm^3
# Si number density = 19.894500 Si / 1000 Ang^3
#
#
#
# Elastic Constant Matrix: (Units=GPa)
#
#
# Indices 1 2 3 4 5 6 
#
# 1 45.9279 6.1738 28.8146 0.0000 0.0000 0.0000
# 2 6.1738 40.0143 15.4515 0.0000 0.0000 0.0000
# 3 28.8146 15.4515 98.8430 0.0000 0.0000 0.0000
# 4 0.0000 0.0000 0.0000 20.2437 0.0000 0.0000
# 5 0.0000 0.0000 0.0000 0.0000 37.2835 0.0000
# 6 0.0000 0.0000 0.0000 0.0000 0.0000 21.0920
#
#
#
# Elastic Compliance Matrix: (Units=1/GPa)
#
#
# Indices 1 2 3 4 5 6 
#
# 1 0.026700 -0.001185 -0.007598 0.000000 0.000000 0.000000
# 2 -0.001185 0.026649 -0.003820 0.000000 0.000000 0.000000
# 3 -0.007598 -0.003820 0.012929 0.000000 0.000000 0.000000
# 4 0.000000 0.000000 0.000000 0.049398 0.000000 0.000000
# 5 0.000000 0.000000 0.000000 0.000000 0.026822 0.000000
# 6 0.000000 0.000000 0.000000 0.000000 0.000000 0.047411
#
#
# Mechanical properties :
#
#
# Convention : Reuss Voigt Hill
#
# Bulk Modulus (GPa) = 24.34853 31.74054 28.04453
# Shear Modulus (GPa) = 21.85251 24.68020 23.26635
#
# Velocity S-wave (km/s) = 3.31784 3.52597 3.42349
# Velocity P-wave (km/s) = 5.19064 5.70664 5.45474
#
# Compressibility (1/GPa) = 0.04107025
#
# Stress axis : x y z
#
# Youngs Moduli (GPa) = 37.45376 37.52463 77.34397
#
# Poissons Ratio (x) = 0.04448 0.58767
# Poissons Ratio (y) = 0.04440 0.29548
# Poissons Ratio (z) = 0.28458 0.14336
#
# Static dielectric constant tensor:
#      x y z
#    x 1.672300 0.000000 0.000000 
#    y 0.000000 1.689740 0.000000 
#    z 0.000000 0.000000 1.747550 
# 
# From -- ./inp_files/15113.got.cif
#   From: 2010.05.17/outbox.cif.g08.bks.cpg/sg44_8_cif.got.tgz:15113.got - 2010.06.03 19:37:08.
