data_PCOD9375761
_publ_section_title
;
Structure prediction by ZEFSAII (Michael W. Deem and Ramdas Pophale) SiO2 
 PCOD9375761
Probable space group: I M M 2
;
_chemical_formula_sum "Si O2"
_cell_formula_units_Z 64
_cell_length_a 8.913430
_cell_length_b 18.962255
_cell_length_c 18.884509
_cell_angle_alpha 90.000000
_cell_angle_beta 90.000000
_cell_angle_gamma 90.000000
_cell_volume 3191.835777
_symmetry_space_group_name_H-M "I M M 2"
_symmetry_group_IT_number 44
_symmetry_cell_setting 'orthorhombic'
loop_
_space_group_symop_operation_xyz
x,y,z
-x,-y,z
-x,y,z
x,-y,z
1/2+x,1/2+y,1/2+z
1/2-x,1/2-y,1/2+z
1/2-x,1/2+y,1/2+z
1/2+x,1/2-y,1/2+z
loop_
_atom_site_type_symbol
_atom_site_label
_atom_site_fract_x
_atom_site_fract_y
_atom_site_fract_z
Si Si1 0.323395 0.580344 0.012930
Si Si2 0.674963 0.208944 0.061743
Si Si3 0.818141 0.916692 0.777918
Si Si4 0.836854 0.919678 0.292184
Si Si5 0.830992 0.668105 0.893263
Si Si6 0.676219 0.325112 0.410442
Si Si7 0.330224 0.420197 0.623195
Si Si8 0.178923 0.344126 0.140129
O O1 0.500000 0.586806 0.028516
O O2 0.294580 0.500000 0.989158
O O3 0.229309 0.597467 0.082827
O O4 0.276641 0.636576 0.953401
O O5 0.500000 0.226201 0.057258
O O6 0.708463 0.136010 0.101297
O O7 0.756909 0.271532 0.105431
O O8 0.740243 0.191045 0.983924
O O9 0.773453 0.884874 0.855035
O O10 0.747631 0.869446 0.715089
O O11 0.000000 0.911222 0.773272
O O12 0.779076 0.000000 0.771319
O O13 0.701846 0.877196 0.324462
O O14 0.834035 0.921235 0.208006
O O15 0.000000 0.889709 0.314454
O O16 0.831035 0.000000 0.317526
O O17 0.809802 0.749122 0.873146
O O18 0.000000 0.660022 0.920469
O O19 0.500000 0.337969 0.426023
O O20 0.500000 0.400004 0.599391
O O21 0.301485 0.500000 0.597975
O O22 0.000000 0.338553 0.145609
#
# Coordination Sequence:
#
# PCOD9375761 Si02
#       8
#     8   8   8   8   8   8   8   8
#     4  11  23  39  61  89 123 164 209 257 315 384
#     4  12  25  41  65  95 129 168 214 268 324 383
#     4  10  23  45  71  98 131 172 217 267 328 396
#     4   9  19  36  57  83 118 159 202 245 293 361
#     4  11  22  35  55  86 123 163 207 257 308 369
#     4  10  23  43  64  91 127 166 213 261 314 379
#     4   9  20  40  64  90 123 164 208 254 310 376
#     4  12  25  42  65  95 130 167 213 268 324 387
#
# _framework density 20.051157
#
# number of rings (size 3 to 8) (size 9 to 14) (size 15 to 20)
#    0.000    1.500    1.250    4.500    1.750    6.750 
#    0.000    2.500    0.000    0.000    0.000    0.000 
#    0.000    0.000    0.000    0.000    0.000    0.000 
#
# Total GULP energy -178589.055689 kJ/mol
# GULP energy per Si atom -5580.907990 kJ/mol
# Density = 2.000552 g / cm^3
# Si number density = 20.051157 Si / 1000 Ang^3
#
#
#
# Elastic Constant Matrix: (Units=GPa)
#
#
# Indices 1 2 3 4 5 6 
#
# 1 80.4317 46.3795 37.5136 0.0000 0.0000 0.0000
# 2 46.3795 85.3617 55.6875 0.0000 0.0000 0.0000
# 3 37.5136 55.6875 91.2037 0.0000 0.0000 0.0000
# 4 0.0000 0.0000 0.0000 34.7768 0.0000 0.0000
# 5 0.0000 0.0000 0.0000 0.0000 33.8331 0.0000
# 6 0.0000 0.0000 0.0000 0.0000 0.0000 25.4518
#
#
#
# Elastic Compliance Matrix: (Units=1/GPa)
#
#
# Indices 1 2 3 4 5 6 
#
# 1 0.018426 -0.008422 -0.002437 0.000000 0.000000 0.000000
# 2 -0.008422 0.023320 -0.010775 0.000000 0.000000 0.000000
# 3 -0.002437 -0.010775 0.018546 0.000000 0.000000 0.000000
# 4 0.000000 0.000000 0.000000 0.028755 0.000000 0.000000
# 5 0.000000 0.000000 0.000000 0.000000 0.029557 0.000000
# 6 0.000000 0.000000 0.000000 0.000000 0.000000 0.039290
#
#
# Mechanical properties :
#
#
# Convention : Reuss Voigt Hill
#
# Bulk Modulus (GPa) = 58.73731 59.57314 59.15523
# Shear Modulus (GPa) = 24.17410 26.64009 25.40709
#
# Velocity S-wave (km/s) = 3.47597 3.64896 3.56352
# Velocity P-wave (km/s) = 6.74293 6.89408 6.81892
#
# Compressibility (1/GPa) = 0.01702495
#
# Stress axis : x y z
#
# Youngs Moduli (GPa) = 54.27259 42.88239 53.92131
#
# Poissons Ratio (x) = 0.36113 0.13139
# Poissons Ratio (y) = 0.45706 0.58098
# Poissons Ratio (z) = 0.13224 0.46204
#
# Static dielectric constant tensor:
#      x y z
#    x 1.709560 0.000000 0.000000 
#    y 0.000000 1.710580 0.000000 
#    z 0.000000 0.000000 1.736570 
# 
# From -- ./inp_files/20737.got.cif
#   From: 2010.05.17/outbox.cif.g08.bks.cpg/sg44_11_cif.got.tgz:20737.got - 2010.06.03 19:37:08.
