data_PCOD9375411
_publ_section_title
;
Structure prediction by ZEFSAII (Michael W. Deem and Ramdas Pophale) SiO2 
 PCOD9375411
Probable space group: I M M 2
;
_chemical_formula_sum "Si O2"
_cell_formula_units_Z 56
_cell_length_a 25.247575
_cell_length_b 8.474486
_cell_length_c 14.485295
_cell_angle_alpha 90.000000
_cell_angle_beta 90.000000
_cell_angle_gamma 90.000000
_cell_volume 3099.276918
_symmetry_space_group_name_H-M "I M M 2"
_symmetry_group_IT_number 44
_symmetry_cell_setting 'orthorhombic'
loop_
_space_group_symop_operation_xyz
x,y,z
-x,-y,z
-x,y,z
x,-y,z
1/2+x,1/2+y,1/2+z
1/2-x,1/2-y,1/2+z
1/2-x,1/2+y,1/2+z
1/2+x,1/2-y,1/2+z
loop_
_atom_site_type_symbol
_atom_site_label
_atom_site_fract_x
_atom_site_fract_y
_atom_site_fract_z
Si Si1 0.888546 0.313572 0.381460
Si Si2 0.290507 0.689452 0.996684
Si Si3 0.181052 0.691395 0.892599
Si Si4 0.000000 0.813516 0.146762
Si Si5 0.337079 0.319205 0.703328
Si Si6 0.500000 0.309641 0.861336
Si Si7 0.602417 0.182887 0.543975
Si Si8 0.275234 0.687004 0.212517
O O1 0.888431 0.500000 0.363031
O O2 0.841221 0.271345 0.451041
O O3 0.875211 0.219138 0.287885
O O4 0.946951 0.256380 0.408425
O O5 0.295482 0.500000 0.983912
O O6 0.288864 0.721615 0.106167
O O7 0.235181 0.737979 0.947453
O O8 0.180629 0.500000 0.889693
O O9 0.183414 0.761189 0.790252
O O10 0.129528 0.743877 0.950458
O O11 0.000000 0.752598 0.252988
O O12 0.051659 0.763728 0.089173
O O13 0.000000 0.000000 0.155335
O O14 0.343207 0.500000 0.674025
O O15 0.351406 0.204278 0.619865
O O16 0.277882 0.283638 0.735147
O O17 0.500000 0.500000 0.862937
O O18 0.589476 0.000000 0.531772
O O19 0.264923 0.500000 0.220238
#
# Coordination Sequence:
#
# PCOD9375411 Si02
#       8
#     8   8   8   4   8   4   8   8
#     4  12  24  37  57  85 115 151 194 234 277 339
#     4  10  21  38  57  82 117 153 187 233 287 337
#     4  10  21  37  57  83 117 151 188 234 288 337
#     4  11  23  37  57  86 116 151 190 232 283 341
#     4  12  22  33  53  82 118 154 188 232 281 334
#     4  11  23  39  59  84 116 153 186 230 289 337
#     4  11  22  38  58  82 115 154 192 234 282 337
#     4  11  22  37  57  83 115 153 195 233 279 338
#
# _framework density 18.068729999999999
#
# number of rings (size 3 to 8) (size 9 to 14) (size 15 to 20)
#    0.000    1.000    4.286    3.857    0.000    2.857 
#    0.000    0.000    0.000    0.857    0.000    4.000 
#    0.000    0.000    0.000    0.000    0.000    0.000 
#
# Total GULP energy -156399.174723 kJ/mol
# GULP energy per Si atom -5585.684812 kJ/mol
# Density = 1.802760 g / cm^3
# Si number density = 18.068730 Si / 1000 Ang^3
#
#
#
# Elastic Constant Matrix: (Units=GPa)
#
#
# Indices 1 2 3 4 5 6 
#
# 1 72.7922 17.3028 8.2474 0.0000 0.0000 0.0000
# 2 17.3028 35.5949 8.7055 0.0000 0.0000 0.0000
# 3 8.2474 8.7055 63.2857 0.0000 0.0000 0.0000
# 4 0.0000 0.0000 0.0000 25.0044 0.0000 0.0000
# 5 0.0000 0.0000 0.0000 0.0000 24.7557 0.0000
# 6 0.0000 0.0000 0.0000 0.0000 0.0000 29.3487
#
#
#
# Elastic Compliance Matrix: (Units=1/GPa)
#
#
# Indices 1 2 3 4 5 6 
#
# 1 0.015596 -0.007331 -0.001024 0.000000 0.000000 0.000000
# 2 -0.007331 0.032518 -0.003518 0.000000 0.000000 0.000000
# 3 -0.001024 -0.003518 0.016419 0.000000 0.000000 0.000000
# 4 0.000000 0.000000 0.000000 0.039993 0.000000 0.000000
# 5 0.000000 0.000000 0.000000 0.000000 0.040395 0.000000
# 6 0.000000 0.000000 0.000000 0.000000 0.000000 0.034073
#
#
# Mechanical properties :
#
#
# Convention : Reuss Voigt Hill
#
# Bulk Modulus (GPa) = 24.51743 26.68714 25.60229
# Shear Modulus (GPa) = 23.11231 24.98291 24.04761
#
# Velocity S-wave (km/s) = 3.58038 3.72245 3.65210
# Velocity P-wave (km/s) = 5.53991 5.76865 5.65544
#
# Compressibility (1/GPa) = 0.04078730
#
# Stress axis : x y z
#
# Youngs Moduli (GPa) = 64.11767 30.75237 60.90610
#
# Poissons Ratio (x) = 0.22544 0.06237
# Poissons Ratio (y) = 0.47004 0.21425
# Poissons Ratio (z) = 0.06566 0.10818
#
# Static dielectric constant tensor:
#      x y z
#    x 1.630130 0.000000 0.000000 
#    y 0.000000 1.611300 0.000000 
#    z 0.000000 0.000000 1.618220 
# 
# From -- ./inp_files/16573.got.cif
#   From: 2010.05.17/outbox.cif.g08.bks.cpg/sg44_9_cif.got.tgz:16573.got - 2010.06.03 19:37:08.
