data_PCOD9375157
_publ_section_title
;
Structure prediction by ZEFSAII (Michael W. Deem and Ramdas Pophale) SiO2 
 PCOD9375157
Probable space group: I M M 2
;
_chemical_formula_sum "Si O2"
_cell_formula_units_Z 40
_cell_length_a 18.984513
_cell_length_b 18.760095
_cell_length_c 5.044977
_cell_angle_alpha 90.000000
_cell_angle_beta 90.000000
_cell_angle_gamma 90.000000
_cell_volume 1796.774953
_symmetry_space_group_name_H-M "I M M 2"
_symmetry_group_IT_number 44
_symmetry_cell_setting 'orthorhombic'
loop_
_space_group_symop_operation_xyz
x,y,z
-x,-y,z
-x,y,z
x,-y,z
1/2+x,1/2+y,1/2+z
1/2-x,1/2-y,1/2+z
1/2-x,1/2+y,1/2+z
1/2+x,1/2-y,1/2+z
loop_
_atom_site_type_symbol
_atom_site_label
_atom_site_fract_x
_atom_site_fract_y
_atom_site_fract_z
Si Si1 0.922849 0.209656 0.375000
Si Si2 0.837014 0.418226 0.863743
Si Si3 0.374302 0.422912 0.605235
Si Si4 0.920233 0.625378 0.346477
Si Si5 0.803530 0.126086 0.602069
O O1 0.917998 0.290375 0.281001
O O2 0.854571 0.194166 0.558664
O O3 0.000000 0.200758 0.506453
O O4 0.919222 0.149320 0.144055
O O5 0.812199 0.500000 0.836989
O O6 0.867103 0.391676 0.585338
O O7 0.774963 0.370064 0.991984
O O8 0.898009 0.415391 0.083113
O O9 0.406524 0.500000 0.537236
O O10 0.341894 0.426739 0.897334
O O11 0.313516 0.403980 0.394731
O O12 0.000000 0.607827 0.428680
#
# Coordination Sequence:
#
# PCOD9375157 Si02
#       5
#     8   8   8   8   8
#     4   9  24  44  66  95 136 179 220 267 325 392
#     4  12  25  43  70 100 132 172 220 280 339 394
#     4  10  20  38  62  94 132 170 216 264 314 383
#     4  11  26  45  69  97 132 176 222 274 336 399
#     4  10  23  40  68  94 132 169 218 267 329 390
#
# _framework density 22.26211
#
# number of rings (size 3 to 8) (size 9 to 14) (size 15 to 20)
#    1.200    0.400    0.000    4.200    2.800    5.200 
#    0.000    0.000    0.000    0.000    0.000    0.000 
#    0.000    0.000    0.000    0.000    0.000    0.000 
#
# Total GULP energy -111369.731338 kJ/mol
# GULP energy per Si atom -5568.486567 kJ/mol
# Density = 2.221144 g / cm^3
# Si number density = 22.262110 Si / 1000 Ang^3
#
#
#
# Elastic Constant Matrix: (Units=GPa)
#
#
# Indices 1 2 3 4 5 6 
#
# 1 88.7037 23.5664 -8.5762 0.0000 0.0000 0.0000
# 2 23.5664 80.0519 10.2167 0.0000 0.0000 0.0000
# 3 -8.5762 10.2167 67.6974 0.0000 0.0000 0.0000
# 4 0.0000 0.0000 0.0000 -30.9251 0.0000 0.0000
# 5 0.0000 0.0000 0.0000 0.0000 30.7314 0.0000
# 6 0.0000 0.0000 0.0000 0.0000 0.0000 23.8280
#
#
#
# Elastic Compliance Matrix: (Units=1/GPa)
#
#
# Indices 1 2 3 4 5 6 
#
# 1 0.012540 -0.003971 0.002188 0.000000 0.000000 0.000000
# 2 -0.003971 0.013995 -0.002615 0.000000 0.000000 0.000000
# 3 0.002188 -0.002615 0.015443 0.000000 0.000000 0.000000
# 4 0.000000 0.000000 0.000000 -0.032336 0.000000 0.000000
# 5 0.000000 0.000000 0.000000 0.000000 0.032540 0.000000
# 6 0.000000 0.000000 0.000000 0.000000 0.000000 0.041967
#
#
# Mechanical properties :
#
#
# Convention : Reuss Voigt Hill
#
# Bulk Modulus (GPa) = 30.13686 31.87408 31.00547
# Shear Modulus (GPa) = 48.07417 18.80995 33.44206
#
# Velocity S-wave (km/s) = 4.65204 2.90992 3.88002
# Velocity P-wave (km/s) = 6.51322 5.06349 5.83356
#
# Compressibility (1/GPa) = 0.03318196
#
# Stress axis : x y z
#
# Youngs Moduli (GPa) = 79.74490 71.45598 64.75243
#
# Poissons Ratio (x) = 0.28374 -0.14167
# Poissons Ratio (y) = 0.31666 0.16933
# Poissons Ratio (z) = -0.17447 0.18686
#
# Static dielectric constant tensor:
#      x y z
#    x 1.872860 0.000000 0.000000 
#    y 0.000000 1.852990 0.000000 
#    z 0.000000 0.000000 1.764260 
# 
# From -- ./inp_files/1914.got.cif
#   From: 2010.05.17/outbox.cif.g08.bks.cpg/sg44_1_cif.got.tgz:1914.got - 2010.06.03 19:37:08.
