data_PCOD9375726
_publ_section_title
;
Structure prediction by ZEFSAII (Michael W. Deem and Ramdas Pophale) SiO2 
 PCOD9375726
Probable space group: I M M 2
;
_chemical_formula_sum "Si O2"
_cell_formula_units_Z 56
_cell_length_a 13.738647
_cell_length_b 22.065444
_cell_length_c 9.650000
_cell_angle_alpha 90.000000
_cell_angle_beta 90.000000
_cell_angle_gamma 90.000000
_cell_volume 2925.391189
_symmetry_space_group_name_H-M "I M M 2"
_symmetry_group_IT_number 44
_symmetry_cell_setting 'orthorhombic'
loop_
_space_group_symop_operation_xyz
x,y,z
-x,-y,z
-x,y,z
x,-y,z
1/2+x,1/2+y,1/2+z
1/2-x,1/2-y,1/2+z
1/2-x,1/2+y,1/2+z
1/2+x,1/2-y,1/2+z
loop_
_atom_site_type_symbol
_atom_site_label
_atom_site_fract_x
_atom_site_fract_y
_atom_site_fract_z
Si Si1 0.387237 0.073079 0.858230
Si Si2 0.780277 0.118708 0.060931
Si Si3 0.616718 0.069619 0.537084
Si Si4 0.117454 0.000000 0.509271
Si Si5 0.883814 0.135034 0.569025
Si Si6 0.384992 0.705393 0.353951
Si Si7 0.726860 0.168521 0.357238
Si Si8 0.116962 0.000000 0.180872
O O1 0.500000 0.090561 0.886062
O O2 0.364607 0.087296 0.697345
O O3 0.381937 0.000000 0.870794
O O4 0.310357 0.102321 0.961784
O O5 0.743417 0.151840 0.198384
O O6 0.835822 0.058492 0.110369
O O7 0.853525 0.160931 0.976482
O O8 0.500000 0.069644 0.521312
O O9 0.662906 0.116639 0.431551
O O10 0.649913 0.000000 0.514473
O O11 0.148351 0.935889 0.575069
O O12 0.140203 0.000000 0.345400
O O13 0.000000 0.000000 0.520357
O O14 0.862946 0.170711 0.709961
O O15 0.827776 0.165820 0.441999
O O16 0.000000 0.135755 0.546156
O O17 0.500000 0.717975 0.357584
O O18 0.325047 0.767062 0.367112
O O19 0.000000 0.000000 0.166720
#
# Coordination Sequence:
#
# PCOD9375726 Si02
#       8
#     8   8   8   4   8   8   8   4
#     4   9  19  38  61  92 132 166 204 259 319 380
#     4  12  24  39  64  97 131 170 207 262 328 381
#     4   9  20  38  63  92 123 165 214 263 316 373
#     4   9  18  37  65  94 121 155 204 262 315 368
#     4  10  22  41  66  93 124 164 213 261 311 375
#     4  11  26  46  62  87 128 173 218 262 305 373
#     4  12  24  40  66  91 128 163 214 258 319 373
#     4  11  22  39  62  98 133 163 207 268 332 388
#
# _framework density 19.14274
#
# number of rings (size 3 to 8) (size 9 to 14) (size 15 to 20)
#    0.000    1.571    2.143    3.429    2.000    2.286 
#    0.000    3.571    0.000    0.000    0.000    0.000 
#    0.000    0.000    0.000    0.000    0.000    0.000 
#
# Total GULP energy -156545.578669 kJ/mol
# GULP energy per Si atom -5590.913524 kJ/mol
# Density = 1.909917 g / cm^3
# Si number density = 19.142740 Si / 1000 Ang^3
#
#
#
# Elastic Constant Matrix: (Units=GPa)
#
#
# Indices 1 2 3 4 5 6 
#
# 1 73.1439 34.5305 27.6491 0.0002 0.0001 0.0001
# 2 34.5305 117.8056 37.1707 0.0001 0.0001 0.0000
# 3 27.6491 37.1707 83.7995 0.0010 0.0000 -0.0001
# 4 0.0002 0.0001 0.0010 -3.9322 0.0000 0.0000
# 5 0.0001 0.0001 0.0000 0.0000 34.1814 0.0000
# 6 0.0001 0.0000 -0.0001 0.0000 0.0000 32.2798
#
#
#
# Elastic Compliance Matrix: (Units=1/GPa)
#
#
# Indices 1 2 3 4 5 6 
#
# 1 0.016912 -0.003717 -0.003932 0.000000 0.000000 0.000000
# 2 -0.003717 0.010687 -0.003514 -0.000001 0.000000 0.000000
# 3 -0.003932 -0.003514 0.014789 0.000004 0.000000 0.000000
# 4 0.000000 -0.000001 0.000004 -0.254309 0.000000 0.000000
# 5 0.000000 0.000000 0.000000 0.000000 0.029256 0.000000
# 6 0.000000 0.000000 0.000000 0.000000 0.000000 0.030979
#
#
# Mechanical properties :
#
#
# Convention : Reuss Voigt Hill
#
# Bulk Modulus (GPa) = 49.84099 52.60549 51.22324
# Shear Modulus (GPa) = -40.75849 24.19903 -8.27973
#
# Velocity S-wave (km/s) = -4.61932 3.55933 -2.08198
# Velocity P-wave (km/s) = 1.53551 6.66574 4.58663
#
# Compressibility (1/GPa) = 0.02006381
#
# Stress axis : x y z
#
# Youngs Moduli (GPa) = 59.12790 93.57378 67.61736
#
# Poissons Ratio (x) = 0.34779 0.26584
# Poissons Ratio (y) = 0.21977 0.23760
# Poissons Ratio (z) = 0.23246 0.32881
#
# Static dielectric constant tensor:
#      x y z
#    x 1.681290 0.000000 0.000000 
#    y 0.000000 1.649420 0.000000 
#    z 0.000000 0.000000 1.628650 
# 
# From -- ./inp_files/7434.got.cif
#   From: 2010.05.17/outbox.cif.g08.bks.cpg/sg44_4_cif.got.tgz:7434.got - 2010.06.03 19:37:08.
