data_PCOD9375329
_publ_section_title
;
Structure prediction by ZEFSAII (Michael W. Deem and Ramdas Pophale) SiO2 
 PCOD9375329
Probable space group: I M M 2
;
_chemical_formula_sum "Si O2"
_cell_formula_units_Z 48
_cell_length_a 24.037114
_cell_length_b 7.475419
_cell_length_c 11.904251
_cell_angle_alpha 90.000000
_cell_angle_beta 90.000000
_cell_angle_gamma 90.000000
_cell_volume 2139.045086
_symmetry_space_group_name_H-M "I M M 2"
_symmetry_group_IT_number 44
_symmetry_cell_setting 'orthorhombic'
loop_
_space_group_symop_operation_xyz
x,y,z
-x,-y,z
-x,y,z
x,-y,z
1/2+x,1/2+y,1/2+z
1/2-x,1/2-y,1/2+z
1/2-x,1/2+y,1/2+z
1/2+x,1/2-y,1/2+z
loop_
_atom_site_type_symbol
_atom_site_label
_atom_site_fract_x
_atom_site_fract_y
_atom_site_fract_z
Si Si1 0.643849 0.283953 0.507330
Si Si2 0.438194 0.282992 0.710496
Si Si3 0.348140 0.283992 0.879403
Si Si4 0.766040 0.780730 0.180354
Si Si5 0.436791 0.292549 0.314930
Si Si6 0.145294 0.293350 0.638750
O O1 0.649809 0.500000 0.497577
O O2 0.599170 0.239447 0.603844
O O3 0.701845 0.223003 0.565440
O O4 0.612933 0.218050 0.394777
O O5 0.500000 0.213845 0.701447
O O6 0.440206 0.500000 0.712470
O O7 0.405610 0.226830 0.821179
O O8 0.346175 0.500000 0.882489
O O9 0.300477 0.227255 0.791138
O O10 0.346706 0.219164 0.005593
O O11 0.702943 0.716426 0.187125
O O12 0.765794 0.000000 0.178096
O O13 0.500000 0.217842 0.322622
O O14 0.441956 0.500000 0.349234
O O15 0.410515 0.288036 0.190606
O O16 0.142202 0.500000 0.669898
#
# Coordination Sequence:
#
# PCOD9375329 Si02
#       6
#     8   8   8   8   8   8
#     4   8  14  28  52  80 106 131 168 222 271 312
#     4   8  13  24  48  79 103 124 158 212 270 310
#     4   9  18  34  53  75 103 135 175 221 264 317
#     4   8  17  33  53  78 107 137 174 222 278 327
#     4  10  21  36  56  82 109 142 187 230 267 317
#     4  11  23  36  52  76 109 148 181 217 271 331
#
# _framework density 22.439919
#
# number of rings (size 3 to 8) (size 9 to 14) (size 15 to 20)
#    0.000    3.000    0.000    3.000    2.333    3.000 
#    0.000    2.500    0.000    4.000    0.000    0.000 
#    0.000    0.000    0.000    0.000    0.000    0.000 
#
# Total GULP energy -133814.194714 kJ/mol
# GULP energy per Si atom -5575.591446 kJ/mol
# Density = 2.238884 g / cm^3
# Si number density = 22.439919 Si / 1000 Ang^3
#
#
#
# Elastic Constant Matrix: (Units=GPa)
#
#
# Indices 1 2 3 4 5 6 
#
# 1 91.4994 2.8820 19.5820 0.0000 0.0000 0.0000
# 2 2.8820 64.5980 -1.2098 0.0000 0.0000 0.0000
# 3 19.5820 -1.2098 89.1758 0.0000 0.0000 0.0000
# 4 0.0000 0.0000 0.0000 8.1627 0.0000 0.0000
# 5 0.0000 0.0000 0.0000 0.0000 15.8146 0.0000
# 6 0.0000 0.0000 0.0000 0.0000 0.0000 -3.2042
#
#
#
# Elastic Compliance Matrix: (Units=1/GPa)
#
#
# Indices 1 2 3 4 5 6 
#
# 1 0.011488 -0.000560 -0.002530 0.000000 0.000000 0.000000
# 2 -0.000560 0.015512 0.000333 0.000000 0.000000 0.000000
# 3 -0.002530 0.000333 0.011774 0.000000 0.000000 0.000000
# 4 0.000000 0.000000 0.000000 0.122509 0.000000 0.000000
# 5 0.000000 0.000000 0.000000 0.000000 0.063233 0.000000
# 6 0.000000 0.000000 0.000000 0.000000 0.000000 -0.312089
#
#
# Mechanical properties :
#
#
# Convention : Reuss Voigt Hill
#
# Bulk Modulus (GPa) = 30.06607 31.97574 31.02091
# Shear Modulus (GPa) = -70.44863 19.08921 -25.67971
#
# Velocity S-wave (km/s) = -5.60914 2.91981 -3.38653
# Velocity P-wave (km/s) = 5.34064 5.06433 1.19895
#
# Compressibility (1/GPa) = 0.03326008
#
# Stress axis : x y z
#
# Youngs Moduli (GPa) = 87.04595 64.46798 84.93329
#
# Poissons Ratio (x) = 0.03610 0.21490
# Poissons Ratio (y) = 0.04874 -0.02832
# Poissons Ratio (z) = 0.22025 -0.02149
#
# Static dielectric constant tensor:
#      x y z
#    x 1.831390 0.000000 0.000000 
#    y 0.000000 1.877520 0.000000 
#    z 0.000000 0.000000 1.830620 
# 
# From -- ./inp_files/11162.got.cif
#   From: 2010.05.17/outbox.cif.g08.bks.cpg/sg44_6_cif.got.tgz:11162.got - 2010.06.03 19:37:08.
