data_PCOD9375062
_publ_section_title
;
Structure prediction by ZEFSAII (Michael W. Deem and Ramdas Pophale) SiO2 
 PCOD9375062
Probable space group: I M M 2
;
_chemical_formula_sum "Si O2"
_cell_formula_units_Z 32
_cell_length_a 8.579882
_cell_length_b 7.757546
_cell_length_c 25.040514
_cell_angle_alpha 90.000000
_cell_angle_beta 90.000000
_cell_angle_gamma 90.000000
_cell_volume 1666.667297
_symmetry_space_group_name_H-M "I M M 2"
_symmetry_group_IT_number 44
_symmetry_cell_setting 'orthorhombic'
loop_
_space_group_symop_operation_xyz
x,y,z
-x,-y,z
-x,y,z
x,-y,z
1/2+x,1/2+y,1/2+z
1/2-x,1/2-y,1/2+z
1/2-x,1/2+y,1/2+z
1/2+x,1/2-y,1/2+z
loop_
_atom_site_type_symbol
_atom_site_label
_atom_site_fract_x
_atom_site_fract_y
_atom_site_fract_z
Si Si1 0.315618 0.000000 0.273980
Si Si2 0.181928 0.792002 0.462743
Si Si3 0.187720 0.304353 0.346551
Si Si4 0.184947 0.000000 0.154887
Si Si5 0.189108 0.799617 0.580853
O O1 0.263162 0.834166 0.307900
O O2 0.500000 0.000000 0.267218
O O3 0.237330 0.000000 0.216136
O O4 0.246984 0.719363 0.407551
O O5 0.246152 0.746998 0.521177
O O6 0.000000 0.738767 0.463738
O O7 0.186476 0.000000 0.459109
O O8 0.215725 0.500000 0.329306
O O9 0.000000 0.274406 0.347199
O O10 0.249789 0.168165 0.124513
O O11 0.000000 0.000000 0.151775
O O12 0.000000 0.793874 0.580057
O O13 0.232811 0.000000 0.590114
#
# Coordination Sequence:
#
# PCOD9375062 Si02
#       5
#     4   8   8   4   8
#     4  12  26  44  62  82 118 164 205 254 301 354
#     4   8  14  29  58  91 123 155 192 238 286 347
#     4  10  20  36  63  94 121 155 199 247 297 354
#     4  12  26  42  62  86 118 162 205 252 301 358
#     4   9  19  37  63  93 122 156 199 246 294 351
#
# _framework density 19.199992000000002
#
# number of rings (size 3 to 8) (size 9 to 14) (size 15 to 20)
#    0.000    2.250    1.250    3.750    1.750    2.000 
#    0.000    1.250    0.000    0.000    0.000    0.000 
#    0.000    0.000    0.000    0.000    0.000    0.000 
#
# Total GULP energy -89297.946251 kJ/mol
# GULP energy per Si atom -5581.121641 kJ/mol
# Density = 1.915629 g / cm^3
# Si number density = 19.199992 Si / 1000 Ang^3
#
#
#
# Elastic Constant Matrix: (Units=GPa)
#
#
# Indices 1 2 3 4 5 6 
#
# 1 33.0251 30.8644 25.8311 0.0000 0.0000 0.0000
# 2 30.8644 89.2102 74.8850 0.0000 0.0000 0.0000
# 3 25.8311 74.8850 152.8953 0.0000 0.0000 0.0000
# 4 0.0000 0.0000 0.0000 -58.4246 0.0000 0.0000
# 5 0.0000 0.0000 0.0000 0.0000 26.0304 0.0000
# 6 0.0000 0.0000 0.0000 0.0000 0.0000 20.1204
#
#
#
# Elastic Compliance Matrix: (Units=1/GPa)
#
#
# Indices 1 2 3 4 5 6 
#
# 1 0.044749 -0.015514 0.000038 0.000000 0.000000 0.000000
# 2 -0.015514 0.024414 -0.009337 0.000000 0.000000 0.000000
# 3 0.000038 -0.009337 0.011107 0.000000 0.000000 0.000000
# 4 0.000000 0.000000 0.000000 -0.017116 0.000000 0.000000
# 5 0.000000 0.000000 0.000000 0.000000 0.038417 0.000000
# 6 0.000000 0.000000 0.000000 0.000000 0.000000 0.049701
#
#
# Mechanical properties :
#
#
# Convention : Reuss Voigt Hill
#
# Bulk Modulus (GPa) = 32.63130 59.81016 46.22073
# Shear Modulus (GPa) = 23.68413 7.11523 15.39968
#
# Velocity S-wave (km/s) = 3.51600 1.92715 2.83515
# Velocity P-wave (km/s) = 5.78925 6.01420 5.90280
#
# Compressibility (1/GPa) = 0.03064542
#
# Stress axis : x y z
#
# Youngs Moduli (GPa) = 22.34677 40.95963 90.03504
#
# Poissons Ratio (x) = 0.63546 -0.00345
# Poissons Ratio (y) = 0.34669 0.84062
# Poissons Ratio (z) = -0.00086 0.38242
#
# Static dielectric constant tensor:
#      x y z
#    x 1.665280 0.000000 0.000000 
#    y 0.000000 1.659790 0.000000 
#    z 0.000000 0.000000 1.668920 
# 
# From -- ./inp_files/24553.got.cif
#   From: 2010.05.17/outbox.cif.g08.bks.cpg/sg44_13_cif.got.tgz:24553.got - 2010.06.03 19:37:08.
