data_PCOD9375155
_publ_section_title
;
Structure prediction by ZEFSAII (Michael W. Deem and Ramdas Pophale) SiO2 
 PCOD9375155
Probable space group: I M M 2
;
_chemical_formula_sum "Si O2"
_cell_formula_units_Z 58
_cell_length_a 9.216199
_cell_length_b 18.287701
_cell_length_c 17.494785
_cell_angle_alpha 90.000000
_cell_angle_beta 90.000000
_cell_angle_gamma 90.000000
_cell_volume 2948.625152
_symmetry_space_group_name_H-M "I M M 2"
_symmetry_group_IT_number 44
_symmetry_cell_setting 'orthorhombic'
loop_
_space_group_symop_operation_xyz
x,y,z
-x,-y,z
-x,y,z
x,-y,z
1/2+x,1/2+y,1/2+z
1/2-x,1/2-y,1/2+z
1/2-x,1/2+y,1/2+z
1/2+x,1/2-y,1/2+z
loop_
_atom_site_type_symbol
_atom_site_label
_atom_site_fract_x
_atom_site_fract_y
_atom_site_fract_z
Si Si1 0.174209 0.672628 0.474530
Si Si2 0.000000 0.500000 0.808140
Si Si3 0.671422 0.583538 0.607519
Si Si4 0.327024 0.657050 0.008311
Si Si5 0.659493 0.136061 0.365941
Si Si6 0.673279 0.350281 0.183780
Si Si7 0.673287 0.916582 0.826335
Si Si8 0.830134 0.204825 0.235801
O O1 0.243253 0.620999 0.538577
O O2 0.209668 0.756922 0.493899
O O3 0.218615 0.641526 0.391437
O O4 0.000000 0.666579 0.478208
O O5 0.123281 0.564550 0.816792
O O6 0.500000 0.583015 0.589147
O O7 0.719358 0.500000 0.620340
O O8 0.688153 0.634489 0.681596
O O9 0.500000 0.648611 0.995760
O O10 0.232497 0.615361 0.945804
O O11 0.294383 0.633844 0.094961
O O12 0.500000 0.171197 0.378982
O O13 0.767906 0.186581 0.318864
O O14 0.500000 0.349975 0.192643
O O15 0.745858 0.401800 0.246907
O O16 0.738241 0.270406 0.200594
O O17 0.500000 0.908637 0.814696
O O18 0.700189 0.000000 0.852697
O O19 0.000000 0.224002 0.239509
#
# Coordination Sequence:
#
# PCOD9375155 Si02
#       8
#     8   2   8   8   8   8   8   8
#     4  10  20  38  62  87 118 154 201 251 300 358
#     4   8  24  44  58  92 124 152 210 264 304 380
#     4  10  22  36  54  86 125 160 195 240 298 365
#     4  10  21  39  62  90 122 156 204 259 309 367
#     4  10  22  40  62  86 119 157 202 253 310 363
#     4  11  23  40  62  93 125 160 208 258 308 371
#     4  10  22  40  62  90 123 164 210 254 310 374
#     4  11  22  38  62  90 124 162 206 250 309 372
#
# _framework density 19.670183999999999
#
# number of rings (size 3 to 8) (size 9 to 14) (size 15 to 20)
#    0.414    1.379    1.379    2.483    0.966    4.966 
#    1.241    1.034    0.000    0.000    0.000    0.000 
#    0.000    0.000    0.000    0.000    0.000    0.000 
#
# Total GULP energy -161602.060133 kJ/mol
# GULP energy per Si atom -5572.484832 kJ/mol
# Density = 1.962541 g / cm^3
# Si number density = 19.670184 Si / 1000 Ang^3
#
#
#
# Elastic Constant Matrix: (Units=GPa)
#
#
# Indices 1 2 3 4 5 6 
#
# 1 27.9558 -1.8308 32.6359 0.0000 0.0000 0.0000
# 2 -1.8308 29.8705 -17.5410 0.0000 0.0000 0.0000
# 3 32.6359 -17.5410 85.9412 0.0000 0.0000 0.0000
# 4 0.0000 0.0000 0.0000 21.5153 0.0000 0.0000
# 5 0.0000 0.0000 0.0000 0.0000 31.7081 0.0000
# 6 0.0000 0.0000 0.0000 0.0000 0.0000 28.4478
#
#
#
# Elastic Compliance Matrix: (Units=1/GPa)
#
#
# Indices 1 2 3 4 5 6 
#
# 1 0.068143 -0.012520 -0.028433 0.000000 0.000000 0.000000
# 2 -0.012520 0.040337 0.012987 0.000000 0.000000 0.000000
# 3 -0.028433 0.012987 0.025084 0.000000 0.000000 0.000000
# 4 0.000000 0.000000 0.000000 0.046479 0.000000 0.000000
# 5 0.000000 0.000000 0.000000 0.000000 0.031538 0.000000
# 6 0.000000 0.000000 0.000000 0.000000 0.000000 0.035152
#
#
# Mechanical properties :
#
#
# Convention : Reuss Voigt Hill
#
# Bulk Modulus (GPa) = 12.88096 18.92174 15.90135
# Shear Modulus (GPa) = 15.21879 25.03449 20.12664
#
# Velocity S-wave (km/s) = 2.78456 3.57138 3.20223
# Velocity P-wave (km/s) = 4.11109 5.16205 4.66625
#
# Compressibility (1/GPa) = 0.07763398
#
# Stress axis : x y z
#
# Youngs Moduli (GPa) = 14.67492 24.79104 39.86623
#
# Poissons Ratio (x) = 0.31039 1.13350
# Poissons Ratio (y) = 0.18373 -0.51776
# Poissons Ratio (z) = 0.41725 -0.32197
#
# Static dielectric constant tensor:
#      x y z
#    x 1.673580 0.000000 0.000000 
#    y 0.000000 1.691100 0.000000 
#    z 0.000000 0.000000 1.697020 
# 
# From -- ./inp_files/20578.got.cif
#   From: 2010.05.17/outbox.cif.g08.bks.cpg/sg44_11_cif.got.tgz:20578.got - 2010.06.03 19:37:08.
