data_PCOD9375082
_publ_section_title
;
Structure prediction by ZEFSAII (Michael W. Deem and Ramdas Pophale) SiO2 
 PCOD9375082
Probable space group: I M M 2
;
_chemical_formula_sum "Si O2"
_cell_formula_units_Z 58
_cell_length_a 7.562142
_cell_length_b 15.645425
_cell_length_c 24.384478
_cell_angle_alpha 90.000000
_cell_angle_beta 90.000000
_cell_angle_gamma 90.000000
_cell_volume 2884.998929
_symmetry_space_group_name_H-M "I M M 2"
_symmetry_group_IT_number 44
_symmetry_cell_setting 'orthorhombic'
loop_
_space_group_symop_operation_xyz
x,y,z
-x,-y,z
-x,y,z
x,-y,z
1/2+x,1/2+y,1/2+z
1/2-x,1/2-y,1/2+z
1/2-x,1/2+y,1/2+z
1/2+x,1/2-y,1/2+z
loop_
_atom_site_type_symbol
_atom_site_label
_atom_site_fract_x
_atom_site_fract_y
_atom_site_fract_z
Si Si1 0.802185 0.147493 0.627330
Si Si2 0.289133 0.595919 0.798350
Si Si3 0.284476 0.764994 0.514150
Si Si4 0.287163 0.096853 0.424633
Si Si5 0.712837 0.903147 0.830027
Si Si6 0.289133 0.404081 0.456310
Si Si7 0.500000 0.000000 0.627330
Si Si8 0.784476 0.264994 0.240511
O O1 0.777637 0.204958 0.573245
O O2 0.777637 0.204958 0.681416
O O3 0.000000 0.111403 0.627330
O O4 0.654174 0.074660 0.627330
O O5 0.500000 0.591534 0.790362
O O6 0.216921 0.500000 0.789751
O O7 0.259605 0.619056 0.862147
O O8 0.222704 0.671579 0.759794
O O9 0.500000 0.765102 0.514321
O O10 0.225549 0.834461 0.468757
O O11 0.222704 0.671579 0.494866
O O12 0.500000 0.094768 0.428084
O O13 0.222971 0.000000 0.435674
O O14 0.500000 0.905232 0.826576
O O15 0.759605 0.880944 0.892513
O O16 0.774451 0.834461 0.785903
O O17 0.777029 0.000000 0.818987
O O18 0.500000 0.408466 0.464298
O O19 0.216921 0.500000 0.464909
O O20 0.000000 0.265102 0.240339
#
# Coordination Sequence:
#
# PCOD9375082 Si02
#       8
#     8   8   8   8   8   8   2   8
#     4  12  27  43  68  95 118 164 208 244 304 366
#     4   9  18  33  54  83 117 158 205 254 309 363
#     4  10  20  37  58  80 120 164 201 258 311 357
#     4   9  18  30  51  80 113 155 199 247 316 369
#     4   9  18  30  51  80 113 155 199 247 316 369
#     4   9  18  33  54  83 117 158 205 254 309 363
#     4  12  26  52  68  86 138 152 198 260 300 352
#     4  10  20  37  58  80 120 164 201 258 311 357
#
# _framework density 20.103994
#
# number of rings (size 3 to 8) (size 9 to 14) (size 15 to 20)
#    0.000    2.207    1.379    1.034    1.931    2.207 
#    0.000    0.690    0.000    4.138    0.000    0.000 
#    0.000    0.000    0.000    0.000    0.000    0.000 
#
# Total GULP energy -161699.767691 kJ/mol
# GULP energy per Si atom -5575.854058 kJ/mol
# Density = 2.005824 g / cm^3
# Si number density = 20.103994 Si / 1000 Ang^3
#
#
#
# Elastic Constant Matrix: (Units=GPa)
#
#
# Indices 1 2 3 4 5 6 
#
# 1 86.2165 35.3233 23.3463 0.0000 0.0000 0.0000
# 2 35.3233 158.6327 128.9065 0.0000 0.0000 0.0000
# 3 23.3463 128.9065 139.8572 0.0000 0.0000 0.0000
# 4 0.0000 0.0000 0.0000 -7.4495 0.0000 0.0000
# 5 0.0000 0.0000 0.0000 0.0000 37.3565 0.0000
# 6 0.0000 0.0000 0.0000 0.0000 0.0000 4.3148
#
#
#
# Elastic Compliance Matrix: (Units=1/GPa)
#
#
# Indices 1 2 3 4 5 6 
#
# 1 0.012898 -0.004471 0.001968 0.000000 0.000000 0.000000
# 2 -0.004471 0.026664 -0.023829 0.000000 0.000000 0.000000
# 3 0.001968 -0.023829 0.028785 0.000000 0.000000 0.000000
# 4 0.000000 0.000000 0.000000 -0.134236 0.000000 0.000000
# 5 0.000000 0.000000 0.000000 0.000000 0.026769 0.000000
# 6 0.000000 0.000000 0.000000 0.000000 0.000000 0.231760
#
#
# Mechanical properties :
#
#
# Convention : Reuss Voigt Hill
#
# Bulk Modulus (GPa) = 63.76997 84.42872 74.09934
# Shear Modulus (GPa) = 19.95758 19.98638 19.97198
#
# Velocity S-wave (km/s) = 3.15416 3.15643 3.15530
# Velocity P-wave (km/s) = 6.71222 7.44119 7.08608
#
# Compressibility (1/GPa) = 0.01568136
#
# Stress axis : x y z
#
# Youngs Moduli (GPa) = 77.53326 37.50441 34.74017
#
# Poissons Ratio (x) = 0.16770 -0.06838
# Poissons Ratio (y) = 0.34669 0.82784
# Poissons Ratio (z) = -0.15261 0.89371
#
# Static dielectric constant tensor:
#      x y z
#    x 1.740410 0.000000 0.000000 
#    y 0.000000 1.719230 0.000000 
#    z 0.000000 0.000000 1.661730 
# 
# From -- ./inp_files/25062.got.cif
#   From: 2010.05.17/outbox.cif.g08.bks.cpg/sg44_13_cif.got.tgz:25062.got - 2010.06.03 19:37:08.
