data_PCOD9375001
_publ_section_title
;
Structure prediction by ZEFSAII (Michael W. Deem and Ramdas Pophale) SiO2 
 PCOD9375001
Probable space group: I M M 2
;
_chemical_formula_sum "Si O2"
_cell_formula_units_Z 64
_cell_length_a 25.389087
_cell_length_b 8.756059
_cell_length_c 15.233616
_cell_angle_alpha 90.000000
_cell_angle_beta 90.000000
_cell_angle_gamma 90.000000
_cell_volume 3386.559942
_symmetry_space_group_name_H-M "I M M 2"
_symmetry_group_IT_number 44
_symmetry_cell_setting 'orthorhombic'
loop_
_space_group_symop_operation_xyz
x,y,z
-x,-y,z
-x,y,z
x,-y,z
1/2+x,1/2+y,1/2+z
1/2-x,1/2-y,1/2+z
1/2-x,1/2+y,1/2+z
1/2+x,1/2-y,1/2+z
loop_
_atom_site_type_symbol
_atom_site_label
_atom_site_fract_x
_atom_site_fract_y
_atom_site_fract_z
Si Si1 0.139474 0.319734 0.116720
Si Si2 0.437927 0.316925 0.758441
Si Si3 0.939916 0.682379 0.623680
Si Si4 0.284151 0.817358 0.913487
Si Si5 0.765446 0.181896 0.221048
Si Si6 0.153492 0.182424 0.737582
Si Si7 0.164132 0.182184 0.942061
Si Si8 0.606550 0.317453 0.950651
O O1 0.146580 0.500000 0.123645
O O2 0.092936 0.265736 0.180693
O O3 0.192038 0.235157 0.150564
O O4 0.132061 0.269800 0.016139
O O5 0.500000 0.283664 0.757935
O O6 0.430947 0.500000 0.748187
O O7 0.413424 0.275560 0.853122
O O8 0.933709 0.500000 0.628605
O O9 0.897438 0.761940 0.686072
O O10 0.927763 0.737925 0.525188
O O11 0.000000 0.721747 0.647048
O O12 0.281992 0.759853 0.813011
O O13 0.226457 0.781520 0.951431
O O14 0.333105 0.736398 0.959360
O O15 0.291129 0.000000 0.915424
O O16 0.706326 0.237453 0.201822
O O17 0.766802 0.000000 0.230430
O O18 0.149814 0.219535 0.841466
O O19 0.159969 0.000000 0.730037
O O20 0.157949 0.000000 0.953688
O O21 0.602950 0.500000 0.959737
#
# Coordination Sequence:
#
# PCOD9375001 Si02
#       8
#     8   8   8   8   8   8   8   8
#     4  12  24  37  59  90 124 161 205 252 301 360
#     4  10  22  41  63  87 120 162 206 251 302 361
#     4  11  25  43  63  89 123 163 206 255 310 368
#     4  10  20  36  58  88 124 160 201 245 299 362
#     4  11  21  36  59  87 123 162 199 242 300 365
#     4  10  22  42  66  91 119 155 204 259 311 364
#     4   9  21  40  61  86 122 161 199 249 307 365
#     4  11  22  37  61  91 123 163 205 250 304 363
#
# _framework density 18.898233999999999
#
# number of rings (size 3 to 8) (size 9 to 14) (size 15 to 20)
#    0.000    1.500    1.250    4.875    1.750    5.250 
#    0.000    0.625    0.000    0.750    0.000    0.000 
#    0.000    0.000    0.000    0.000    0.000    0.000 
#
# Total GULP energy -178911.933812 kJ/mol
# GULP energy per Si atom -5590.997932 kJ/mol
# Density = 1.885522 g / cm^3
# Si number density = 18.898234 Si / 1000 Ang^3
#
#
#
# Elastic Constant Matrix: (Units=GPa)
#
#
# Indices 1 2 3 4 5 6 
#
# 1 74.4874 9.2210 24.8562 0.0000 0.0000 0.0000
# 2 9.2210 18.6906 8.1135 0.0000 0.0000 0.0000
# 3 24.8562 8.1135 54.2702 0.0000 0.0000 0.0000
# 4 0.0000 0.0000 0.0000 26.9291 0.0000 0.0000
# 5 0.0000 0.0000 0.0000 0.0000 28.0363 0.0000
# 6 0.0000 0.0000 0.0000 0.0000 0.0000 24.3242
#
#
#
# Elastic Compliance Matrix: (Units=1/GPa)
#
#
# Indices 1 2 3 4 5 6 
#
# 1 0.016295 -0.005132 -0.006696 0.000000 0.000000 0.000000
# 2 -0.005132 0.058833 -0.006445 0.000000 0.000000 0.000000
# 3 -0.006696 -0.006445 0.022457 0.000000 0.000000 0.000000
# 4 0.000000 0.000000 0.000000 0.037135 0.000000 0.000000
# 5 0.000000 0.000000 0.000000 0.000000 0.035668 0.000000
# 6 0.000000 0.000000 0.000000 0.000000 0.000000 0.041111
#
#
# Mechanical properties :
#
#
# Convention : Reuss Voigt Hill
#
# Bulk Modulus (GPa) = 16.38328 25.75882 21.07105
# Shear Modulus (GPa) = 18.62957 22.87507 20.75232
#
# Velocity S-wave (km/s) = 3.14313 3.48290 3.31737
# Velocity P-wave (km/s) = 4.67551 5.46205 5.08401
#
# Compressibility (1/GPa) = 0.06103784
#
# Stress axis : x y z
#
# Youngs Moduli (GPa) = 61.36914 16.99734 44.53032
#
# Poissons Ratio (x) = 0.08724 0.29817
# Poissons Ratio (y) = 0.31497 0.28699
# Poissons Ratio (z) = 0.41092 0.10955
#
# Static dielectric constant tensor:
#      x y z
#    x 1.637730 0.000000 0.000000 
#    y 0.000000 1.623370 0.000000 
#    z 0.000000 0.000000 1.668440 
# 
# From -- ./inp_files/19485.got.cif
#   From: 2010.05.17/outbox.cif.g08.bks.cpg/sg44_10_cif.got.tgz:19485.got - 2010.06.03 19:37:08.
