data_PCOD9375320
_publ_section_title
;
Structure prediction by ZEFSAII (Michael W. Deem and Ramdas Pophale) SiO2 
 PCOD9375320
Probable space group: I M M 2
;
_chemical_formula_sum "Si O2"
_cell_formula_units_Z 64
_cell_length_a 9.024131
_cell_length_b 32.840852
_cell_length_c 12.102545
_cell_angle_alpha 90.000000
_cell_angle_beta 90.000000
_cell_angle_gamma 90.000000
_cell_volume 3586.712059
_symmetry_space_group_name_H-M "I M M 2"
_symmetry_group_IT_number 44
_symmetry_cell_setting 'orthorhombic'
loop_
_space_group_symop_operation_xyz
x,y,z
-x,-y,z
-x,y,z
x,-y,z
1/2+x,1/2+y,1/2+z
1/2-x,1/2-y,1/2+z
1/2-x,1/2+y,1/2+z
1/2+x,1/2-y,1/2+z
loop_
_atom_site_type_symbol
_atom_site_label
_atom_site_fract_x
_atom_site_fract_y
_atom_site_fract_z
Si Si1 0.829797 0.181709 0.465480
Si Si2 0.678085 0.126152 0.035787
Si Si3 0.824991 0.280568 0.166906
Si Si4 0.668626 0.596436 0.095582
Si Si5 0.322914 0.314449 0.712825
Si Si6 0.679284 0.646652 0.301138
Si Si7 0.832202 0.548837 0.911837
Si Si8 0.680666 0.046779 0.168054
O O1 0.730067 0.209675 0.543206
O O2 0.830916 0.137823 0.523472
O O3 0.780489 0.177426 0.339750
O O4 0.000000 0.197236 0.464871
O O5 0.500000 0.127826 0.025077
O O6 0.733251 0.157777 0.128390
O O7 0.720796 0.080887 0.079009
O O8 0.754519 0.137692 0.920613
O O9 0.797693 0.233387 0.191954
O O10 0.739009 0.311111 0.249170
O O11 0.000000 0.288608 0.176976
O O12 0.500000 0.582688 0.110115
O O13 0.726342 0.611077 0.214632
O O14 0.753162 0.564467 0.020777
O O15 0.500000 0.322359 0.700296
O O16 0.500000 0.647917 0.302833
O O17 0.836057 0.500000 0.911434
O O18 0.766191 0.559783 0.791246
O O19 0.000000 0.564801 0.914803
O O20 0.500000 0.046027 0.174290
O O21 0.727484 0.000000 0.145473
#
# Coordination Sequence:
#
# PCOD9375320 Si02
#       8
#     8   8   8   8   8   8   8   8
#     4   9  19  36  54  74 104 141 175 215 269 320
#     4  11  22  35  57  86 110 143 190 234 276 329
#     4  10  21  36  55  81 106 138 185 228 270 323
#     4   9  18  33  53  74  99 138 178 214 264 321
#     4  10  22  37  54  79 112 145 177 222 276 327
#     4  10  22  40  57  74 107 150 184 225 281 331
#     4   9  17  30  52  81 110 138 170 217 274 326
#     4   8  16  33  55  81 114 146 178 223 278 328
#
# _framework density 17.843640000000001
#
# number of rings (size 3 to 8) (size 9 to 14) (size 15 to 20)
#    0.000    2.500    0.000    3.375    1.750    4.250 
#    0.000    1.250    0.000    5.250    0.000    0.000 
#    0.000    0.000    0.000    0.000    0.000    0.000 
#
# Total GULP energy -178416.500542 kJ/mol
# GULP energy per Si atom -5575.515642 kJ/mol
# Density = 1.780303 g / cm^3
# Si number density = 17.843640 Si / 1000 Ang^3
#
#
#
# Elastic Constant Matrix: (Units=GPa)
#
#
# Indices 1 2 3 4 5 6 
#
# 1 44.8150 30.8448 45.3440 0.0000 0.0000 0.0000
# 2 30.8448 57.5304 55.2722 0.0002 0.0000 0.0000
# 3 45.3440 55.2722 160.5337 0.0006 0.0001 -0.0002
# 4 0.0000 0.0002 0.0006 16.8359 0.0000 -0.0001
# 5 0.0000 0.0000 0.0001 0.0000 22.8461 -0.0001
# 6 0.0000 0.0000 -0.0002 -0.0001 -0.0001 16.1519
#
#
#
# Elastic Compliance Matrix: (Units=1/GPa)
#
#
# Indices 1 2 3 4 5 6 
#
# 1 0.038491 -0.015229 -0.005629 0.000000 0.000000 0.000000
# 2 -0.015229 0.031999 -0.006716 0.000000 0.000000 0.000000
# 3 -0.005629 -0.006716 0.010131 0.000000 0.000000 0.000000
# 4 0.000000 0.000000 0.000000 0.059397 0.000000 0.000000
# 5 0.000000 0.000000 0.000000 0.000000 0.043771 0.000000
# 6 0.000000 0.000000 0.000000 0.000000 0.000000 0.061912
#
#
# Mechanical properties :
#
#
# Convention : Reuss Voigt Hill
#
# Bulk Modulus (GPa) = 39.25513 58.42233 48.83873
# Shear Modulus (GPa) = 16.16341 19.92798 18.04569
#
# Velocity S-wave (km/s) = 3.01298 3.34550 3.18358
# Velocity P-wave (km/s) = 5.84391 6.90909 6.39870
#
# Compressibility (1/GPa) = 0.02547437
#
# Stress axis : x y z
#
# Youngs Moduli (GPa) = 25.98030 31.25049 98.70323
#
# Poissons Ratio (x) = 0.47592 0.55556
# Poissons Ratio (y) = 0.39566 0.66289
# Poissons Ratio (z) = 0.14623 0.20988
#
# Static dielectric constant tensor:
#      x y z
#    x 1.620970 0.000000 0.000000 
#    y 0.000000 1.604750 0.000000 
#    z 0.000000 0.000000 1.611770 
# 
# From -- ./inp_files/11464.got.cif
#   From: 2010.05.17/outbox.cif.g08.bks.cpg/sg44_6_cif.got.tgz:11464.got - 2010.06.03 19:37:08.
