data_PCOD9375637
_publ_section_title
;
Structure prediction by ZEFSAII (Michael W. Deem and Ramdas Pophale) SiO2 
 PCOD9375637
Probable space group: I M M 2
;
_chemical_formula_sum "Si O2"
_cell_formula_units_Z 56
_cell_length_a 8.704324
_cell_length_b 25.086268
_cell_length_c 14.471991
_cell_angle_alpha 90.000000
_cell_angle_beta 90.000000
_cell_angle_gamma 90.000000
_cell_volume 3160.089550
_symmetry_space_group_name_H-M "I M M 2"
_symmetry_group_IT_number 44
_symmetry_cell_setting 'orthorhombic'
loop_
_space_group_symop_operation_xyz
x,y,z
-x,-y,z
-x,y,z
x,-y,z
1/2+x,1/2+y,1/2+z
1/2-x,1/2-y,1/2+z
1/2-x,1/2+y,1/2+z
1/2+x,1/2-y,1/2+z
loop_
_atom_site_type_symbol
_atom_site_label
_atom_site_fract_x
_atom_site_fract_y
_atom_site_fract_z
Si Si1 0.182926 0.786411 0.415190
Si Si2 0.178895 0.837887 0.694614
Si Si3 0.318648 0.320998 0.508371
Si Si4 0.681403 0.111469 0.519161
Si Si5 0.185017 0.000000 0.776233
Si Si6 0.316016 0.500000 0.057286
Si Si7 0.817389 0.607457 0.364312
Si Si8 0.180393 0.772564 0.198714
O O1 0.260013 0.734385 0.461841
O O2 0.245285 0.841008 0.459278
O O3 0.209856 0.787701 0.304702
O O4 0.000000 0.782721 0.430733
O O5 0.276894 0.872665 0.624102
O O6 0.242753 0.849164 0.795800
O O7 0.210694 0.776608 0.673385
O O8 0.000000 0.851788 0.687127
O O9 0.500000 0.325684 0.489065
O O10 0.232253 0.371230 0.464239
O O11 0.297580 0.315863 0.618697
O O12 0.500000 0.110360 0.505208
O O13 0.752804 0.052998 0.508417
O O14 0.229799 0.000000 0.667044
O O15 0.249046 0.948215 0.828814
O O16 0.000000 0.000000 0.779276
O O17 0.500000 0.500000 0.055356
O O18 0.000000 0.606982 0.355630
O O19 0.000000 0.755306 0.192738
#
# Coordination Sequence:
#
# PCOD9375637 Si02
#       8
#     8   8   8   8   4   4   8   8
#     4  11  22  37  58  85 117 155 196 240 289 342
#     4  12  22  33  55  84 117 155 195 237 282 341
#     4  11  22  37  58  85 117 155 196 240 289 342
#     4  12  24  38  57  84 120 156 192 236 291 349
#     4  11  23  39  61  86 114 151 196 238 285 343
#     4  11  23  39  61  86 114 151 196 238 285 343
#     4  12  24  38  57  84 120 156 192 236 291 349
#     4  10  22  38  57  82 117 156 196 239 288 341
#
# _framework density 17.721017
#
# number of rings (size 3 to 8) (size 9 to 14) (size 15 to 20)
#    0.000    0.714    4.286    5.143    0.000    1.714 
#    0.000    0.000    0.000    0.857    0.000    6.000 
#    0.000    0.000    0.000    0.000    0.000    0.000 
#
# Total GULP energy -156455.956952 kJ/mol
# GULP energy per Si atom -5587.712748 kJ/mol
# Density = 1.768068 g / cm^3
# Si number density = 17.721017 Si / 1000 Ang^3
#
#
#
# Elastic Constant Matrix: (Units=GPa)
#
#
# Indices 1 2 3 4 5 6 
#
# 1 46.5568 21.1658 10.3764 0.0000 0.0000 0.0000
# 2 21.1658 79.3159 11.3494 0.0000 0.0000 0.0000
# 3 10.3764 11.3494 61.6379 0.0000 0.0000 0.0000
# 4 0.0000 0.0000 0.0000 30.4558 0.0000 0.0000
# 5 0.0000 0.0000 0.0000 0.0000 21.0609 0.0000
# 6 0.0000 0.0000 0.0000 0.0000 0.0000 22.3812
#
#
#
# Elastic Compliance Matrix: (Units=1/GPa)
#
#
# Indices 1 2 3 4 5 6 
#
# 1 0.024994 -0.006232 -0.003060 0.000000 0.000000 0.000000
# 2 -0.006232 0.014503 -0.001621 0.000000 0.000000 0.000000
# 3 -0.003060 -0.001621 0.017037 0.000000 0.000000 0.000000
# 4 0.000000 0.000000 0.000000 0.032834 0.000000 0.000000
# 5 0.000000 0.000000 0.000000 0.000000 0.047481 0.000000
# 6 0.000000 0.000000 0.000000 0.000000 0.000000 0.044680
#
#
# Mechanical properties :
#
#
# Convention : Reuss Voigt Hill
#
# Bulk Modulus (GPa) = 28.81197 30.36599 29.58898
# Shear Modulus (GPa) = 23.26371 24.42085 23.84228
#
# Velocity S-wave (km/s) = 3.62715 3.71627 3.67198
# Velocity P-wave (km/s) = 5.81684 5.96548 5.89163
#
# Compressibility (1/GPa) = 0.03470780
#
# Stress axis : x y z
#
# Youngs Moduli (GPa) = 40.00898 68.95206 58.69409
#
# Poissons Ratio (x) = 0.42971 0.17962
# Poissons Ratio (y) = 0.24934 0.09516
# Poissons Ratio (z) = 0.12244 0.11179
#
# Static dielectric constant tensor:
#      x y z
#    x 1.592860 0.000000 0.000000 
#    y 0.000000 1.601430 0.000000 
#    z 0.000000 0.000000 1.629300 
# 
# From -- ./inp_files/16577.got.cif
#   From: 2010.05.17/outbox.cif.g08.bks.cpg/sg44_9_cif.got.tgz:16577.got - 2010.06.03 19:37:08.
