data_PCOD9375775
_publ_section_title
;
Structure prediction by ZEFSAII (Michael W. Deem and Ramdas Pophale) SiO2 
 PCOD9375775
Probable space group: I M M 2
;
_chemical_formula_sum "Si O2"
_cell_formula_units_Z 58
_cell_length_a 17.375766
_cell_length_b 20.194130
_cell_length_c 8.155658
_cell_angle_alpha 90.000000
_cell_angle_beta 90.000000
_cell_angle_gamma 90.000000
_cell_volume 2861.726418
_symmetry_space_group_name_H-M "I M M 2"
_symmetry_group_IT_number 44
_symmetry_cell_setting 'orthorhombic'
loop_
_space_group_symop_operation_xyz
x,y,z
-x,-y,z
-x,y,z
x,-y,z
1/2+x,1/2+y,1/2+z
1/2-x,1/2-y,1/2+z
1/2-x,1/2+y,1/2+z
1/2+x,1/2-y,1/2+z
loop_
_atom_site_type_symbol
_atom_site_label
_atom_site_fract_x
_atom_site_fract_y
_atom_site_fract_z
Si Si1 0.415859 0.759715 0.227500
Si Si2 0.911856 0.424555 0.063185
Si Si3 0.215790 0.074957 0.100968
Si Si4 0.500000 0.000000 0.074047
Si Si5 0.376977 0.901322 0.936670
Si Si6 0.141334 0.756608 0.404438
Si Si7 0.211595 0.659032 0.872169
Si Si8 0.587020 0.678762 0.564789
O O1 0.500000 0.790816 0.213293
O O2 0.345480 0.810079 0.238086
O O3 0.412267 0.722769 0.401016
O O4 0.402171 0.715822 0.065701
O O5 0.901819 0.500000 0.998178
O O6 0.904234 0.427015 0.258970
O O7 0.000000 0.403853 0.022012
O O8 0.845989 0.375025 0.000484
O O9 0.240052 0.103217 0.278902
O O10 0.147707 0.120996 0.039214
O O11 0.191102 0.000000 0.113293
O O12 0.289969 0.080567 0.984098
O O13 0.567388 0.059064 0.060823
O O14 0.377316 0.821588 0.914167
O O15 0.229412 0.782764 0.424547
O O16 0.112486 0.781666 0.228169
O O17 0.500000 0.655190 0.589886
#
# Coordination Sequence:
#
# PCOD9375775 Si02
#       8
#     8   8   8   2   8   8   8   8
#     4  11  23  40  62  96 128 162 211 267 319 383
#     4  11  22  40  61  91 128 174 218 267 326 393
#     4  11  23  42  62  90 128 169 216 264 318 388
#     4  12  24  40  60  98 130 172 222 254 304 412
#     4  12  22  40  61  91 127 170 220 253 313 393
#     4  11  25  40  68  94 132 172 211 269 334 378
#     4  11  24  39  60  94 126 167 217 263 326 388
#     4  10  24  44  67  98 126 164 220 274 331 387
#
# _framework density 20.267486000000002
#
# number of rings (size 3 to 8) (size 9 to 14) (size 15 to 20)
#    0.000    0.966    3.448    2.897    7.724    1.379 
#    1.241    0.000    0.000    0.000    0.000    1.931 
#    0.000    0.000    0.000    0.000    0.000    0.000 
#
# Total GULP energy -161636.078826 kJ/mol
# GULP energy per Si atom -5573.657891 kJ/mol
# Density = 2.022136 g / cm^3
# Si number density = 20.267486 Si / 1000 Ang^3
#
#
#
# Elastic Constant Matrix: (Units=GPa)
#
#
# Indices 1 2 3 4 5 6 
#
# 1 136.4309 55.9828 22.2458 0.0000 0.0000 0.0000
# 2 55.9828 101.0220 19.0213 0.0000 0.0000 0.0000
# 3 22.2458 19.0213 81.6724 0.0000 0.0000 0.0000
# 4 0.0000 0.0000 0.0000 16.0002 0.0000 0.0000
# 5 0.0000 0.0000 0.0000 0.0000 29.9876 0.0000
# 6 0.0000 0.0000 0.0000 0.0000 0.0000 -108.5745
#
#
#
# Elastic Compliance Matrix: (Units=1/GPa)
#
#
# Indices 1 2 3 4 5 6 
#
# 1 0.009648 -0.005074 -0.001446 0.000000 0.000000 0.000000
# 2 -0.005074 0.013022 -0.001651 0.000000 0.000000 0.000000
# 3 -0.001446 -0.001651 0.013022 0.000000 0.000000 0.000000
# 4 0.000000 0.000000 0.000000 0.062499 0.000000 0.000000
# 5 0.000000 0.000000 0.000000 0.000000 0.033347 0.000000
# 6 0.000000 0.000000 0.000000 0.000000 0.000000 -0.009210
#
#
# Mechanical properties :
#
#
# Convention : Reuss Voigt Hill
#
# Bulk Modulus (GPa) = 51.67972 57.06944 54.37458
# Shear Modulus (GPa) = 34.45454 2.27437 18.36445
#
# Velocity S-wave (km/s) = 4.12757 1.06048 3.01342
# Velocity P-wave (km/s) = 6.94766 5.45149 6.24454
#
# Compressibility (1/GPa) = 0.01934995
#
# Stress axis : x y z
#
# Youngs Moduli (GPa) = 103.65287 76.79606 76.79111
#
# Poissons Ratio (x) = 0.38967 0.11104
# Poissons Ratio (y) = 0.52594 0.12675
# Poissons Ratio (z) = 0.14989 0.12676
#
# Static dielectric constant tensor:
#      x y z
#    x 1.691970 0.000000 0.000000 
#    y 0.000000 1.750310 0.000000 
#    z 0.000000 0.000000 1.786750 
# 
# From -- ./inp_files/8316.got.cif
#   From: 2010.05.17/outbox.cif.g08.bks.cpg/sg44_5_cif.got.tgz:8316.got - 2010.06.03 19:37:08.
