data_PCOD9375863
_publ_section_title
;
Structure prediction by ZEFSAII (Michael W. Deem and Ramdas Pophale) SiO2 
 PCOD9375863
Probable space group: I M M 2
;
_chemical_formula_sum "Si O2"
_cell_formula_units_Z 48
_cell_length_a 9.433997
_cell_length_b 7.537703
_cell_length_c 36.212173
_cell_angle_alpha 90.000000
_cell_angle_beta 90.000000
_cell_angle_gamma 90.000000
_cell_volume 2575.071793
_symmetry_space_group_name_H-M "I M M 2"
_symmetry_group_IT_number 44
_symmetry_cell_setting 'orthorhombic'
loop_
_space_group_symop_operation_xyz
x,y,z
-x,-y,z
-x,y,z
x,-y,z
1/2+x,1/2+y,1/2+z
1/2-x,1/2-y,1/2+z
1/2-x,1/2+y,1/2+z
1/2+x,1/2-y,1/2+z
loop_
_atom_site_type_symbol
_atom_site_label
_atom_site_fract_x
_atom_site_fract_y
_atom_site_fract_z
Si Si1 0.834573 0.215751 0.058450
Si Si2 0.171653 0.000000 0.427580
Si Si3 0.829186 0.211576 0.793782
Si Si4 0.170003 0.708248 0.485699
Si Si5 0.158445 0.788352 0.711413
Si Si6 0.660861 0.287169 0.639386
Si Si7 0.328098 0.500000 0.841922
O O1 0.784208 0.274891 0.099217
O O2 0.000000 0.265499 0.054772
O O3 0.829050 0.000000 0.058166
O O4 0.744027 0.272655 0.023347
O O5 0.215624 0.827973 0.451172
O O6 0.214392 0.000000 0.385061
O O7 0.000000 0.000000 0.427247
O O8 0.789682 0.270030 0.751828
O O9 0.740405 0.329143 0.822028
O O10 0.000000 0.238783 0.797427
O O11 0.803517 0.000000 0.798096
O O12 0.203183 0.500000 0.480014
O O13 0.000000 0.723288 0.489841
O O14 0.251260 0.753861 0.675660
O O15 0.000000 0.716780 0.705606
O O16 0.148115 0.000000 0.715071
O O17 0.500000 0.221175 0.643443
O O18 0.654902 0.500000 0.636997
O O19 0.500000 0.500000 0.838976
#
# Coordination Sequence:
#
# PCOD9375863 Si02
#       7
#     8   4   8   8   8   8   4
#     4   8  15  30  49  70 101 137 171 211 260 311
#     4   9  20  37  53  79 113 137 169 221 275 327
#     4   9  20  40  61  80 110 151 189 230 282 337
#     4   9  17  32  55  76  98 136 178 215 260 314
#     4   9  19  35  52  72 100 136 179 221 263 313
#     4   9  18  31  48  73 105 138 172 214 264 317
#     4  11  23  37  59  89 117 145 183 233 287 347
#
# _framework density 18.640256999999998
#
# number of rings (size 3 to 8) (size 9 to 14) (size 15 to 20)
#    0.000    3.000    0.000    2.250    1.167    3.000 
#    1.500    7.083    0.000    2.000    0.000    0.000 
#    0.000    0.000    0.000    0.000    0.000    0.000 
#
# Total GULP energy -133745.460408 kJ/mol
# GULP energy per Si atom -5572.727517 kJ/mol
# Density = 1.859783 g / cm^3
# Si number density = 18.640257 Si / 1000 Ang^3
#
#
#
# Elastic Constant Matrix: (Units=GPa)
#
#
# Indices 1 2 3 4 5 6 
#
# 1 45.6582 32.2228 77.2235 0.0000 0.0000 0.0000
# 2 32.2228 78.0003 65.5665 0.0000 0.0000 0.0000
# 3 77.2235 65.5665 226.8343 0.0000 0.0000 0.0000
# 4 0.0000 0.0000 0.0000 42.7283 0.0000 0.0000
# 5 0.0000 0.0000 0.0000 0.0000 34.9101 0.0000
# 6 0.0000 0.0000 0.0000 0.0000 0.0000 24.3063
#
#
#
# Elastic Compliance Matrix: (Units=1/GPa)
#
#
# Indices 1 2 3 4 5 6 
#
# 1 0.056472 -0.009469 -0.016488 0.000000 0.000000 0.000000
# 2 -0.009469 0.018523 -0.002130 0.000000 0.000000 0.000000
# 3 -0.016488 -0.002130 0.010638 0.000000 0.000000 0.000000
# 4 0.000000 0.000000 0.000000 0.023404 0.000000 0.000000
# 5 0.000000 0.000000 0.000000 0.000000 0.028645 0.000000
# 6 0.000000 0.000000 0.000000 0.000000 0.000000 0.041142
#
#
# Mechanical properties :
#
#
# Convention : Reuss Voigt Hill
#
# Bulk Modulus (GPa) = 33.94802 77.83537 55.89169
# Shear Modulus (GPa) = 20.42338 32.08760 26.25549
#
# Velocity S-wave (km/s) = 3.31367 4.15349 3.75712
# Velocity P-wave (km/s) = 5.73518 8.05290 6.99076
#
# Compressibility (1/GPa) = 0.02945680
#
# Stress axis : x y z
#
# Youngs Moduli (GPa) = 17.70794 53.98660 94.00679
#
# Poissons Ratio (x) = 0.51121 1.55000
# Poissons Ratio (y) = 0.16768 0.20027
# Poissons Ratio (z) = 0.29197 0.11501
#
# Static dielectric constant tensor:
#      x y z
#    x 1.636970 0.000000 0.000000 
#    y 0.000000 1.681640 0.000000 
#    z 0.000000 0.000000 1.649470 
# 
# From -- ./inp_files/26963.got.cif
#   From: 2010.05.17/outbox.cif.g08.bks.cpg/sg44_14_cif.got.tgz:26963.got - 2010.06.03 19:37:08.
