data_PCOD9375854
_publ_section_title
;
Structure prediction by ZEFSAII (Michael W. Deem and Ramdas Pophale) SiO2 
 PCOD9375854
Probable space group: I M M 2
;
_chemical_formula_sum "Si O2"
_cell_formula_units_Z 38
_cell_length_a 9.387848
_cell_length_b 11.322402
_cell_length_c 17.417807
_cell_angle_alpha 90.000000
_cell_angle_beta 90.000000
_cell_angle_gamma 90.000000
_cell_volume 1851.390767
_symmetry_space_group_name_H-M "I M M 2"
_symmetry_group_IT_number 44
_symmetry_cell_setting 'orthorhombic'
loop_
_space_group_symop_operation_xyz
x,y,z
-x,-y,z
-x,y,z
x,-y,z
1/2+x,1/2+y,1/2+z
1/2-x,1/2-y,1/2+z
1/2-x,1/2+y,1/2+z
1/2+x,1/2-y,1/2+z
loop_
_atom_site_type_symbol
_atom_site_label
_atom_site_fract_x
_atom_site_fract_y
_atom_site_fract_z
Si Si1 0.500000 0.500000 0.107270
Si Si2 0.500000 0.258357 0.202913
Si Si3 0.832296 0.500000 0.028678
Si Si4 0.296275 0.859902 0.092219
Si Si5 0.000000 0.142509 0.155951
Si Si6 0.000000 0.138777 0.869844
Si Si7 0.742982 0.267666 0.945194
Si Si8 0.000000 0.143413 0.333110
O O1 0.500000 0.382469 0.158203
O O2 0.664877 0.500000 0.068141
O O3 0.629514 0.182329 0.169932
O O4 0.500000 0.284877 0.291980
O O5 0.000000 0.500000 0.063573
O O6 0.821634 0.383080 0.977473
O O7 0.135033 0.823001 0.107000
O O8 0.311892 0.000000 0.082906
O O9 0.341382 0.791436 0.016144
O O10 0.000000 0.182520 0.244100
O O11 0.000000 0.000000 0.160342
O O12 0.140984 0.174294 0.916110
O O13 0.000000 0.000000 0.852562
O O14 0.636976 0.307518 0.878017
O O15 0.000000 0.000000 0.336982
#
# Coordination Sequence:
#
# PCOD9375854 Si02
#       8
#     2   4   4   8   4   4   8   4
#     4  12  24  46  74 100 136 186 230 298 356 410
#     4  12  24  44  68  92 136 176 227 281 355 423
#     4  12  24  44  70 108 136 176 244 292 340 424
#     4  11  23  41  66  97 129 173 227 279 338 417
#     4   9  21  40  60  89 129 168 217 274 343 403
#     4  12  27  45  65  94 137 181 226 287 362 425
#     4  12  23  41  68  98 135 177 226 284 349 417
#     4  11  22  40  67  98 135 171 218 288 351 415
#
# _framework density 20.525110999999999
#
# number of rings (size 3 to 8) (size 9 to 14) (size 15 to 20)
#    0.000    0.632    4.737    4.105    0.000    0.842 
#    3.789    1.579    0.000    0.000    0.000    0.000 
#    0.000    0.000    0.000    0.000    0.000    0.000 
#
# Total GULP energy -105971.800392 kJ/mol
# GULP energy per Si atom -5577.463179 kJ/mol
# Density = 2.047839 g / cm^3
# Si number density = 20.525111 Si / 1000 Ang^3
#
#
#
# Elastic Constant Matrix: (Units=GPa)
#
#
# Indices 1 2 3 4 5 6 
#
# 1 123.5358 2.3920 19.9257 0.0000 0.0000 0.0000
# 2 2.3920 80.4838 20.7212 0.0000 0.0000 0.0000
# 3 19.9257 20.7212 105.4903 0.0000 0.0000 0.0000
# 4 0.0000 0.0000 0.0000 32.5704 0.0000 0.0000
# 5 0.0000 0.0000 0.0000 0.0000 30.4276 0.0000
# 6 0.0000 0.0000 0.0000 0.0000 0.0000 29.0125
#
#
#
# Elastic Compliance Matrix: (Units=1/GPa)
#
#
# Indices 1 2 3 4 5 6 
#
# 1 0.008351 0.000166 -0.001610 0.000000 0.000000 0.000000
# 2 0.000166 0.013090 -0.002603 0.000000 0.000000 0.000000
# 3 -0.001610 -0.002603 0.010295 0.000000 0.000000 0.000000
# 4 0.000000 0.000000 0.000000 0.030703 0.000000 0.000000
# 5 0.000000 0.000000 0.000000 0.000000 0.032865 0.000000
# 6 0.000000 0.000000 0.000000 0.000000 0.000000 0.034468
#
#
# Mechanical properties :
#
#
# Convention : Reuss Voigt Hill
#
# Bulk Modulus (GPa) = 42.29525 43.95420 43.12473
# Shear Modulus (GPa) = 34.30631 36.16682 35.23656
#
# Velocity S-wave (km/s) = 4.09275 4.20226 4.14787
# Velocity P-wave (km/s) = 6.55633 6.70870 6.63295
#
# Compressibility (1/GPa) = 0.02364332
#
# Stress axis : x y z
#
# Youngs Moduli (GPa) = 119.74180 76.39427 97.13539
#
# Poissons Ratio (x) = -0.01271 0.15640
# Poissons Ratio (y) = -0.01992 0.25281
# Poissons Ratio (z) = 0.19280 0.19883
#
# Static dielectric constant tensor:
#      x y z
#    x 1.753160 0.000000 0.000000 
#    y 0.000000 1.691660 0.000000 
#    z 0.000000 0.000000 1.691830 
# 
# From -- ./inp_files/20076.got.cif
#   From: 2010.05.17/outbox.cif.g08.bks.cpg/sg44_11_cif.got.tgz:20076.got - 2010.06.03 19:37:08.
