data_PCOD9375830
_publ_section_title
;
Structure prediction by ZEFSAII (Michael W. Deem and Ramdas Pophale) SiO2 
 PCOD9375830
Probable space group: I M M 2
;
_chemical_formula_sum "Si O2"
_cell_formula_units_Z 56
_cell_length_a 8.549694
_cell_length_b 17.148358
_cell_length_c 19.822028
_cell_angle_alpha 90.000000
_cell_angle_beta 90.000000
_cell_angle_gamma 90.000000
_cell_volume 2906.171223
_symmetry_space_group_name_H-M "I M M 2"
_symmetry_group_IT_number 44
_symmetry_cell_setting 'orthorhombic'
loop_
_space_group_symop_operation_xyz
x,y,z
-x,-y,z
-x,y,z
x,-y,z
1/2+x,1/2+y,1/2+z
1/2-x,1/2-y,1/2+z
1/2-x,1/2+y,1/2+z
1/2+x,1/2-y,1/2+z
loop_
_atom_site_type_symbol
_atom_site_label
_atom_site_fract_x
_atom_site_fract_y
_atom_site_fract_z
Si Si1 0.808882 0.000000 0.132340
Si Si2 0.686309 0.242214 0.291144
Si Si3 0.688515 0.916023 0.359008
Si Si4 0.684092 0.669906 0.664046
Si Si5 0.184131 0.749416 0.537245
Si Si6 0.812879 0.000000 0.974451
Si Si7 0.186000 0.343586 0.405682
Si Si8 0.313138 0.086379 0.519834
O O1 0.757279 0.919697 0.167719
O O2 0.000000 0.000000 0.132223
O O3 0.759044 0.000000 0.053186
O O4 0.500000 0.244531 0.297824
O O5 0.750018 0.161508 0.324167
O O6 0.732336 0.230451 0.213703
O O7 0.753149 0.314052 0.333609
O O8 0.500000 0.916302 0.349624
O O9 0.714889 0.912565 0.439182
O O10 0.749781 0.000000 0.334331
O O11 0.500000 0.670941 0.678174
O O12 0.717054 0.697185 0.588177
O O13 0.224954 0.723090 0.461206
O O14 0.224535 0.839583 0.548778
O O15 0.000000 0.735032 0.547485
O O16 0.755381 0.076618 0.935049
O O17 0.000000 0.000000 0.975975
O O18 0.000000 0.351429 0.402734
O O19 0.500000 0.095479 0.529886
O O20 0.267762 0.000000 0.544605
#
# Coordination Sequence:
#
# PCOD9375830 Si02
#       8
#     4   8   8   8   8   4   8   8
#     4   9  20  37  59  89 125 164 203 246 309 375
#     4  11  22  37  59  86 118 159 203 244 295 360
#     4   8  15  28  48  77 112 146 182 222 266 323
#     4  11  23  40  59  83 121 162 202 248 305 371
#     4  11  22  36  57  86 118 152 196 247 299 358
#     4  11  21  39  67  95 119 154 207 262 313 367
#     4  11  23  39  60  90 124 158 200 252 308 365
#     4   9  17  32  56  83 110 145 189 232 282 343
#
# _framework density 19.269338999999999
#
# number of rings (size 3 to 8) (size 9 to 14) (size 15 to 20)
#    0.000    1.857    2.857    2.786    1.000    1.429 
#    0.000    1.071    1.571    0.000    0.000    0.000 
#    0.000    0.000    0.000    0.000    0.000    0.000 
#
# Total GULP energy -156261.912264 kJ/mol
# GULP energy per Si atom -5580.782581 kJ/mol
# Density = 1.922548 g / cm^3
# Si number density = 19.269339 Si / 1000 Ang^3
#
#
#
# Elastic Constant Matrix: (Units=GPa)
#
#
# Indices 1 2 3 4 5 6 
#
# 1 36.9591 22.3269 16.7259 0.0000 0.0000 0.0000
# 2 22.3269 92.3422 11.9917 0.0000 0.0000 0.0000
# 3 16.7259 11.9917 55.7456 0.0000 0.0000 0.0000
# 4 0.0000 0.0000 0.0000 22.5282 0.0000 0.0000
# 5 0.0000 0.0000 0.0000 0.0000 20.4189 0.0000
# 6 0.0000 0.0000 0.0000 0.0000 0.0000 24.0424
#
#
#
# Elastic Compliance Matrix: (Units=1/GPa)
#
#
# Indices 1 2 3 4 5 6 
#
# 1 0.035672 -0.007443 -0.009102 0.000000 0.000000 0.000000
# 2 -0.007443 0.012693 -0.000497 0.000000 0.000000 0.000000
# 3 -0.009102 -0.000497 0.020777 0.000000 0.000000 0.000000
# 4 0.000000 0.000000 0.000000 0.044389 0.000000 0.000000
# 5 0.000000 0.000000 0.000000 0.000000 0.048974 0.000000
# 6 0.000000 0.000000 0.000000 0.000000 0.000000 0.041593
#
#
# Mechanical properties :
#
#
# Convention : Reuss Voigt Hill
#
# Bulk Modulus (GPa) = 28.52445 31.90398 30.21422
# Shear Modulus (GPa) = 20.01047 22.33141 21.17094
#
# Velocity S-wave (km/s) = 3.22601 3.40797 3.31824
# Velocity P-wave (km/s) = 5.35830 5.66379 5.51316
#
# Compressibility (1/GPa) = 0.03505764
#
# Stress axis : x y z
#
# Youngs Moduli (GPa) = 28.03291 78.78067 48.13103
#
# Poissons Ratio (x) = 0.58637 0.43809
# Poissons Ratio (y) = 0.20865 0.02394
# Poissons Ratio (z) = 0.25516 0.03918
#
# Static dielectric constant tensor:
#      x y z
#    x 1.648050 0.000000 0.000000 
#    y 0.000000 1.689080 0.000000 
#    z 0.000000 0.000000 1.667420 
# 
# From -- ./inp_files/23145.got.cif
#   From: 2010.05.17/outbox.cif.g08.bks.cpg/sg44_12_cif.got.tgz:23145.got - 2010.06.03 19:37:08.
