data_PCOD9375648
_publ_section_title
;
Structure prediction by ZEFSAII (Michael W. Deem and Ramdas Pophale) SiO2 
 PCOD9375648
Probable space group: I M M 2
;
_chemical_formula_sum "Si O2"
_cell_formula_units_Z 34
_cell_length_a 7.670057
_cell_length_b 10.737362
_cell_length_c 19.631773
_cell_angle_alpha 90.000000
_cell_angle_beta 90.000000
_cell_angle_gamma 90.000000
_cell_volume 1616.797803
_symmetry_space_group_name_H-M "I M M 2"
_symmetry_group_IT_number 44
_symmetry_cell_setting 'orthorhombic'
loop_
_space_group_symop_operation_xyz
x,y,z
-x,-y,z
-x,y,z
x,-y,z
1/2+x,1/2+y,1/2+z
1/2-x,1/2-y,1/2+z
1/2-x,1/2+y,1/2+z
1/2+x,1/2-y,1/2+z
loop_
_atom_site_type_symbol
_atom_site_label
_atom_site_fract_x
_atom_site_fract_y
_atom_site_fract_z
Si Si1 0.289643 0.361261 0.814720
Si Si2 0.702586 0.137810 0.560323
Si Si3 0.795959 0.361350 0.657020
Si Si4 0.500000 0.500000 0.472653
Si Si5 0.199868 0.298625 0.441276
O O1 0.500000 0.361750 0.812321
O O2 0.231801 0.500000 0.836655
O O3 0.225019 0.343026 0.737842
O O4 0.241348 0.255263 0.868150
O O5 0.500000 0.130811 0.541936
O O6 0.719607 0.245290 0.616856
O O7 0.802873 0.184091 0.493973
O O8 0.759136 0.000000 0.583468
O O9 0.721407 0.500000 0.640231
O O10 0.000000 0.365011 0.639925
O O11 0.344332 0.392947 0.468610
O O12 0.000000 0.346964 0.436447
#
# Coordination Sequence:
#
# PCOD9375648 Si02
#       5
#     8   8   8   2   8
#     4   9  19  39  65  93 122 164 214 269 326 387
#     4  11  24  42  64  94 129 171 218 273 332 389
#     4  10  22  38  62  93 127 168 217 269 325 390
#     4  12  26  44  62 102 128 180 212 274 332 394
#     4  11  24  43  68  95 131 170 222 271 327 391
#
# _framework density 21.029223999999999
#
# number of rings (size 3 to 8) (size 9 to 14) (size 15 to 20)
#    0.000    1.647    1.176    2.471    3.294    4.235 
#    2.118    0.000    0.000    0.000    0.000    0.000 
#    0.000    0.000    0.000    0.000    0.000    0.000 
#
# Total GULP energy -94690.256211 kJ/mol
# GULP energy per Si atom -5570.015071 kJ/mol
# Density = 2.098136 g / cm^3
# Si number density = 21.029224 Si / 1000 Ang^3
#
#
#
# Elastic Constant Matrix: (Units=GPa)
#
#
# Indices 1 2 3 4 5 6 
#
# 1 92.6853 32.6097 -2.2441 0.0000 0.0000 0.0000
# 2 32.6097 150.5982 49.7228 0.0000 0.0000 0.0000
# 3 -2.2441 49.7228 57.2700 0.0000 0.0000 0.0000
# 4 0.0000 0.0000 0.0000 -9.1865 0.0000 0.0000
# 5 0.0000 0.0000 0.0000 0.0000 20.3304 0.0000
# 6 0.0000 0.0000 0.0000 0.0000 0.0000 4.9437
#
#
#
# Elastic Compliance Matrix: (Units=1/GPa)
#
#
# Indices 1 2 3 4 5 6 
#
# 1 0.012273 -0.003948 0.003909 0.000000 0.000000 0.000000
# 2 -0.003948 0.010579 -0.009339 0.000000 0.000000 0.000000
# 3 0.003909 -0.009339 0.025723 0.000000 0.000000 0.000000
# 4 0.000000 0.000000 0.000000 -0.108855 0.000000 0.000000
# 5 0.000000 0.000000 0.000000 0.000000 0.049188 0.000000
# 6 0.000000 0.000000 0.000000 0.000000 0.000000 0.202279
#
#
# Mechanical properties :
#
#
# Convention : Reuss Voigt Hill
#
# Bulk Modulus (GPa) = 33.53783 51.19224 42.36504
# Shear Modulus (GPa) = 22.73954 17.91518 20.32736
#
# Velocity S-wave (km/s) = 3.29193 2.92193 3.11243
# Velocity P-wave (km/s) = 5.51651 5.98162 5.75377
#
# Compressibility (1/GPa) = 0.02981708
#
# Stress axis : x y z
#
# Youngs Moduli (GPa) = 81.48048 94.53068 38.87607
#
# Poissons Ratio (x) = 0.37321 -0.15195
# Poissons Ratio (y) = 0.32169 0.36307
# Poissons Ratio (z) = -0.31848 0.88284
#
# Static dielectric constant tensor:
#      x y z
#    x 1.763160 0.000000 0.000000 
#    y 0.000000 1.798150 0.000000 
#    z 0.000000 0.000000 1.742610 
# 
# From -- ./inp_files/22553.got.cif
#   From: 2010.05.17/outbox.cif.g08.bks.cpg/sg44_12_cif.got.tgz:22553.got - 2010.06.03 19:37:08.
