data_PCOD9375444
_publ_section_title
;
Structure prediction by ZEFSAII (Michael W. Deem and Ramdas Pophale) SiO2 
 PCOD9375444
Probable space group: I M M 2
;
_chemical_formula_sum "Si O2"
_cell_formula_units_Z 56
_cell_length_a 20.461136
_cell_length_b 15.247544
_cell_length_c 10.183031
_cell_angle_alpha 90.000000
_cell_angle_beta 90.000000
_cell_angle_gamma 90.000000
_cell_volume 3176.923105
_symmetry_space_group_name_H-M "I M M 2"
_symmetry_group_IT_number 44
_symmetry_cell_setting 'orthorhombic'
loop_
_space_group_symop_operation_xyz
x,y,z
-x,-y,z
-x,y,z
x,-y,z
1/2+x,1/2+y,1/2+z
1/2-x,1/2-y,1/2+z
1/2-x,1/2+y,1/2+z
1/2+x,1/2-y,1/2+z
loop_
_atom_site_type_symbol
_atom_site_label
_atom_site_fract_x
_atom_site_fract_y
_atom_site_fract_z
Si Si1 0.073122 0.103472 0.928670
Si Si2 0.750481 0.319696 0.850098
Si Si3 0.799352 0.098769 0.084117
Si Si4 0.772622 0.097927 0.618055
Si Si5 0.922736 0.400173 0.555808
Si Si6 0.191826 0.363371 0.367454
Si Si7 0.627613 0.261605 0.234072
O O1 0.079578 0.171657 0.808731
O O2 0.000000 0.108935 0.983587
O O3 0.084231 0.000000 0.891912
O O4 0.130344 0.127829 0.030485
O O5 0.731651 0.350382 0.704799
O O6 0.700849 0.240704 0.879544
O O7 0.823316 0.281539 0.839940
O O8 0.746713 0.388468 0.967192
O O9 0.807698 0.000000 0.130916
O O10 0.748791 0.100471 0.963246
O O11 0.712549 0.110646 0.720219
O O12 0.825063 0.172895 0.652982
O O13 0.798821 0.000000 0.639132
O O14 0.910814 0.500000 0.609711
O O15 0.876999 0.392127 0.426974
O O16 0.902094 0.319010 0.650591
O O17 0.000000 0.393306 0.528716
#
# Coordination Sequence:
#
# PCOD9375444 Si02
#       7
#     8   8   8   8   8   8   8
#     4  10  21  37  60  89 120 156 196 238 290 356
#     4  11  21  34  57  87 120 150 187 240 293 346
#     4  11  20  35  59  86 114 151 195 235 284 346
#     4  11  21  34  58  92 119 147 188 241 297 348
#     4  11  23  39  60  85 115 158 205 244 288 345
#     4  11  20  37  58  85 114 150 196 242 282 339
#     4  11  21  36  59  85 120 153 190 244 292 349
#
# _framework density 17.627117999999999
#
# number of rings (size 3 to 8) (size 9 to 14) (size 15 to 20)
#    0.000    1.143    5.714    3.429    0.000    0.571 
#    0.000    0.714    0.000    0.000    0.000    2.000 
#    0.000    0.000    0.000    0.000    0.000    0.000 
#
# Total GULP energy -156045.257989 kJ/mol
# GULP energy per Si atom -5573.044928 kJ/mol
# Density = 1.758700 g / cm^3
# Si number density = 17.627118 Si / 1000 Ang^3
#
#
#
# Elastic Constant Matrix: (Units=GPa)
#
#
# Indices 1 2 3 4 5 6 
#
# 1 95.2369 28.6689 24.0172 0.0000 0.0000 0.0000
# 2 28.6689 100.9751 32.7651 0.0000 0.0000 0.0000
# 3 24.0172 32.7651 65.7504 0.0000 0.0000 0.0000
# 4 0.0000 0.0000 0.0000 28.2718 0.0000 0.0000
# 5 0.0000 0.0000 0.0000 0.0000 21.0590 0.0000
# 6 0.0000 0.0000 0.0000 0.0000 0.0000 26.8781
#
#
#
# Elastic Compliance Matrix: (Units=1/GPa)
#
#
# Indices 1 2 3 4 5 6 
#
# 1 0.012024 -0.002372 -0.003210 0.000000 0.000000 0.000000
# 2 -0.002372 0.012282 -0.005254 0.000000 0.000000 0.000000
# 3 -0.003210 -0.005254 0.019000 0.000000 0.000000 0.000000
# 4 0.000000 0.000000 0.000000 0.035371 0.000000 0.000000
# 5 0.000000 0.000000 0.000000 0.000000 0.047486 0.000000
# 6 0.000000 0.000000 0.000000 0.000000 0.000000 0.037205
#
#
# Mechanical properties :
#
#
# Convention : Reuss Voigt Hill
#
# Bulk Modulus (GPa) = 46.22495 48.09610 47.16052
# Shear Modulus (GPa) = 26.00787 27.00919 26.50853
#
# Velocity S-wave (km/s) = 3.84532 3.91865 3.88216
# Velocity P-wave (km/s) = 6.78204 6.91512 6.84890
#
# Compressibility (1/GPa) = 0.02163334
#
# Stress axis : x y z
#
# Youngs Moduli (GPa) = 83.16901 81.42170 52.63260
#
# Poissons Ratio (x) = 0.19315 0.16894
# Poissons Ratio (y) = 0.19730 0.27652
# Poissons Ratio (z) = 0.26696 0.42777
#
# Static dielectric constant tensor:
#      x y z
#    x 1.592780 0.000000 0.000000 
#    y 0.000000 1.639960 0.000000 
#    z 0.000000 0.000000 1.606900 
# 
# From -- ./inp_files/8926.got.cif
#   From: 2010.05.17/outbox.cif.g08.bks.cpg/sg44_5_cif.got.tgz:8926.got - 2010.06.03 19:37:08.
