data_PCOD9375120
_publ_section_title
;
Structure prediction by ZEFSAII (Michael W. Deem and Ramdas Pophale) SiO2 
 PCOD9375120
Probable space group: I M M 2
;
_chemical_formula_sum "Si O2"
_cell_formula_units_Z 64
_cell_length_a 13.705011
_cell_length_b 23.982175
_cell_length_c 9.026077
_cell_angle_alpha 90.000000
_cell_angle_beta 90.000000
_cell_angle_gamma 90.000000
_cell_volume 2966.654633
_symmetry_space_group_name_H-M "I M M 2"
_symmetry_group_IT_number 44
_symmetry_cell_setting 'orthorhombic'
loop_
_space_group_symop_operation_xyz
x,y,z
-x,-y,z
-x,y,z
x,-y,z
1/2+x,1/2+y,1/2+z
1/2-x,1/2-y,1/2+z
1/2-x,1/2+y,1/2+z
1/2+x,1/2-y,1/2+z
loop_
_atom_site_type_symbol
_atom_site_label
_atom_site_fract_x
_atom_site_fract_y
_atom_site_fract_z
Si Si1 0.766416 0.436294 0.580060
Si Si2 0.391225 0.326579 0.271842
Si Si3 0.112729 0.063546 0.584494
Si Si4 0.257621 0.240554 0.108036
Si Si5 0.113524 0.656273 0.419561
Si Si6 0.109994 0.848787 0.120735
Si Si7 0.391022 0.171153 0.565334
Si Si8 0.310823 0.062648 0.415070
O O1 0.757711 0.500000 0.532982
O O2 0.825916 0.398689 0.464881
O O3 0.661787 0.408505 0.614785
O O4 0.820603 0.433572 0.738631
O O5 0.500000 0.312034 0.220051
O O6 0.368420 0.387553 0.202827
O O7 0.318367 0.280318 0.214631
O O8 0.392209 0.331621 0.447792
O O9 0.196588 0.069038 0.461127
O O10 0.000000 0.069781 0.532306
O O11 0.120694 0.000000 0.644553
O O12 0.185221 0.196180 0.188112
O O13 0.188173 0.283360 0.020112
O O14 0.331198 0.205476 0.006495
O O15 0.115820 0.665548 0.243437
O O16 0.000000 0.652225 0.463838
O O17 0.000000 0.847609 0.180175
O O18 0.500000 0.190178 0.526856
O O19 0.368763 0.111736 0.493596
O O20 0.340167 0.000000 0.461877
#
# Coordination Sequence:
#
# PCOD9375120 Si02
#       8
#     8   8   8   8   8   8   8   8
#     4  10  23  41  64  94 127 164 201 247 309 371
#     4  10  20  37  61  90 122 158 201 252 310 366
#     4   9  18  34  59  90 121 155 200 250 301 362
#     4  11  20  37  60  87 121 159 198 252 305 362
#     4  10  24  44  66  92 123 159 206 257 307 364
#     4  10  23  40  60  89 125 162 204 253 305 365
#     4  11  24  43  65  91 122 163 210 258 305 359
#     4  10  22  40  62  91 127 164 204 250 307 369
#
# _framework density 21.573119999999999
#
# number of rings (size 3 to 8) (size 9 to 14) (size 15 to 20)
#    0.000    1.875    1.250    2.250    0.000    6.750 
#    0.000    5.000    0.000    0.000    0.000    0.000 
#    0.000    0.000    0.000    0.000    0.000    0.000 
#
# Total GULP energy -178871.543839 kJ/mol
# GULP energy per Si atom -5589.735745 kJ/mol
# Density = 2.152402 g / cm^3
# Si number density = 21.573120 Si / 1000 Ang^3
#
#
#
# Elastic Constant Matrix: (Units=GPa)
#
#
# Indices 1 2 3 4 5 6 
#
# 1 123.0855 55.0358 16.0029 0.0003 -0.0001 0.0000
# 2 55.0358 130.1996 23.3805 0.0002 -0.0001 0.0000
# 3 16.0029 23.3805 31.1545 0.0022 -0.0002 0.0000
# 4 0.0003 0.0002 0.0022 22.8659 -0.0001 -0.0001
# 5 -0.0001 -0.0001 -0.0002 -0.0001 21.0752 -0.0001
# 6 0.0000 0.0000 0.0000 -0.0001 -0.0001 22.1835
#
#
#
# Elastic Compliance Matrix: (Units=1/GPa)
#
#
# Indices 1 2 3 4 5 6 
#
# 1 0.010159 -0.003880 -0.002306 0.000000 0.000000 0.000000
# 2 -0.003880 0.010359 -0.005781 0.000001 0.000000 0.000000
# 3 -0.002306 -0.005781 0.037621 -0.000004 0.000000 0.000000
# 4 0.000000 0.000001 -0.000004 0.043733 0.000000 0.000000
# 5 0.000000 0.000000 0.000000 0.000000 0.047449 0.000000
# 6 0.000000 0.000000 0.000000 0.000000 0.000000 0.045078
#
#
# Mechanical properties :
#
#
# Convention : Reuss Voigt Hill
#
# Bulk Modulus (GPa) = 29.23614 52.58645 40.91130
# Shear Modulus (GPa) = 21.76406 25.89295 23.82851
#
# Velocity S-wave (km/s) = 3.17969 3.46821 3.32708
# Velocity P-wave (km/s) = 5.20212 6.36135 5.81072
#
# Compressibility (1/GPa) = 0.03420425
#
# Stress axis : x y z
#
# Youngs Moduli (GPa) = 98.43231 96.53655 26.58074
#
# Poissons Ratio (x) = 0.37458 0.06131
# Poissons Ratio (y) = 0.38193 0.15366
# Poissons Ratio (z) = 0.22703 0.55806
#
# Static dielectric constant tensor:
#      x y z
#    x 1.812900 0.000000 0.000000 
#    y 0.000000 1.776970 0.000000 
#    z 0.000000 0.000000 1.773270 
# 
# From -- ./inp_files/7582.got.cif
#   From: 2010.05.17/outbox.cif.g08.bks.cpg/sg44_4_cif.got.tgz:7582.got - 2010.06.03 19:37:08.
