data_PCOD9375889
_publ_section_title
;
Structure prediction by ZEFSAII (Michael W. Deem and Ramdas Pophale) SiO2 
 PCOD9375889
Probable space group: I M M 2
;
_chemical_formula_sum "Si O2"
_cell_formula_units_Z 32
_cell_length_a 11.499830
_cell_length_b 23.140815
_cell_length_c 5.152678
_cell_angle_alpha 90.000000
_cell_angle_beta 90.000000
_cell_angle_gamma 90.000000
_cell_volume 1371.207166
_symmetry_space_group_name_H-M "I M M 2"
_symmetry_group_IT_number 44
_symmetry_cell_setting 'orthorhombic'
loop_
_space_group_symop_operation_xyz
x,y,z
-x,-y,z
-x,y,z
x,-y,z
1/2+x,1/2+y,1/2+z
1/2-x,1/2-y,1/2+z
1/2-x,1/2+y,1/2+z
1/2+x,1/2-y,1/2+z
loop_
_atom_site_type_symbol
_atom_site_label
_atom_site_fract_x
_atom_site_fract_y
_atom_site_fract_z
Si Si1 0.282963 0.093611 0.793830
Si Si2 0.715901 0.723873 0.297206
Si Si3 0.500000 0.861781 0.047819
Si Si4 0.864065 0.000000 0.037525
Si Si5 0.866268 0.500000 0.897785
Si Si6 0.500000 0.219367 0.539870
O O1 0.241851 0.157920 0.725848
O O2 0.380898 0.102086 0.015976
O O3 0.350108 0.056327 0.580453
O O4 0.169536 0.056964 0.873600
O O5 0.806336 0.744708 0.522105
O O6 0.607436 0.739012 0.482024
O O7 0.500000 0.817805 0.801267
O O8 0.500000 0.828742 0.316081
O O9 0.754932 0.000000 0.236611
O O10 0.000000 0.000000 0.118881
O O11 0.000000 0.500000 0.794997
#
# Coordination Sequence:
#
# PCOD9375889 Si02
#       6
#     8   8   4   4   4   4
#     4  11  26  46  74 106 147 194 253 319 381 453
#     4  12  25  44  71 110 147 193 236 300 379 458
#     4  12  24  43  80 114 148 183 252 326 374 450
#     4  11  30  52  71 105 153 206 255 317 392 471
#     4  11  26  46  79 109 141 196 273 327 384 435
#     4  12  24  44  68 114 154 192 242 304 380 464
#
# _framework density 23.3371
#
# number of rings (size 3 to 8) (size 9 to 14) (size 15 to 20)
#    0.000    0.500    6.250    0.000   10.500    2.000 
#    0.000    0.000    0.000    0.000    0.000    0.000 
#    0.000    0.000    0.000    0.000    0.000    0.000 
#
# Total GULP energy -89246.322535 kJ/mol
# GULP energy per Si atom -5577.895158 kJ/mol
# Density = 2.328398 g / cm^3
# Si number density = 23.337100 Si / 1000 Ang^3
#
#
#
# Elastic Constant Matrix: (Units=GPa)
#
#
# Indices 1 2 3 4 5 6 
#
# 1 150.7212 36.9109 31.6043 -0.0019 -0.0013 -0.0009
# 2 36.9109 162.1742 50.1694 0.0054 0.0050 0.0110
# 3 31.6043 50.1694 117.2031 -0.0102 0.0188 0.0177
# 4 -0.0019 0.0054 -0.0102 33.9643 0.0096 0.0244
# 5 -0.0013 0.0050 0.0188 0.0096 32.9613 0.0034
# 6 -0.0009 0.0110 0.0177 0.0244 0.0034 30.0189
#
#
#
# Elastic Compliance Matrix: (Units=1/GPa)
#
#
# Indices 1 2 3 4 5 6 
#
# 1 0.007230 -0.001202 -0.001435 0.000000 0.000001 0.000002
# 2 -0.001202 0.007307 -0.002804 -0.000002 0.000000 -0.000001
# 3 -0.001435 -0.002804 0.010119 0.000003 -0.000005 -0.000005
# 4 0.000000 -0.000002 0.000003 0.029443 -0.000009 -0.000024
# 5 0.000001 0.000000 -0.000005 -0.000009 0.030339 -0.000003
# 6 0.000002 -0.000001 -0.000005 -0.000024 -0.000003 0.033312
#
#
# Mechanical properties :
#
#
# Convention : Reuss Voigt Hill
#
# Bulk Modulus (GPa) = 72.59428 74.16307 73.37867
# Shear Modulus (GPa) = 37.53103 40.14983 38.84043
#
# Velocity S-wave (km/s) = 4.01460 4.15231 4.08404
# Velocity P-wave (km/s) = 7.25698 7.40519 7.33146
#
# Compressibility (1/GPa) = 0.01377519
#
# Stress axis : x y z
#
# Youngs Moduli (GPa) = 138.31306 136.85402 98.81990
#
# Poissons Ratio (x) = 0.16443 0.14183
# Poissons Ratio (y) = 0.16619 0.27707
# Poissons Ratio (z) = 0.19852 0.38372
#
# Static dielectric constant tensor:
#      x y z
#    x 2.074280 0.000010 0.000020 
#    y 0.000010 1.877380 -0.000020 
#    z 0.000020 -0.000020 1.951210 
# 
# From -- ./inp_files/961.got.cif
#   From: 2010.05.17/outbox.cif.g08.bks.cpg/sg44_1_cif.got.tgz:961.got - 2010.06.03 19:37:08.
