data_PCOD9375096
_publ_section_title
;
Structure prediction by ZEFSAII (Michael W. Deem and Ramdas Pophale) SiO2 
 PCOD9375096
Probable space group: I M M 2
;
_chemical_formula_sum "Si O2"
_cell_formula_units_Z 48
_cell_length_a 20.819254
_cell_length_b 8.878429
_cell_length_c 14.756542
_cell_angle_alpha 90.000000
_cell_angle_beta 90.000000
_cell_angle_gamma 90.000000
_cell_volume 2727.632698
_symmetry_space_group_name_H-M "I M M 2"
_symmetry_group_IT_number 44
_symmetry_cell_setting 'orthorhombic'
loop_
_space_group_symop_operation_xyz
x,y,z
-x,-y,z
-x,y,z
x,-y,z
1/2+x,1/2+y,1/2+z
1/2-x,1/2-y,1/2+z
1/2-x,1/2+y,1/2+z
1/2+x,1/2-y,1/2+z
loop_
_atom_site_type_symbol
_atom_site_label
_atom_site_fract_x
_atom_site_fract_y
_atom_site_fract_z
Si Si1 0.374948 0.820361 0.748400
Si Si2 0.073992 0.819780 0.063694
Si Si3 0.573121 0.320404 0.931869
Si Si4 0.732839 0.180213 0.245110
Si Si5 0.686399 0.319062 0.425965
Si Si6 0.313001 0.819536 0.044303
O O1 0.407378 0.763634 0.656012
O O2 0.411534 0.754951 0.835344
O O3 0.302437 0.757530 0.750785
O O4 0.374091 0.000000 0.752528
O O5 0.000000 0.790159 0.039731
O O6 0.081265 0.000000 0.079259
O O7 0.124022 0.778354 0.984897
O O8 0.500000 0.285006 0.958962
O O9 0.579187 0.500000 0.922224
O O10 0.625463 0.260984 0.002607
O O11 0.691970 0.236870 0.330292
O O12 0.701173 0.218751 0.148585
O O13 0.741329 0.000000 0.248402
O O14 0.686180 0.500000 0.412209
O O15 0.749868 0.281711 0.484930
O O16 0.321732 0.000000 0.037786
#
# Coordination Sequence:
#
# PCOD9375096 Si02
#       6
#     8   8   8   8   8   8
#     4  12  23  35  57  88 121 153 187 237 291 342
#     4  10  21  39  61  84 117 158 193 232 285 343
#     4  11  24  40  59  85 117 153 193 237 287 345
#     4  11  22  38  60  87 117 151 193 238 285 340
#     4  10  20  37  59  87 118 150 193 238 283 337
#     4  10  21  38  60  85 116 152 191 238 287 337
#
# _framework density 17.597677000000001
#
# number of rings (size 3 to 8) (size 9 to 14) (size 15 to 20)
#    0.000    1.333    3.333    3.000    0.000    5.667 
#    0.000    0.833    0.000    3.000    0.000    0.000 
#    0.000    0.000    0.000    0.000    0.000    0.000 
#
# Total GULP energy -134145.010214 kJ/mol
# GULP energy per Si atom -5589.375426 kJ/mol
# Density = 1.755762 g / cm^3
# Si number density = 17.597677 Si / 1000 Ang^3
#
#
#
# Elastic Constant Matrix: (Units=GPa)
#
#
# Indices 1 2 3 4 5 6 
#
# 1 138.0878 57.5561 63.0186 0.0000 0.0000 0.0000
# 2 57.5561 53.4254 52.3133 0.0000 0.0000 0.0000
# 3 63.0186 52.3133 127.2330 0.0000 0.0000 0.0000
# 4 0.0000 0.0000 0.0000 34.7006 0.0000 0.0000
# 5 0.0000 0.0000 0.0000 0.0000 -8.0195 0.0000
# 6 0.0000 0.0000 0.0000 0.0000 0.0000 24.9975
#
#
#
# Elastic Compliance Matrix: (Units=1/GPa)
#
#
# Indices 1 2 3 4 5 6 
#
# 1 0.013245 -0.013133 -0.001161 0.000000 0.000000 0.000000
# 2 -0.013133 0.044353 -0.011732 0.000000 0.000000 0.000000
# 3 -0.001161 -0.011732 0.013258 0.000000 0.000000 0.000000
# 4 0.000000 0.000000 0.000000 0.028818 0.000000 0.000000
# 5 0.000000 0.000000 0.000000 0.000000 -0.124696 0.000000
# 6 0.000000 0.000000 0.000000 0.000000 0.000000 0.040004
#
#
# Mechanical properties :
#
#
# Convention : Reuss Voigt Hill
#
# Bulk Modulus (GPa) = 53.17357 73.83579 63.50468
# Shear Modulus (GPa) = 68.21132 20.05963 44.13548
#
# Velocity S-wave (km/s) = 6.23263 3.37991 5.01346
# Velocity P-wave (km/s) = 9.05959 7.56839 8.34735
#
# Compressibility (1/GPa) = 0.01880634
#
# Stress axis : x y z
#
# Youngs Moduli (GPa) = 75.49808 22.54618 75.42568
#
# Poissons Ratio (x) = 0.29610 0.08755
# Poissons Ratio (y) = 0.99151 0.88487
# Poissons Ratio (z) = 0.08763 0.26450
#
# Static dielectric constant tensor:
#      x y z
#    x 1.585510 0.000000 0.000000 
#    y 0.000000 1.589650 0.000000 
#    z 0.000000 0.000000 1.574050 
# 
# From -- ./inp_files/16070.got.cif
#   From: 2010.05.17/outbox.cif.g08.bks.cpg/sg44_9_cif.got.tgz:16070.got - 2010.06.03 19:37:08.
