data_PCOD9375019
_publ_section_title
;
Structure prediction by ZEFSAII (Michael W. Deem and Ramdas Pophale) SiO2 
 PCOD9375019
Probable space group: I M M 2
;
_chemical_formula_sum "Si O2"
_cell_formula_units_Z 52
_cell_length_a 34.270580
_cell_length_b 7.537838
_cell_length_c 7.942370
_cell_angle_alpha 90.000000
_cell_angle_beta 90.000000
_cell_angle_gamma 90.000000
_cell_volume 2051.721310
_symmetry_space_group_name_H-M "I M M 2"
_symmetry_group_IT_number 44
_symmetry_cell_setting 'orthorhombic'
loop_
_space_group_symop_operation_xyz
x,y,z
-x,-y,z
-x,y,z
x,-y,z
1/2+x,1/2+y,1/2+z
1/2-x,1/2-y,1/2+z
1/2-x,1/2+y,1/2+z
1/2+x,1/2-y,1/2+z
loop_
_atom_site_type_symbol
_atom_site_label
_atom_site_fract_x
_atom_site_fract_y
_atom_site_fract_z
Si Si1 0.619168 0.290952 0.543950
Si Si2 0.762069 0.787672 0.924176
Si Si3 0.689299 0.287653 0.742524
Si Si4 0.610803 0.000000 0.094784
Si Si5 0.667768 0.288246 0.199262
Si Si6 0.953950 0.801965 0.565087
Si Si7 0.957821 0.703437 0.188729
O O1 0.614121 0.500000 0.564562
O O2 0.646344 0.219790 0.696510
O O3 0.642230 0.262490 0.372154
O O4 0.576464 0.214198 0.555909
O O5 0.716965 0.740253 0.901598
O O6 0.789416 0.731651 0.766902
O O7 0.764903 0.000000 0.928992
O O8 0.783431 0.717549 0.089952
O O9 0.685936 0.500000 0.726578
O O10 0.645056 0.843294 0.077107
O O11 0.576934 0.844474 0.119114
O O12 0.666945 0.500000 0.157068
O O13 0.950053 0.807153 0.360621
O O14 0.000000 0.761798 0.598053
O O15 0.945246 0.000000 0.632122
O O16 0.959225 0.500000 0.246900
O O17 0.000000 0.754659 0.119293
#
# Coordination Sequence:
#
# PCOD9375019 Si02
#       7
#     8   8   8   4   8   8   8
#     4   9  19  38  59  83 116 155 193 243 301 358
#     4   9  19  38  56  81 116 157 195 243 298 355
#     4   9  19  36  58  81 116 154 198 245 296 357
#     4  12  21  36  60  88 110 156 204 246 285 356
#     4   9  21  39  58  82 120 159 198 241 299 353
#     4  10  21  39  61  84 117 157 194 243 303 356
#     4  10  20  36  59  87 117 149 192 246 303 359
#
# _framework density 25.344571999999999
#
# number of rings (size 3 to 8) (size 9 to 14) (size 15 to 20)
#    0.000    2.462    0.769    3.000    2.154    2.154 
#    5.538    1.538    0.000    1.846    0.000    0.000 
#    0.000    0.000    0.000    0.000    0.000    0.000 
#
# Total GULP energy -144803.933082 kJ/mol
# GULP energy per Si atom -5569.382042 kJ/mol
# Density = 2.528689 g / cm^3
# Si number density = 25.344572 Si / 1000 Ang^3
#
#
#
# Elastic Constant Matrix: (Units=GPa)
#
#
# Indices 1 2 3 4 5 6 
#
# 1 162.1926 23.8400 7.2155 0.0000 0.0000 0.0000
# 2 23.8400 73.1487 1.1441 0.0000 0.0000 0.0000
# 3 7.2155 1.1441 47.9224 0.0000 0.0000 0.0000
# 4 0.0000 0.0000 0.0000 -15.2985 0.0000 0.0000
# 5 0.0000 0.0000 0.0000 0.0000 22.7160 0.0000
# 6 0.0000 0.0000 0.0000 0.0000 0.0000 132.0461
#
#
#
# Elastic Compliance Matrix: (Units=1/GPa)
#
#
# Indices 1 2 3 4 5 6 
#
# 1 0.006517 -0.002109 -0.000931 0.000000 0.000000 0.000000
# 2 -0.002109 0.014359 -0.000025 0.000000 0.000000 0.000000
# 3 -0.000931 -0.000025 0.021008 0.000000 0.000000 0.000000
# 4 0.000000 0.000000 0.000000 -0.065366 0.000000 0.000000
# 5 0.000000 0.000000 0.000000 0.000000 0.044022 0.000000
# 6 0.000000 0.000000 0.000000 0.000000 0.000000 0.007573
#
#
# Mechanical properties :
#
#
# Convention : Reuss Voigt Hill
#
# Bulk Modulus (GPa) = 27.97005 38.62919 33.29962
# Shear Modulus (GPa) = 108.31698 44.63034 76.47366
#
# Velocity S-wave (km/s) = 6.54450 4.20091 5.49901
# Velocity P-wave (km/s) = 8.25635 6.22936 7.31342
#
# Compressibility (1/GPa) = 0.03575253
#
# Stress axis : x y z
#
# Youngs Moduli (GPa) = 153.44551 69.64443 47.60126
#
# Poissons Ratio (x) = 0.14691 0.04431
# Poissons Ratio (y) = 0.32368 0.00120
# Poissons Ratio (z) = 0.14284 0.00176
#
# Static dielectric constant tensor:
#      x y z
#    x 2.020170 0.000000 0.000000 
#    y 0.000000 1.940130 0.000000 
#    z 0.000000 0.000000 2.185130 
# 
# From -- ./inp_files/14811.got.cif
#   From: 2010.05.17/outbox.cif.g08.bks.cpg/sg44_8_cif.got.tgz:14811.got - 2010.06.03 19:37:08.
