data_PCOD9375604
_publ_section_title
;
Structure prediction by ZEFSAII (Michael W. Deem and Ramdas Pophale) SiO2 
 PCOD9375604
Probable space group: I M M 2
;
_chemical_formula_sum "Si O2"
_cell_formula_units_Z 58
_cell_length_a 17.234481
_cell_length_b 25.919757
_cell_length_c 5.215707
_cell_angle_alpha 90.000000
_cell_angle_beta 90.000000
_cell_angle_gamma 90.000000
_cell_volume 2329.927039
_symmetry_space_group_name_H-M "I M M 2"
_symmetry_group_IT_number 44
_symmetry_cell_setting 'orthorhombic'
loop_
_space_group_symop_operation_xyz
x,y,z
-x,-y,z
-x,y,z
x,-y,z
1/2+x,1/2+y,1/2+z
1/2-x,1/2-y,1/2+z
1/2-x,1/2+y,1/2+z
1/2+x,1/2-y,1/2+z
loop_
_atom_site_type_symbol
_atom_site_label
_atom_site_fract_x
_atom_site_fract_y
_atom_site_fract_z
Si Si1 0.190233 0.639444 0.162550
Si Si2 0.586652 0.340797 0.472199
Si Si3 0.911857 0.590217 0.796874
Si Si4 0.612266 0.554947 0.766243
Si Si5 0.589437 0.798625 0.030832
Si Si6 0.664913 0.694605 0.976013
Si Si7 0.000000 0.000000 0.588934
Si Si8 0.731988 0.944329 0.021795
O O1 0.126540 0.677728 0.275729
O O2 0.248517 0.672499 0.991105
O O3 0.242245 0.609058 0.370728
O O4 0.139323 0.593018 0.049565
O O5 0.500000 0.318852 0.470947
O O6 0.584924 0.397209 0.601655
O O7 0.616631 0.339477 0.181026
O O8 0.635933 0.308946 0.684046
O O9 0.911153 0.650683 0.710411
O O10 0.856979 0.558540 0.609807
O O11 0.000000 0.573159 0.819045
O O12 0.589384 0.500000 0.630449
O O13 0.568402 0.544875 0.032290
O O14 0.705531 0.557885 0.755637
O O15 0.500000 0.781147 0.005329
O O16 0.646616 0.751344 0.087678
O O17 0.746522 0.000000 0.894324
#
# Coordination Sequence:
#
# PCOD9375604 Si02
#       8
#     8   8   8   8   8   8   2   8
#     4  11  24  41  69 100 137 183 234 299 362 440
#     4  12  23  44  64 100 142 186 235 298 351 424
#     4  10  23  43  67  95 134 183 235 294 365 439
#     4   9  17  36  63  92 131 176 227 279 347 420
#     4  10  24  45  65  96 132 184 232 291 355 427
#     4  12  28  41  71 102 142 184 242 293 360 426
#     4   8  16  32  68  94 122 186 224 274 352 430
#     4  10  21  41  67  97 136 176 230 294 363 430
#
# _framework density 24.893484999999998
#
# number of rings (size 3 to 8) (size 9 to 14) (size 15 to 20)
#    0.414    1.103    2.069    2.483    5.793    1.379 
#    0.000    1.379    0.000    2.483    0.000    0.000 
#    0.000    0.000    0.000    0.000    0.000    0.000 
#
# Total GULP energy -161526.183302 kJ/mol
# GULP energy per Si atom -5569.868390 kJ/mol
# Density = 2.483683 g / cm^3
# Si number density = 24.893485 Si / 1000 Ang^3
#
#
#
# Elastic Constant Matrix: (Units=GPa)
#
#
# Indices 1 2 3 4 5 6 
#
# 1 149.1452 -11.0361 20.5070 0.0000 0.0000 0.0000
# 2 -11.0361 88.0160 -6.7916 0.0000 0.0000 0.0000
# 3 20.5070 -6.7916 50.9545 0.0000 -0.0001 0.0000
# 4 0.0000 0.0000 0.0000 11.6584 0.0000 0.0000
# 5 0.0000 0.0000 -0.0001 0.0000 -81.5352 0.0000
# 6 0.0000 0.0000 0.0000 0.0000 0.0000 22.4051
#
#
#
# Elastic Compliance Matrix: (Units=1/GPa)
#
#
# Indices 1 2 3 4 5 6 
#
# 1 0.007138 0.000680 -0.002782 0.000000 0.000000 0.000000
# 2 0.000680 0.011544 0.001265 0.000000 0.000000 0.000000
# 3 -0.002782 0.001265 0.020914 0.000000 0.000000 0.000000
# 4 0.000000 0.000000 0.000000 0.085775 0.000000 0.000000
# 5 0.000000 0.000000 0.000000 0.000000 -0.012265 0.000000
# 6 0.000000 0.000000 0.000000 0.000000 0.000000 0.044633
#
#
# Mechanical properties :
#
#
# Convention : Reuss Voigt Hill
#
# Bulk Modulus (GPa) = 26.36965 32.60826 29.48896
# Shear Modulus (GPa) = 29.06080 9.53475 19.29777
#
# Velocity S-wave (km/s) = 3.42044 1.95922 2.78729
# Velocity P-wave (km/s) = 5.12008 4.27149 4.71491
#
# Compressibility (1/GPa) = 0.03792238
#
# Stress axis : x y z
#
# Youngs Moduli (GPa) = 140.10067 86.62145 47.81587
#
# Poissons Ratio (x) = -0.05893 0.13302
# Poissons Ratio (y) = -0.09531 -0.06048
# Poissons Ratio (z) = 0.38975 -0.10957
#
# Static dielectric constant tensor:
#      x y z
#    x 2.016720 0.000000 0.000000 
#    y 0.000000 2.071360 0.000000 
#    z 0.000000 0.000000 2.085370 
# 
# From -- ./inp_files/2117.got.cif
#   From: 2010.05.17/outbox.cif.g08.bks.cpg/sg44_2_cif.got.tgz:2117.got - 2010.06.03 19:37:08.
