data_PCOD9375142
_publ_section_title
;
Structure prediction by ZEFSAII (Michael W. Deem and Ramdas Pophale) SiO2 
 PCOD9375142
Probable space group: I M M 2
;
_chemical_formula_sum "Si O2"
_cell_formula_units_Z 58
_cell_length_a 7.636073
_cell_length_b 18.133964
_cell_length_c 17.729863
_cell_angle_alpha 90.000000
_cell_angle_beta 90.000000
_cell_angle_gamma 90.000000
_cell_volume 2455.094428
_symmetry_space_group_name_H-M "I M M 2"
_symmetry_group_IT_number 44
_symmetry_cell_setting 'orthorhombic'
loop_
_space_group_symop_operation_xyz
x,y,z
-x,-y,z
-x,y,z
x,-y,z
1/2+x,1/2+y,1/2+z
1/2-x,1/2-y,1/2+z
1/2-x,1/2+y,1/2+z
1/2+x,1/2-y,1/2+z
loop_
_atom_site_type_symbol
_atom_site_label
_atom_site_fract_x
_atom_site_fract_y
_atom_site_fract_z
Si Si1 0.209363 0.883629 0.506600
Si Si2 0.303613 0.372110 0.330271
Si Si3 0.708183 0.665820 0.636375
Si Si4 0.500000 0.000000 0.459868
Si Si5 0.210670 0.163936 0.670537
Si Si6 0.803229 0.778737 0.382495
Si Si7 0.786808 0.082829 0.991360
Si Si8 0.296238 0.083057 0.284843
O O1 0.256062 0.879255 0.594552
O O2 0.234896 0.804104 0.467269
O O3 0.000000 0.901137 0.498575
O O4 0.344095 0.937287 0.466741
O O5 0.500000 0.403855 0.323442
O O6 0.219309 0.372334 0.247500
O O7 0.314731 0.284988 0.349609
O O8 0.221674 0.405498 0.405945
O O9 0.500000 0.654118 0.637958
O O10 0.740233 0.750463 0.659292
O O11 0.773164 0.641487 0.553701
O O12 0.786113 0.611657 0.699365
O O13 0.000000 0.163181 0.676399
O O14 0.792668 0.853378 0.333826
O O15 0.000000 0.749906 0.377802
O O16 0.000000 0.089210 0.986803
O O17 0.745381 0.000000 0.016941
O O18 0.500000 0.079519 0.307837
O O19 0.224974 0.000000 0.292482
#
# Coordination Sequence:
#
# PCOD9375142 Si02
#       8
#     8   8   8   2   8   8   8   8
#     4  10  25  44  65  96 130 171 222 269 331 392
#     4  10  20  37  65  93 122 163 213 263 315 381
#     4  11  21  35  61  91 125 163 207 262 319 381
#     4  12  26  44  72  94 128 180 210 284 324 394
#     4  10  21  40  62  90 126 163 210 269 317 377
#     4  11  23  39  61  90 126 164 204 263 322 386
#     4   9  19  36  59  91 124 159 207 256 311 377
#     4  11  24  38  57  86 123 165 211 258 315 390
#
# _framework density 23.624345000000002
#
# number of rings (size 3 to 8) (size 9 to 14) (size 15 to 20)
#    0.000    1.655    1.379    2.690    3.862    1.655 
#    1.241    0.690    0.000    2.069    0.000    0.000 
#    0.000    0.000    0.000    0.000    0.000    0.000 
#
# Total GULP energy -161849.417181 kJ/mol
# GULP energy per Si atom -5581.014386 kJ/mol
# Density = 2.357058 g / cm^3
# Si number density = 23.624345 Si / 1000 Ang^3
#
#
#
# Elastic Constant Matrix: (Units=GPa)
#
#
# Indices 1 2 3 4 5 6 
#
# 1 66.5054 0.8096 3.5489 0.0000 0.0000 0.0000
# 2 0.8096 53.0734 -3.5689 0.0000 0.0000 0.0000
# 3 3.5489 -3.5689 139.1749 0.0000 0.0000 0.0000
# 4 0.0000 0.0000 0.0000 0.3685 0.0000 0.0000
# 5 0.0000 0.0000 0.0000 0.0000 13.3756 0.0000
# 6 0.0000 0.0000 0.0000 0.0000 0.0000 94.2201
#
#
#
# Elastic Compliance Matrix: (Units=1/GPa)
#
#
# Indices 1 2 3 4 5 6 
#
# 1 0.015060 -0.000256 -0.000391 0.000000 0.000000 0.000000
# 2 -0.000256 0.018879 0.000491 0.000000 0.000000 0.000000
# 3 -0.000391 0.000491 0.007208 0.000000 0.000000 0.000000
# 4 0.000000 0.000000 0.000000 2.713740 0.000000 0.000000
# 5 0.000000 0.000000 0.000000 0.000000 0.074763 0.000000
# 6 0.000000 0.000000 0.000000 0.000000 0.000000 0.010613
#
#
# Mechanical properties :
#
#
# Convention : Reuss Voigt Hill
#
# Bulk Modulus (GPa) = 24.48887 28.92590 26.70738
# Shear Modulus (GPa) = 1.75181 38.79045 20.27113
#
# Velocity S-wave (km/s) = 0.86205 4.05652 2.93245
# Velocity P-wave (km/s) = 3.37332 5.84903 4.77443
#
# Compressibility (1/GPa) = 0.04083487
#
# Stress axis : x y z
#
# Youngs Moduli (GPa) = 66.39958 52.96962 138.73967
#
# Poissons Ratio (x) = 0.01356 0.05419
# Poissons Ratio (y) = 0.01700 -0.06807
# Poissons Ratio (z) = 0.02594 -0.02599
#
# Static dielectric constant tensor:
#      x y z
#    x 1.898380 0.000000 0.000000 
#    y 0.000000 1.855770 0.000000 
#    z 0.000000 0.000000 1.966610 
# 
# From -- ./inp_files/20567.got.cif
#   From: 2010.05.17/outbox.cif.g08.bks.cpg/sg44_11_cif.got.tgz:20567.got - 2010.06.03 19:37:08.
