data_PCOD9375552
_publ_section_title
;
Structure prediction by ZEFSAII (Michael W. Deem and Ramdas Pophale) SiO2 
 PCOD9375552
Probable space group: I M M 2
;
_chemical_formula_sum "Si O2"
_cell_formula_units_Z 40
_cell_length_a 7.612899
_cell_length_b 17.931610
_cell_length_c 13.165444
_cell_angle_alpha 90.000000
_cell_angle_beta 90.000000
_cell_angle_gamma 90.000000
_cell_volume 1797.234980
_symmetry_space_group_name_H-M "I M M 2"
_symmetry_group_IT_number 44
_symmetry_cell_setting 'orthorhombic'
loop_
_space_group_symop_operation_xyz
x,y,z
-x,-y,z
-x,y,z
x,-y,z
1/2+x,1/2+y,1/2+z
1/2-x,1/2-y,1/2+z
1/2-x,1/2+y,1/2+z
1/2+x,1/2-y,1/2+z
loop_
_atom_site_type_symbol
_atom_site_label
_atom_site_fract_x
_atom_site_fract_y
_atom_site_fract_z
Si Si1 0.196417 0.332173 0.494270
Si Si2 0.785944 0.915267 0.400010
Si Si3 0.285679 0.680226 0.094405
Si Si4 0.707160 0.413627 0.287600
Si Si5 0.297311 0.411238 0.684927
O O1 0.276437 0.260711 0.553257
O O2 0.276045 0.371358 0.395408
O O3 0.194112 0.391470 0.584897
O O4 0.000000 0.309814 0.462492
O O5 0.738827 0.873094 0.501137
O O6 0.728702 0.880063 0.292475
O O7 0.000000 0.916369 0.394682
O O8 0.724075 0.000000 0.407555
O O9 0.500000 0.686064 0.103408
O O10 0.222339 0.640893 0.198211
O O11 0.500000 0.421160 0.266708
O O12 0.776563 0.500000 0.289705
O O13 0.500000 0.388116 0.669856
O O14 0.298207 0.500000 0.698512
#
# Coordination Sequence:
#
# PCOD9375552 Si02
#       5
#     8   8   8   8   8
#     4  11  23  35  52  81 116 147 176 220 279 334
#     4   8  14  28  53  80 102 129 173 226 269 310
#     4   9  19  34  53  80 111 140 177 225 278 326
#     4  10  21  39  62  83 107 146 194 235 269 320
#     4   9  18  33  55  80 104 137 182 224 262 315
#
# _framework density 22.256412000000001
#
# number of rings (size 3 to 8) (size 9 to 14) (size 15 to 20)
#    0.000    2.600    0.000    3.000    2.800    5.600 
#    0.000    1.000    0.000    1.200    0.000    2.800 
#    0.000    0.000    0.000    0.000    0.000    0.000 
#
# Total GULP energy -111436.976672 kJ/mol
# GULP energy per Si atom -5571.848834 kJ/mol
# Density = 2.220576 g / cm^3
# Si number density = 22.256412 Si / 1000 Ang^3
#
#
#
# Elastic Constant Matrix: (Units=GPa)
#
#
# Indices 1 2 3 4 5 6 
#
# 1 41.6296 10.2978 5.4494 0.0000 0.0000 0.0000
# 2 10.2978 109.6705 67.0381 0.0000 0.0000 0.0000
# 3 5.4494 67.0381 190.5725 -0.0001 0.0000 0.0000
# 4 0.0000 0.0000 -0.0001 25.8907 0.0000 0.0000
# 5 0.0000 0.0000 0.0000 0.0000 -43.4336 0.0000
# 6 0.0000 0.0000 0.0000 0.0000 0.0000 11.6701
#
#
#
# Elastic Compliance Matrix: (Units=1/GPa)
#
#
# Indices 1 2 3 4 5 6 
#
# 1 0.024595 -0.002394 0.000139 0.000000 0.000000 0.000000
# 2 -0.002394 0.011849 -0.004100 0.000000 0.000000 0.000000
# 3 0.000139 -0.004100 0.006686 0.000000 0.000000 0.000000
# 4 0.000000 0.000000 0.000000 0.038624 0.000000 0.000000
# 5 0.000000 0.000000 0.000000 0.000000 -0.023024 0.000000
# 6 0.000000 0.000000 0.000000 0.000000 0.000000 0.085689
#
#
# Mechanical properties :
#
#
# Convention : Reuss Voigt Hill
#
# Bulk Modulus (GPa) = 32.87332 56.38260 44.62796
# Shear Modulus (GPa) = 29.89184 16.09791 22.99488
#
# Velocity S-wave (km/s) = 3.66876 2.69233 3.21780
# Velocity P-wave (km/s) = 5.72265 5.92056 5.82245
#
# Compressibility (1/GPa) = 0.03041980
#
# Stress axis : x y z
#
# Youngs Moduli (GPa) = 40.65787 84.39480 149.57668
#
# Poissons Ratio (x) = 0.20208 -0.02079
# Poissons Ratio (y) = 0.09735 0.61322
# Poissons Ratio (z) = -0.00565 0.34599
#
# Static dielectric constant tensor:
#      x y z
#    x 1.921820 0.000000 0.000000 
#    y 0.000000 1.965810 0.000000 
#    z 0.000000 0.000000 1.808550 
# 
# From -- ./inp_files/10834.got.cif
#   From: 2010.05.17/outbox.cif.g08.bks.cpg/sg44_6_cif.got.tgz:10834.got - 2010.06.03 19:37:08.
