data_PCOD9375071
_publ_section_title
;
Structure prediction by ZEFSAII (Michael W. Deem and Ramdas Pophale) SiO2 
 PCOD9375071
Probable space group: I M M 2
;
_chemical_formula_sum "Si O2"
_cell_formula_units_Z 64
_cell_length_a 8.995403
_cell_length_b 28.373333
_cell_length_c 13.170938
_cell_angle_alpha 90.000000
_cell_angle_beta 90.000000
_cell_angle_gamma 90.000000
_cell_volume 3361.612774
_symmetry_space_group_name_H-M "I M M 2"
_symmetry_group_IT_number 44
_symmetry_cell_setting 'orthorhombic'
loop_
_space_group_symop_operation_xyz
x,y,z
-x,-y,z
-x,y,z
x,-y,z
1/2+x,1/2+y,1/2+z
1/2-x,1/2-y,1/2+z
1/2-x,1/2+y,1/2+z
1/2+x,1/2-y,1/2+z
loop_
_atom_site_type_symbol
_atom_site_label
_atom_site_fract_x
_atom_site_fract_y
_atom_site_fract_z
Si Si1 0.675446 0.556475 0.107000
Si Si2 0.330316 0.751766 0.723928
Si Si3 0.326624 0.943297 0.819294
Si Si4 0.336282 0.204500 0.943976
Si Si5 0.820125 0.141588 0.222961
Si Si6 0.174800 0.886393 0.997423
Si Si7 0.822618 0.380026 0.935771
Si Si8 0.170474 0.200568 0.560754
O O1 0.500000 0.567122 0.104136
O O2 0.693981 0.500000 0.100672
O O3 0.742838 0.572033 0.215817
O O4 0.756943 0.580909 0.012500
O O5 0.500000 0.752763 0.683086
O O6 0.333009 0.766460 0.840573
O O7 0.278533 0.697324 0.716918
O O8 0.237686 0.793457 0.671568
O O9 0.500000 0.930647 0.810116
O O10 0.259023 0.921196 0.921259
O O11 0.314368 0.000000 0.824728
O O12 0.500000 0.181354 0.952658
O O13 0.211331 0.165756 0.955934
O O14 0.323924 0.245198 0.026464
O O15 0.745751 0.119360 0.322652
O O16 0.000000 0.140219 0.234092
O O17 0.780254 0.116230 0.116608
O O18 0.000000 0.896316 0.993562
O O19 0.000000 0.382777 0.931566
O O20 0.768437 0.331436 0.987921
O O21 0.000000 0.184324 0.557539
#
# Coordination Sequence:
#
# PCOD9375071 Si02
#       8
#     8   8   8   8   8   8   8   8
#     4  10  22  43  70  95 120 151 191 242 299 359
#     4  10  20  37  55  77 114 158 202 250 297 342
#     4  10  22  42  67  93 123 155 190 241 301 358
#     4  10  21  36  55  79 115 158 200 248 295 345
#     4  10  21  40  60  83 120 162 204 249 296 347
#     4  11  23  38  61  89 120 159 201 248 297 355
#     4  12  25  39  61  90 121 159 201 246 298 359
#     4  11  22  37  56  82 117 158 202 247 293 349
#
# _framework density 19.03848
#
# number of rings (size 3 to 8) (size 9 to 14) (size 15 to 20)
#    0.000    1.500    2.500    2.625    1.750    4.000 
#    0.000    0.625    0.000    0.750    0.000    0.000 
#    0.000    0.000    0.000    0.000    0.000    0.000 
#
# Total GULP energy -178596.757910 kJ/mol
# GULP energy per Si atom -5581.148685 kJ/mol
# Density = 1.899515 g / cm^3
# Si number density = 19.038480 Si / 1000 Ang^3
#
#
#
# Elastic Constant Matrix: (Units=GPa)
#
#
# Indices 1 2 3 4 5 6 
#
# 1 102.7715 38.9195 71.1065 0.0000 0.0000 0.0003
# 2 38.9195 47.4023 46.0165 0.0000 0.0000 -0.0001
# 3 71.1065 46.0165 142.7362 -0.0002 0.0000 0.0018
# 4 0.0000 0.0000 -0.0002 32.0814 0.0000 0.0009
# 5 0.0000 0.0000 0.0000 0.0000 28.4878 0.0001
# 6 0.0003 -0.0001 0.0018 0.0009 0.0001 136.9040
#
#
#
# Elastic Compliance Matrix: (Units=1/GPa)
#
#
# Indices 1 2 3 4 5 6 
#
# 1 0.016809 -0.008256 -0.005712 0.000000 0.000000 0.000000
# 2 -0.008256 0.034761 -0.007094 0.000000 0.000000 0.000000
# 3 -0.005712 -0.007094 0.012138 0.000000 0.000000 0.000000
# 4 0.000000 0.000000 0.000000 0.031171 0.000000 0.000000
# 5 0.000000 0.000000 0.000000 0.000000 0.035103 0.000000
# 6 0.000000 0.000000 0.000000 0.000000 0.000000 0.007304
#
#
# Mechanical properties :
#
#
# Convention : Reuss Voigt Hill
#
# Bulk Modulus (GPa) = 46.32868 67.22168 56.77518
# Shear Modulus (GPa) = 26.79471 48.61914 37.70693
#
# Velocity S-wave (km/s) = 3.75560 5.05893 4.45518
# Velocity P-wave (km/s) = 6.57215 8.33718 7.50672
#
# Compressibility (1/GPa) = 0.02158490
#
# Stress axis : x y z
#
# Youngs Moduli (GPa) = 59.49218 28.76810 82.38307
#
# Poissons Ratio (x) = 0.23750 0.47058
# Poissons Ratio (y) = 0.49116 0.58440
# Poissons Ratio (z) = 0.33982 0.20407
#
# Static dielectric constant tensor:
#      x y z
#    x 1.688160 0.000000 0.000000 
#    y 0.000000 1.652050 0.000000 
#    z 0.000000 0.000000 1.666600 
# 
# From -- ./inp_files/11434.got.cif
#   From: 2010.05.17/outbox.cif.g08.bks.cpg/sg44_6_cif.got.tgz:11434.got - 2010.06.03 19:37:08.
