data_PCOD9375184
_publ_section_title
;
Structure prediction by ZEFSAII (Michael W. Deem and Ramdas Pophale) SiO2 
 PCOD9375184
Probable space group: I M M 2
;
_chemical_formula_sum "Si O2"
_cell_formula_units_Z 56
_cell_length_a 20.625699
_cell_length_b 15.294454
_cell_length_c 9.598091
_cell_angle_alpha 90.000000
_cell_angle_beta 90.000000
_cell_angle_gamma 90.000000
_cell_volume 3027.802313
_symmetry_space_group_name_H-M "I M M 2"
_symmetry_group_IT_number 44
_symmetry_cell_setting 'orthorhombic'
loop_
_space_group_symop_operation_xyz
x,y,z
-x,-y,z
-x,y,z
x,-y,z
1/2+x,1/2+y,1/2+z
1/2-x,1/2-y,1/2+z
1/2-x,1/2+y,1/2+z
1/2+x,1/2-y,1/2+z
loop_
_atom_site_type_symbol
_atom_site_label
_atom_site_fract_x
_atom_site_fract_y
_atom_site_fract_z
Si Si1 0.133387 0.822711 0.402330
Si Si2 0.426257 0.802288 0.683103
Si Si3 0.766094 0.600698 0.824169
Si Si4 0.822904 0.233579 0.692921
Si Si5 0.576376 0.500000 0.904639
Si Si6 0.078521 0.000000 0.077803
Si Si7 0.576011 0.324694 0.420587
Si Si8 0.206652 0.399518 0.155932
O O1 0.085015 0.770818 0.302708
O O2 0.194737 0.857326 0.315910
O O3 0.158220 0.766641 0.531184
O O4 0.103547 0.911087 0.466608
O O5 0.500000 0.837034 0.693393
O O6 0.419853 0.752189 0.535516
O O7 0.366114 0.868882 0.693584
O O8 0.767081 0.500000 0.778079
O O9 0.809975 0.667926 0.741105
O O10 0.785391 0.602160 0.987676
O O11 0.879837 0.195902 0.789124
O O12 0.759766 0.170477 0.710063
O O13 0.500000 0.500000 0.913883
O O14 0.595415 0.500000 0.740655
O O15 0.099107 0.087141 0.998013
O O16 0.000000 0.000000 0.076695
O O17 0.500000 0.334755 0.383305
O O18 0.218962 0.500000 0.200445
#
# Coordination Sequence:
#
# PCOD9375184 Si02
#       8
#     8   8   8   8   4   4   8   8
#     4  11  22  36  58  91 123 157 195 243 302 370
#     4  11  21  38  62  85 117 161 204 248 295 349
#     4  10  20  39  63  85 116 156 199 248 298 355
#     4  11  23  38  63  88 126 155 195 254 309 348
#     4  11  20  35  57  87 123 163 199 230 296 377
#     4   9  18  33  55  85 121 157 201 242 280 357
#     4  10  21  36  58  88 121 161 205 247 295 351
#     4  10  22  39  62  90 119 155 204 248 292 354
#
# _framework density 18.495262
#
# number of rings (size 3 to 8) (size 9 to 14) (size 15 to 20)
#    0.000    1.571    5.000    0.429    2.000    1.429 
#    0.000    1.429    0.000    0.429    0.000    0.000 
#    0.000    0.000    0.000    0.000    0.000    0.000 
#
# Total GULP energy -156262.098622 kJ/mol
# GULP energy per Si atom -5580.789236 kJ/mol
# Density = 1.845317 g / cm^3
# Si number density = 18.495262 Si / 1000 Ang^3
#
#
#
# Elastic Constant Matrix: (Units=GPa)
#
#
# Indices 1 2 3 4 5 6 
#
# 1 85.2892 19.3704 20.5049 0.0000 0.0000 0.0000
# 2 19.3704 87.5922 26.6121 0.0000 0.0000 0.0000
# 3 20.5049 26.6121 30.4299 0.0000 0.0000 0.0000
# 4 0.0000 0.0000 0.0000 100.4065 0.0000 0.0000
# 5 0.0000 0.0000 0.0000 0.0000 27.4907 0.0000
# 6 0.0000 0.0000 0.0000 0.0000 0.0000 22.2668
#
#
#
# Elastic Compliance Matrix: (Units=1/GPa)
#
#
# Indices 1 2 3 4 5 6 
#
# 1 0.013998 -0.000313 -0.009159 0.000000 0.000000 0.000000
# 2 -0.000313 0.015555 -0.013392 0.000000 0.000000 0.000000
# 3 -0.009159 -0.013392 0.050746 0.000000 0.000000 0.000000
# 4 0.000000 0.000000 0.000000 0.009960 0.000000 0.000000
# 5 0.000000 0.000000 0.000000 0.000000 0.036376 0.000000
# 6 0.000000 0.000000 0.000000 0.000000 0.000000 0.044910
#
#
# Mechanical properties :
#
#
# Convention : Reuss Voigt Hill
#
# Bulk Modulus (GPa) = 28.92620 37.36511 33.14565
# Shear Modulus (GPa) = 21.85369 39.15439 30.50404
#
# Velocity S-wave (km/s) = 3.44115 4.60607 4.06555
# Velocity P-wave (km/s) = 5.60913 6.96665 6.32442
#
# Compressibility (1/GPa) = 0.03457073
#
# Stress axis : x y z
#
# Youngs Moduli (GPa) = 71.44002 64.28989 19.70608
#
# Poissons Ratio (x) = 0.02012 0.18048
# Poissons Ratio (y) = 0.02236 0.26391
# Poissons Ratio (z) = 0.65429 0.86098
#
# Static dielectric constant tensor:
#      x y z
#    x 1.648350 0.000000 0.000000 
#    y 0.000000 1.422260 0.000000 
#    z 0.000000 0.000000 1.621930 
# 
# From -- ./inp_files/7419.got.cif
#   From: 2010.05.17/outbox.cif.g08.bks.cpg/sg44_4_cif.got.tgz:7419.got - 2010.06.03 19:37:08.
