data_PCOD9375821
_publ_section_title
;
Structure prediction by ZEFSAII (Michael W. Deem and Ramdas Pophale) SiO2 
 PCOD9375821
Probable space group: I M M 2
;
_chemical_formula_sum "Si O2"
_cell_formula_units_Z 56
_cell_length_a 13.655486
_cell_length_b 18.973952
_cell_length_c 11.573833
_cell_angle_alpha 90.000000
_cell_angle_beta 90.000000
_cell_angle_gamma 90.000000
_cell_volume 2998.763185
_symmetry_space_group_name_H-M "I M M 2"
_symmetry_group_IT_number 44
_symmetry_cell_setting 'orthorhombic'
loop_
_space_group_symop_operation_xyz
x,y,z
-x,-y,z
-x,y,z
x,-y,z
1/2+x,1/2+y,1/2+z
1/2-x,1/2-y,1/2+z
1/2-x,1/2+y,1/2+z
1/2+x,1/2-y,1/2+z
loop_
_atom_site_type_symbol
_atom_site_label
_atom_site_fract_x
_atom_site_fract_y
_atom_site_fract_z
Si Si1 0.608025 0.293443 0.875000
Si Si2 0.733603 0.419854 0.894111
Si Si3 0.230833 0.080902 0.116082
Si Si4 0.885939 0.825144 0.946758
Si Si5 0.891431 0.695147 0.592897
Si Si6 0.615784 0.836635 0.534970
Si Si7 0.245730 0.202730 0.734868
O O1 0.500000 0.306500 0.827120
O O2 0.651390 0.363774 0.932480
O O3 0.682814 0.263683 0.782276
O O4 0.603212 0.231221 0.968130
O O5 0.720854 0.500000 0.934438
O O6 0.724213 0.419601 0.755149
O O7 0.836046 0.387956 0.939670
O O8 0.328325 0.124828 0.088075
O O9 0.233602 0.000000 0.077207
O O10 0.145276 0.123342 0.050694
O O11 0.810094 0.835154 0.840511
O O12 0.000000 0.834782 0.914973
O O13 0.873503 0.743973 0.989220
O O14 0.837409 0.753926 0.668435
O O15 0.000000 0.681699 0.638025
O O16 0.500000 0.849257 0.555585
O O17 0.685343 0.841715 0.648377
#
# Coordination Sequence:
#
# PCOD9375821 Si02
#       7
#     8   8   8   8   8   8   8
#     4  11  21  36  60  87 116 152 195 243 295 348
#     4  11  22  39  60  86 122 157 194 244 301 360
#     4  11  22  39  60  86 122 157 194 244 301 360
#     4  11  22  38  63  91 121 159 204 251 299 354
#     4  11  21  36  60  87 116 152 195 243 295 348
#     4  11  22  38  63  91 121 159 204 251 299 354
#     4  12  18  38  64  94 116 152 198 256 300 348
#
# _framework density 18.674365000000002
#
# number of rings (size 3 to 8) (size 9 to 14) (size 15 to 20)
#    0.000    0.857    7.143    0.857    0.000    4.571 
#    0.000    3.571    0.000    0.000    0.000    0.000 
#    0.000    0.000    0.000    0.000    0.000    0.000 
#
# Total GULP energy -156245.075149 kJ/mol
# GULP energy per Si atom -5580.181255 kJ/mol
# Density = 1.863186 g / cm^3
# Si number density = 18.674365 Si / 1000 Ang^3
#
#
#
# Elastic Constant Matrix: (Units=GPa)
#
#
# Indices 1 2 3 4 5 6 
#
# 1 111.5183 4.1505 22.6990 0.0000 0.0000 0.0000
# 2 4.1505 75.3194 5.1684 0.0000 0.0000 0.0000
# 3 22.6990 5.1684 61.0138 -0.0001 0.0000 0.0000
# 4 0.0000 0.0000 -0.0001 23.4800 0.0000 0.0000
# 5 0.0000 0.0000 0.0000 0.0000 17.2295 0.0000
# 6 0.0000 0.0000 0.0000 0.0000 0.0000 4.1750
#
#
#
# Elastic Compliance Matrix: (Units=1/GPa)
#
#
# Indices 1 2 3 4 5 6 
#
# 1 0.009708 -0.000289 -0.003587 0.000000 0.000000 0.000000
# 2 -0.000289 0.013363 -0.001025 0.000000 0.000000 0.000000
# 3 -0.003587 -0.001025 0.017811 0.000000 0.000000 0.000000
# 4 0.000000 0.000000 0.000000 0.042589 0.000000 0.000000
# 5 0.000000 0.000000 0.000000 0.000000 0.058040 0.000000
# 6 0.000000 0.000000 0.000000 0.000000 0.000000 0.239521
#
#
# Mechanical properties :
#
#
# Convention : Reuss Voigt Hill
#
# Bulk Modulus (GPa) = 32.17396 34.65415 33.41405
# Shear Modulus (GPa) = 12.46279 23.36581 17.91430
#
# Velocity S-wave (km/s) = 2.58616 3.54110 3.10062
# Velocity P-wave (km/s) = 5.11703 5.94277 5.54529
#
# Compressibility (1/GPa) = 0.03108103
#
# Stress axis : x y z
#
# Youngs Moduli (GPa) = 103.00734 74.83342 56.14486
#
# Poissons Ratio (x) = 0.02161 0.20140
# Poissons Ratio (y) = 0.02975 0.05752
# Poissons Ratio (z) = 0.36951 0.07667
#
# Static dielectric constant tensor:
#      x y z
#    x 1.677850 0.000000 0.000000 
#    y 0.000000 1.629660 0.000000 
#    z 0.000000 0.000000 1.706490 
# 
# From -- ./inp_files/13249.got.cif
#   From: 2010.05.17/outbox.cif.g08.bks.cpg/sg44_7_cif.got.tgz:13249.got - 2010.06.03 19:37:08.
