data_PCOD9375588
_publ_section_title
;
Structure prediction by ZEFSAII (Michael W. Deem and Ramdas Pophale) SiO2 
 PCOD9375588
Probable space group: I M M 2
;
_chemical_formula_sum "Si O2"
_cell_formula_units_Z 64
_cell_length_a 14.343627
_cell_length_b 8.389582
_cell_length_c 24.919234
_cell_angle_alpha 90.000000
_cell_angle_beta 90.000000
_cell_angle_gamma 90.000000
_cell_volume 2998.706731
_symmetry_space_group_name_H-M "I M M 2"
_symmetry_group_IT_number 44
_symmetry_cell_setting 'orthorhombic'
loop_
_space_group_symop_operation_xyz
x,y,z
-x,-y,z
-x,y,z
x,-y,z
1/2+x,1/2+y,1/2+z
1/2-x,1/2-y,1/2+z
1/2-x,1/2+y,1/2+z
1/2+x,1/2-y,1/2+z
loop_
_atom_site_type_symbol
_atom_site_label
_atom_site_fract_x
_atom_site_fract_y
_atom_site_fract_z
Si Si1 0.240618 0.181300 0.870660
Si Si2 0.603548 0.316383 0.053216
Si Si3 0.897918 0.308520 0.957244
Si Si4 0.111072 0.311885 0.783589
Si Si5 0.606357 0.689914 0.792426
Si Si6 0.697370 0.195056 0.562872
Si Si7 0.391060 0.192085 0.674175
Si Si8 0.889083 0.677939 0.664704
O O1 0.189634 0.256077 0.921811
O O2 0.162185 0.200595 0.824928
O O3 0.329435 0.261390 0.842310
O O4 0.263639 0.000000 0.882141
O O5 0.500000 0.245500 0.041773
O O6 0.599814 0.500000 0.035743
O O7 0.703730 0.245619 0.037947
O O8 0.618068 0.304515 0.117642
O O9 0.900345 0.500000 0.954196
O O10 0.000000 0.249249 0.938699
O O11 0.880517 0.263986 0.019173
O O12 0.131609 0.500000 0.794741
O O13 0.145626 0.277975 0.723283
O O14 0.000000 0.293394 0.787228
O O15 0.500000 0.747340 0.800175
O O16 0.606406 0.500000 0.789151
O O17 0.637341 0.752116 0.733687
O O18 0.669955 0.248712 0.623021
O O19 0.703405 0.000000 0.564670
O O20 0.500000 0.239889 0.666485
O O21 0.387901 0.000000 0.673643
O O22 0.855120 0.500000 0.649026
O O23 0.000000 0.661217 0.672552
#
# Coordination Sequence:
#
# PCOD9375588 Si02
#       8
#     8   8   8   8   8   8   8   8
#     4  12  25  38  57  84 116 152 191 240 300 357
#     4   9  17  29  46  72 109 147 183 228 278 333
#     4  10  21  40  64  86 113 153 201 252 300 352
#     4   9  18  33  52  76 109 149 192 235 281 341
#     4  10  22  41  63  87 117 153 196 245 295 354
#     4   9  18  33  56  84 113 151 200 244 292 352
#     4   9  17  32  56  86 118 150 188 239 297 351
#     4   8  15  28  45  67  99 139 180 222 269 322
#
# _framework density 21.342533
#
# number of rings (size 3 to 8) (size 9 to 14) (size 15 to 20)
#    0.000    2.500    0.000    3.000    1.750    4.750 
#    0.000    3.125    0.000    3.750    0.000    0.000 
#    0.000    0.000    0.000    0.000    0.000    0.000 
#
# Total GULP energy -178310.669497 kJ/mol
# GULP energy per Si atom -5572.208422 kJ/mol
# Density = 2.129396 g / cm^3
# Si number density = 21.342533 Si / 1000 Ang^3
#
#
#
# Elastic Constant Matrix: (Units=GPa)
#
#
# Indices 1 2 3 4 5 6 
#
# 1 131.9157 12.9689 38.4890 0.0000 0.0000 0.0000
# 2 12.9689 15.7202 10.1852 0.0000 0.0000 0.0000
# 3 38.4890 10.1852 76.6448 0.0000 0.0000 0.0000
# 4 0.0000 0.0000 0.0000 17.8373 0.0000 0.0000
# 5 0.0000 0.0000 0.0000 0.0000 24.5173 0.0000
# 6 0.0000 0.0000 0.0000 0.0000 0.0000 12.9033
#
#
#
# Elastic Compliance Matrix: (Units=1/GPa)
#
#
# Indices 1 2 3 4 5 6 
#
# 1 0.009234 -0.005048 -0.003966 0.000000 0.000000 0.000000
# 2 -0.005048 0.072365 -0.007081 0.000000 0.000000 0.000000
# 3 -0.003966 -0.007081 0.015980 0.000000 0.000000 0.000000
# 4 0.000000 0.000000 0.000000 0.056062 0.000000 0.000000
# 5 0.000000 0.000000 0.000000 0.000000 0.040788 0.000000
# 6 0.000000 0.000000 0.000000 0.000000 0.000000 0.077499
#
#
# Mechanical properties :
#
#
# Convention : Reuss Voigt Hill
#
# Bulk Modulus (GPa) = 15.29348 38.61855 26.95601
# Shear Modulus (GPa) = 15.34138 21.89410 18.61774
#
# Velocity S-wave (km/s) = 2.68399 3.20635 2.95673
# Velocity P-wave (km/s) = 4.09711 5.64283 4.93092
#
# Compressibility (1/GPa) = 0.06538734
#
# Stress axis : x y z
#
# Youngs Moduli (GPa) = 108.29376 13.81883 62.57816
#
# Poissons Ratio (x) = 0.06976 0.24820
# Poissons Ratio (y) = 0.54669 0.44314
# Poissons Ratio (z) = 0.42953 0.09786
#
# Static dielectric constant tensor:
#      x y z
#    x 1.940120 0.000000 0.000000 
#    y 0.000000 1.766790 0.000000 
#    z 0.000000 0.000000 1.775450 
# 
# From -- ./inp_files/25760.got.cif
#   From: 2010.05.17/outbox.cif.g08.bks.cpg/sg44_13_cif.got.tgz:25760.got - 2010.06.03 19:37:08.
