data_PCOD9375646
_publ_section_title
;
Structure prediction by ZEFSAII (Michael W. Deem and Ramdas Pophale) SiO2 
 PCOD9375646
Probable space group: I M M 2
;
_chemical_formula_sum "Si O2"
_cell_formula_units_Z 58
_cell_length_a 7.822070
_cell_length_b 18.244763
_cell_length_c 17.461747
_cell_angle_alpha 90.000000
_cell_angle_beta 90.000000
_cell_angle_gamma 90.000000
_cell_volume 2491.997578
_symmetry_space_group_name_H-M "I M M 2"
_symmetry_group_IT_number 44
_symmetry_cell_setting 'orthorhombic'
loop_
_space_group_symop_operation_xyz
x,y,z
-x,-y,z
-x,y,z
x,-y,z
1/2+x,1/2+y,1/2+z
1/2-x,1/2-y,1/2+z
1/2-x,1/2+y,1/2+z
1/2+x,1/2-y,1/2+z
loop_
_atom_site_type_symbol
_atom_site_label
_atom_site_fract_x
_atom_site_fract_y
_atom_site_fract_z
Si Si1 0.698850 0.333498 0.821560
Si Si2 0.200360 0.109599 0.161831
Si Si3 0.197598 0.418298 0.433305
Si Si4 0.000000 0.500000 0.614666
Si Si5 0.307104 0.668058 0.293309
Si Si6 0.792440 0.288891 0.542100
Si Si7 0.196704 0.369935 0.987157
Si Si8 0.706799 0.081255 0.649644
O O1 0.500000 0.316678 0.811951
O O2 0.746752 0.385842 0.751289
O O3 0.785065 0.253774 0.812986
O O4 0.724139 0.372264 0.902981
O O5 0.346165 0.062174 0.121219
O O6 0.225605 0.190114 0.125692
O O7 0.000000 0.087886 0.153206
O O8 0.273511 0.500000 0.436395
O O9 0.197428 0.383428 0.349097
O O10 0.270455 0.355625 0.488036
O O11 0.000000 0.426593 0.458015
O O12 0.500000 0.647651 0.311783
O O13 0.271012 0.644196 0.206353
O O14 0.713330 0.214876 0.510989
O O15 0.000000 0.282522 0.539317
O O16 0.000000 0.392308 0.978954
O O17 0.269261 0.410342 0.062020
O O18 0.500000 0.086023 0.647726
O O19 0.753996 0.000000 0.678558
#
# Coordination Sequence:
#
# PCOD9375646 Si02
#       8
#     8   8   8   2   8   8   8   8
#     4  11  24  44  67  96 131 174 226 280 336 402
#     4  11  26  45  70 101 135 180 232 282 343 409
#     4  10  22  38  60  90 129 174 217 267 334 405
#     4  12  26  48  72  98 140 184 222 292 340 414
#     4  12  24  38  64  96 129 169 219 275 334 399
#     4  11  22  39  67  97 133 179 225 275 342 406
#     4  11  23  40  67 100 132 170 227 285 338 406
#     4  10  23  44  66  92 130 176 220 269 335 405
#
# _framework density 23.274501000000001
#
# number of rings (size 3 to 8) (size 9 to 14) (size 15 to 20)
#    0.000    1.103    2.069    3.931    2.897    7.172 
#    1.241    0.000    0.000    0.000    0.000    0.000 
#    0.000    0.000    0.000    0.000    0.000    0.000 
#
# Total GULP energy -161855.662345 kJ/mol
# GULP energy per Si atom -5581.229736 kJ/mol
# Density = 2.322153 g / cm^3
# Si number density = 23.274501 Si / 1000 Ang^3
#
#
#
# Elastic Constant Matrix: (Units=GPa)
#
#
# Indices 1 2 3 4 5 6 
#
# 1 64.3071 10.8517 -1.6413 0.0000 0.0000 0.0000
# 2 10.8517 49.7156 -4.9652 0.0000 0.0000 0.0000
# 3 -1.6413 -4.9652 104.1535 0.0000 0.0000 0.0000
# 4 0.0000 0.0000 0.0000 0.1093 0.0000 0.0000
# 5 0.0000 0.0000 0.0000 0.0000 8.6598 0.0000
# 6 0.0000 0.0000 0.0000 0.0000 0.0000 41.6514
#
#
#
# Elastic Compliance Matrix: (Units=1/GPa)
#
#
# Indices 1 2 3 4 5 6 
#
# 1 0.016146 -0.003516 0.000087 0.000000 0.000000 0.000000
# 2 -0.003516 0.020976 0.000945 0.000000 0.000000 0.000000
# 3 0.000087 0.000945 0.009648 0.000000 0.000000 0.000000
# 4 0.000000 0.000000 0.000000 9.147727 0.000000 0.000000
# 5 0.000000 0.000000 0.000000 0.000000 0.115476 0.000000
# 6 0.000000 0.000000 0.000000 0.000000 0.000000 0.024009
#
#
# Mechanical properties :
#
#
# Convention : Reuss Voigt Hill
#
# Bulk Modulus (GPa) = 23.92272 25.18517 24.55394
# Shear Modulus (GPa) = 0.53459 24.34615 12.44037
#
# Velocity S-wave (km/s) = 0.47978 3.23777 2.31445
# Velocity P-wave (km/s) = 3.25695 4.98216 4.20890
#
# Compressibility (1/GPa) = 0.04180127
#
# Stress axis : x y z
#
# Youngs Moduli (GPa) = 61.93543 47.67326 103.65255
#
# Poissons Ratio (x) = 0.16760 -0.00900
# Poissons Ratio (y) = 0.21774 -0.09791
# Poissons Ratio (z) = -0.00538 -0.04503
#
# Static dielectric constant tensor:
#      x y z
#    x 1.836680 0.000000 0.000000 
#    y 0.000000 1.869380 0.000000 
#    z 0.000000 0.000000 1.957690 
# 
# From -- ./inp_files/20585.got.cif
#   From: 2010.05.17/outbox.cif.g08.bks.cpg/sg44_11_cif.got.tgz:20585.got - 2010.06.03 19:37:08.
