data_PCOD9375376
_publ_section_title
;
Structure prediction by ZEFSAII (Michael W. Deem and Ramdas Pophale) SiO2 
 PCOD9375376
Probable space group: I M M 2
;
_chemical_formula_sum "Si O2"
_cell_formula_units_Z 56
_cell_length_a 7.859629
_cell_length_b 24.269172
_cell_length_c 14.102584
_cell_angle_alpha 90.000000
_cell_angle_beta 90.000000
_cell_angle_gamma 90.000000
_cell_volume 2690.021191
_symmetry_space_group_name_H-M "I M M 2"
_symmetry_group_IT_number 44
_symmetry_cell_setting 'orthorhombic'
loop_
_space_group_symop_operation_xyz
x,y,z
-x,-y,z
-x,y,z
x,-y,z
1/2+x,1/2+y,1/2+z
1/2-x,1/2-y,1/2+z
1/2-x,1/2+y,1/2+z
1/2+x,1/2-y,1/2+z
loop_
_atom_site_type_symbol
_atom_site_label
_atom_site_fract_x
_atom_site_fract_y
_atom_site_fract_z
Si Si1 0.207301 0.563561 0.416650
Si Si2 0.301603 0.674577 0.954475
Si Si3 0.291869 0.937087 0.131280
Si Si4 0.296778 0.439236 0.038974
Si Si5 0.198045 0.265610 0.134313
Si Si6 0.196444 0.664665 0.747801
Si Si7 0.706125 0.120643 0.727752
O O1 0.255999 0.500000 0.397684
O O2 0.261690 0.577387 0.523660
O O3 0.265708 0.602518 0.331587
O O4 0.000000 0.564984 0.416665
O O5 0.500000 0.675357 0.980351
O O6 0.283150 0.684956 0.843700
O O7 0.232367 0.613146 0.978801
O O8 0.215594 0.718083 0.024428
O O9 0.500000 0.935804 0.131816
O O10 0.230854 0.892174 0.206144
O O11 0.240774 0.000000 0.151266
O O12 0.500000 0.441469 0.024817
O O13 0.226846 0.500000 0.016909
O O14 0.262029 0.423011 0.148028
O O15 0.290886 0.210850 0.167043
O O16 0.263001 0.319214 0.192261
O O17 0.000000 0.257980 0.157019
O O18 0.000000 0.655562 0.772195
O O19 0.500000 0.121269 0.727393
#
# Coordination Sequence:
#
# PCOD9375376 Si02
#       7
#     8   8   8   8   8   8   8
#     4   8  13  24  45  73 102 130 164 208 256 305
#     4  10  21  38  57  77 106 142 181 225 271 320
#     4   8  16  31  50  75 107 140 176 218 261 312
#     4   9  18  32  50  74 106 143 179 218 270 325
#     4  10  21  37  55  78 109 140 177 224 270 321
#     4  11  22  36  57  82 107 139 178 220 273 328
#     4   9  17  29  49  77 105 136 175 218 263 315
#
# _framework density 20.817679999999999
#
# number of rings (size 3 to 8) (size 9 to 14) (size 15 to 20)
#    0.000    2.714    0.000    2.571    0.000    3.714 
#    0.000    2.857    0.000    3.000    0.000    4.000 
#    0.000    0.000    0.000    0.000    0.000    0.000 
#
# Total GULP energy -156233.324136 kJ/mol
# GULP energy per Si atom -5579.761576 kJ/mol
# Density = 2.077030 g / cm^3
# Si number density = 20.817680 Si / 1000 Ang^3
#
#
#
# Elastic Constant Matrix: (Units=GPa)
#
#
# Indices 1 2 3 4 5 6 
#
# 1 26.2606 -0.6997 -1.5503 0.0000 0.0000 0.0000
# 2 -0.6997 67.3450 36.9037 -0.0001 0.0000 0.0000
# 3 -1.5503 36.9037 92.1104 -0.0002 0.0000 0.0000
# 4 0.0000 -0.0001 -0.0002 19.3944 0.0000 0.0000
# 5 0.0000 0.0000 0.0000 0.0000 15.6565 0.0000
# 6 0.0000 0.0000 0.0000 0.0000 0.0000 12.3866
#
#
#
# Elastic Compliance Matrix: (Units=1/GPa)
#
#
# Indices 1 2 3 4 5 6 
#
# 1 0.038118 0.000057 0.000619 0.000000 0.000000 0.000000
# 2 0.000057 0.019026 -0.007622 0.000000 0.000000 0.000000
# 3 0.000619 -0.007622 0.013921 0.000000 0.000000 0.000000
# 4 0.000000 0.000000 0.000000 0.051561 0.000000 0.000000
# 5 0.000000 0.000000 0.000000 0.000000 0.063871 0.000000
# 6 0.000000 0.000000 0.000000 0.000000 0.000000 0.080733
#
#
# Mechanical properties :
#
#
# Convention : Reuss Voigt Hill
#
# Bulk Modulus (GPa) = 17.49094 28.33594 22.91344
# Shear Modulus (GPa) = 16.65670 19.55830 18.10750
#
# Velocity S-wave (km/s) = 2.83171 3.06846 2.95246
# Velocity P-wave (km/s) = 4.37169 5.11810 4.75955
#
# Compressibility (1/GPa) = 0.05717247
#
# Stress axis : x y z
#
# Youngs Moduli (GPa) = 26.23435 52.55945 71.83608
#
# Poissons Ratio (x) = -0.00299 -0.04445
# Poissons Ratio (y) = -0.00149 0.54752
# Poissons Ratio (z) = -0.01623 0.40060
#
# Static dielectric constant tensor:
#      x y z
#    x 1.748760 0.000000 0.000000 
#    y 0.000000 1.746740 0.000000 
#    z 0.000000 0.000000 1.724490 
# 
# From -- ./inp_files/16422.got.cif
#   From: 2010.05.17/outbox.cif.g08.bks.cpg/sg44_9_cif.got.tgz:16422.got - 2010.06.03 19:37:08.
