data_PCOD9375981
_publ_section_title
;
Structure prediction by ZEFSAII (Michael W. Deem and Ramdas Pophale) SiO2 
 PCOD9375981
Probable space group: I M M 2
;
_chemical_formula_sum "Si O2"
_cell_formula_units_Z 24
_cell_length_a 18.000000
_cell_length_b 9.000000
_cell_length_c 15.000000
_cell_angle_alpha 90.000000
_cell_angle_beta 90.000000
_cell_angle_gamma 90.000000
_cell_volume 2430.000000
_symmetry_space_group_name_H-M "I M M 2"
_symmetry_group_IT_number 44
_symmetry_cell_setting 'orthorhombic'
loop_
_space_group_symop_operation_xyz
x,y,z
-x,-y,z
-x,y,z
x,-y,z
1/2+x,1/2+y,1/2+z
1/2-x,1/2-y,1/2+z
1/2-x,1/2+y,1/2+z
1/2+x,1/2-y,1/2+z
loop_
_atom_site_type_symbol
_atom_site_label
_atom_site_fract_x
_atom_site_fract_y
_atom_site_fract_z
Si Si1 0.500000 0.678247 0.771950
Si Si2 0.107229 0.668599 0.924119
Si Si3 0.154877 0.818020 0.350780
Si Si4 0.233850 0.323072 0.694265
Si Si5 0.500000 0.172801 0.584405
Si Si6 0.738790 0.329199 0.013342
Si Si7 0.418221 0.324605 0.244440
O O1 0.500000 0.500000 0.776293
O O2 0.425474 0.731734 0.818946
O O3 0.500000 0.726185 0.669757
O O4 0.086649 0.500000 0.895801
O O5 0.084379 0.782869 0.848997
O O6 0.068828 0.697317 0.018425
O O7 0.194037 0.669498 0.942944
O O8 0.214050 0.769331 0.275426
O O9 0.172406 0.770620 0.451707
O O10 0.157403 0.000000 0.352374
O O11 0.233933 0.500000 0.696987
O O12 0.260100 0.264907 0.598768
O O13 0.150612 0.262505 0.703992
O O14 0.500000 0.000000 0.611969
O O15 0.725295 0.500000 0.041714
O O16 0.500000 0.282557 0.210072
O O17 0.408449 0.500000 0.232195
#
# Coordination Sequence:
#
# PCOD9375981 Si02
#       7
#     4   8   8   8   4   8   8
#     4  10  20  36  58  83 112 153 196 237 282 336
#     4  10  19  34  58  83 116 154 189 233 294 355
#     4   9  19  37  60  83 115 155 194 235 286 344
#     4  11  22  39  61  86 116 156 200 242 293 353
#     4  10  20  32  52  85 116 147 182 231 298 352
#     4  10  20  37  58  84 115 153 198 243 291 346
#     4  11  23  38  58  86 117 149 192 245 298 352
#
# _framework density 9.8765429999999999
#
# number of rings (size 3 to 8) (size 9 to 14) (size 15 to 20)
#    0.000    1.833    2.500    2.000    0.000    2.333 
#    1.500    1.667    0.000    0.000    0.000    0.000 
#    0.000    0.000    0.000    0.000    0.000    0.000 
#
# Total GULP energy -133848.782331 kJ/mol
# GULP energy per Si atom -5577.032597 kJ/mol
# Density = 0.985406 g / cm^3
# Si number density = 9.876543 Si / 1000 Ang^3
#
#
#
# Elastic Constant Matrix: (Units=GPa)
#
#
# Indices 1 2 3 4 5 6 
#
# 1 82.0554 19.5516 12.6296 0.0000 0.0000 0.0000
# 2 19.5516 21.9844 7.0373 0.0000 0.0000 0.0000
# 3 12.6296 7.0373 40.4207 0.0000 0.0000 0.0000
# 4 0.0000 0.0000 0.0000 30.0053 0.0000 0.0000
# 5 0.0000 0.0000 0.0000 0.0000 -3.5112 0.0000
# 6 0.0000 0.0000 0.0000 0.0000 0.0000 12.5651
#
#
#
# Elastic Compliance Matrix: (Units=1/GPa)
#
#
# Indices 1 2 3 4 5 6 
#
# 1 0.015722 -0.013142 -0.002624 0.000000 0.000000 0.000000
# 2 -0.013142 0.059157 -0.006193 0.000000 0.000000 0.000000
# 3 -0.002624 -0.006193 0.026638 0.000000 0.000000 0.000000
# 4 0.000000 0.000000 0.000000 0.033327 0.000000 0.000000
# 5 0.000000 0.000000 0.000000 0.000000 -0.284800 0.000000
# 6 0.000000 0.000000 0.000000 0.000000 0.000000 0.079585
#
#
# Mechanical properties :
#
#
# Convention : Reuss Voigt Hill
#
# Bulk Modulus (GPa) = 17.36169 24.76639 21.06404
# Shear Modulus (GPa) = -689.54601 14.82798 -337.35902
#
# Velocity S-wave (km/s) = -18.70402 2.74280 -13.08277
# Velocity P-wave (km/s) = 21.39265 4.75351 14.74872
#
# Compressibility (1/GPa) = 0.05759809
#
# Stress axis : x y z
#
# Youngs Moduli (GPa) = 63.60386 16.90411 37.54035
#
# Poissons Ratio (x) = 0.22216 0.09852
# Poissons Ratio (y) = 0.83591 0.23248
# Poissons Ratio (z) = 0.16692 0.10469
#
# Static dielectric constant tensor:
#      x y z
#    x 1.769560 0.000000 0.000000 
#    y 0.000000 1.667970 0.000000 
#    z 0.000000 0.000000 1.689550 
# 
# From -- ./inp_files/16140.got.cif
#   From: 2010.05.17/outbox.ucp.g08.bks.cvg/sg44_9_cif.got.tgz:16140.got - 2010.06.11 16:32:36.
