data_PCOD9375977
_publ_section_title
;
Structure prediction by ZEFSAII (Michael W. Deem and Ramdas Pophale) SiO2 
 PCOD9375977
Probable space group: I M M 2
;
_chemical_formula_sum "Si O2"
_cell_formula_units_Z 32
_cell_length_a 24.000000
_cell_length_b 9.000000
_cell_length_c 15.000000
_cell_angle_alpha 90.000000
_cell_angle_beta 90.000000
_cell_angle_gamma 90.000000
_cell_volume 3240.000000
_symmetry_space_group_name_H-M "I M M 2"
_symmetry_group_IT_number 44
_symmetry_cell_setting 'orthorhombic'
loop_
_space_group_symop_operation_xyz
x,y,z
-x,-y,z
-x,y,z
x,-y,z
1/2+x,1/2+y,1/2+z
1/2-x,1/2-y,1/2+z
1/2-x,1/2+y,1/2+z
1/2+x,1/2-y,1/2+z
loop_
_atom_site_type_symbol
_atom_site_label
_atom_site_fract_x
_atom_site_fract_y
_atom_site_fract_z
Si Si1 0.155113 0.175549 0.932920
Si Si2 0.884250 0.822717 0.119208
Si Si3 0.559632 0.678577 0.126064
Si Si4 0.782741 0.671534 0.430717
Si Si5 0.889471 0.824720 0.448061
Si Si6 0.278376 0.325602 0.740817
Si Si7 0.347822 0.826833 0.242434
Si Si8 0.564508 0.167742 0.777319
O O1 0.219646 0.188612 0.962609
O O2 0.148845 0.268136 0.843500
O O3 0.145600 0.000000 0.914427
O O4 0.118231 0.223609 0.016586
O O5 0.825076 0.793413 0.168067
O O6 0.927977 0.741814 0.181518
O O7 0.892746 0.000000 0.121378
O O8 0.500000 0.730055 0.160523
O O9 0.560733 0.500000 0.126918
O O10 0.609434 0.737806 0.183728
O O11 0.568098 0.725973 0.023867
O O12 0.798926 0.500000 0.439240
O O13 0.828336 0.772791 0.477188
O O14 0.782878 0.722463 0.327427
O O15 0.903313 0.756764 0.352854
O O16 0.891832 0.000000 0.440086
O O17 0.284960 0.500000 0.768206
O O18 0.215336 0.307912 0.708100
O O19 0.360959 0.000000 0.239851
O O20 0.500000 0.167775 0.801948
O O21 0.585696 0.000000 0.774339
#
# Coordination Sequence:
#
# PCOD9375977 Si02
#       8
#     8   8   8   8   8   8   8   8
#     4   9  20  37  58  84 118 157 195 235 282 341
#     4  10  20  36  59  85 115 155 197 235 280 339
#     4  10  23  42  61  82 111 150 198 245 287 340
#     4  10  19  32  54  84 118 153 188 229 282 335
#     4  11  22  37  58  85 116 153 193 232 282 345
#     4   9  18  33  54  82 117 152 185 227 279 340
#     4  10  21  37  60  87 117 150 188 240 297 343
#     4  11  24  40  58  84 118 153 192 241 291 339
#
# _framework density 9.8765429999999999
#
# number of rings (size 3 to 8) (size 9 to 14) (size 15 to 20)
#    0.000    2.000    1.250    1.875    1.750    4.250 
#    0.000    0.625    0.000    0.750    0.000    0.000 
#    0.000    0.000    0.000    0.000    0.000    0.000 
#
# Total GULP energy -178536.987579 kJ/mol
# GULP energy per Si atom -5579.280862 kJ/mol
# Density = 0.985406 g / cm^3
# Si number density = 9.876543 Si / 1000 Ang^3
#
#
#
# Elastic Constant Matrix: (Units=GPa)
#
#
# Indices 1 2 3 4 5 6 
#
# 1 44.6752 17.7507 16.9338 0.0000 0.0000 0.0000
# 2 17.7507 14.0147 14.5406 0.0000 0.0000 0.0000
# 3 16.9338 14.5406 32.1916 0.0000 0.0000 0.0000
# 4 0.0000 0.0000 0.0000 -63.3648 0.0000 0.0000
# 5 0.0000 0.0000 0.0000 0.0000 13.4187 0.0000
# 6 0.0000 0.0000 0.0000 0.0000 0.0000 21.5176
#
#
#
# Elastic Compliance Matrix: (Units=1/GPa)
#
#
# Indices 1 2 3 4 5 6 
#
# 1 0.045323 -0.061482 0.003930 0.000000 0.000000 0.000000
# 2 -0.061482 0.217687 -0.065986 0.000000 0.000000 0.000000
# 3 0.003930 -0.065986 0.058802 0.000000 0.000000 0.000000
# 4 0.000000 0.000000 0.000000 -0.015782 0.000000 0.000000
# 5 0.000000 0.000000 0.000000 0.000000 0.074523 0.000000
# 6 0.000000 0.000000 0.000000 0.000000 0.000000 0.046473
#
#
# Mechanical properties :
#
#
# Convention : Reuss Voigt Hill
#
# Bulk Modulus (GPa) = 13.38045 21.03687 17.20866
# Shear Modulus (GPa) = 7.15292 -2.90861 2.12216
#
# Velocity S-wave (km/s) = 1.90500 -1.21478 1.03763
# Velocity P-wave (km/s) = 3.40988 2.95050 3.18847
#
# Compressibility (1/GPa) = 0.07473588
#
# Stress axis : x y z
#
# Youngs Moduli (GPa) = 22.06392 4.59375 17.00622
#
# Poissons Ratio (x) = 0.28243 -0.06683
# Poissons Ratio (y) = 1.35653 1.12217
# Poissons Ratio (z) = -0.08670 0.30312
#
# Static dielectric constant tensor:
#      x y z
#    x 1.722740 0.000000 0.000000 
#    y 0.000000 1.670030 0.000000 
#    z 0.000000 0.000000 1.678700 
# 
# From -- ./inp_files/19474.got.cif
#   From: 2010.05.17/outbox.ucp.g08.bks.cvg/sg44_10_cif.got.tgz:19474.got - 2010.06.11 16:32:36.
