data_PCOD9375482
_publ_section_title
;
Structure prediction by ZEFSAII (Michael W. Deem and Ramdas Pophale) SiO2 
 PCOD9375482
Probable space group: I M M 2
;
_chemical_formula_sum "Si O2"
_cell_formula_units_Z 58
_cell_length_a 15.627719
_cell_length_b 8.046897
_cell_length_c 23.774538
_cell_angle_alpha 90.000000
_cell_angle_beta 90.000000
_cell_angle_gamma 90.000000
_cell_volume 2989.758590
_symmetry_space_group_name_H-M "I M M 2"
_symmetry_group_IT_number 44
_symmetry_cell_setting 'orthorhombic'
loop_
_space_group_symop_operation_xyz
x,y,z
-x,-y,z
-x,y,z
x,-y,z
1/2+x,1/2+y,1/2+z
1/2-x,1/2-y,1/2+z
1/2-x,1/2+y,1/2+z
1/2+x,1/2-y,1/2+z
loop_
_atom_site_type_symbol
_atom_site_label
_atom_site_fract_x
_atom_site_fract_y
_atom_site_fract_z
Si Si1 0.229685 0.685232 0.991470
Si Si2 0.597675 0.198826 0.275216
Si Si3 0.399484 0.306625 0.403175
Si Si4 0.862471 0.188544 0.097304
Si Si5 0.095856 0.309266 0.605139
Si Si6 0.000000 0.500000 0.090227
Si Si7 0.092464 0.693644 0.470066
Si Si8 0.732184 0.314749 0.182292
O O1 0.238544 0.500000 0.013768
O O2 0.153873 0.700109 0.946748
O O3 0.316487 0.727283 0.957639
O O4 0.203783 0.798741 0.044442
O O5 0.500000 0.257752 0.260608
O O6 0.615458 0.260758 0.338361
O O7 0.674105 0.252433 0.234040
O O8 0.594858 0.000000 0.275044
O O9 0.500000 0.283601 0.414113
O O10 0.377777 0.500000 0.412259
O O11 0.925619 0.347750 0.090819
O O12 0.810159 0.211094 0.155795
O O13 0.898734 0.000000 0.095520
O O14 0.118835 0.500000 0.620470
O O15 0.092329 0.298874 0.538109
O O16 0.162778 0.188038 0.632182
O O17 0.000000 0.278985 0.626324
O O18 0.094654 0.500000 0.453947
O O19 0.000000 0.763406 0.451032
O O20 0.762940 0.500000 0.194369
#
# Coordination Sequence:
#
# PCOD9375482 Si02
#       8
#     8   8   8   8   8   2   8   8
#     4  12  23  37  57  89 126 162 214 260 305 378
#     4  10  21  38  59  88 124 164 203 250 311 373
#     4  10  22  39  60  87 118 160 209 257 316 373
#     4  12  25  43  64  89 125 164 205 261 316 374
#     4   9  17  29  47  74 110 153 193 232 287 350
#     4  12  26  48  60  94 122 156 218 252 320 384
#     4   9  18  33  53  78 112 155 200 247 303 363
#     4  12  22  35  55  86 121 156 204 250 291 369
#
# _framework density 19.399560999999999
#
# number of rings (size 3 to 8) (size 9 to 14) (size 15 to 20)
#    0.000    1.379    2.759    4.759    0.966    3.862 
#    0.000    1.379    0.000    0.000    1.793    0.000 
#    0.000    0.000    0.000    0.000    0.000    0.000 
#
# Total GULP energy -161466.813145 kJ/mol
# GULP energy per Si atom -5567.821143 kJ/mol
# Density = 1.935541 g / cm^3
# Si number density = 19.399561 Si / 1000 Ang^3
#
#
#
# Elastic Constant Matrix: (Units=GPa)
#
#
# Indices 1 2 3 4 5 6 
#
# 1 58.9606 36.7604 9.0386 0.0000 0.0000 0.0000
# 2 36.7604 101.2018 4.7460 0.0000 0.0000 0.0000
# 3 9.0386 4.7460 39.1116 0.0000 0.0000 0.0000
# 4 0.0000 0.0000 0.0000 21.8296 0.0000 0.0000
# 5 0.0000 0.0000 0.0000 0.0000 7.5889 0.0000
# 6 0.0000 0.0000 0.0000 0.0000 0.0000 19.3367
#
#
#
# Elastic Compliance Matrix: (Units=1/GPa)
#
#
# Indices 1 2 3 4 5 6 
#
# 1 0.022608 -0.008013 -0.004252 0.000000 0.000000 0.000000
# 2 -0.008013 0.012778 0.000301 0.000000 0.000000 0.000000
# 3 -0.004252 0.000301 0.026514 0.000000 0.000000 0.000000
# 4 0.000000 0.000000 0.000000 0.045809 0.000000 0.000000
# 5 0.000000 0.000000 0.000000 0.000000 0.131771 0.000000
# 6 0.000000 0.000000 0.000000 0.000000 0.000000 0.051715
#
#
# Mechanical properties :
#
#
# Convention : Reuss Voigt Hill
#
# Bulk Modulus (GPa) = 26.33518 33.37379 29.85448
# Shear Modulus (GPa) = 15.25410 19.66629 17.46019
#
# Velocity S-wave (km/s) = 2.80717 3.18740 3.00331
# Velocity P-wave (km/s) = 4.91035 5.54858 5.23919
#
# Compressibility (1/GPa) = 0.03797202
#
# Stress axis : x y z
#
# Youngs Moduli (GPa) = 44.23192 78.26168 37.71587
#
# Poissons Ratio (x) = 0.62709 0.16038
# Poissons Ratio (y) = 0.35442 -0.01136
# Poissons Ratio (z) = 0.18809 -0.02357
#
# Static dielectric constant tensor:
#      x y z
#    x 1.744720 0.000000 0.000000 
#    y 0.000000 1.722330 0.000000 
#    z 0.000000 0.000000 1.670170 
# 
# From -- ./inp_files/25738.got.cif
#   From: 2010.05.17/outbox.cif.g08.bks.cpg/sg44_13_cif.got.tgz:25738.got - 2010.06.03 19:37:08.
