data_PCOD9375976
_publ_section_title
;
Structure prediction by ZEFSAII (Michael W. Deem and Ramdas Pophale) SiO2 
 PCOD9375976
Probable space group: I M M 2
;
_chemical_formula_sum "Si O2"
_cell_formula_units_Z 32
_cell_length_a 9.000000
_cell_length_b 24.000000
_cell_length_c 15.000000
_cell_angle_alpha 90.000000
_cell_angle_beta 90.000000
_cell_angle_gamma 90.000000
_cell_volume 3240.000000
_symmetry_space_group_name_H-M "I M M 2"
_symmetry_group_IT_number 44
_symmetry_cell_setting 'orthorhombic'
loop_
_space_group_symop_operation_xyz
x,y,z
-x,-y,z
-x,y,z
x,-y,z
1/2+x,1/2+y,1/2+z
1/2-x,1/2-y,1/2+z
1/2-x,1/2+y,1/2+z
1/2+x,1/2-y,1/2+z
loop_
_atom_site_type_symbol
_atom_site_label
_atom_site_fract_x
_atom_site_fract_y
_atom_site_fract_z
Si Si1 0.321253 0.636437 0.011840
Si Si2 0.327437 0.775546 0.209201
Si Si3 0.829119 0.122809 0.172454
Si Si4 0.830160 0.650102 0.385928
Si Si5 0.665142 0.435344 0.491789
Si Si6 0.173665 0.144904 0.703487
Si Si7 0.181496 0.062964 0.345862
Si Si8 0.677506 0.764123 0.412090
O O1 0.500000 0.643807 0.010761
O O2 0.281964 0.617215 0.111001
O O3 0.278091 0.591963 0.937676
O O4 0.247477 0.694020 0.982160
O O5 0.500000 0.789321 0.208993
O O6 0.246933 0.819518 0.147367
O O7 0.313280 0.711163 0.185154
O O8 0.271749 0.780613 0.311441
O O9 0.761555 0.097859 0.262177
O O10 0.000000 0.136624 0.189898
O O11 0.824548 0.077002 0.096328
O O12 0.796144 0.597706 0.446449
O O13 0.774345 0.633892 0.287770
O O14 0.731709 0.701156 0.421065
O O15 0.000000 0.667394 0.385084
O O16 0.500000 0.414533 0.462924
O O17 0.671872 0.500000 0.472837
O O18 0.000000 0.133688 0.724303
O O19 0.000000 0.062500 0.340848
O O20 0.232861 0.000000 0.340881
O O21 0.500000 0.766321 0.414880
#
# Coordination Sequence:
#
# PCOD9375976 Si02
#       8
#     8   8   8   8   8   8   8   8
#     4  10  19  33  56  85 115 150 191 235 280 335
#     4   9  18  32  49  74 112 151 182 222 277 331
#     4  10  19  32  54  83 113 146 188 230 273 333
#     4  11  23  39  60  83 110 147 194 243 292 342
#     4  10  22  40  60  83 113 151 194 240 293 347
#     4   9  20  37  55  80 117 152 186 233 288 343
#     4   9  17  31  53  82 115 147 182 227 273 324
#     4  10  20  35  55  81 115 151 186 230 285 342
#
# _framework density 9.8765429999999999
#
# number of rings (size 3 to 8) (size 9 to 14) (size 15 to 20)
#    0.000    2.250    1.250    2.625    1.750    4.750 
#    0.000    0.625    0.000    4.500    0.000    0.000 
#    0.000    0.000    0.000    0.000    0.000    0.000 
#
# Total GULP energy -178393.178434 kJ/mol
# GULP energy per Si atom -5574.786826 kJ/mol
# Density = 0.985406 g / cm^3
# Si number density = 9.876543 Si / 1000 Ang^3
#
#
#
# Elastic Constant Matrix: (Units=GPa)
#
#
# Indices 1 2 3 4 5 6 
#
# 1 2.0123 16.4398 13.1349 0.0000 0.0000 0.0000
# 2 16.4398 32.5361 19.6320 0.0000 0.0000 0.0000
# 3 13.1349 19.6320 32.3795 0.0000 0.0000 0.0000
# 4 0.0000 0.0000 0.0000 10.2170 0.0000 0.0000
# 5 0.0000 0.0000 0.0000 0.0000 13.0011 0.0000
# 6 0.0000 0.0000 0.0000 0.0000 0.0000 9.2568
#
#
#
# Elastic Compliance Matrix: (Units=1/GPa)
#
#
# Indices 1 2 3 4 5 6 
#
# 1 -0.147105 0.060430 0.023035 0.000000 0.000000 0.000000
# 2 0.060430 0.023641 -0.038848 0.000000 0.000000 0.000000
# 3 0.023035 -0.038848 0.045094 0.000000 0.000000 0.000000
# 4 0.000000 0.000000 0.000000 0.097876 0.000000 0.000000
# 5 0.000000 0.000000 0.000000 0.000000 0.076917 0.000000
# 6 0.000000 0.000000 0.000000 0.000000 0.000000 0.108029
#
#
# Mechanical properties :
#
#
# Convention : Reuss Voigt Hill
#
# Bulk Modulus (GPa) = 92.04987 18.37127 55.21057
# Shear Modulus (GPa) = 42.07379 7.67637 24.87508
#
# Velocity S-wave (km/s) = 4.62018 1.97347 3.55251
# Velocity P-wave (km/s) = 8.66965 3.80965 6.69613
#
# Compressibility (1/GPa) = 0.01086368
#
# Stress axis : x y z
#
# Youngs Moduli (GPa) = -6.79785 42.29879 22.17614
#
# Poissons Ratio (x) = -2.55613 -0.51082
# Poissons Ratio (y) = 0.41080 0.86150
# Poissons Ratio (z) = 0.15659 1.64322
#
# Static dielectric constant tensor:
#      x y z
#    x 1.676740 0.000000 0.000000 
#    y 0.000000 1.708500 0.000000 
#    z 0.000000 0.000000 1.766270 
# 
# From -- ./inp_files/16803.got.cif
#   From: 2010.05.17/outbox.ucp.g08.bks.cvg/sg44_9_cif.got.tgz:16803.got - 2010.06.11 16:32:36.
