data_PCOD9375471
_publ_section_title
;
Structure prediction by ZEFSAII (Michael W. Deem and Ramdas Pophale) SiO2 
 PCOD9375471
Probable space group: I M M 2
;
_chemical_formula_sum "Si O2"
_cell_formula_units_Z 64
_cell_length_a 18.742897
_cell_length_b 28.179022
_cell_length_c 6.877313
_cell_angle_alpha 90.000000
_cell_angle_beta 90.000000
_cell_angle_gamma 90.000000
_cell_volume 3632.297611
_symmetry_space_group_name_H-M "I M M 2"
_symmetry_group_IT_number 44
_symmetry_cell_setting 'orthorhombic'
loop_
_space_group_symop_operation_xyz
x,y,z
-x,-y,z
-x,y,z
x,-y,z
1/2+x,1/2+y,1/2+z
1/2-x,1/2-y,1/2+z
1/2-x,1/2+y,1/2+z
1/2+x,1/2-y,1/2+z
loop_
_atom_site_type_symbol
_atom_site_label
_atom_site_fract_x
_atom_site_fract_y
_atom_site_fract_z
Si Si1 0.914906 0.303670 0.681660
Si Si2 0.415194 0.874365 0.852913
Si Si3 0.170197 0.624970 0.953963
Si Si4 0.824175 0.443756 0.606309
Si Si5 0.084806 0.874366 0.128027
Si Si6 0.414906 0.303670 0.299280
Si Si7 0.824174 0.943756 0.874631
Si Si8 0.329803 0.624970 0.026977
O O1 0.900149 0.324299 0.464942
O O2 0.873110 0.338069 0.824540
O O3 0.896507 0.250000 0.740470
O O4 0.000000 0.308994 0.709632
O O5 0.500000 0.877595 0.821353
O O6 0.371952 0.880202 0.654463
O O7 0.386649 0.915603 0.995245
O O8 0.178371 0.577535 0.823491
O O9 0.250000 0.642717 0.990470
O O10 0.834963 0.500000 0.606713
O O11 0.750000 0.433599 0.490470
O O12 0.128048 0.880202 0.326477
O O13 0.000000 0.877595 0.159587
O O14 0.099851 0.824299 0.015998
O O15 0.113351 0.915603 0.985695
O O16 0.500000 0.308994 0.271307
O O17 0.373110 0.338069 0.156400
O O18 0.821629 0.922465 0.657449
O O19 0.834963 0.000000 0.874226
#
# Coordination Sequence:
#
# PCOD9375471 Si02
#       8
#     8   8   8   8   8   8   8   8
#     4   9  20  39  59  82 115 154 193 233 286 349
#     4  10  21  38  60  85 117 152 191 241 289 341
#     4  11  21  36  57  87 115 151 193 239 290 346
#     4  10  21  38  59  82 114 154 195 238 290 350
#     4  10  21  38  60  85 117 152 191 241 289 341
#     4   9  20  39  59  82 115 154 193 233 286 349
#     4  10  21  38  59  82 114 154 195 238 290 350
#     4  11  21  36  57  87 115 151 193 239 290 346
#
# _framework density 17.619702
#
# number of rings (size 3 to 8) (size 9 to 14) (size 15 to 20)
#    0.000    2.000    2.500    0.750    0.000    4.000 
#    4.500    3.750    0.000    0.000    0.000    0.000 
#    0.000    0.000    0.000    0.000    0.000    0.000 
#
# Total GULP energy -178421.609199 kJ/mol
# GULP energy per Si atom -5575.675287 kJ/mol
# Density = 1.757960 g / cm^3
# Si number density = 17.619702 Si / 1000 Ang^3
#
#
#
# Elastic Constant Matrix: (Units=GPa)
#
#
# Indices 1 2 3 4 5 6 
#
# 1 42.5897 41.8357 49.6692 0.0000 0.0000 0.0000
# 2 41.8357 110.2332 50.7722 0.0000 0.0000 0.0000
# 3 49.6692 50.7722 131.2036 0.0000 0.0000 0.0000
# 4 0.0000 0.0000 0.0000 15.4844 0.0000 0.0000
# 5 0.0000 0.0000 0.0000 0.0000 40.1461 0.0000
# 6 0.0000 0.0000 0.0000 0.0000 0.0000 23.7660
#
#
#
# Elastic Compliance Matrix: (Units=1/GPa)
#
#
# Indices 1 2 3 4 5 6 
#
# 1 0.055125 -0.013762 -0.015543 0.000000 0.000000 0.000000
# 2 -0.013762 0.014475 -0.000392 0.000000 0.000000 0.000000
# 3 -0.015543 -0.000392 0.013657 0.000000 0.000000 0.000000
# 4 0.000000 0.000000 0.000000 0.064581 0.000000 0.000000
# 5 0.000000 0.000000 0.000000 0.000000 0.024909 0.000000
# 6 0.000000 0.000000 0.000000 0.000000 0.000000 0.042077
#
#
# Mechanical properties :
#
#
# Convention : Reuss Voigt Hill
#
# Bulk Modulus (GPa) = 41.90404 63.17564 52.53984
# Shear Modulus (GPa) = 17.71971 25.32925 21.52448
#
# Velocity S-wave (km/s) = 3.17468 3.79562 3.49895
# Velocity P-wave (km/s) = 6.10510 7.42576 6.79758
#
# Compressibility (1/GPa) = 0.02386405
#
# Stress axis : x y z
#
# Youngs Moduli (GPa) = 18.14071 69.08453 73.22131
#
# Poissons Ratio (x) = 0.95075 1.13806
# Poissons Ratio (y) = 0.24965 0.02867
# Poissons Ratio (z) = 0.28196 0.02705
#
# Static dielectric constant tensor:
#      x y z
#    x 1.581110 0.000000 0.000000 
#    y 0.000000 1.584980 0.000000 
#    z 0.000000 0.000000 1.616680 
# 
# From -- ./inp_files/2529.got.cif
#   From: 2010.05.17/outbox.cif.g08.bks.cpg/sg44_2_cif.got.tgz:2529.got - 2010.06.03 19:37:08.
