data_PCOD9375363
_publ_section_title
;
Structure prediction by ZEFSAII (Michael W. Deem and Ramdas Pophale) SiO2 
 PCOD9375363
Probable space group: I M M 2
;
_chemical_formula_sum "Si O2"
_cell_formula_units_Z 64
_cell_length_a 20.971493
_cell_length_b 16.991115
_cell_length_c 8.893666
_cell_angle_alpha 90.000000
_cell_angle_beta 90.000000
_cell_angle_gamma 90.000000
_cell_volume 3169.071550
_symmetry_space_group_name_H-M "I M M 2"
_symmetry_group_IT_number 44
_symmetry_cell_setting 'orthorhombic'
loop_
_space_group_symop_operation_xyz
x,y,z
-x,-y,z
-x,y,z
x,-y,z
1/2+x,1/2+y,1/2+z
1/2-x,1/2-y,1/2+z
1/2-x,1/2+y,1/2+z
1/2+x,1/2-y,1/2+z
loop_
_atom_site_type_symbol
_atom_site_label
_atom_site_fract_x
_atom_site_fract_y
_atom_site_fract_z
Si Si1 0.180164 0.411261 0.276540
Si Si2 0.356571 0.322193 0.978026
Si Si3 0.727531 0.908284 0.431753
Si Si4 0.289261 0.656286 0.482540
Si Si5 0.069192 0.086694 0.700420
Si Si6 0.693173 0.786923 0.223901
Si Si7 0.926856 0.279583 0.251564
Si Si8 0.928419 0.157503 0.012271
O O1 0.155820 0.500000 0.294144
O O2 0.236283 0.397496 0.399392
O O3 0.124245 0.347026 0.285670
O O4 0.207319 0.403722 0.106425
O O5 0.379487 0.394888 0.077528
O O6 0.351656 0.249125 0.094354
O O7 0.289024 0.351719 0.918325
O O8 0.405172 0.295310 0.851023
O O9 0.679187 0.867663 0.313117
O O10 0.738948 0.000000 0.395917
O O11 0.301572 0.720789 0.352241
O O12 0.256636 0.697898 0.624512
O O13 0.357307 0.620719 0.536186
O O14 0.000000 0.088693 0.626312
O O15 0.078073 0.000000 0.768707
O O16 0.068532 0.149382 0.833062
O O17 0.923027 0.244470 0.082625
O O18 0.000000 0.301935 0.281895
O O19 0.000000 0.127769 0.063118
#
# Coordination Sequence:
#
# PCOD9375363 Si02
#       8
#     8   8   8   8   8   8   8   8
#     4  11  23  40  64  93 125 165 209 260 316 365
#     4  12  21  37  63  88 120 164 206 250 306 367
#     4  11  23  38  59  92 129 158 198 257 314 367
#     4  12  20  37  60  89 123 160 206 251 304 366
#     4  10  21  37  57  86 123 160 199 244 299 366
#     4  12  21  35  61  87 120 163 204 254 303 362
#     4  11  24  42  63  91 123 163 215 259 308 370
#     4  10  21  36  60  87 120 160 202 249 300 363
#
# _framework density 20.195188999999999
#
# number of rings (size 3 to 8) (size 9 to 14) (size 15 to 20)
#    0.000    0.875    5.000    3.000    0.000    2.250 
#    0.000    2.500    0.000    3.000    0.000    0.000 
#    0.000    0.000    0.000    0.000    0.000    0.000 
#
# Total GULP energy -178219.001207 kJ/mol
# GULP energy per Si atom -5569.343788 kJ/mol
# Density = 2.014922 g / cm^3
# Si number density = 20.195189 Si / 1000 Ang^3
#
#
#
# Elastic Constant Matrix: (Units=GPa)
#
#
# Indices 1 2 3 4 5 6 
#
# 1 94.7228 25.7178 19.6629 0.0000 0.0000 0.0000
# 2 25.7178 82.8303 32.4758 0.0000 0.0000 0.0000
# 3 19.6629 32.4758 76.6837 0.0000 0.0000 0.0000
# 4 0.0000 0.0000 0.0000 22.6274 0.0000 0.0000
# 5 0.0000 0.0000 0.0000 0.0000 26.6243 0.0000
# 6 0.0000 0.0000 0.0000 0.0000 0.0000 15.0572
#
#
#
# Elastic Compliance Matrix: (Units=1/GPa)
#
#
# Indices 1 2 3 4 5 6 
#
# 1 0.011723 -0.002951 -0.001756 0.000000 0.000000 0.000000
# 2 -0.002951 0.015220 -0.005689 0.000000 0.000000 0.000000
# 3 -0.001756 -0.005689 0.015900 0.000000 0.000000 0.000000
# 4 0.000000 0.000000 0.000000 0.044194 0.000000 0.000000
# 5 0.000000 0.000000 0.000000 0.000000 0.037560 0.000000
# 6 0.000000 0.000000 0.000000 0.000000 0.000000 0.066413
#
#
# Mechanical properties :
#
#
# Convention : Reuss Voigt Hill
#
# Bulk Modulus (GPa) = 45.35080 45.54998 45.45039
# Shear Modulus (GPa) = 22.81517 24.62046 23.71781
#
# Velocity S-wave (km/s) = 3.36480 3.49538 3.43071
# Velocity P-wave (km/s) = 6.13195 6.23652 6.18445
#
# Compressibility (1/GPa) = 0.02205033
#
# Stress axis : x y z
#
# Youngs Moduli (GPa) = 85.30268 65.70436 62.89271
#
# Poissons Ratio (x) = 0.19392 0.11044
# Poissons Ratio (y) = 0.25176 0.35779
# Poissons Ratio (z) = 0.14980 0.37378
#
# Static dielectric constant tensor:
#      x y z
#    x 1.813240 0.000000 0.000000 
#    y 0.000000 1.715710 0.000000 
#    z 0.000000 0.000000 1.720380 
# 
# From -- ./inp_files/9023.got.cif
#   From: 2010.05.17/outbox.cif.g08.bks.cpg/sg44_5_cif.got.tgz:9023.got - 2010.06.03 19:37:08.
