data_PCOD9375765
_publ_section_title
;
Structure prediction by ZEFSAII (Michael W. Deem and Ramdas Pophale) SiO2 
 PCOD9375765
Probable space group: I M M 2
;
_chemical_formula_sum "Si O2"
_cell_formula_units_Z 34
_cell_length_a 10.577828
_cell_length_b 15.973347
_cell_length_c 7.966241
_cell_angle_alpha 90.000000
_cell_angle_beta 90.000000
_cell_angle_gamma 90.000000
_cell_volume 1346.002505
_symmetry_space_group_name_H-M "I M M 2"
_symmetry_group_IT_number 44
_symmetry_cell_setting 'orthorhombic'
loop_
_space_group_symop_operation_xyz
x,y,z
-x,-y,z
-x,y,z
x,-y,z
1/2+x,1/2+y,1/2+z
1/2-x,1/2-y,1/2+z
1/2-x,1/2+y,1/2+z
1/2+x,1/2-y,1/2+z
loop_
_atom_site_type_symbol
_atom_site_label
_atom_site_fract_x
_atom_site_fract_y
_atom_site_fract_z
Si Si1 0.500000 0.673584 0.977640
Si Si2 0.251396 0.747855 0.802804
Si Si3 0.647789 0.089562 0.624545
Si Si4 0.000000 0.819827 0.851212
Si Si5 0.353513 0.088797 0.217570
Si Si6 0.500000 0.500000 0.181669
O O1 0.375591 0.706862 0.884973
O O2 0.500000 0.712995 0.160429
O O3 0.500000 0.575062 0.030514
O O4 0.284765 0.834608 0.712773
O O5 0.127251 0.774107 0.913647
O O6 0.210924 0.674422 0.673541
O O7 0.500000 0.090100 0.670899
O O8 0.652232 0.090359 0.422333
O O9 0.708107 0.000000 0.676267
O O10 0.000000 0.920962 0.825134
O O11 0.500000 0.088887 0.168746
O O12 0.297709 0.000000 0.160256
#
# Coordination Sequence:
#
# PCOD9375765 Si02
#       6
#     4   8   8   4   8   2
#     4  10  24  40  64  96 132 164 220 278 324 384
#     4  12  20  36  60  96 124 164 208 270 328 384
#     4   9  19  35  57  85 114 151 203 255 303 373
#     4  10  24  40  64  96 132 164 220 278 324 384
#     4   9  19  35  57  85 114 151 203 255 303 373
#     4   8  24  48  64  98 136 168 224 298 316 372
#
# _framework density 25.259983999999999
#
# number of rings (size 3 to 8) (size 9 to 14) (size 15 to 20)
#    0.706    1.412    2.353    2.824    3.294    0.000 
#    0.000    0.000    0.000    7.059    0.000    9.882 
#    0.000    0.000    0.000    0.000    0.000    0.000 
#
# Total GULP energy -94672.884591 kJ/mol
# GULP energy per Si atom -5568.993211 kJ/mol
# Density = 2.520249 g / cm^3
# Si number density = 25.259984 Si / 1000 Ang^3
#
#
#
# Elastic Constant Matrix: (Units=GPa)
#
#
# Indices 1 2 3 4 5 6 
#
# 1 138.5517 81.8741 26.9223 0.0000 0.0000 0.0000
# 2 81.8741 279.1246 25.3994 0.0000 0.0000 0.0000
# 3 26.9223 25.3994 17.3523 0.0002 0.0000 0.0000
# 4 0.0000 0.0000 0.0002 35.5130 0.0000 0.0000
# 5 0.0000 0.0000 0.0000 0.0000 28.7041 0.0000
# 6 0.0000 0.0000 0.0000 0.0000 0.0000 45.1973
#
#
#
# Elastic Compliance Matrix: (Units=1/GPa)
#
#
# Indices 1 2 3 4 5 6 
#
# 1 0.011195 -0.001965 -0.014493 0.000000 0.000000 0.000000
# 2 -0.001965 0.004478 -0.003506 0.000000 0.000000 0.000000
# 3 -0.014493 -0.003506 0.085247 0.000000 0.000000 0.000000
# 4 0.000000 0.000000 0.000000 0.028159 0.000000 0.000000
# 5 0.000000 0.000000 0.000000 0.000000 0.034838 0.000000
# 6 0.000000 0.000000 0.000000 0.000000 0.000000 0.022125
#
#
# Mechanical properties :
#
#
# Convention : Reuss Voigt Hill
#
# Bulk Modulus (GPa) = 16.39550 78.15780 47.27665
# Shear Modulus (GPa) = 20.30041 41.93838 31.11940
#
# Velocity S-wave (km/s) = 2.83796 4.07906 3.51374
# Velocity P-wave (km/s) = 4.15253 7.29339 5.93452
#
# Compressibility (1/GPa) = 0.06099236
#
# Stress axis : x y z
#
# Youngs Moduli (GPa) = 89.32746 223.31249 11.73061
#
# Poissons Ratio (x) = 0.43879 0.17001
# Poissons Ratio (y) = 0.17552 0.04113
# Poissons Ratio (z) = 1.29460 0.78296
#
# Static dielectric constant tensor:
#      x y z
#    x 2.195190 0.000000 0.000000 
#    y 0.000000 2.045040 0.000000 
#    z 0.000000 0.000000 1.993580 
# 
# From -- ./inp_files/12004.got.cif
#   From: 2010.05.17/outbox.cif.g08.bks.cpg/sg44_7_cif.got.tgz:12004.got - 2010.06.03 19:37:08.
