data_PCOD9375312
_publ_section_title
;
Structure prediction by ZEFSAII (Michael W. Deem and Ramdas Pophale) SiO2 
 PCOD9375312
Probable space group: I M M 2
;
_chemical_formula_sum "Si O2"
_cell_formula_units_Z 48
_cell_length_a 19.289854
_cell_length_b 8.680949
_cell_length_c 15.729883
_cell_angle_alpha 90.000000
_cell_angle_beta 90.000000
_cell_angle_gamma 90.000000
_cell_volume 2634.035584
_symmetry_space_group_name_H-M "I M M 2"
_symmetry_group_IT_number 44
_symmetry_cell_setting 'orthorhombic'
loop_
_space_group_symop_operation_xyz
x,y,z
-x,-y,z
-x,y,z
x,-y,z
1/2+x,1/2+y,1/2+z
1/2-x,1/2-y,1/2+z
1/2-x,1/2+y,1/2+z
1/2+x,1/2-y,1/2+z
loop_
_atom_site_type_symbol
_atom_site_label
_atom_site_fract_x
_atom_site_fract_y
_atom_site_fract_z
Si Si1 0.920670 0.187489 0.229460
Si Si2 0.918496 0.185349 0.036499
Si Si3 0.329081 0.686504 0.888386
Si Si4 0.831170 0.315750 0.881953
Si Si5 0.080296 0.684513 0.541511
Si Si6 0.919615 0.184398 0.727312
O O1 0.901649 0.233604 0.133356
O O2 0.869071 0.238426 0.303106
O O3 0.000000 0.236542 0.246707
O O4 0.920951 0.000000 0.229345
O O5 0.000000 0.219157 0.021988
O O6 0.910689 0.000000 0.030634
O O7 0.871340 0.263500 0.966318
O O8 0.331386 0.500000 0.890909
O O9 0.248966 0.734289 0.886320
O O10 0.369620 0.749405 0.969826
O O11 0.832814 0.500000 0.875176
O O12 0.870191 0.245879 0.800815
O O13 0.083852 0.500000 0.542166
O O14 0.098134 0.747309 0.635049
O O15 0.000000 0.730175 0.524005
O O16 0.000000 0.227592 0.745811
O O17 0.915959 0.000000 0.723739
#
# Coordination Sequence:
#
# PCOD9375312 Si02
#       6
#     8   8   8   8   8   8
#     4   8  15  31  56  79  97 126 173 223 262 303
#     4   9  18  34  56  79 101 133 181 227 269 323
#     4  10  21  36  54  79 111 146 181 216 264 327
#     4  11  23  35  50  79 115 146 179 221 269 321
#     4  10  21  37  58  84 111 140 179 229 279 322
#     4  10  21  38  60  82 105 141 187 229 273 329
#
# _framework density 18.222988999999998
#
# number of rings (size 3 to 8) (size 9 to 14) (size 15 to 20)
#    0.000    2.333    0.000    3.500    0.000    7.667 
#    0.000    2.500    0.000    1.000    0.000    0.000 
#    0.000    0.000    0.000    0.000    0.000    0.000 
#
# Total GULP energy -133994.588030 kJ/mol
# GULP energy per Si atom -5583.107835 kJ/mol
# Density = 1.818151 g / cm^3
# Si number density = 18.222989 Si / 1000 Ang^3
#
#
#
# Elastic Constant Matrix: (Units=GPa)
#
#
# Indices 1 2 3 4 5 6 
#
# 1 137.3890 42.9822 133.9618 0.0000 0.0000 0.0000
# 2 42.9822 26.1828 41.9740 0.0000 0.0000 0.0000
# 3 133.9618 41.9740 182.4060 0.0000 0.0000 0.0000
# 4 0.0000 0.0000 0.0000 26.0975 0.0000 0.0000
# 5 0.0000 0.0000 0.0000 0.0000 -32.6968 0.0000
# 6 0.0000 0.0000 0.0000 0.0000 0.0000 25.7794
#
#
#
# Elastic Compliance Matrix: (Units=1/GPa)
#
#
# Indices 1 2 3 4 5 6 
#
# 1 0.033263 -0.024470 -0.018798 0.000000 0.000000 0.000000
# 2 -0.024470 0.078519 -0.000097 0.000000 0.000000 0.000000
# 3 -0.018798 -0.000097 0.019310 0.000000 0.000000 0.000000
# 4 0.000000 0.000000 0.000000 0.038318 0.000000 0.000000
# 5 0.000000 0.000000 0.000000 0.000000 -0.030584 0.000000
# 6 0.000000 0.000000 0.000000 0.000000 0.000000 0.038791
#
#
# Mechanical properties :
#
#
# Convention : Reuss Voigt Hill
#
# Bulk Modulus (GPa) = 22.54178 87.09042 54.81610
# Shear Modulus (GPa) = 17.91242 12.30667 15.10954
#
# Velocity S-wave (km/s) = 3.13862 2.60155 2.88262
# Velocity P-wave (km/s) = 5.05286 7.54449 6.42070
#
# Compressibility (1/GPa) = 0.04436208
#
# Stress axis : x y z
#
# Youngs Moduli (GPa) = 30.06299 12.73574 51.78551
#
# Poissons Ratio (x) = 0.31164 0.97348
# Poissons Ratio (y) = 0.73564 0.00503
# Poissons Ratio (z) = 0.56513 0.00124
#
# Static dielectric constant tensor:
#      x y z
#    x 1.611550 0.000000 0.000000 
#    y 0.000000 1.620050 0.000000 
#    z 0.000000 0.000000 1.598880 
# 
# From -- ./inp_files/16064.got.cif
#   From: 2010.05.17/outbox.cif.g08.bks.cpg/sg44_9_cif.got.tgz:16064.got - 2010.06.03 19:37:08.
