data_PCOD9375085
_publ_section_title
;
Structure prediction by ZEFSAII (Michael W. Deem and Ramdas Pophale) SiO2 
 PCOD9375085
Probable space group: I M M 2
;
_chemical_formula_sum "Si O2"
_cell_formula_units_Z 24
_cell_length_a 17.529981
_cell_length_b 12.096755
_cell_length_c 5.287269
_cell_angle_alpha 90.000000
_cell_angle_beta 90.000000
_cell_angle_gamma 90.000000
_cell_volume 1121.196509
_symmetry_space_group_name_H-M "I M M 2"
_symmetry_group_IT_number 44
_symmetry_cell_setting 'orthorhombic'
loop_
_space_group_symop_operation_xyz
x,y,z
-x,-y,z
-x,y,z
x,-y,z
1/2+x,1/2+y,1/2+z
1/2-x,1/2-y,1/2+z
1/2-x,1/2+y,1/2+z
1/2+x,1/2-y,1/2+z
loop_
_atom_site_type_symbol
_atom_site_label
_atom_site_fract_x
_atom_site_fract_y
_atom_site_fract_z
Si Si1 0.324010 0.666020 0.698610
Si Si2 0.841125 0.625279 0.494167
Si Si3 0.912113 0.167900 0.690423
O O1 0.238364 0.629069 0.647431
O O2 0.324501 0.799234 0.746496
O O3 0.374886 0.638424 0.456706
O O4 0.362136 0.623507 0.956342
O O5 0.863139 0.500000 0.443121
O O6 0.902064 0.699388 0.646293
O O7 0.000000 0.136786 0.675287
#
# Coordination Sequence:
#
# PCOD9375085 Si02
#       3
#     8   8   8
#     4  10  20  39  54  87 113 150 194 228 286 342
#     4  10  21  38  61  85 114 151 195 238 286 344
#     4  10  20  37  58  82 118 149 183 237 295 341
#
# _framework density 21.405704
#
# number of rings (size 3 to 8) (size 9 to 14) (size 15 to 20)
#    2.000    0.000    3.333    1.000    0.000    2.000 
#    0.000    0.000    0.000    6.000    0.000    0.000 
#    0.000    0.000    0.000    0.000    0.000    0.000 
#
# Total GULP energy -66897.075129 kJ/mol
# GULP energy per Si atom -5574.756261 kJ/mol
# Density = 2.135698 g / cm^3
# Si number density = 21.405704 Si / 1000 Ang^3
#
#
#
# Elastic Constant Matrix: (Units=GPa)
#
#
# Indices 1 2 3 4 5 6 
#
# 1 106.6169 -13.4576 41.3876 0.0000 0.0000 0.0000
# 2 -13.4576 134.5077 2.4392 0.0000 0.0000 0.0000
# 3 41.3876 2.4392 153.3733 0.0000 0.0000 0.0000
# 4 0.0000 0.0000 0.0000 -6.6265 0.0000 0.0000
# 5 0.0000 0.0000 0.0000 0.0000 24.5233 0.0000
# 6 0.0000 0.0000 0.0000 0.0000 0.0000 16.2570
#
#
#
# Elastic Compliance Matrix: (Units=1/GPa)
#
#
# Indices 1 2 3 4 5 6 
#
# 1 0.010642 0.001117 -0.002890 0.000000 0.000000 0.000000
# 2 0.001117 0.007554 -0.000422 0.000000 0.000000 0.000000
# 3 -0.002890 -0.000422 0.007306 0.000000 0.000000 0.000000
# 4 0.000000 0.000000 0.000000 -0.150909 0.000000 0.000000
# 5 0.000000 0.000000 0.000000 0.000000 0.040778 0.000000
# 6 0.000000 0.000000 0.000000 0.000000 0.000000 0.061512
#
#
# Mechanical properties :
#
#
# Convention : Reuss Voigt Hill
#
# Bulk Modulus (GPa) = 47.36073 50.58182 48.97128
# Shear Modulus (GPa) = -427.70170 31.10599 -198.29785
#
# Velocity S-wave (km/s) = -14.15066 3.81617 -9.63530
# Velocity P-wave (km/s) = 15.64656 6.56498 10.04281
#
# Compressibility (1/GPa) = 0.02111454
#
# Stress axis : x y z
#
# Youngs Moduli (GPa) = 93.96676 132.38139 136.86486
#
# Poissons Ratio (x) = -0.14789 0.39547
# Poissons Ratio (y) = -0.10497 0.05770
# Poissons Ratio (z) = 0.27152 0.05581
#
# Static dielectric constant tensor:
#      x y z
#    x 1.711960 0.000000 0.000000 
#    y 0.000000 1.875050 0.000000 
#    z 0.000000 0.000000 1.760700 
# 
# From -- ./inp_files/697.got.cif
#   From: 2010.05.17/outbox.cif.g08.bks.cpg/sg44_1_cif.got.tgz:697.got - 2010.06.03 19:37:08.
