data_PCOD9375682
_publ_section_title
;
Structure prediction by ZEFSAII (Michael W. Deem and Ramdas Pophale) SiO2 
 PCOD9375682
Probable space group: I M M 2
;
_chemical_formula_sum "Si O2"
_cell_formula_units_Z 64
_cell_length_a 8.901850
_cell_length_b 25.530491
_cell_length_c 15.118904
_cell_angle_alpha 90.000000
_cell_angle_beta 90.000000
_cell_angle_gamma 90.000000
_cell_volume 3436.052165
_symmetry_space_group_name_H-M "I M M 2"
_symmetry_group_IT_number 44
_symmetry_cell_setting 'orthorhombic'
loop_
_space_group_symop_operation_xyz
x,y,z
-x,-y,z
-x,y,z
x,-y,z
1/2+x,1/2+y,1/2+z
1/2-x,1/2-y,1/2+z
1/2-x,1/2+y,1/2+z
1/2+x,1/2-y,1/2+z
loop_
_atom_site_type_symbol
_atom_site_label
_atom_site_fract_x
_atom_site_fract_y
_atom_site_fract_z
Si Si1 0.178131 0.370567 0.961740
Si Si2 0.320214 0.889834 0.130749
Si Si3 0.178660 0.781084 0.153795
Si Si4 0.821171 0.151247 0.836238
Si Si5 0.821167 0.731205 0.844605
Si Si6 0.680387 0.941662 0.947456
Si Si7 0.178275 0.062331 0.307853
Si Si8 0.179436 0.830038 0.630875
O O1 0.202140 0.313469 0.916639
O O2 0.250634 0.412073 0.895111
O O3 0.000000 0.379034 0.968771
O O4 0.254259 0.368398 0.057337
O O5 0.500000 0.885290 0.138760
O O6 0.250033 0.832951 0.112262
O O7 0.253921 0.911895 0.221853
O O8 0.282942 0.927649 0.049065
O O9 0.227233 0.782245 0.257115
O O10 0.247550 0.727180 0.117884
O O11 0.000000 0.781074 0.144029
O O12 0.782429 0.209470 0.872229
O O13 0.742588 0.104100 0.886019
O O14 0.785195 0.152976 0.731510
O O15 0.000000 0.145028 0.845403
O O16 0.000000 0.731323 0.820822
O O17 0.500000 0.941540 0.940724
O O18 0.735532 0.000000 0.924921
O O19 0.000000 0.072736 0.305848
O O20 0.202338 0.000000 0.306477
O O21 0.000000 0.826137 0.622981
#
# Coordination Sequence:
#
# PCOD9375682 Si02
#       8
#     8   8   8   8   8   8   8   8
#     4  11  22  37  61  91 122 158 201 248 300 359
#     4  11  22  38  59  86 120 160 200 242 300 360
#     4  11  21  34  56  87 121 158 199 239 292 354
#     4   9  20  39  61  85 116 153 194 243 298 351
#     4   9  19  36  56  84 120 154 189 238 297 354
#     4  10  23  41  60  85 116 151 197 249 297 349
#     4  11  24  41  61  88 122 160 203 250 298 355
#     4  10  22  40  60  85 123 161 197 247 303 357
#
# _framework density 18.626026
#
# number of rings (size 3 to 8) (size 9 to 14) (size 15 to 20)
#    0.000    1.750    1.250    3.750    1.750    5.750 
#    0.000    0.625    0.000    0.750    0.000    0.000 
#    0.000    0.000    0.000    0.000    0.000    0.000 
#
# Total GULP energy -178810.657060 kJ/mol
# GULP energy per Si atom -5587.833033 kJ/mol
# Density = 1.858363 g / cm^3
# Si number density = 18.626026 Si / 1000 Ang^3
#
#
#
# Elastic Constant Matrix: (Units=GPa)
#
#
# Indices 1 2 3 4 5 6 
#
# 1 66.1182 42.1705 38.8006 0.0000 0.0000 0.0000
# 2 42.1705 98.6052 30.5304 0.0000 0.0000 0.0000
# 3 38.8006 30.5304 51.2180 0.0001 0.0000 0.0000
# 4 0.0000 0.0000 0.0001 25.4969 0.0000 0.0000
# 5 0.0000 0.0000 0.0000 0.0000 31.0913 0.0000
# 6 0.0000 0.0000 0.0000 0.0000 0.0000 31.2229
#
#
#
# Elastic Compliance Matrix: (Units=1/GPa)
#
#
# Indices 1 2 3 4 5 6 
#
# 1 0.031041 -0.007351 -0.019134 0.000000 0.000000 0.000000
# 2 -0.007351 0.014178 -0.002882 0.000000 0.000000 0.000000
# 3 -0.019134 -0.002882 0.035737 0.000000 0.000000 0.000000
# 4 0.000000 0.000000 0.000000 0.039220 0.000000 0.000000
# 5 0.000000 0.000000 0.000000 0.000000 0.032163 0.000000
# 6 0.000000 0.000000 0.000000 0.000000 0.000000 0.032028
#
#
# Mechanical properties :
#
#
# Convention : Reuss Voigt Hill
#
# Bulk Modulus (GPa) = 45.00000 48.77161 46.88580
# Shear Modulus (GPa) = 19.95932 24.52489 22.24211
#
# Velocity S-wave (km/s) = 3.27705 3.63257 3.45938
# Velocity P-wave (km/s) = 6.20733 6.62085 6.41742
#
# Compressibility (1/GPa) = 0.02222222
#
# Stress axis : x y z
#
# Youngs Moduli (GPa) = 32.21504 70.53300 27.98201
#
# Poissons Ratio (x) = 0.51851 0.53540
# Poissons Ratio (y) = 0.23682 0.08065
# Poissons Ratio (z) = 0.61639 0.20329
#
# Static dielectric constant tensor:
#      x y z
#    x 1.621220 0.000000 0.000000 
#    y 0.000000 1.634540 0.000000 
#    z 0.000000 0.000000 1.638660 
# 
# From -- ./inp_files/16768.got.cif
#   From: 2010.05.17/outbox.cif.g08.bks.cpg/sg44_9_cif.got.tgz:16768.got - 2010.06.03 19:37:08.
