data_PCOD9375959
_publ_section_title
;
Structure prediction by ZEFSAII (Michael W. Deem and Ramdas Pophale) SiO2 
 PCOD9375959
Probable space group: I M M 2
;
_chemical_formula_sum "Si O2"
_cell_formula_units_Z 28
_cell_length_a 15.000000
_cell_length_b 9.000000
_cell_length_c 21.000000
_cell_angle_alpha 90.000000
_cell_angle_beta 90.000000
_cell_angle_gamma 90.000000
_cell_volume 2835.000000
_symmetry_space_group_name_H-M "I M M 2"
_symmetry_group_IT_number 44
_symmetry_cell_setting 'orthorhombic'
loop_
_space_group_symop_operation_xyz
x,y,z
-x,-y,z
-x,y,z
x,-y,z
1/2+x,1/2+y,1/2+z
1/2-x,1/2-y,1/2+z
1/2-x,1/2+y,1/2+z
1/2+x,1/2-y,1/2+z
loop_
_atom_site_type_symbol
_atom_site_label
_atom_site_fract_x
_atom_site_fract_y
_atom_site_fract_z
Si Si1 0.722851 0.822643 0.756940
Si Si2 0.099194 0.319279 0.372141
Si Si3 0.711444 0.180353 0.994180
Si Si4 0.899072 0.175214 0.603699
Si Si5 0.904853 0.178002 0.005237
Si Si6 0.899954 0.823331 0.157493
Si Si7 0.598184 0.822848 0.242344
O O1 0.654798 0.773718 0.811300
O O2 0.679484 0.761180 0.692193
O O3 0.818456 0.756130 0.773884
O O4 0.728566 0.000000 0.754004
O O5 0.096486 0.500000 0.371144
O O6 0.147432 0.277912 0.436787
O O7 0.000000 0.260794 0.369639
O O8 0.672947 0.254871 0.057120
O O9 0.811536 0.231165 0.978126
O O10 0.711427 0.000000 0.002041
O O11 0.898453 0.261869 0.670177
O O12 0.000000 0.192144 0.576908
O O13 0.883587 0.000000 0.614570
O O14 0.898091 0.199036 0.081530
O O15 0.000000 0.240603 0.983270
O O16 0.907635 0.000000 0.994754
O O17 0.000000 0.776854 0.179413
O O18 0.890989 0.000000 0.168706
O O19 0.500000 0.785280 0.268352
O O20 0.608229 0.000000 0.242423
#
# Coordination Sequence:
#
# PCOD9375959 Si02
#       7
#     8   8   8   8   8   8   8
#     4  11  21  33  51  74 103 138 175 221 271 311
#     4   9  19  34  50  73 106 140 175 214 256 306
#     4  10  18  31  54  77 100 139 184 218 251 299
#     4  10  20  33  51  79 112 138 163 206 264 317
#     4   8  15  28  47  73 101 125 157 207 258 299
#     4   9  17  30  49  74 104 136 171 214 264 320
#     4  10  21  37  56  77 102 134 172 213 260 319
#
# _framework density 9.8765429999999999
#
# number of rings (size 3 to 8) (size 9 to 14) (size 15 to 20)
#    0.000    2.429    0.000    3.857    0.000    4.286 
#    0.000    2.143    0.000    7.286    0.000    0.000 
#    0.000    0.000    0.000    0.000    0.000    0.000 
#
# Total GULP energy -156148.577365 kJ/mol
# GULP energy per Si atom -5576.734906 kJ/mol
# Density = 0.985406 g / cm^3
# Si number density = 9.876543 Si / 1000 Ang^3
#
#
#
# Elastic Constant Matrix: (Units=GPa)
#
#
# Indices 1 2 3 4 5 6 
#
# 1 185.2696 35.1777 33.5167 0.0000 0.0000 0.0000
# 2 35.1777 32.8040 0.7401 0.0000 0.0000 0.0000
# 3 33.5167 0.7401 17.1079 0.0000 0.0000 0.0000
# 4 0.0000 0.0000 0.0000 7.1211 0.0000 0.0000
# 5 0.0000 0.0000 0.0000 0.0000 76.7285 0.0000
# 6 0.0000 0.0000 0.0000 0.0000 0.0000 20.9411
#
#
#
# Elastic Compliance Matrix: (Units=1/GPa)
#
#
# Indices 1 2 3 4 5 6 
#
# 1 0.011779 -0.012123 -0.022553 0.000000 0.000000 0.000000
# 2 -0.012123 0.042990 0.021890 0.000000 0.000000 0.000000
# 3 -0.022553 0.021890 0.101689 0.000000 0.000000 0.000000
# 4 0.000000 0.000000 0.000000 0.140427 0.000000 0.000000
# 5 0.000000 0.000000 0.000000 0.000000 0.013033 0.000000
# 6 0.000000 0.000000 0.000000 0.000000 0.000000 0.047753
#
#
# Mechanical properties :
#
#
# Convention : Reuss Voigt Hill
#
# Bulk Modulus (GPa) = 7.64011 41.56118 24.60064
# Shear Modulus (GPa) = 11.71312 32.00793 21.86053
#
# Velocity S-wave (km/s) = 2.43775 4.02979 3.33030
# Velocity P-wave (km/s) = 3.43507 6.53745 5.22197
#
# Compressibility (1/GPa) = 0.13088817
#
# Stress axis : x y z
#
# Youngs Moduli (GPa) = 84.89472 23.26107 9.83390
#
# Poissons Ratio (x) = 0.28199 0.22178
# Poissons Ratio (y) = 1.02916 -0.21527
# Poissons Ratio (z) = 1.91461 -0.50919
#
# Static dielectric constant tensor:
#      x y z
#    x 1.750380 0.000000 0.000000 
#    y 0.000000 1.662570 0.000000 
#    z 0.000000 0.000000 1.685900 
# 
# From -- ./inp_files/23037.got.cif
#   From: 2010.05.17/outbox.ucp.g08.bks.cvg/sg44_12_cif.got.tgz:23037.got - 2010.06.11 16:32:36.
