data_PCOD9375119
_publ_section_title
;
Structure prediction by ZEFSAII (Michael W. Deem and Ramdas Pophale) SiO2 
 PCOD9375119
Probable space group: I M M 2
;
_chemical_formula_sum "Si O2"
_cell_formula_units_Z 48
_cell_length_a 8.545010
_cell_length_b 18.790135
_cell_length_c 15.443397
_cell_angle_alpha 90.000000
_cell_angle_beta 90.000000
_cell_angle_gamma 90.000000
_cell_volume 2479.621033
_symmetry_space_group_name_H-M "I M M 2"
_symmetry_group_IT_number 44
_symmetry_cell_setting 'orthorhombic'
loop_
_space_group_symop_operation_xyz
x,y,z
-x,-y,z
-x,y,z
x,-y,z
1/2+x,1/2+y,1/2+z
1/2-x,1/2-y,1/2+z
1/2-x,1/2+y,1/2+z
1/2+x,1/2-y,1/2+z
loop_
_atom_site_type_symbol
_atom_site_label
_atom_site_fract_x
_atom_site_fract_y
_atom_site_fract_z
Si Si1 0.189407 0.847087 0.055090
Si Si2 0.812007 0.271766 0.195178
Si Si3 0.311151 0.077104 0.618355
Si Si4 0.183713 0.880875 0.437460
Si Si5 0.183083 0.234700 0.887619
Si Si6 0.682162 0.000000 0.108383
Si Si7 0.683055 0.500000 0.794782
O O1 0.243702 0.790540 0.129348
O O2 0.242832 0.926903 0.074149
O O3 0.000000 0.844759 0.055790
O O4 0.242345 0.820792 0.959989
O O5 0.759903 0.350691 0.165846
O O6 0.763741 0.262410 0.294465
O O7 0.000000 0.270120 0.190782
O O8 0.500000 0.080629 0.608772
O O9 0.232051 0.079615 0.524625
O O10 0.274557 0.000000 0.659730
O O11 0.288855 0.811321 0.430494
O O12 0.000000 0.861723 0.439867
O O13 0.208153 0.931580 0.355160
O O14 0.000000 0.221692 0.873845
O O15 0.500000 0.000000 0.087453
O O16 0.710103 0.000000 0.211438
O O17 0.500000 0.500000 0.767021
#
# Coordination Sequence:
#
# PCOD9375119 Si02
#       7
#     8   8   8   8   8   4   4
#     4  10  22  43  65  83 121 167 199 240 304 369
#     4  10  21  40  63  90 122 161 202 244 301 363
#     4  10  20  37  61  88 123 161 196 241 297 354
#     4  11  21  35  58  88 122 157 196 243 296 359
#     4  11  23  40  62  90 118 157 206 250 298 357
#     4  12  26  40  60  91 118 149 204 261 300 346
#     4  10  22  38  56  85 124 163 194 233 304 372
#
# _framework density 19.357796
#
# number of rings (size 3 to 8) (size 9 to 14) (size 15 to 20)
#    0.000    1.500    2.500    2.750    0.000    8.000 
#    1.500    0.000    0.000    0.000    0.000    0.000 
#    0.000    0.000    0.000    0.000    0.000    0.000 
#
# Total GULP energy -133997.045736 kJ/mol
# GULP energy per Si atom -5583.210239 kJ/mol
# Density = 1.931374 g / cm^3
# Si number density = 19.357796 Si / 1000 Ang^3
#
#
#
# Elastic Constant Matrix: (Units=GPa)
#
#
# Indices 1 2 3 4 5 6 
#
# 1 3.7192 11.4039 5.3861 0.0000 0.0000 0.0000
# 2 11.4039 129.0099 40.3494 0.0000 0.0000 0.0000
# 3 5.3861 40.3494 74.2564 0.0000 0.0000 0.0000
# 4 0.0000 0.0000 0.0000 -2.9247 0.0000 0.0000
# 5 0.0000 0.0000 0.0000 0.0000 28.3859 0.0000
# 6 0.0000 0.0000 0.0000 0.0000 0.0000 -1.6989
#
#
#
# Elastic Compliance Matrix: (Units=1/GPa)
#
#
# Indices 1 2 3 4 5 6 
#
# 1 0.376308 -0.029790 -0.011108 0.000000 0.000000 0.000000
# 2 -0.029790 0.011697 -0.004195 0.000000 0.000000 0.000000
# 3 -0.011108 -0.004195 0.016552 0.000000 0.000000 0.000000
# 4 0.000000 0.000000 0.000000 -0.341917 0.000000 0.000000
# 5 0.000000 0.000000 0.000000 0.000000 0.035229 0.000000
# 6 0.000000 0.000000 0.000000 0.000000 0.000000 -0.588616
#
#
# Mechanical properties :
#
#
# Convention : Reuss Voigt Hill
#
# Bulk Modulus (GPa) = 3.18095 35.69602 19.43848
# Shear Modulus (GPa) = -16.90491 14.74220 -1.08136
#
# Velocity S-wave (km/s) = -2.95835 2.76264 -0.74822
# Velocity P-wave (km/s) = 3.16580 5.35317 3.05238
#
# Compressibility (1/GPa) = 0.31437183
#
# Stress axis : x y z
#
# Youngs Moduli (GPa) = 2.65740 85.49447 60.41574
#
# Poissons Ratio (x) = 2.54687 0.67108
# Poissons Ratio (y) = 0.07916 0.25344
# Poissons Ratio (z) = 0.02952 0.35865
#
# Static dielectric constant tensor:
#      x y z
#    x 1.660300 0.000000 0.000000 
#    y 0.000000 1.707770 0.000000 
#    z 0.000000 0.000000 1.658840 
# 
# From -- ./inp_files/16123.got.cif
#   From: 2010.05.17/outbox.cif.g08.bks.cpg/sg44_9_cif.got.tgz:16123.got - 2010.06.03 19:37:08.
