data_PCOD9375890
_publ_section_title
;
Structure prediction by ZEFSAII (Michael W. Deem and Ramdas Pophale) SiO2 
 PCOD9375890
Probable space group: I M M 2
;
_chemical_formula_sum "Si O2"
_cell_formula_units_Z 32
_cell_length_a 25.388251
_cell_length_b 12.105763
_cell_length_c 5.043643
_cell_angle_alpha 90.000000
_cell_angle_beta 90.000000
_cell_angle_gamma 90.000000
_cell_volume 1550.134169
_symmetry_space_group_name_H-M "I M M 2"
_symmetry_group_IT_number 44
_symmetry_cell_setting 'orthorhombic'
loop_
_space_group_symop_operation_xyz
x,y,z
-x,-y,z
-x,y,z
x,-y,z
1/2+x,1/2+y,1/2+z
1/2-x,1/2-y,1/2+z
1/2-x,1/2+y,1/2+z
1/2+x,1/2-y,1/2+z
loop_
_atom_site_type_symbol
_atom_site_label
_atom_site_fract_x
_atom_site_fract_y
_atom_site_fract_z
Si Si1 0.393073 0.750979 0.914550
Si Si2 0.061804 0.129534 0.910548
Si Si3 0.366956 0.000000 0.855501
Si Si4 0.771593 0.792295 0.543485
Si Si5 0.791907 0.500000 0.854547
O O1 0.405706 0.692354 0.637064
O O2 0.397642 0.884055 0.891815
O O3 0.333141 0.724379 0.000084
O O4 0.428964 0.694541 0.137425
O O5 0.000000 0.132619 0.980427
O O6 0.077127 0.000000 0.885929
O O7 0.339113 0.000000 0.569520
O O8 0.320631 0.000000 0.074015
O O9 0.756919 0.797439 0.852542
O O10 0.745577 0.897727 0.407927
#
# Coordination Sequence:
#
# PCOD9375890 Si02
#       5
#     8   8   4   8   4
#     4  12  24  44  68 100 131 176 220 266 327 399
#     4  11  26  48  71  96 127 165 219 286 341 384
#     4  12  24  42  65  96 140 180 215 258 332 384
#     4  12  23  40  60  96 134 173 220 253 311 385
#     4  12  22  40  60  92 142 180 212 270 308 378
#
# _framework density 20.643376
#
# number of rings (size 3 to 8) (size 9 to 14) (size 15 to 20)
#    0.000    0.250    5.000    4.500    3.500    2.000 
#    0.000    3.750    0.000    0.000    0.000    0.000 
#    0.000    0.000    0.000    0.000    0.000    0.000 
#
# Total GULP energy -89415.952151 kJ/mol
# GULP energy per Si atom -5588.497009 kJ/mol
# Density = 2.059639 g / cm^3
# Si number density = 20.643376 Si / 1000 Ang^3
#
#
#
# Elastic Constant Matrix: (Units=GPa)
#
#
# Indices 1 2 3 4 5 6 
#
# 1 51.8465 23.7617 -1.8140 0.0000 0.0000 0.0000
# 2 23.7617 160.1433 28.6108 0.0000 0.0000 0.0000
# 3 -1.8140 28.6108 90.8190 0.0000 0.0000 0.0000
# 4 0.0000 0.0000 0.0000 33.7401 0.0000 0.0000
# 5 0.0000 0.0000 0.0000 0.0000 21.1395 0.0000
# 6 0.0000 0.0000 0.0000 0.0000 0.0000 41.9006
#
#
#
# Elastic Compliance Matrix: (Units=1/GPa)
#
#
# Indices 1 2 3 4 5 6 
#
# 1 0.020880 -0.003362 0.001476 0.000000 0.000000 0.000000
# 2 -0.003362 0.007158 -0.002322 0.000000 0.000000 0.000000
# 3 0.001476 -0.002322 0.011772 0.000000 0.000000 0.000000
# 4 0.000000 0.000000 0.000000 0.029638 0.000000 0.000000
# 5 0.000000 0.000000 0.000000 0.000000 0.047305 0.000000
# 6 0.000000 0.000000 0.000000 0.000000 0.000000 0.023866
#
#
# Mechanical properties :
#
#
# Convention : Reuss Voigt Hill
#
# Bulk Modulus (GPa) = 31.85283 44.88066 38.36674
# Shear Modulus (GPa) = 31.34796 36.17271 33.76034
#
# Velocity S-wave (km/s) = 3.90108 4.19055 4.04840
# Velocity P-wave (km/s) = 5.97953 6.72328 6.36228
#
# Compressibility (1/GPa) = 0.03139439
#
# Stress axis : x y z
#
# Youngs Moduli (GPa) = 47.89244 139.70168 84.94764
#
# Poissons Ratio (x) = 0.46966 -0.12540
# Poissons Ratio (y) = 0.16101 0.19726
# Poissons Ratio (z) = -0.07070 0.32441
#
# Static dielectric constant tensor:
#      x y z
#    x 1.685430 0.000000 0.000000 
#    y 0.000000 1.765860 0.000000 
#    z 0.000000 0.000000 1.724920 
# 
# From -- ./inp_files/949.got.cif
#   From: 2010.05.17/outbox.cif.g08.bks.cpg/sg44_1_cif.got.tgz:949.got - 2010.06.03 19:37:08.
