data_PCOD9375131
_publ_section_title
;
Structure prediction by ZEFSAII (Michael W. Deem and Ramdas Pophale) SiO2 
 PCOD9375131
Probable space group: I M M 2
;
_chemical_formula_sum "Si O2"
_cell_formula_units_Z 48
_cell_length_a 27.801483
_cell_length_b 7.664649
_cell_length_c 9.796664
_cell_angle_alpha 90.000000
_cell_angle_beta 90.000000
_cell_angle_gamma 90.000000
_cell_volume 2087.557503
_symmetry_space_group_name_H-M "I M M 2"
_symmetry_group_IT_number 44
_symmetry_cell_setting 'orthorhombic'
loop_
_space_group_symop_operation_xyz
x,y,z
-x,-y,z
-x,y,z
x,-y,z
1/2+x,1/2+y,1/2+z
1/2-x,1/2-y,1/2+z
1/2-x,1/2+y,1/2+z
1/2+x,1/2-y,1/2+z
loop_
_atom_site_type_symbol
_atom_site_label
_atom_site_fract_x
_atom_site_fract_y
_atom_site_fract_z
Si Si1 0.586665 0.710561 0.265930
Si Si2 0.632220 0.800431 0.762201
Si Si3 0.271392 0.299810 0.900382
Si Si4 0.807750 0.797613 0.689522
Si Si5 0.052480 0.789576 0.470219
Si Si6 0.553038 0.795898 0.561907
O O1 0.587504 0.500000 0.282896
O O2 0.640980 0.775033 0.237238
O O3 0.563684 0.784312 0.402132
O O4 0.557156 0.749679 0.129727
O O5 0.680555 0.706776 0.808365
O O6 0.595931 0.795550 0.889806
O O7 0.598993 0.721312 0.642587
O O8 0.645760 0.000000 0.727941
O O9 0.255964 0.500000 0.920347
O O10 0.229550 0.211294 0.813438
O O11 0.285190 0.222969 0.049174
O O12 0.817805 0.000000 0.654136
O O13 0.000000 0.735496 0.418754
O O14 0.056818 0.000000 0.454984
O O15 0.500000 0.719971 0.590721
O O16 0.551606 0.000000 0.601960
#
# Coordination Sequence:
#
# PCOD9375131 Si02
#       6
#     8   8   8   8   8   8
#     4  10  21  40  63  88 121 157 199 249 300 358
#     4  11  23  40  62  88 123 161 204 251 301 358
#     4  11  24  43  66  91 123 159 200 249 307 364
#     4  10  23  43  64  91 124 156 198 250 303 362
#     4  10  20  37  62  90 120 156 200 249 301 359
#     4  10  23  41  59  86 125 164 203 248 298 354
#
# _framework density 22.993378
#
# number of rings (size 3 to 8) (size 9 to 14) (size 15 to 20)
#    0.000    1.667    1.667    2.000    2.333    6.000 
#    0.000    0.000    0.000    0.000    0.000    0.000 
#    0.000    0.000    0.000    0.000    0.000    0.000 
#
# Total GULP energy -134161.451045 kJ/mol
# GULP energy per Si atom -5590.060460 kJ/mol
# Density = 2.294104 g / cm^3
# Si number density = 22.993378 Si / 1000 Ang^3
#
#
#
# Elastic Constant Matrix: (Units=GPa)
#
#
# Indices 1 2 3 4 5 6 
#
# 1 104.0328 -5.4992 8.2125 0.0000 0.0000 0.0000
# 2 -5.4992 43.1089 -5.0865 0.0000 0.0000 0.0000
# 3 8.2125 -5.0865 85.8233 0.0000 0.0000 0.0000
# 4 0.0000 0.0000 0.0000 32.8549 0.0000 0.0000
# 5 0.0000 0.0000 0.0000 0.0000 40.5254 0.0000
# 6 0.0000 0.0000 0.0000 0.0000 0.0000 123.6643
#
#
#
# Elastic Compliance Matrix: (Units=1/GPa)
#
#
# Indices 1 2 3 4 5 6 
#
# 1 0.009741 0.001141 -0.000865 0.000000 0.000000 0.000000
# 2 0.001141 0.023494 0.001283 0.000000 0.000000 0.000000
# 3 -0.000865 0.001283 0.011811 0.000000 0.000000 0.000000
# 4 0.000000 0.000000 0.000000 0.030437 0.000000 0.000000
# 5 0.000000 0.000000 0.000000 0.000000 0.024676 0.000000
# 6 0.000000 0.000000 0.000000 0.000000 0.000000 0.008086
#
#
# Mechanical properties :
#
#
# Convention : Reuss Voigt Hill
#
# Bulk Modulus (GPa) = 20.76231 25.35763 23.05997
# Shear Modulus (GPa) = 41.26070 55.09813 48.17942
#
# Velocity S-wave (km/s) = 4.24070 4.90047 4.58248
# Velocity P-wave (km/s) = 5.74694 6.56290 6.16843
#
# Compressibility (1/GPa) = 0.04816419
#
# Stress axis : x y z
#
# Youngs Moduli (GPa) = 102.66004 42.56411 84.66951
#
# Poissons Ratio (x) = -0.04855 0.07320
# Poissons Ratio (y) = -0.11709 -0.10865
# Poissons Ratio (z) = 0.08875 -0.05462
#
# Static dielectric constant tensor:
#      x y z
#    x 1.798470 0.000000 0.000000 
#    y 0.000000 1.846730 0.000000 
#    z 0.000000 0.000000 1.842810 
# 
# From -- ./inp_files/4866.got.cif
#   From: 2010.05.17/outbox.cif.g08.bks.cpg/sg44_3_cif.got.tgz:4866.got - 2010.06.03 19:37:08.
