data_PCOD9375114
_publ_section_title
;
Structure prediction by ZEFSAII (Michael W. Deem and Ramdas Pophale) SiO2 
 PCOD9375114
Probable space group: I M M 2
;
_chemical_formula_sum "Si O2"
_cell_formula_units_Z 42
_cell_length_a 11.209475
_cell_length_b 7.726120
_cell_length_c 25.104487
_cell_angle_alpha 90.000000
_cell_angle_beta 90.000000
_cell_angle_gamma 90.000000
_cell_volume 2174.192900
_symmetry_space_group_name_H-M "I M M 2"
_symmetry_group_IT_number 44
_symmetry_cell_setting 'orthorhombic'
loop_
_space_group_symop_operation_xyz
x,y,z
-x,-y,z
-x,y,z
x,-y,z
1/2+x,1/2+y,1/2+z
1/2-x,1/2-y,1/2+z
1/2-x,1/2+y,1/2+z
1/2+x,1/2-y,1/2+z
loop_
_atom_site_type_symbol
_atom_site_label
_atom_site_fract_x
_atom_site_fract_y
_atom_site_fract_z
Si Si1 0.135872 0.790942 0.018800
Si Si2 0.364387 0.208644 0.210501
Si Si3 0.135089 0.793553 0.834434
Si Si4 0.190973 0.810691 0.425966
Si Si5 0.864513 0.788935 0.142586
Si Si6 0.500000 0.000000 0.925508
O O1 0.153177 0.741964 0.080616
O O2 0.000000 0.747447 0.004106
O O3 0.147633 0.000000 0.015771
O O4 0.226513 0.708450 0.978016
O O5 0.500000 0.269542 0.195922
O O6 0.344403 0.254918 0.272237
O O7 0.250029 0.271021 0.176551
O O8 0.366593 0.000000 0.205607
O O9 0.227002 0.705534 0.873656
O O10 0.000000 0.737587 0.846755
O O11 0.142281 0.000000 0.842427
O O12 0.102086 0.651717 0.425639
O O13 0.134999 0.000000 0.426400
O O14 0.000000 0.733356 0.158681
O O15 0.865812 0.000000 0.145167
#
# Coordination Sequence:
#
# PCOD9375114 Si02
#       6
#     8   8   8   8   8   2
#     4   9  17  34  60  88 119 155 200 255 310 359
#     4   9  17  31  51  82 115 151 203 255 298 359
#     4  10  20  37  61  86 116 154 200 256 312 359
#     4  12  24  41  64  89 118 161 201 250 303 361
#     4   8  15  30  52  81 116 155 199 248 303 362
#     4  12  26  48  58  82 132 160 202 246 296 376
#
# _framework density 19.317513000000002
#
# number of rings (size 3 to 8) (size 9 to 14) (size 15 to 20)
#    0.000    2.286    1.905    2.571    0.000    3.810 
#    3.429    0.952    0.000    1.143    0.000    0.000 
#    0.000    0.000    0.000    0.000    0.000    0.000 
#
# Total GULP energy -116908.727795 kJ/mol
# GULP energy per Si atom -5567.082276 kJ/mol
# Density = 1.927355 g / cm^3
# Si number density = 19.317513 Si / 1000 Ang^3
#
#
#
# Elastic Constant Matrix: (Units=GPa)
#
#
# Indices 1 2 3 4 5 6 
#
# 1 178.4229 58.8719 91.9516 0.0000 0.0000 0.0000
# 2 58.8719 103.6748 26.6976 0.0000 0.0000 0.0000
# 3 91.9516 26.6976 77.1731 0.0000 0.0000 0.0000
# 4 0.0000 0.0000 0.0000 19.6167 0.0000 0.0000
# 5 0.0000 0.0000 0.0000 0.0000 493.0027 0.0000
# 6 0.0000 0.0000 0.0000 0.0000 0.0000 -144.9728
#
#
#
# Elastic Compliance Matrix: (Units=1/GPa)
#
#
# Indices 1 2 3 4 5 6 
#
# 1 0.016364 -0.004689 -0.017876 0.000000 0.000000 0.000000
# 2 -0.004689 0.011933 0.001459 0.000000 0.000000 0.000000
# 3 -0.017876 0.001459 0.033752 0.000000 0.000000 0.000000
# 4 0.000000 0.000000 0.000000 0.050977 0.000000 0.000000
# 5 0.000000 0.000000 0.000000 0.000000 0.002028 0.000000
# 6 0.000000 0.000000 0.000000 0.000000 0.000000 -0.006898
#
#
# Mechanical properties :
#
#
# Convention : Reuss Voigt Hill
#
# Bulk Modulus (GPa) = 50.41006 79.36810 64.88908
# Shear Modulus (GPa) = 31.85092 85.64597 58.74845
#
# Velocity S-wave (km/s) = 4.06496 6.66575 5.52069
# Velocity P-wave (km/s) = 6.94147 10.02089 8.61981
#
# Compressibility (1/GPa) = 0.01983731
#
# Stress axis : x y z
#
# Youngs Moduli (GPa) = 61.10797 83.80415 29.62757
#
# Poissons Ratio (x) = 0.39298 0.52962
# Poissons Ratio (y) = 0.28655 -0.04323
# Poissons Ratio (z) = 1.09237 -0.12229
#
# Static dielectric constant tensor:
#      x y z
#    x 1.661390 0.000000 0.000000 
#    y 0.000000 1.701000 0.000000 
#    z 0.000000 0.000000 1.642520 
# 
# From -- ./inp_files/24718.got.cif
#   From: 2010.05.17/outbox.cif.g08.bks.cpg/sg44_13_cif.got.tgz:24718.got - 2010.06.03 19:37:08.
