data_PCOD9375116
_publ_section_title
;
Structure prediction by ZEFSAII (Michael W. Deem and Ramdas Pophale) SiO2 
 PCOD9375116
Probable space group: I M M 2
;
_chemical_formula_sum "Si O2"
_cell_formula_units_Z 48
_cell_length_a 14.814488
_cell_length_b 8.622128
_cell_length_c 20.847364
_cell_angle_alpha 90.000000
_cell_angle_beta 90.000000
_cell_angle_gamma 90.000000
_cell_volume 2662.884083
_symmetry_space_group_name_H-M "I M M 2"
_symmetry_group_IT_number 44
_symmetry_cell_setting 'orthorhombic'
loop_
_space_group_symop_operation_xyz
x,y,z
-x,-y,z
-x,y,z
x,-y,z
1/2+x,1/2+y,1/2+z
1/2-x,1/2-y,1/2+z
1/2-x,1/2+y,1/2+z
1/2+x,1/2-y,1/2+z
loop_
_atom_site_type_symbol
_atom_site_label
_atom_site_fract_x
_atom_site_fract_y
_atom_site_fract_z
Si Si1 0.500000 0.686418 0.306630
Si Si2 0.690867 0.814046 0.347125
Si Si3 0.810170 0.315470 0.462649
Si Si4 0.192526 0.814047 0.601272
Si Si5 0.500000 0.688369 0.157283
Si Si6 0.000000 0.188508 0.265615
Si Si7 0.195479 0.812539 0.219415
Si Si8 0.500000 0.313310 0.915154
O O1 0.500000 0.500000 0.307859
O O2 0.590389 0.749130 0.339395
O O3 0.500000 0.737592 0.231710
O O4 0.742925 0.747947 0.408384
O O5 0.746693 0.771938 0.282764
O O6 0.689132 0.000000 0.351255
O O7 0.812607 0.500000 0.459960
O O8 0.783051 0.259084 0.533258
O O9 0.909590 0.248567 0.447805
O O10 0.259584 0.762762 0.657523
O O11 0.091599 0.761576 0.622308
O O12 0.191713 0.000000 0.595758
O O13 0.500000 0.500000 0.157242
O O14 0.092411 0.237569 0.231773
O O15 0.000000 0.235055 0.340294
O O16 0.000000 0.000000 0.265960
O O17 0.197499 0.000000 0.213039
O O18 0.500000 0.500000 0.918114
#
# Coordination Sequence:
#
# PCOD9375116 Si02
#       8
#     4   8   8   8   4   4   8   4
#     4  11  21  38  61  92 126 156 198 252 303 357
#     4  11  22  39  63  90 120 160 205 251 301 360
#     4  12  25  40  59  90 125 162 205 254 305 359
#     4  11  22  39  60  86 121 162 201 246 304 365
#     4   9  19  34  57  87 119 155 192 237 300 362
#     4   9  18  36  61  88 118 155 197 241 296 357
#     4  10  20  37  61  88 118 155 201 250 299 357
#     4  11  20  38  63  91 125 162 197 244 307 368
#
# _framework density 18.025569000000001
#
# number of rings (size 3 to 8) (size 9 to 14) (size 15 to 20)
#    0.000    1.333    3.333    3.500    0.000    1.333 
#    0.000    2.500    0.000    1.000    0.000    0.000 
#    0.000    0.000    0.000    0.000    0.000    0.000 
#
# Total GULP energy -134159.993568 kJ/mol
# GULP energy per Si atom -5589.999732 kJ/mol
# Density = 1.798454 g / cm^3
# Si number density = 18.025569 Si / 1000 Ang^3
#
#
#
# Elastic Constant Matrix: (Units=GPa)
#
#
# Indices 1 2 3 4 5 6 
#
# 1 149.5306 49.7171 79.8514 0.0000 0.0000 0.0000
# 2 49.7171 74.5258 58.2698 0.0000 0.0000 0.0000
# 3 79.8514 58.2698 164.3776 0.0000 0.0000 0.0000
# 4 0.0000 0.0000 0.0000 30.3250 0.0000 0.0000
# 5 0.0000 0.0000 0.0000 0.0000 11.6203 0.0000
# 6 0.0000 0.0000 0.0000 0.0000 0.0000 26.1867
#
#
#
# Elastic Compliance Matrix: (Units=1/GPa)
#
#
# Indices 1 2 3 4 5 6 
#
# 1 0.009782 -0.003888 -0.003374 0.000000 0.000000 0.000000
# 2 -0.003888 0.020108 -0.005240 0.000000 0.000000 0.000000
# 3 -0.003374 -0.005240 0.009580 0.000000 0.000000 0.000000
# 4 0.000000 0.000000 0.000000 0.032976 0.000000 0.000000
# 5 0.000000 0.000000 0.000000 0.000000 0.086056 0.000000
# 6 0.000000 0.000000 0.000000 0.000000 0.000000 0.038187
#
#
# Mechanical properties :
#
#
# Convention : Reuss Voigt Hill
#
# Bulk Modulus (GPa) = 69.11801 84.90115 77.00958
# Shear Modulus (GPa) = 22.07364 26.99944 24.53654
#
# Velocity S-wave (km/s) = 3.50319 3.87439 3.69346
# Velocity P-wave (km/s) = 7.40208 8.19861 7.81051
#
# Compressibility (1/GPa) = 0.01446801
#
# Stress axis : x y z
#
# Youngs Moduli (GPa) = 102.23062 49.73025 104.38671
#
# Poissons Ratio (x) = 0.19334 0.35216
# Poissons Ratio (y) = 0.39745 0.54694
# Poissons Ratio (z) = 0.34489 0.26057
#
# Static dielectric constant tensor:
#      x y z
#    x 1.596570 0.000000 0.000000 
#    y 0.000000 1.605880 0.000000 
#    z 0.000000 0.000000 1.592300 
# 
# From -- ./inp_files/20380.got.cif
#   From: 2010.05.17/outbox.cif.g08.bks.cpg/sg44_11_cif.got.tgz:20380.got - 2010.06.03 19:37:08.
