data_PCOD9375580
_publ_section_title
;
Structure prediction by ZEFSAII (Michael W. Deem and Ramdas Pophale) SiO2 
 PCOD9375580
Probable space group: I M M 2
;
_chemical_formula_sum "Si O2"
_cell_formula_units_Z 64
_cell_length_a 8.660258
_cell_length_b 29.083466
_cell_length_c 13.048926
_cell_angle_alpha 90.000000
_cell_angle_beta 90.000000
_cell_angle_gamma 90.000000
_cell_volume 3286.637155
_symmetry_space_group_name_H-M "I M M 2"
_symmetry_group_IT_number 44
_symmetry_cell_setting 'orthorhombic'
loop_
_space_group_symop_operation_xyz
x,y,z
-x,-y,z
-x,y,z
x,-y,z
1/2+x,1/2+y,1/2+z
1/2-x,1/2-y,1/2+z
1/2-x,1/2+y,1/2+z
1/2+x,1/2-y,1/2+z
loop_
_atom_site_type_symbol
_atom_site_label
_atom_site_fract_x
_atom_site_fract_y
_atom_site_fract_z
Si Si1 0.817456 0.884910 0.661410
Si Si2 0.681940 0.874734 0.214599
Si Si3 0.175760 0.204523 0.075839
Si Si4 0.817901 0.054833 0.059308
Si Si5 0.183715 0.859249 0.436267
Si Si6 0.816620 0.554002 0.340721
Si Si7 0.822306 0.751966 0.399838
Si Si8 0.675301 0.721614 0.199883
O O1 0.763540 0.882490 0.542722
O O2 0.733929 0.918326 0.740335
O O3 0.803052 0.832712 0.701795
O O4 0.000000 0.896237 0.660569
O O5 0.500000 0.866407 0.210219
O O6 0.769959 0.833627 0.155877
O O7 0.726921 0.919505 0.149016
O O8 0.735590 0.875962 0.332521
O O9 0.197310 0.253216 0.132123
O O10 0.000000 0.196434 0.044361
O O11 0.288902 0.211509 0.980423
O O12 0.000000 0.063979 0.071012
O O13 0.792252 0.000000 0.064349
O O14 0.764233 0.070477 0.945941
O O15 0.200808 0.803669 0.442638
O O16 0.000000 0.867569 0.426670
O O17 0.777008 0.500000 0.327894
O O18 0.000000 0.557755 0.355006
O O19 0.700457 0.743675 0.310361
O O20 0.000000 0.749611 0.363944
O O21 0.500000 0.730749 0.161444
#
# Coordination Sequence:
#
# PCOD9375580 Si02
#       8
#     8   8   8   8   8   8   8   8
#     4  10  22  40  62  87 120 160 203 249 297 358
#     4  12  25  40  62  91 123 160 204 252 304 363
#     4  12  24  38  57  83 119 162 206 251 297 355
#     4  10  22  43  70  95 121 155 196 244 303 368
#     4  10  21  40  61  85 121 162 204 249 299 355
#     4  10  22  41  65  94 126 155 191 246 306 361
#     4  11  22  38  57  81 117 160 204 253 304 354
#     4  11  22  38  57  84 119 157 203 251 300 355
#
# _framework density 19.472791000000001
#
# number of rings (size 3 to 8) (size 9 to 14) (size 15 to 20)
#    0.000    1.250    2.500    3.750    1.750    3.500 
#    0.000    0.625    0.000    0.750    0.000    0.000 
#    0.000    0.000    0.000    0.000    0.000    0.000 
#
# Total GULP energy -178723.001622 kJ/mol
# GULP energy per Si atom -5585.093801 kJ/mol
# Density = 1.942847 g / cm^3
# Si number density = 19.472791 Si / 1000 Ang^3
#
#
#
# Elastic Constant Matrix: (Units=GPa)
#
#
# Indices 1 2 3 4 5 6 
#
# 1 65.3291 29.4445 26.0609 0.0000 0.0000 0.0000
# 2 29.4445 41.5908 25.8336 0.0000 0.0000 0.0000
# 3 26.0609 25.8336 85.8839 -0.0002 0.0001 -0.0001
# 4 0.0000 0.0000 -0.0002 36.0191 0.0000 0.0000
# 5 0.0000 0.0000 0.0001 0.0000 31.1437 0.0000
# 6 0.0000 0.0000 -0.0001 0.0000 0.0000 26.5492
#
#
#
# Elastic Compliance Matrix: (Units=1/GPa)
#
#
# Indices 1 2 3 4 5 6 
#
# 1 0.022926 -0.014646 -0.002551 0.000000 0.000000 0.000000
# 2 -0.014646 0.038925 -0.007264 0.000000 0.000000 0.000000
# 3 -0.002551 -0.007264 0.014603 0.000000 0.000000 0.000000
# 4 0.000000 0.000000 0.000000 0.027763 0.000000 0.000000
# 5 0.000000 0.000000 0.000000 0.000000 0.032109 0.000000
# 6 0.000000 0.000000 0.000000 0.000000 0.000000 0.037666
#
#
# Mechanical properties :
#
#
# Convention : Reuss Voigt Hill
#
# Bulk Modulus (GPa) = 36.32321 39.49796 37.91059
# Shear Modulus (GPa) = 21.54328 26.17338 23.85833
#
# Velocity S-wave (km/s) = 3.32976 3.67017 3.50410
# Velocity P-wave (km/s) = 5.78592 6.18773 5.99019
#
# Compressibility (1/GPa) = 0.02753060
#
# Stress axis : x y z
#
# Youngs Moduli (GPa) = 43.61879 25.69076 68.47984
#
# Poissons Ratio (x) = 0.37626 0.17471
# Poissons Ratio (y) = 0.63883 0.49745
# Poissons Ratio (z) = 0.11128 0.18662
#
# Static dielectric constant tensor:
#      x y z
#    x 1.648180 0.000000 0.000000 
#    y 0.000000 1.669030 0.000000 
#    z 0.000000 0.000000 1.718660 
# 
# From -- ./inp_files/11533.got.cif
#   From: 2010.05.17/outbox.cif.g08.bks.cpg/sg44_6_cif.got.tgz:11533.got - 2010.06.03 19:37:08.
