data_PCOD9375197
_publ_section_title
;
Structure prediction by ZEFSAII (Michael W. Deem and Ramdas Pophale) SiO2 
 PCOD9375197
Probable space group: I M M 2
;
_chemical_formula_sum "Si O2"
_cell_formula_units_Z 38
_cell_length_a 7.815052
_cell_length_b 24.543389
_cell_length_c 10.161227
_cell_angle_alpha 90.000000
_cell_angle_beta 90.000000
_cell_angle_gamma 90.000000
_cell_volume 1949.003219
_symmetry_space_group_name_H-M "I M M 2"
_symmetry_group_IT_number 44
_symmetry_cell_setting 'orthorhombic'
loop_
_space_group_symop_operation_xyz
x,y,z
-x,-y,z
-x,y,z
x,-y,z
1/2+x,1/2+y,1/2+z
1/2-x,1/2-y,1/2+z
1/2-x,1/2+y,1/2+z
1/2+x,1/2-y,1/2+z
loop_
_atom_site_type_symbol
_atom_site_label
_atom_site_fract_x
_atom_site_fract_y
_atom_site_fract_z
Si Si1 0.197027 0.692132 0.953540
Si Si2 0.000000 0.000000 0.423115
Si Si3 0.295087 0.214738 0.151872
Si Si4 0.803494 0.402174 0.523677
Si Si5 0.000000 0.934699 0.830585
Si Si6 0.313755 0.000000 0.230220
Si Si7 0.500000 0.383888 0.053423
O O1 0.247416 0.713527 0.807302
O O2 0.000000 0.672343 0.943627
O O3 0.207417 0.739665 0.062534
O O4 0.332920 0.647220 0.999824
O O5 0.834690 0.000000 0.332919
O O6 0.000000 0.945189 0.503884
O O7 0.500000 0.224135 0.142983
O O8 0.258583 0.155854 0.088029
O O9 0.667950 0.421040 0.416054
O O10 0.800170 0.447308 0.637808
O O11 0.000000 0.399378 0.473651
O O12 0.000000 0.892477 0.709660
O O13 0.000000 0.000000 0.799250
O O14 0.500000 0.000000 0.294600
#
# Coordination Sequence:
#
# PCOD9375197 Si02
#       7
#     8   2   8   8   4   4   4
#     4  11  26  45  68  97 137 176 223 276 341 399
#     4  12  24  42  70  90 130 188 216 282 354 384
#     4  10  23  43  67 101 133 176 224 275 330 404
#     4  10  22  40  67  99 137 171 221 279 333 398
#     4  12  25  44  68  98 133 182 230 273 339 407
#     4  10  20  39  67 101 133 168 227 282 334 408
#     4  12  28  47  64  97 140 172 232 284 327 412
#
# _framework density 19.497146999999998
#
# number of rings (size 3 to 8) (size 9 to 14) (size 15 to 20)
#    0.000    1.263    2.632    1.895    5.895    3.368 
#    0.000    0.000    0.000    0.000    0.000    0.000 
#    0.000    0.000    0.000    0.000    0.000    0.000 
#
# Total GULP energy -106182.830380 kJ/mol
# GULP energy per Si atom -5588.570020 kJ/mol
# Density = 1.945277 g / cm^3
# Si number density = 19.497147 Si / 1000 Ang^3
#
#
#
# Elastic Constant Matrix: (Units=GPa)
#
#
# Indices 1 2 3 4 5 6 
#
# 1 99.3282 46.5988 50.5457 0.0001 0.0001 -0.0006
# 2 46.5988 113.1833 35.2801 0.0000 0.0000 0.0001
# 3 50.5457 35.2801 94.4924 0.0001 -0.0006 0.0033
# 4 0.0001 0.0000 0.0001 22.4842 0.0001 -0.0002
# 5 0.0001 0.0000 -0.0006 0.0001 25.7088 0.0003
# 6 -0.0006 0.0001 0.0033 -0.0002 0.0003 125.2938
#
#
#
# Elastic Compliance Matrix: (Units=1/GPa)
#
#
# Indices 1 2 3 4 5 6 
#
# 1 0.015479 -0.004291 -0.006678 0.000000 0.000000 0.000000
# 2 -0.004291 0.011189 -0.001882 0.000000 0.000000 0.000000
# 3 -0.006678 -0.001882 0.014858 0.000000 0.000000 0.000000
# 4 0.000000 0.000000 0.000000 0.044476 0.000000 0.000000
# 5 0.000000 0.000000 0.000000 0.000000 0.038897 0.000000
# 6 0.000000 0.000000 0.000000 0.000000 0.000000 0.007981
#
#
# Mechanical properties :
#
#
# Convention : Reuss Voigt Hill
#
# Bulk Modulus (GPa) = 63.19863 63.53924 63.36893
# Shear Modulus (GPa) = 30.51465 46.33600 38.42533
#
# Velocity S-wave (km/s) = 3.96040 4.88028 4.44421
# Velocity P-wave (km/s) = 7.30738 8.02595 7.67508
#
# Compressibility (1/GPa) = 0.01582313
#
# Stress axis : x y z
#
# Youngs Moduli (GPa) = 64.60349 89.37647 67.30583
#
# Poissons Ratio (x) = 0.38355 0.44945
# Poissons Ratio (y) = 0.27724 0.12666
# Poissons Ratio (z) = 0.43141 0.16820
#
# Static dielectric constant tensor:
#      x y z
#    x 1.679820 0.000000 0.000000 
#    y 0.000000 1.683140 0.000000 
#    z 0.000000 0.000000 1.655720 
# 
# From -- ./inp_files/4507.got.cif
#   From: 2010.05.17/outbox.cif.g08.bks.cpg/sg44_3_cif.got.tgz:4507.got - 2010.06.03 19:37:08.
