data_PCOD9375748
_publ_section_title
;
Structure prediction by ZEFSAII (Michael W. Deem and Ramdas Pophale) SiO2 
 PCOD9375748
Probable space group: I M M 2
;
_chemical_formula_sum "Si O2"
_cell_formula_units_Z 40
_cell_length_a 9.437209
_cell_length_b 19.486137
_cell_length_c 10.881612
_cell_angle_alpha 90.000000
_cell_angle_beta 90.000000
_cell_angle_gamma 90.000000
_cell_volume 2001.071291
_symmetry_space_group_name_H-M "I M M 2"
_symmetry_group_IT_number 44
_symmetry_cell_setting 'orthorhombic'
loop_
_space_group_symop_operation_xyz
x,y,z
-x,-y,z
-x,y,z
x,-y,z
1/2+x,1/2+y,1/2+z
1/2-x,1/2-y,1/2+z
1/2-x,1/2+y,1/2+z
1/2+x,1/2-y,1/2+z
loop_
_atom_site_type_symbol
_atom_site_label
_atom_site_fract_x
_atom_site_fract_y
_atom_site_fract_z
Si Si1 0.160412 0.583269 0.537750
Si Si2 0.331697 0.716907 0.174086
Si Si3 0.833220 0.078743 0.795299
Si Si4 0.333221 0.578743 0.780201
Si Si5 0.331698 0.716907 0.901415
O O1 0.155328 0.500000 0.537750
O O2 0.243382 0.601081 0.414014
O O3 0.243381 0.601081 0.661486
O O4 0.000000 0.609677 0.537749
O O5 0.500000 0.730686 0.184976
O O6 0.312424 0.634802 0.190108
O O7 0.250000 0.749999 0.287750
O O8 0.284778 0.738822 0.037750
O O9 0.000000 0.079638 0.828488
O O10 0.796732 0.000000 0.762740
O O11 0.500000 0.579638 0.747010
O O12 0.296733 0.500000 0.812761
O O13 0.312425 0.634802 0.885391
O O14 0.500000 0.730687 0.890525
#
# Coordination Sequence:
#
# PCOD9375748 Si02
#       5
#     8   8   8   8   8
#     4   9  17  29  49  81 117 149 182 225 278 335
#     4  10  23  41  60  85 116 152 194 238 289 346
#     4   9  18  34  57  83 112 147 189 237 287 338
#     4   9  18  34  57  83 112 147 189 237 287 338
#     4  10  23  41  60  85 116 152 194 238 289 346
#
# _framework density 19.989293
#
# number of rings (size 3 to 8) (size 9 to 14) (size 15 to 20)
#    0.000    2.600    0.000    0.600    2.800    5.600 
#    0.000    4.000    0.000    0.000    0.000    8.400 
#    0.000    0.000    0.000    0.000    0.000    0.000 
#
# Total GULP energy -111614.430362 kJ/mol
# GULP energy per Si atom -5580.721518 kJ/mol
# Density = 1.994380 g / cm^3
# Si number density = 19.989293 Si / 1000 Ang^3
#
#
#
# Elastic Constant Matrix: (Units=GPa)
#
#
# Indices 1 2 3 4 5 6 
#
# 1 44.4692 30.9897 56.9265 0.0001 0.0000 -0.0001
# 2 30.9897 89.1115 51.9813 -0.0005 0.0001 0.0001
# 3 56.9265 51.9813 154.9610 -0.0003 0.0000 0.0001
# 4 0.0001 -0.0005 -0.0003 30.1712 0.0001 0.0001
# 5 0.0000 0.0001 0.0000 0.0001 25.7661 -0.0001
# 6 -0.0001 0.0001 0.0001 0.0001 -0.0001 22.5545
#
#
#
# Elastic Compliance Matrix: (Units=1/GPa)
#
#
# Indices 1 2 3 4 5 6 
#
# 1 0.046333 -0.007689 -0.014442 0.000000 0.000000 0.000000
# 2 -0.007689 0.015228 -0.002284 0.000000 0.000000 0.000000
# 3 -0.014442 -0.002284 0.012525 0.000000 0.000000 0.000000
# 4 0.000000 0.000000 0.000000 0.033144 0.000000 0.000000
# 5 0.000000 0.000000 0.000000 0.000000 0.038811 0.000000
# 6 0.000000 0.000000 0.000000 0.000000 0.000000 0.044337
#
#
# Mechanical properties :
#
#
# Convention : Reuss Voigt Hill
#
# Bulk Modulus (GPa) = 39.59251 63.14853 51.37052
# Shear Modulus (GPa) = 20.19188 25.60797 22.89993
#
# Velocity S-wave (km/s) = 3.18171 3.58311 3.38836
# Velocity P-wave (km/s) = 5.77473 6.98412 6.40802
#
# Compressibility (1/GPa) = 0.02525730
#
# Stress axis : x y z
#
# Youngs Moduli (GPa) = 21.58297 65.66928 79.84290
#
# Poissons Ratio (x) = 0.50491 1.15307
# Poissons Ratio (y) = 0.16594 0.18233
# Poissons Ratio (z) = 0.31170 0.14997
#
# Static dielectric constant tensor:
#      x y z
#    x 1.674460 0.000000 0.000000 
#    y 0.000000 1.773930 0.000000 
#    z 0.000000 0.000000 1.663230 
# 
# From -- ./inp_files/4426.got.cif
#   From: 2010.05.17/outbox.cif.g08.bks.cpg/sg44_3_cif.got.tgz:4426.got - 2010.06.03 19:37:08.
