data_PCOD9375541
_publ_section_title
;
Structure prediction by ZEFSAII (Michael W. Deem and Ramdas Pophale) SiO2 
 PCOD9375541
Probable space group: I M M 2
;
_chemical_formula_sum "Si O2"
_cell_formula_units_Z 42
_cell_length_a 12.544794
_cell_length_b 21.042139
_cell_length_c 7.614990
_cell_angle_alpha 90.000000
_cell_angle_beta 90.000000
_cell_angle_gamma 90.000000
_cell_volume 2010.123573
_symmetry_space_group_name_H-M "I M M 2"
_symmetry_group_IT_number 44
_symmetry_cell_setting 'orthorhombic'
loop_
_space_group_symop_operation_xyz
x,y,z
-x,-y,z
-x,y,z
x,-y,z
1/2+x,1/2+y,1/2+z
1/2-x,1/2-y,1/2+z
1/2-x,1/2+y,1/2+z
1/2+x,1/2-y,1/2+z
loop_
_atom_site_type_symbol
_atom_site_label
_atom_site_fract_x
_atom_site_fract_y
_atom_site_fract_z
Si Si1 0.880678 0.073509 0.178710
Si Si2 0.500000 0.000000 0.188615
Si Si3 0.842391 0.597883 0.527021
Si Si4 0.120721 0.270596 0.707842
Si Si5 0.788750 0.832426 0.459971
Si Si6 0.381344 0.926639 0.623225
O O1 0.860525 0.125366 0.330134
O O2 0.000000 0.081544 0.105643
O O3 0.872501 0.000000 0.241204
O O4 0.783302 0.085121 0.045987
O O5 0.593225 0.944846 0.165608
O O6 0.868334 0.670430 0.572250
O O7 0.879303 0.577924 0.334236
O O8 0.145653 0.206781 0.601954
O O9 0.212438 0.284537 0.850369
O O10 0.000000 0.269932 0.778798
O O11 0.707788 0.881369 0.549396
O O12 0.500000 0.908621 0.561693
O O13 0.365714 0.000000 0.571882
#
# Coordination Sequence:
#
# PCOD9375541 Si02
#       6
#     8   2   8   8   8   8
#     4  10  21  39  60  87 120 157 197 240 289 351
#     4  12  16  36  62 102 116 156 182 252 296 364
#     4  11  20  36  65  93 122 153 191 242 303 352
#     4  11  23  41  59  85 118 156 198 243 295 353
#     4  11  24  39  59  84 116 159 201 242 293 353
#     4  11  20  37  61  94 123 150 190 250 306 353
#
# _framework density 20.894238000000001
#
# number of rings (size 3 to 8) (size 9 to 14) (size 15 to 20)
#    0.000    1.143    3.810    2.857    0.000    0.000 
#    0.000   14.286    0.000    4.571    0.000    0.000 
#    0.000    0.000    0.000    0.000    0.000    0.000 
#
# Total GULP energy -117177.737172 kJ/mol
# GULP energy per Si atom -5579.892246 kJ/mol
# Density = 2.084668 g / cm^3
# Si number density = 20.894238 Si / 1000 Ang^3
#
#
#
# Elastic Constant Matrix: (Units=GPa)
#
#
# Indices 1 2 3 4 5 6 
#
# 1 144.6792 31.3150 12.5448 -0.0035 0.0007 0.0003
# 2 31.3150 57.1977 -10.1131 -0.0083 0.0024 0.0008
# 3 12.5448 -10.1131 33.8597 -0.0145 0.0036 0.0014
# 4 -0.0035 -0.0083 -0.0145 81.8022 0.0018 0.0009
# 5 0.0007 0.0024 0.0036 0.0018 -28.2171 -0.0004
# 6 0.0003 0.0008 0.0014 0.0009 -0.0004 15.7219
#
#
#
# Elastic Compliance Matrix: (Units=1/GPa)
#
#
# Indices 1 2 3 4 5 6 
#
# 1 0.008522 -0.005515 -0.004805 -0.000001 -0.000001 0.000001
# 2 -0.005515 0.022027 0.008622 0.000004 0.000003 -0.000002
# 3 -0.004805 0.008622 0.033889 0.000007 0.000005 -0.000003
# 4 -0.000001 0.000004 0.000007 0.012225 0.000001 -0.000001
# 5 -0.000001 0.000003 0.000005 0.000001 -0.035440 -0.000001
# 6 0.000001 -0.000002 -0.000003 -0.000001 -0.000001 0.063605
#
#
# Mechanical properties :
#
#
# Convention : Reuss Voigt Hill
#
# Bulk Modulus (GPa) = 16.38179 33.69222 25.03700
# Shear Modulus (GPa) = 38.88866 27.32740 33.10803
#
# Velocity S-wave (km/s) = 4.31886 3.62040 3.98496
# Velocity P-wave (km/s) = 5.72079 5.79970 5.76038
#
# Compressibility (1/GPa) = 0.06104340
#
# Stress axis : x y z
#
# Youngs Moduli (GPa) = 117.34038 45.39813 29.50805
#
# Poissons Ratio (x) = 0.25039 0.14178
# Poissons Ratio (y) = 0.64717 -0.25443
# Poissons Ratio (z) = 0.56379 -0.39144
#
# Static dielectric constant tensor:
#      x y z
#    x 1.734450 0.000000 0.000000 
#    y 0.000000 1.710480 0.000000 
#    z 0.000000 0.000000 1.775970 
# 
# From -- ./inp_files/5961.got.cif
#   From: 2010.05.17/outbox.cif.g08.bks.cpg/sg44_3_cif.got.tgz:5961.got - 2010.06.03 19:37:08.
