data_PCOD9375309
_publ_section_title
;
Structure prediction by ZEFSAII (Michael W. Deem and Ramdas Pophale) SiO2 
 PCOD9375309
Probable space group: I M M 2
;
_chemical_formula_sum "Si O2"
_cell_formula_units_Z 64
_cell_length_a 27.978053
_cell_length_b 8.933141
_cell_length_c 14.971514
_cell_angle_alpha 90.000000
_cell_angle_beta 90.000000
_cell_angle_gamma 90.000000
_cell_volume 3741.858825
_symmetry_space_group_name_H-M "I M M 2"
_symmetry_group_IT_number 44
_symmetry_cell_setting 'orthorhombic'
loop_
_space_group_symop_operation_xyz
x,y,z
-x,-y,z
-x,y,z
x,-y,z
1/2+x,1/2+y,1/2+z
1/2-x,1/2-y,1/2+z
1/2-x,1/2+y,1/2+z
1/2+x,1/2-y,1/2+z
loop_
_atom_site_type_symbol
_atom_site_label
_atom_site_fract_x
_atom_site_fract_y
_atom_site_fract_z
Si Si1 0.860800 0.321481 0.401490
Si Si2 0.944565 0.320829 0.534851
Si Si3 0.632779 0.178490 0.353165
Si Si4 0.283161 0.178552 0.214086
Si Si5 0.328179 0.678032 0.727565
Si Si6 0.280025 0.678461 0.024294
Si Si7 0.943324 0.822406 0.724427
Si Si8 0.675695 0.679088 0.522107
O O1 0.854782 0.500000 0.405332
O O2 0.909308 0.282279 0.454225
O O3 0.858562 0.265868 0.300112
O O4 0.817576 0.243199 0.454187
O O5 0.941446 0.500000 0.549783
O O6 0.930066 0.239554 0.626399
O O7 0.000000 0.283963 0.516043
O O8 0.679411 0.211597 0.291869
O O9 0.587727 0.240140 0.298845
O O10 0.640378 0.257322 0.447863
O O11 0.629849 0.000000 0.363854
O O12 0.228408 0.212201 0.240533
O O13 0.294412 0.267523 0.123690
O O14 0.285413 0.000000 0.194235
O O15 0.334078 0.500000 0.740698
O O16 0.338999 0.713544 0.624229
O O17 0.278190 0.500000 0.018932
O O18 0.227533 0.746402 0.007565
O O19 0.000000 0.794338 0.735940
O O20 0.935057 0.000000 0.728191
O O21 0.680370 0.500000 0.514866
#
# Coordination Sequence:
#
# PCOD9375309 Si02
#       8
#     8   8   8   8   8   8   8   8
#     4  11  21  32  51  76 101 133 172 212 255 305
#     4   9  19  36  55  76 104 135 167 208 259 310
#     4  11  21  33  54  80 105 135 172 212 256 308
#     4   9  19  34  49  71 104 137 168 205 250 300
#     4   9  19  35  52  71 100 136 171 210 253 296
#     4  11  21  32  49  74 105 138 171 208 250 301
#     4  10  21  36  54  78 107 137 170 209 254 305
#     4  10  21  37  54  72 100 136 173 214 255 296
#
# _framework density 17.103797
#
# number of rings (size 3 to 8) (size 9 to 14) (size 15 to 20)
#    0.000    2.000    0.000    4.875    0.000    9.250 
#    0.000    0.000    0.000    0.750    0.000    3.500 
#    0.000    0.000    0.000    0.000    0.000    0.000 
#
# Total GULP energy -178742.252459 kJ/mol
# GULP energy per Si atom -5585.695389 kJ/mol
# Density = 1.706487 g / cm^3
# Si number density = 17.103797 Si / 1000 Ang^3
#
#
#
# Elastic Constant Matrix: (Units=GPa)
#
#
# Indices 1 2 3 4 5 6 
#
# 1 60.1452 44.0005 69.9551 0.0000 0.0000 0.0000
# 2 44.0005 64.8664 67.2297 0.0000 0.0000 0.0000
# 3 69.9551 67.2297 127.0255 0.0000 0.0000 0.0000
# 4 0.0000 0.0000 0.0000 32.6739 0.0000 0.0000
# 5 0.0000 0.0000 0.0000 0.0000 29.1658 0.0000
# 6 0.0000 0.0000 0.0000 0.0000 0.0000 19.5472
#
#
#
# Elastic Compliance Matrix: (Units=1/GPa)
#
#
# Indices 1 2 3 4 5 6 
#
# 1 0.050105 -0.011936 -0.021277 0.000000 0.000000 0.000000
# 2 -0.011936 0.036991 -0.013005 0.000000 0.000000 0.000000
# 3 -0.021277 -0.013005 0.026473 0.000000 0.000000 0.000000
# 4 0.000000 0.000000 0.000000 0.030605 0.000000 0.000000
# 5 0.000000 0.000000 0.000000 0.000000 0.034287 0.000000
# 6 0.000000 0.000000 0.000000 0.000000 0.000000 0.051158
#
#
# Mechanical properties :
#
#
# Convention : Reuss Voigt Hill
#
# Bulk Modulus (GPa) = 47.31533 68.26754 57.79143
# Shear Modulus (GPa) = 15.19298 21.00085 18.09691
#
# Velocity S-wave (km/s) = 2.98364 3.50787 3.25632
# Velocity P-wave (km/s) = 6.29231 7.51047 6.92821
#
# Compressibility (1/GPa) = 0.02113480
#
# Stress axis : x y z
#
# Youngs Moduli (GPa) = 19.95795 27.03338 37.77460
#
# Poissons Ratio (x) = 0.32267 0.80372
# Poissons Ratio (y) = 0.23821 0.49125
# Poissons Ratio (z) = 0.42464 0.35156
#
# Static dielectric constant tensor:
#      x y z
#    x 1.568400 0.000000 0.000000 
#    y 0.000000 1.567960 0.000000 
#    z 0.000000 0.000000 1.574630 
# 
# From -- ./inp_files/16797.got.cif
#   From: 2010.05.17/outbox.cif.g08.bks.cpg/sg44_9_cif.got.tgz:16797.got - 2010.06.03 19:37:08.
