data_PCOD9375429
_publ_section_title
;
Structure prediction by ZEFSAII (Michael W. Deem and Ramdas Pophale) SiO2 
 PCOD9375429
Probable space group: I M M 2
;
_chemical_formula_sum "Si O2"
_cell_formula_units_Z 34
_cell_length_a 8.349077
_cell_length_b 7.614536
_cell_length_c 28.188940
_cell_angle_alpha 90.000000
_cell_angle_beta 90.000000
_cell_angle_gamma 90.000000
_cell_volume 1792.093464
_symmetry_space_group_name_H-M "I M M 2"
_symmetry_group_IT_number 44
_symmetry_cell_setting 'orthorhombic'
loop_
_space_group_symop_operation_xyz
x,y,z
-x,-y,z
-x,y,z
x,-y,z
1/2+x,1/2+y,1/2+z
1/2-x,1/2-y,1/2+z
1/2-x,1/2+y,1/2+z
1/2+x,1/2-y,1/2+z
loop_
_atom_site_type_symbol
_atom_site_label
_atom_site_fract_x
_atom_site_fract_y
_atom_site_fract_z
Si Si1 0.820814 0.000000 0.912091
Si Si2 0.182969 0.204133 0.642869
Si Si3 0.500000 0.215267 0.585330
Si Si4 0.691210 0.203014 0.249629
Si Si5 0.500000 0.500000 0.504873
Si Si6 0.689520 0.301195 0.849802
O O1 0.739950 0.173544 0.891836
O O2 0.000000 0.000000 0.891155
O O3 0.849711 0.000000 0.968422
O O4 0.336348 0.269142 0.613219
O O5 0.226942 0.215618 0.698618
O O6 0.000000 0.280224 0.637129
O O7 0.169190 0.000000 0.630291
O O8 0.500000 0.326263 0.536969
O O9 0.500000 0.000000 0.580208
O O10 0.500000 0.208868 0.254539
O O11 0.761315 0.275111 0.298437
O O12 0.744341 0.000000 0.246862
O O13 0.500000 0.314108 0.850064
O O14 0.757964 0.500000 0.854064
#
# Coordination Sequence:
#
# PCOD9375429 Si02
#       6
#     4   8   4   8   2   8
#     4  10  23  41  62  86 115 157 214 264 317 369
#     4   9  19  35  56  86 124 165 202 246 309 377
#     4  10  22  42  64  90 124 156 210 272 312 373
#     4   9  18  31  50  83 122 165 204 236 297 371
#     4  10  26  44  66  94 106 162 224 258 332 356
#     4  10  21  37  58  88 127 165 203 255 314 377
#
# _framework density 18.972223
#
# number of rings (size 3 to 8) (size 9 to 14) (size 15 to 20)
#    0.353    2.118    0.000    1.059    4.941    2.353 
#    0.000    2.353    0.000    2.824    0.000    0.000 
#    0.000    0.000    0.000    0.000    0.000    0.000 
#
# Total GULP energy -94656.701449 kJ/mol
# GULP energy per Si atom -5568.041262 kJ/mol
# Density = 1.892904 g / cm^3
# Si number density = 18.972223 Si / 1000 Ang^3
#
#
#
# Elastic Constant Matrix: (Units=GPa)
#
#
# Indices 1 2 3 4 5 6 
#
# 1 75.4208 27.8428 66.9338 0.0000 0.0000 0.0000
# 2 27.8428 69.2596 46.1610 0.0000 0.0000 0.0000
# 3 66.9338 46.1610 141.8803 0.0000 0.0000 0.0000
# 4 0.0000 0.0000 0.0000 44.9948 0.0000 0.0000
# 5 0.0000 0.0000 0.0000 0.0000 -79.9280 0.0000
# 6 0.0000 0.0000 0.0000 0.0000 0.0000 20.1506
#
#
#
# Elastic Compliance Matrix: (Units=1/GPa)
#
#
# Indices 1 2 3 4 5 6 
#
# 1 0.023167 -0.002591 -0.010086 0.000000 0.000000 0.000000
# 2 -0.002591 0.018726 -0.004870 0.000000 0.000000 0.000000
# 3 -0.010086 -0.004870 0.013391 0.000000 0.000000 0.000000
# 4 0.000000 0.000000 0.000000 0.022225 0.000000 0.000000
# 5 0.000000 0.000000 0.000000 0.000000 -0.012511 0.000000
# 6 0.000000 0.000000 0.000000 0.000000 0.000000 0.049626
#
#
# Mechanical properties :
#
#
# Convention : Reuss Voigt Hill
#
# Bulk Modulus (GPa) = 49.53173 63.15954 56.34564
# Shear Modulus (GPa) = 31.95957 6.75170 19.35563
#
# Velocity S-wave (km/s) = 4.10877 1.88851 3.19754
# Velocity P-wave (km/s) = 6.97664 6.17398 6.58755
#
# Compressibility (1/GPa) = 0.02018908
#
# Stress axis : x y z
#
# Youngs Moduli (GPa) = 43.16558 53.40181 74.67653
#
# Poissons Ratio (x) = 0.13835 0.75321
# Poissons Ratio (y) = 0.11183 0.36370
# Poissons Ratio (z) = 0.43538 0.26008
#
# Static dielectric constant tensor:
#      x y z
#    x 1.676510 0.000000 0.000000 
#    y 0.000000 1.677370 0.000000 
#    z 0.000000 0.000000 1.635480 
# 
# From -- ./inp_files/25912.got.cif
#   From: 2010.05.17/outbox.cif.g08.bks.cpg/sg44_13_cif.got.tgz:25912.got - 2010.06.03 19:37:08.
