data_PCOD9375336
_publ_section_title
;
Structure prediction by ZEFSAII (Michael W. Deem and Ramdas Pophale) SiO2 
 PCOD9375336
Probable space group: I M M 2
;
_chemical_formula_sum "Si O2"
_cell_formula_units_Z 58
_cell_length_a 15.305334
_cell_length_b 7.787933
_cell_length_c 24.625975
_cell_angle_alpha 90.000000
_cell_angle_beta 90.000000
_cell_angle_gamma 90.000000
_cell_volume 2935.340267
_symmetry_space_group_name_H-M "I M M 2"
_symmetry_group_IT_number 44
_symmetry_cell_setting 'orthorhombic'
loop_
_space_group_symop_operation_xyz
x,y,z
-x,-y,z
-x,y,z
x,-y,z
1/2+x,1/2+y,1/2+z
1/2-x,1/2-y,1/2+z
1/2-x,1/2+y,1/2+z
1/2+x,1/2-y,1/2+z
loop_
_atom_site_type_symbol
_atom_site_label
_atom_site_fract_x
_atom_site_fract_y
_atom_site_fract_z
Si Si1 0.766276 0.705123 0.982030
Si Si2 0.648894 0.799515 0.367927
Si Si3 0.000000 0.000000 0.859570
Si Si4 0.768476 0.797717 0.758769
Si Si5 0.900683 0.794874 0.666373
Si Si6 0.599180 0.295750 0.696219
Si Si7 0.401735 0.796206 0.044731
Si Si8 0.400299 0.792591 0.572720
O O1 0.771411 0.500000 0.984954
O O2 0.797945 0.751333 0.922162
O O3 0.668734 0.751703 0.999488
O O4 0.833729 0.774062 0.027491
O O5 0.575290 0.654642 0.359810
O O6 0.710298 0.792611 0.315089
O O7 0.618056 0.000000 0.374501
O O8 0.834164 0.729930 0.711742
O O9 0.670838 0.776922 0.736699
O O10 0.785702 0.000000 0.765926
O O11 0.871655 0.763340 0.604564
O O12 0.000000 0.726700 0.672433
O O13 0.905077 0.000000 0.673236
O O14 0.500000 0.229662 0.703788
O O15 0.597700 0.500000 0.702739
O O16 0.624708 0.256371 0.633904
O O17 0.500000 0.726187 0.035725
O O18 0.407560 0.000000 0.047326
O O19 0.500000 0.732622 0.562904
O O20 0.401172 0.000000 0.570277
#
# Coordination Sequence:
#
# PCOD9375336 Si02
#       8
#     8   8   2   8   8   8   8   8
#     4  10  22  39  60  86 118 158 205 251 306 367
#     4  11  26  45  67  95 127 166 209 256 307 367
#     4  12  26  48  68  94 130 164 214 252 308 364
#     4  11  22  38  62  88 121 160 209 257 309 373
#     4   9  19  34  56  84 119 157 197 245 307 376
#     4  10  21  37  56  85 120 158 204 257 313 372
#     4  10  21  36  56  85 119 156 201 253 309 368
#     4   9  18  34  56  84 118 155 196 244 306 376
#
# _framework density 19.759207
#
# number of rings (size 3 to 8) (size 9 to 14) (size 15 to 20)
#    0.000    1.931    0.690    2.276    2.897    6.621 
#    0.000    0.690    0.000    0.828    0.000    0.000 
#    0.000    0.000    0.000    0.000    0.000    0.000 
#
# Total GULP energy -161642.540833 kJ/mol
# GULP energy per Si atom -5573.880718 kJ/mol
# Density = 1.971423 g / cm^3
# Si number density = 19.759207 Si / 1000 Ang^3
#
#
#
# Elastic Constant Matrix: (Units=GPa)
#
#
# Indices 1 2 3 4 5 6 
#
# 1 108.6030 19.8831 88.7843 0.0000 0.0000 0.0000
# 2 19.8831 62.5936 22.5580 0.0000 0.0000 0.0000
# 3 88.7843 22.5580 125.4454 0.0000 0.0000 0.0000
# 4 0.0000 0.0000 0.0000 18.1278 0.0000 0.0000
# 5 0.0000 0.0000 0.0000 0.0000 -13.8103 0.0000
# 6 0.0000 0.0000 0.0000 0.0000 0.0000 29.6395
#
#
#
# Elastic Compliance Matrix: (Units=1/GPa)
#
#
# Indices 1 2 3 4 5 6 
#
# 1 0.021976 -0.001471 -0.015289 0.000000 0.000000 0.000000
# 2 -0.001471 0.017182 -0.002049 0.000000 0.000000 0.000000
# 3 -0.015289 -0.002049 0.019161 0.000000 0.000000 0.000000
# 4 0.000000 0.000000 0.000000 0.055164 0.000000 0.000000
# 5 0.000000 0.000000 0.000000 0.000000 -0.072410 0.000000
# 6 0.000000 0.000000 0.000000 0.000000 0.000000 0.033739
#
#
# Mechanical properties :
#
#
# Convention : Reuss Voigt Hill
#
# Bulk Modulus (GPa) = 48.30597 62.12143 55.21370
# Shear Modulus (GPa) = 41.90055 17.81917 29.85986
#
# Velocity S-wave (km/s) = 4.60995 3.00628 3.89162
# Velocity P-wave (km/s) = 7.26883 6.59983 6.94239
#
# Compressibility (1/GPa) = 0.02070137
#
# Stress axis : x y z
#
# Youngs Moduli (GPa) = 45.50343 58.20180 52.18915
#
# Poissons Ratio (x) = 0.08560 0.79794
# Poissons Ratio (y) = 0.06693 0.10692
# Poissons Ratio (z) = 0.69572 0.11924
#
# Static dielectric constant tensor:
#      x y z
#    x 1.715150 0.000000 0.000000 
#    y 0.000000 1.719350 0.000000 
#    z 0.000000 0.000000 1.674180 
# 
# From -- ./inp_files/25724.got.cif
#   From: 2010.05.17/outbox.cif.g08.bks.cpg/sg44_13_cif.got.tgz:25724.got - 2010.06.03 19:37:08.
