data_PCOD9375664
_publ_section_title
;
Structure prediction by ZEFSAII (Michael W. Deem and Ramdas Pophale) SiO2 
 PCOD9375664
Probable space group: I M M 2
;
_chemical_formula_sum "Si O2"
_cell_formula_units_Z 58
_cell_length_a 15.846151
_cell_length_b 21.694813
_cell_length_c 8.909442
_cell_angle_alpha 90.000000
_cell_angle_beta 90.000000
_cell_angle_gamma 90.000000
_cell_volume 3062.881580
_symmetry_space_group_name_H-M "I M M 2"
_symmetry_group_IT_number 44
_symmetry_cell_setting 'orthorhombic'
loop_
_space_group_symop_operation_xyz
x,y,z
-x,-y,z
-x,y,z
x,-y,z
1/2+x,1/2+y,1/2+z
1/2-x,1/2-y,1/2+z
1/2-x,1/2+y,1/2+z
1/2+x,1/2-y,1/2+z
loop_
_atom_site_type_symbol
_atom_site_label
_atom_site_fract_x
_atom_site_fract_y
_atom_site_fract_z
Si Si1 0.848106 0.736894 0.947620
Si Si2 0.500000 0.500000 0.029239
Si Si3 0.749499 0.320450 0.214768
Si Si4 0.405523 0.852537 0.204784
Si Si5 0.262626 0.571654 0.736372
Si Si6 0.097166 0.286993 0.393677
Si Si7 0.594950 0.671028 0.695975
Si Si8 0.825951 0.064973 0.572587
O O1 0.802445 0.774455 0.817608
O O2 0.897848 0.683340 0.862586
O O3 0.777885 0.709111 0.058164
O O4 0.899810 0.783266 0.053293
O O5 0.424109 0.552855 0.034178
O O6 0.837270 0.329518 0.303978
O O7 0.694740 0.379975 0.181702
O O8 0.500000 0.878987 0.189970
O O9 0.328593 0.900556 0.196741
O O10 0.395118 0.803301 0.068557
O O11 0.272611 0.500000 0.690001
O O12 0.335437 0.617998 0.678174
O O13 0.276825 0.573319 0.916239
O O14 0.113388 0.216591 0.337866
O O15 0.000000 0.298961 0.350055
O O16 0.500000 0.646159 0.710864
O O17 0.797016 0.000000 0.642385
#
# Coordination Sequence:
#
# PCOD9375664 Si02
#       8
#     8   2   8   8   8   8   8   8
#     4  11  22  35  60  92 125 161 196 246 306 369
#     4   8  20  44  60  88 120 148 220 248 292 348
#     4  11  20  37  62  86 126 162 199 245 303 363
#     4  11  22  40  62  91 122 156 202 254 306 363
#     4  11  23  38  61  87 117 162 208 244 302 355
#     4   9  20  37  61  92 124 159 196 243 308 365
#     4  10  22  39  61  93 126 158 200 248 304 365
#     4   9  21  39  60  86 114 159 201 251 293 352
#
# _framework density 18.936416999999999
#
# number of rings (size 3 to 8) (size 9 to 14) (size 15 to 20)
#    0.414    1.379    1.379    3.724    2.897    1.103 
#    2.483    2.759    0.000    1.241    0.000    0.000 
#    0.000    0.000    0.000    0.000    0.000    0.000 
#
# Total GULP energy -161448.789100 kJ/mol
# GULP energy per Si atom -5567.199624 kJ/mol
# Density = 1.889332 g / cm^3
# Si number density = 18.936417 Si / 1000 Ang^3
#
#
#
# Elastic Constant Matrix: (Units=GPa)
#
#
# Indices 1 2 3 4 5 6 
#
# 1 146.9736 57.5772 30.0225 0.0000 0.0000 0.0000
# 2 57.5772 83.7790 26.1161 0.0000 0.0000 0.0000
# 3 30.0225 26.1161 60.8848 0.0000 0.0000 0.0000
# 4 0.0000 0.0000 0.0000 -1.7775 0.0000 0.0000
# 5 0.0000 0.0000 0.0000 0.0000 23.6681 0.0000
# 6 0.0000 0.0000 0.0000 0.0000 0.0000 19.7570
#
#
#
# Elastic Compliance Matrix: (Units=1/GPa)
#
#
# Indices 1 2 3 4 5 6 
#
# 1 0.009557 -0.005886 -0.002188 0.000000 0.000000 0.000000
# 2 -0.005886 0.017404 -0.004563 0.000000 0.000000 0.000000
# 3 -0.002188 -0.004563 0.019460 0.000000 0.000000 0.000000
# 4 0.000000 0.000000 0.000000 -0.562583 0.000000 0.000000
# 5 0.000000 0.000000 0.000000 0.000000 0.042251 0.000000
# 6 0.000000 0.000000 0.000000 0.000000 0.000000 0.050615
#
#
# Mechanical properties :
#
#
# Convention : Reuss Voigt Hill
#
# Bulk Modulus (GPa) = 47.28605 57.67433 52.48019
# Shear Modulus (GPa) = -12.78855 20.19096 3.70121
#
# Velocity S-wave (km/s) = -2.60155 3.26889 1.39957
# Velocity P-wave (km/s) = 4.00013 6.69108 5.51233
#
# Compressibility (1/GPa) = 0.02114789
#
# Stress axis : x y z
#
# Youngs Moduli (GPa) = 104.63954 57.45958 51.38638
#
# Poissons Ratio (x) = 0.33820 0.11242
# Poissons Ratio (y) = 0.61589 0.23447
# Poissons Ratio (z) = 0.22892 0.26218
#
# Static dielectric constant tensor:
#      x y z
#    x 1.679160 0.000000 0.000000 
#    y 0.000000 1.671340 0.000000 
#    z 0.000000 0.000000 1.670960 
# 
# From -- ./inp_files/7510.got.cif
#   From: 2010.05.17/outbox.cif.g08.bks.cpg/sg44_4_cif.got.tgz:7510.got - 2010.06.03 19:37:08.
