data_PCOD9375475
_publ_section_title
;
Structure prediction by ZEFSAII (Michael W. Deem and Ramdas Pophale) SiO2 
 PCOD9375475
Probable space group: I M M 2
;
_chemical_formula_sum "Si O2"
_cell_formula_units_Z 40
_cell_length_a 7.657859
_cell_length_b 7.899658
_cell_length_c 33.713402
_cell_angle_alpha 90.000000
_cell_angle_beta 90.000000
_cell_angle_gamma 90.000000
_cell_volume 2039.474289
_symmetry_space_group_name_H-M "I M M 2"
_symmetry_group_IT_number 44
_symmetry_cell_setting 'orthorhombic'
loop_
_space_group_symop_operation_xyz
x,y,z
-x,-y,z
-x,y,z
x,-y,z
1/2+x,1/2+y,1/2+z
1/2-x,1/2-y,1/2+z
1/2-x,1/2+y,1/2+z
1/2+x,1/2-y,1/2+z
loop_
_atom_site_type_symbol
_atom_site_label
_atom_site_fract_x
_atom_site_fract_y
_atom_site_fract_z
Si Si1 0.000000 0.705097 0.305230
Si Si2 0.797929 0.795070 0.865653
Si Si3 0.787704 0.500000 0.598005
Si Si4 0.500000 0.300641 0.713930
Si Si5 0.709452 0.814068 0.452889
Si Si6 0.293427 0.306681 0.155188
Si Si7 0.794095 0.500000 0.508757
O O1 0.170181 0.757795 0.330394
O O2 0.000000 0.771185 0.260753
O O3 0.000000 0.500000 0.303528
O O4 0.731985 0.728961 0.908192
O O5 0.000000 0.742797 0.859675
O O6 0.795670 0.000000 0.867937
O O7 0.739193 0.667807 0.622570
O O8 0.718528 0.500000 0.553175
O O9 0.000000 0.500000 0.596831
O O10 0.500000 0.500000 0.705577
O O11 0.329210 0.221662 0.693122
O O12 0.500000 0.819439 0.450359
O O13 0.750118 0.665706 0.483374
O O14 0.773824 0.000000 0.464942
O O15 0.500000 0.281701 0.164208
O O16 0.272014 0.500000 0.141080
O O17 0.000000 0.500000 0.513564
#
# Coordination Sequence:
#
# PCOD9375475 Si02
#       7
#     4   8   4   4   8   8   4
#     4  10  22  36  56  88 124 157 205 264 305 371
#     4   9  18  35  58  81 115 164 207 251 311 366
#     4   9  20  40  62  92 123 159 209 254 313 381
#     4  12  24  40  62  93 129 164 209 257 318 379
#     4  10  21  38  59  84 119 165 210 251 305 369
#     4  10  21  41  68  90 120 166 206 254 316 378
#     4  11  23  37  61  91 125 159 203 265 312 368
#
# _framework density 19.612898000000001
#
# number of rings (size 3 to 8) (size 9 to 14) (size 15 to 20)
#    0.000    2.000    2.000    1.200    1.400    2.800 
#    3.600    4.000    0.000    0.000    0.000    0.000 
#    0.000    0.000    0.000    0.000    0.000    0.000 
#
# Total GULP energy -111675.678728 kJ/mol
# GULP energy per Si atom -5583.783936 kJ/mol
# Density = 1.956826 g / cm^3
# Si number density = 19.612898 Si / 1000 Ang^3
#
#
#
# Elastic Constant Matrix: (Units=GPa)
#
#
# Indices 1 2 3 4 5 6 
#
# 1 76.6759 40.1718 54.8623 0.0000 0.0000 0.0000
# 2 40.1718 132.2910 79.4134 0.0000 0.0000 0.0000
# 3 54.8623 79.4134 174.9608 0.0000 0.0000 0.0000
# 4 0.0000 0.0000 0.0000 18.1061 0.0000 0.0000
# 5 0.0000 0.0000 0.0000 0.0000 39.9149 0.0000
# 6 0.0000 0.0000 0.0000 0.0000 0.0000 4.6822
#
#
#
# Elastic Compliance Matrix: (Units=1/GPa)
#
#
# Indices 1 2 3 4 5 6 
#
# 1 0.017528 -0.002781 -0.004234 0.000000 0.000000 0.000000
# 2 -0.002781 0.010831 -0.004044 0.000000 0.000000 0.000000
# 3 -0.004234 -0.004044 0.008879 0.000000 0.000000 0.000000
# 4 0.000000 0.000000 0.000000 0.055230 0.000000 0.000000
# 5 0.000000 0.000000 0.000000 0.000000 0.025053 0.000000
# 6 0.000000 0.000000 0.000000 0.000000 0.000000 0.213574
#
#
# Mechanical properties :
#
#
# Convention : Reuss Voigt Hill
#
# Bulk Modulus (GPa) = 66.13762 81.42473 73.78118
# Shear Modulus (GPa) = 13.95655 26.50601 20.23128
#
# Velocity S-wave (km/s) = 2.67048 3.68021 3.21523
# Velocity P-wave (km/s) = 6.58052 7.72429 7.17523
#
# Compressibility (1/GPa) = 0.01511999
#
# Stress axis : x y z
#
# Youngs Moduli (GPa) = 57.05008 92.32511 112.62687
#
# Poissons Ratio (x) = 0.25676 0.47687
# Poissons Ratio (y) = 0.15866 0.45549
# Poissons Ratio (z) = 0.24156 0.37338
#
# Static dielectric constant tensor:
#      x y z
#    x 1.692040 0.000000 0.000000 
#    y 0.000000 1.688940 0.000000 
#    z 0.000000 0.000000 1.655870 
# 
# From -- ./inp_files/25981.got.cif
#   From: 2010.05.17/outbox.cif.g08.bks.cpg/sg44_13_cif.got.tgz:25981.got - 2010.06.03 19:37:08.
