data_PCOD9375331
_publ_section_title
;
Structure prediction by ZEFSAII (Michael W. Deem and Ramdas Pophale) SiO2 
 PCOD9375331
Probable space group: I M M 2
;
_chemical_formula_sum "Si O2"
_cell_formula_units_Z 56
_cell_length_a 7.894022
_cell_length_b 21.189273
_cell_length_c 14.529517
_cell_angle_alpha 90.000000
_cell_angle_beta 90.000000
_cell_angle_gamma 90.000000
_cell_volume 2430.331782
_symmetry_space_group_name_H-M "I M M 2"
_symmetry_group_IT_number 44
_symmetry_cell_setting 'orthorhombic'
loop_
_space_group_symop_operation_xyz
x,y,z
-x,-y,z
-x,y,z
x,-y,z
1/2+x,1/2+y,1/2+z
1/2-x,1/2-y,1/2+z
1/2-x,1/2+y,1/2+z
1/2+x,1/2-y,1/2+z
loop_
_atom_site_type_symbol
_atom_site_label
_atom_site_fract_x
_atom_site_fract_y
_atom_site_fract_z
Si Si1 0.194006 0.927968 0.491870
Si Si2 0.699627 0.761623 0.009005
Si Si3 0.694737 0.335935 0.160500
Si Si4 0.796000 0.930628 0.209009
Si Si5 0.708544 0.430440 0.305582
Si Si6 0.686443 0.830695 0.354040
Si Si7 0.803600 0.096837 0.007372
O O1 0.190460 0.894721 0.589997
O O2 0.311992 0.888612 0.425821
O O3 0.000000 0.923088 0.454350
O O4 0.240283 0.000000 0.498815
O O5 0.500000 0.772145 0.023414
O O6 0.717564 0.722362 0.913575
O O7 0.792326 0.827636 0.004506
O O8 0.765635 0.720054 0.096284
O O9 0.500000 0.317796 0.181553
O O10 0.771348 0.368502 0.250675
O O11 0.749728 0.866829 0.263512
O O12 0.000000 0.931537 0.207712
O O13 0.742445 0.000000 0.247696
O O14 0.730219 0.925473 0.104453
O O15 0.500000 0.427242 0.303427
O O16 0.753799 0.500000 0.267618
O O17 0.767584 0.427087 0.410971
O O18 0.500000 0.805454 0.336240
O O19 0.000000 0.076952 0.008071
#
# Coordination Sequence:
#
# PCOD9375331 Si02
#       7
#     8   8   8   8   8   8   8
#     4   9  16  28  48  75 108 144 178 216 273 343
#     4  10  21  38  57  80 112 150 187 223 277 342
#     4   8  15  28  49  77 106 136 174 218 263 319
#     4  10  21  38  58  81 114 155 193 231 284 346
#     4   9  16  29  53  84 112 137 172 221 272 320
#     4  11  22  35  54  80 109 142 186 240 287 330
#     4  10  21  36  56  83 113 147 188 232 272 320
#
# _framework density 23.042123
#
# number of rings (size 3 to 8) (size 9 to 14) (size 15 to 20)
#    0.000    2.429    0.000    3.857    0.000    7.429 
#    0.000    1.429    0.000    4.714    0.000    0.000 
#    0.000    0.000    0.000    0.000    0.000    0.000 
#
# Total GULP energy -156157.552636 kJ/mol
# GULP energy per Si atom -5577.055451 kJ/mol
# Density = 2.298968 g / cm^3
# Si number density = 23.042123 Si / 1000 Ang^3
#
#
#
# Elastic Constant Matrix: (Units=GPa)
#
#
# Indices 1 2 3 4 5 6 
#
# 1 30.7425 -3.5505 5.4285 0.0000 0.0000 0.0000
# 2 -3.5505 108.5822 18.3447 0.0000 0.0000 0.0000
# 3 5.4285 18.3447 99.2534 -0.0001 0.0000 0.0000
# 4 0.0000 0.0000 -0.0001 28.7523 0.0000 0.0000
# 5 0.0000 0.0000 0.0000 0.0000 113.6026 0.0000
# 6 0.0000 0.0000 0.0000 0.0000 0.0000 12.8627
#
#
#
# Elastic Compliance Matrix: (Units=1/GPa)
#
#
# Indices 1 2 3 4 5 6 
#
# 1 0.033060 0.001431 -0.002073 0.000000 0.000000 0.000000
# 2 0.001431 0.009568 -0.001847 0.000000 0.000000 0.000000
# 3 -0.002073 -0.001847 0.010530 0.000000 0.000000 0.000000
# 4 0.000000 0.000000 0.000000 0.034780 0.000000 0.000000
# 5 0.000000 0.000000 0.000000 0.000000 0.008803 0.000000
# 6 0.000000 0.000000 0.000000 0.000000 0.000000 0.077744
#
#
# Mechanical properties :
#
#
# Convention : Reuss Voigt Hill
#
# Bulk Modulus (GPa) = 20.75490 31.00260 25.87875
# Shear Modulus (GPa) = 25.57268 45.60057 35.58663
#
# Velocity S-wave (km/s) = 3.33501 4.45343 3.93417
# Velocity P-wave (km/s) = 4.88433 6.31886 5.64733
#
# Compressibility (1/GPa) = 0.04818140
#
# Stress axis : x y z
#
# Youngs Moduli (GPa) = 30.24845 104.51044 94.96752
#
# Poissons Ratio (x) = -0.14957 0.19683
# Poissons Ratio (y) = -0.04329 0.17538
# Poissons Ratio (z) = 0.06269 0.19301
#
# Static dielectric constant tensor:
#      x y z
#    x 1.794920 0.000000 0.000000 
#    y 0.000000 1.844190 0.000000 
#    z 0.000000 0.000000 1.922810 
# 
# From -- ./inp_files/16449.got.cif
#   From: 2010.05.17/outbox.cif.g08.bks.cpg/sg44_9_cif.got.tgz:16449.got - 2010.06.03 19:37:08.
