data_PCOD9375454
_publ_section_title
;
Structure prediction by ZEFSAII (Michael W. Deem and Ramdas Pophale) SiO2 
 PCOD9375454
Probable space group: I M M 2
;
_chemical_formula_sum "Si O2"
_cell_formula_units_Z 64
_cell_length_a 23.099642
_cell_length_b 16.017767
_cell_length_c 8.945152
_cell_angle_alpha 90.000000
_cell_angle_beta 90.000000
_cell_angle_gamma 90.000000
_cell_volume 3309.748133
_symmetry_space_group_name_H-M "I M M 2"
_symmetry_group_IT_number 44
_symmetry_cell_setting 'orthorhombic'
loop_
_space_group_symop_operation_xyz
x,y,z
-x,-y,z
-x,y,z
x,-y,z
1/2+x,1/2+y,1/2+z
1/2-x,1/2-y,1/2+z
1/2-x,1/2+y,1/2+z
1/2+x,1/2-y,1/2+z
loop_
_atom_site_type_symbol
_atom_site_label
_atom_site_fract_x
_atom_site_fract_y
_atom_site_fract_z
Si Si1 0.895309 0.091727 0.900850
Si Si2 0.271035 0.355682 0.313314
Si Si3 0.847258 0.404743 0.800046
Si Si4 0.152985 0.409904 0.440489
Si Si5 0.252247 0.686108 0.968150
Si Si6 0.433605 0.758752 0.258798
Si Si7 0.933453 0.908059 0.224814
Si Si8 0.116133 0.230534 0.428404
O O1 0.832125 0.099031 0.826669
O O2 0.929929 0.172934 0.849908
O O3 0.920190 0.000000 0.864131
O O4 0.892586 0.096516 0.080459
O O5 0.216691 0.407251 0.371381
O O6 0.274895 0.274497 0.419606
O O7 0.256229 0.327294 0.145276
O O8 0.864398 0.500000 0.837102
O O9 0.839520 0.400875 0.619846
O O10 0.788059 0.381175 0.885474
O O11 0.895223 0.333205 0.829798
O O12 0.125234 0.500000 0.410730
O O13 0.120261 0.327813 0.381070
O O14 0.319020 0.693151 0.917762
O O15 0.500000 0.785472 0.240632
O O16 0.405901 0.735586 0.098343
O O17 0.922879 0.831020 0.333018
O O18 0.000000 0.905899 0.171251
O O19 0.924633 0.000000 0.296816
#
# Coordination Sequence:
#
# PCOD9375454 Si02
#       8
#     8   8   8   8   8   8   8   8
#     4  11  23  39  60  85 116 155 201 247 301 363
#     4  11  21  36  59  88 122 158 197 243 301 377
#     4  10  22  40  61  90 124 160 206 256 310 369
#     4   9  20  36  57  88 123 159 196 245 304 364
#     4  11  21  37  59  89 125 157 199 250 312 366
#     4  11  22  41  63  87 122 162 209 258 304 361
#     4  10  23  41  59  84 117 157 206 253 303 365
#     4  10  21  37  62  88 119 160 201 251 305 371
#
# _framework density 19.336818999999998
#
# number of rings (size 3 to 8) (size 9 to 14) (size 15 to 20)
#    0.000    1.625    2.500    2.625    5.250    3.000 
#    0.000    0.000    0.000    1.125    0.000    0.000 
#    0.000    0.000    0.000    0.000    0.000    0.000 
#
# Total GULP energy -178481.711980 kJ/mol
# GULP energy per Si atom -5577.553499 kJ/mol
# Density = 1.929281 g / cm^3
# Si number density = 19.336819 Si / 1000 Ang^3
#
#
#
# Elastic Constant Matrix: (Units=GPa)
#
#
# Indices 1 2 3 4 5 6 
#
# 1 65.6302 37.0654 14.4139 0.0000 0.0000 0.0000
# 2 37.0654 159.3518 55.6220 0.0000 0.0000 0.0000
# 3 14.4139 55.6220 43.3347 0.0000 0.0000 0.0000
# 4 0.0000 0.0000 0.0000 24.4746 0.0000 0.0000
# 5 0.0000 0.0000 0.0000 0.0000 18.3581 0.0000
# 6 0.0000 0.0000 0.0000 0.0000 0.0000 8.8591
#
#
#
# Elastic Compliance Matrix: (Units=1/GPa)
#
#
# Indices 1 2 3 4 5 6 
#
# 1 0.017569 -0.003708 -0.001084 0.000000 0.000000 0.000000
# 2 -0.003708 0.012152 -0.014364 0.000000 0.000000 0.000000
# 3 -0.001084 -0.014364 0.041873 0.000000 0.000000 0.000000
# 4 0.000000 0.000000 0.000000 0.040859 0.000000 0.000000
# 5 0.000000 0.000000 0.000000 0.000000 0.054472 0.000000
# 6 0.000000 0.000000 0.000000 0.000000 0.000000 0.112879
#
#
# Mechanical properties :
#
#
# Convention : Reuss Voigt Hill
#
# Bulk Modulus (GPa) = 30.04636 53.61324 41.82980
# Shear Modulus (GPa) = 15.18789 21.08605 18.13697
#
# Velocity S-wave (km/s) = 2.80561 3.30580 3.06592
# Velocity P-wave (km/s) = 5.10562 6.50824 5.84913
#
# Compressibility (1/GPa) = 0.03328190
#
# Stress axis : x y z
#
# Youngs Moduli (GPa) = 56.91763 82.29350 23.88155
#
# Poissons Ratio (x) = 0.30516 0.02589
# Poissons Ratio (y) = 0.21106 0.34303
# Poissons Ratio (z) = 0.06171 1.18204
#
# Static dielectric constant tensor:
#      x y z
#    x 1.653490 0.000000 0.000000 
#    y 0.000000 1.714490 0.000000 
#    z 0.000000 0.000000 1.664210 
# 
# From -- ./inp_files/9453.got.cif
#   From: 2010.05.17/outbox.cif.g08.bks.cpg/sg44_5_cif.got.tgz:9453.got - 2010.06.03 19:37:08.
