data_PCOD9375894
_publ_section_title
;
Structure prediction by ZEFSAII (Michael W. Deem and Ramdas Pophale) SiO2 
 PCOD9375894
Probable space group: I M M 2
;
_chemical_formula_sum "Si O2"
_cell_formula_units_Z 40
_cell_length_a 7.851018
_cell_length_b 8.723324
_cell_length_c 33.607338
_cell_angle_alpha 90.000000
_cell_angle_beta 90.000000
_cell_angle_gamma 90.000000
_cell_volume 2301.664875
_symmetry_space_group_name_H-M "I M M 2"
_symmetry_group_IT_number 44
_symmetry_cell_setting 'orthorhombic'
loop_
_space_group_symop_operation_xyz
x,y,z
-x,-y,z
-x,y,z
x,-y,z
1/2+x,1/2+y,1/2+z
1/2-x,1/2-y,1/2+z
1/2-x,1/2+y,1/2+z
1/2+x,1/2-y,1/2+z
loop_
_atom_site_type_symbol
_atom_site_label
_atom_site_fract_x
_atom_site_fract_y
_atom_site_fract_z
Si Si1 0.500000 0.179619 0.786340
Si Si2 0.307895 0.818644 0.238225
Si Si3 0.000000 0.311996 0.573232
Si Si4 0.500000 0.318432 0.873817
Si Si5 0.303159 0.315058 0.425796
Si Si6 0.000000 0.686115 0.663823
Si Si7 0.193059 0.813329 0.017151
O O1 0.665736 0.226714 0.761086
O O2 0.500000 0.266536 0.828185
O O3 0.500000 0.000000 0.794247
O O4 0.500000 0.799897 0.255545
O O5 0.338978 0.772368 0.191923
O O6 0.266855 0.000000 0.239605
O O7 0.000000 0.258616 0.618902
O O8 0.833613 0.262781 0.548642
O O9 0.000000 0.500000 0.573883
O O10 0.500000 0.500000 0.876135
O O11 0.333358 0.254517 0.896148
O O12 0.500000 0.273210 0.417182
O O13 0.291759 0.500000 0.423988
O O14 0.265874 0.269073 0.471632
O O15 0.000000 0.500000 0.662898
O O16 0.000000 0.763922 0.026321
O O17 0.193164 0.000000 0.017473
#
# Coordination Sequence:
#
# PCOD9375894 Si02
#       7
#     4   8   4   4   8   4   8
#     4  12  24  37  57  80 101 131 174 218 263 317
#     4   8  17  36  56  75 104 138 170 209 262 314
#     4   9  13  21  39  71 111 137 163 208 252 299
#     4  12  25  37  53  79 107 135 171 216 264 315
#     4   9  18  35  56  77 107 144 178 215 258 303
#     4   7  14  29  48  72 105 141 170 204 259 311
#     4   8  14  24  42  71 106 140 169 204 254 299
#
# _framework density 17.378724999999999
#
# number of rings (size 3 to 8) (size 9 to 14) (size 15 to 20)
#    0.600    2.400    0.000    3.600    0.000    3.200 
#    1.800    0.000    0.000    0.000    0.000    5.600 
#    0.000    0.000    0.000    0.000    0.000    0.000 
#
# Total GULP energy -111345.457314 kJ/mol
# GULP energy per Si atom -5567.272866 kJ/mol
# Density = 1.733917 g / cm^3
# Si number density = 17.378725 Si / 1000 Ang^3
#
#
#
# Elastic Constant Matrix: (Units=GPa)
#
#
# Indices 1 2 3 4 5 6 
#
# 1 102.6233 25.5952 88.6739 0.0000 0.0000 0.0000
# 2 25.5952 22.6953 18.5663 0.0000 0.0000 0.0000
# 3 88.6739 18.5663 140.3248 0.0000 0.0000 0.0000
# 4 0.0000 0.0000 0.0000 15.1810 0.0000 0.0000
# 5 0.0000 0.0000 0.0000 0.0000 4.8779 0.0000
# 6 0.0000 0.0000 0.0000 0.0000 0.0000 12.3109
#
#
#
# Elastic Compliance Matrix: (Units=1/GPa)
#
#
# Indices 1 2 3 4 5 6 
#
# 1 0.026959 -0.018466 -0.014593 0.000000 0.000000 0.000000
# 2 -0.018466 0.062059 0.003458 0.000000 0.000000 0.000000
# 3 -0.014593 0.003458 0.015890 0.000000 0.000000 0.000000
# 4 0.000000 0.000000 0.000000 0.065872 0.000000 0.000000
# 5 0.000000 0.000000 0.000000 0.000000 0.205005 0.000000
# 6 0.000000 0.000000 0.000000 0.000000 0.000000 0.081229
#
#
# Mechanical properties :
#
#
# Convention : Reuss Voigt Hill
#
# Bulk Modulus (GPa) = 21.87867 59.03491 40.45679
# Shear Modulus (GPa) = 9.40820 15.32782 12.36801
#
# Velocity S-wave (km/s) = 2.32925 2.97305 2.67062
# Velocity P-wave (km/s) = 4.45539 6.76969 5.73059
#
# Compressibility (1/GPa) = 0.04570663
#
# Stress axis : x y z
#
# Youngs Moduli (GPa) = 37.09317 16.11379 62.93174
#
# Poissons Ratio (x) = 0.29756 0.91835
# Poissons Ratio (y) = 0.68496 -0.21762
# Poissons Ratio (z) = 0.54129 -0.05572
#
# Static dielectric constant tensor:
#      x y z
#    x 1.585320 0.000000 0.000000 
#    y 0.000000 1.594740 0.000000 
#    z 0.000000 0.000000 1.583670 
# 
# From -- ./inp_files/25987.got.cif
#   From: 2010.05.17/outbox.cif.g08.bks.cpg/sg44_13_cif.got.tgz:25987.got - 2010.06.03 19:37:08.
