data_PCOD9375243
_publ_section_title
;
Structure prediction by ZEFSAII (Michael W. Deem and Ramdas Pophale) SiO2 
 PCOD9375243
Probable space group: I M M 2
;
_chemical_formula_sum "Si O2"
_cell_formula_units_Z 48
_cell_length_a 10.245803
_cell_length_b 8.494748
_cell_length_c 31.325583
_cell_angle_alpha 90.000000
_cell_angle_beta 90.000000
_cell_angle_gamma 90.000000
_cell_volume 2726.438235
_symmetry_space_group_name_H-M "I M M 2"
_symmetry_group_IT_number 44
_symmetry_cell_setting 'orthorhombic'
loop_
_space_group_symop_operation_xyz
x,y,z
-x,-y,z
-x,y,z
x,-y,z
1/2+x,1/2+y,1/2+z
1/2-x,1/2-y,1/2+z
1/2-x,1/2+y,1/2+z
1/2+x,1/2-y,1/2+z
loop_
_atom_site_type_symbol
_atom_site_label
_atom_site_fract_x
_atom_site_fract_y
_atom_site_fract_z
Si Si1 0.649893 0.809701 0.275680
Si Si2 0.650043 0.690069 0.611727
Si Si3 0.648909 0.689809 0.514360
Si Si4 0.850139 0.811754 0.681860
Si Si5 0.149526 0.192004 0.347809
Si Si6 0.350513 0.310134 0.944817
O O1 0.500000 0.759532 0.283727
O O2 0.687480 0.751925 0.228589
O O3 0.748385 0.753729 0.312318
O O4 0.651983 0.000000 0.275547
O O5 0.500000 0.737594 0.620994
O O6 0.653798 0.500000 0.612868
O O7 0.680581 0.739679 0.562986
O O8 0.751821 0.754274 0.645708
O O9 0.500000 0.740947 0.504994
O O10 0.649964 0.500000 0.514014
O O11 0.750382 0.749806 0.479770
O O12 0.000000 0.758825 0.673561
O O13 0.849392 0.000000 0.683088
O O14 0.182450 0.240506 0.396299
O O15 0.000000 0.239636 0.338690
O O16 0.151115 0.000000 0.347466
O O17 0.500000 0.260169 0.953647
O O18 0.348652 0.500000 0.945228
#
# Coordination Sequence:
#
# PCOD9375243 Si02
#       6
#     8   8   8   8   8   8
#     4   9  17  30  49  71  94 124 164 204 239 281
#     4   9  19  36  55  73  95 126 165 206 245 288
#     4   9  19  35  52  72  99 129 163 203 245 290
#     4  10  21  35  50  72 103 133 160 196 244 295
#     4   8  15  29  48  70  96 125 159 200 241 281
#     4   9  18  32  50  74 103 132 163 200 242 289
#
# _framework density 17.605385999999999
#
# number of rings (size 3 to 8) (size 9 to 14) (size 15 to 20)
#    0.000    3.000    0.000    2.500    0.000    4.667 
#    0.000    9.167    0.000    3.000    0.000    0.000 
#    0.000    0.000    0.000    0.000    0.000    0.000 
#
# Total GULP energy -133779.981509 kJ/mol
# GULP energy per Si atom -5574.165896 kJ/mol
# Density = 1.756532 g / cm^3
# Si number density = 17.605386 Si / 1000 Ang^3
#
#
#
# Elastic Constant Matrix: (Units=GPa)
#
#
# Indices 1 2 3 4 5 6 
#
# 1 135.1515 23.2377 143.8082 0.0000 0.0000 0.0000
# 2 23.2377 7.1508 26.0221 0.0000 0.0000 0.0000
# 3 143.8082 26.0221 185.8046 0.0000 0.0000 0.0000
# 4 0.0000 0.0000 0.0000 25.7026 0.0000 0.0000
# 5 0.0000 0.0000 0.0000 0.0000 44.2514 0.0000
# 6 0.0000 0.0000 0.0000 0.0000 0.0000 23.9444
#
#
#
# Elastic Compliance Matrix: (Units=1/GPa)
#
#
# Indices 1 2 3 4 5 6 
#
# 1 0.047367 -0.041839 -0.030801 0.000000 0.000000 0.000000
# 2 -0.041839 0.322154 -0.012735 0.000000 0.000000 0.000000
# 3 -0.030801 -0.012735 0.031005 0.000000 0.000000 0.000000
# 4 0.000000 0.000000 0.000000 0.038907 0.000000 0.000000
# 5 0.000000 0.000000 0.000000 0.000000 0.022598 0.000000
# 6 0.000000 0.000000 0.000000 0.000000 0.000000 0.041763
#
#
# Mechanical properties :
#
#
# Convention : Reuss Voigt Hill
#
# Bulk Modulus (GPa) = 4.35210 79.36032 41.85621
# Shear Modulus (GPa) = 6.65657 27.78226 17.21941
#
# Velocity S-wave (km/s) = 1.94658 3.97678 3.13081
# Velocity P-wave (km/s) = 2.74402 8.14012 6.07418
#
# Compressibility (1/GPa) = 0.22977403
#
# Stress axis : x y z
#
# Youngs Moduli (GPa) = 21.11172 3.10410 32.25282
#
# Poissons Ratio (x) = 0.12987 0.99343
# Poissons Ratio (y) = 0.88330 0.41075
# Poissons Ratio (z) = 0.65027 0.03953
#
# Static dielectric constant tensor:
#      x y z
#    x 1.592410 0.000000 0.000000 
#    y 0.000000 1.610570 0.000000 
#    z 0.000000 0.000000 1.577900 
# 
# From -- ./inp_files/24794.got.cif
#   From: 2010.05.17/outbox.cif.g08.bks.cpg/sg44_13_cif.got.tgz:24794.got - 2010.06.03 19:37:08.
