data_PCOD9375253
_publ_section_title
;
Structure prediction by ZEFSAII (Michael W. Deem and Ramdas Pophale) SiO2 
 PCOD9375253
Probable space group: I M M 2
;
_chemical_formula_sum "Si O2"
_cell_formula_units_Z 64
_cell_length_a 7.738236
_cell_length_b 33.383843
_cell_length_c 12.236213
_cell_angle_alpha 90.000000
_cell_angle_beta 90.000000
_cell_angle_gamma 90.000000
_cell_volume 3161.006059
_symmetry_space_group_name_H-M "I M M 2"
_symmetry_group_IT_number 44
_symmetry_cell_setting 'orthorhombic'
loop_
_space_group_symop_operation_xyz
x,y,z
-x,-y,z
-x,y,z
x,-y,z
1/2+x,1/2+y,1/2+z
1/2-x,1/2-y,1/2+z
1/2-x,1/2+y,1/2+z
1/2+x,1/2-y,1/2+z
loop_
_atom_site_type_symbol
_atom_site_label
_atom_site_fract_x
_atom_site_fract_y
_atom_site_fract_z
Si Si1 0.705469 0.148194 0.752300
Si Si2 0.709577 0.375930 0.006270
Si Si3 0.702304 0.271243 0.377923
Si Si4 0.802058 0.598012 0.446482
Si Si5 0.705713 0.454058 0.884791
Si Si6 0.800337 0.816358 0.319774
Si Si7 0.711268 0.676201 0.575324
Si Si8 0.291178 0.046256 0.141698
O O1 0.500000 0.149613 0.769945
O O2 0.739725 0.138040 0.627011
O O3 0.772091 0.191123 0.795906
O O4 0.775853 0.112672 0.831524
O O5 0.500000 0.376399 0.004694
O O6 0.770395 0.420248 0.968795
O O7 0.773352 0.343774 0.916234
O O8 0.500000 0.261858 0.379955
O O9 0.794795 0.230561 0.346368
O O10 0.754856 0.286225 0.498529
O O11 0.795751 0.638513 0.516938
O O12 0.721852 0.566831 0.531863
O O13 0.000000 0.584952 0.425579
O O14 0.500000 0.456934 0.900014
O O15 0.775570 0.500000 0.893738
O O16 0.734851 0.438255 0.760747
O O17 0.726047 0.821499 0.198882
O O18 0.000000 0.828889 0.310142
O O19 0.500000 0.672264 0.571098
O O20 0.500000 0.049301 0.139586
O O21 0.240521 0.000000 0.140565
#
# Coordination Sequence:
#
# PCOD9375253 Si02
#       8
#     8   8   8   8   8   8   8   8
#     4  10  21  37  55  74 103 142 182 222 267 317
#     4  10  21  36  54  79 109 143 183 224 269 319
#     4  10  21  36  54  77 102 133 173 215 264 318
#     4   9  18  33  52  74 100 133 171 211 259 311
#     4   9  18  34  56  81 111 145 179 219 270 323
#     4  10  21  35  52  76 106 136 168 215 266 314
#     4   9  19  35  53  73  98 129 166 208 256 307
#     4   9  17  30  51  79 109 136 167 214 267 319
#
# _framework density 20.246718999999999
#
# number of rings (size 3 to 8) (size 9 to 14) (size 15 to 20)
#    0.000    2.500    0.000    1.500    1.750    4.000 
#    0.000    0.625    0.000    0.750    0.000    0.000 
#    0.000    0.000    0.000    0.000    0.000    0.000 
#
# Total GULP energy -178398.493307 kJ/mol
# GULP energy per Si atom -5574.952916 kJ/mol
# Density = 2.020064 g / cm^3
# Si number density = 20.246719 Si / 1000 Ang^3
#
#
#
# Elastic Constant Matrix: (Units=GPa)
#
#
# Indices 1 2 3 4 5 6 
#
# 1 29.8990 -5.4492 -2.0430 0.0000 0.0000 0.0000
# 2 -5.4492 59.8601 53.6152 0.0000 0.0000 0.0000
# 3 -2.0430 53.6152 171.1815 -0.0001 0.0000 0.0000
# 4 0.0000 0.0000 -0.0001 19.8932 0.0000 0.0000
# 5 0.0000 0.0000 0.0000 0.0000 16.6904 0.0000
# 6 0.0000 0.0000 0.0000 0.0000 0.0000 -3.9181
#
#
#
# Elastic Compliance Matrix: (Units=1/GPa)
#
#
# Indices 1 2 3 4 5 6 
#
# 1 0.034086 0.003806 -0.000785 0.000000 0.000000 0.000000
# 2 0.003806 0.023644 -0.007360 0.000000 0.000000 0.000000
# 3 -0.000785 -0.007360 0.008138 0.000000 0.000000 0.000000
# 4 0.000000 0.000000 0.000000 0.050269 0.000000 0.000000
# 5 0.000000 0.000000 0.000000 0.000000 0.059915 0.000000
# 6 0.000000 0.000000 0.000000 0.000000 0.000000 -0.255226
#
#
# Mechanical properties :
#
#
# Convention : Reuss Voigt Hill
#
# Bulk Modulus (GPa) = 17.48564 39.24295 28.36430
# Shear Modulus (GPa) = -97.21290 20.85427 -38.17931
#
# Velocity S-wave (km/s) = -6.93674 3.21285 -4.34718
# Velocity P-wave (km/s) = 7.45002 5.76088 3.34029
#
# Compressibility (1/GPa) = 0.05718977
#
# Stress axis : x y z
#
# Youngs Moduli (GPa) = 29.33753 42.29322 122.88583
#
# Poissons Ratio (x) = -0.16098 0.09651
# Poissons Ratio (y) = -0.11167 0.90446
# Poissons Ratio (z) = 0.02304 0.31129
#
# Static dielectric constant tensor:
#      x y z
#    x 1.832910 0.000000 0.000000 
#    y 0.000000 1.730440 0.000000 
#    z 0.000000 0.000000 1.745090 
# 
# From -- ./inp_files/11467.got.cif
#   From: 2010.05.17/outbox.cif.g08.bks.cpg/sg44_6_cif.got.tgz:11467.got - 2010.06.03 19:37:08.
