data_PCOD9375882
_publ_section_title
;
Structure prediction by ZEFSAII (Michael W. Deem and Ramdas Pophale) SiO2 
 PCOD9375882
Probable space group: I M M 2
;
_chemical_formula_sum "Si O2"
_cell_formula_units_Z 56
_cell_length_a 14.300050
_cell_length_b 13.842727
_cell_length_c 12.932563
_cell_angle_alpha 90.000000
_cell_angle_beta 90.000000
_cell_angle_gamma 90.000000
_cell_volume 2560.022679
_symmetry_space_group_name_H-M "I M M 2"
_symmetry_group_IT_number 44
_symmetry_cell_setting 'orthorhombic'
loop_
_space_group_symop_operation_xyz
x,y,z
-x,-y,z
-x,y,z
x,-y,z
1/2+x,1/2+y,1/2+z
1/2-x,1/2-y,1/2+z
1/2-x,1/2+y,1/2+z
1/2+x,1/2-y,1/2+z
loop_
_atom_site_type_symbol
_atom_site_label
_atom_site_fract_x
_atom_site_fract_y
_atom_site_fract_z
Si Si1 0.107872 0.257594 0.990200
Si Si2 0.606062 0.389784 0.120482
Si Si3 0.710525 0.799393 0.094883
Si Si4 0.111492 0.611000 0.408850
Si Si5 0.111487 0.393968 0.184716
Si Si6 0.098547 0.889108 0.371706
Si Si7 0.805185 0.614779 0.812301
O O1 0.133736 0.312986 0.883629
O O2 0.000000 0.222510 0.987144
O O3 0.188391 0.187890 0.038118
O O4 0.117792 0.337742 0.079336
O O5 0.500000 0.363214 0.156443
O O6 0.625180 0.500000 0.156307
O O7 0.683819 0.307675 0.139042
O O8 0.601035 0.393951 0.995651
O O9 0.686735 0.869468 0.189743
O O10 0.642218 0.820673 0.000304
O O11 0.144587 0.500000 0.423560
O O12 0.145068 0.644423 0.295427
O O13 0.000000 0.608168 0.411494
O O14 0.152432 0.500000 0.170582
O O15 0.000000 0.402705 0.200167
O O16 0.198311 0.854607 0.335207
O O17 0.000000 0.840681 0.339556
O O18 0.094843 0.000000 0.334032
O O19 0.819118 0.500000 0.838452
#
# Coordination Sequence:
#
# PCOD9375882 Si02
#       7
#     8   8   8   8   8   8   8
#     4  11  25  41  60  90 135 179 221 270 327 394
#     4   9  18  35  60  88 117 150 199 266 326 375
#     4  12  24  37  63  94 133 174 222 269 329 401
#     4   9  19  38  65  97 128 160 208 273 337 392
#     4   8  16  34  61  88 114 154 208 261 316 376
#     4   8  15  32  59  88 117 152 201 261 319 373
#     4  11  24  42  64  96 134 175 221 272 336 407
#
# _framework density 21.874806
#
# number of rings (size 3 to 8) (size 9 to 14) (size 15 to 20)
#    0.000    2.286    1.429    3.000    2.000    3.143 
#    0.000    0.000    0.000    1.286    0.000    0.000 
#    0.000    0.000    0.000    0.000    0.000    0.000 
#
# Total GULP energy -155966.513089 kJ/mol
# GULP energy per Si atom -5570.232610 kJ/mol
# Density = 2.182502 g / cm^3
# Si number density = 21.874806 Si / 1000 Ang^3
#
#
#
# Elastic Constant Matrix: (Units=GPa)
#
#
# Indices 1 2 3 4 5 6 
#
# 1 85.1700 1.1866 -2.4990 0.0000 0.0000 0.0000
# 2 1.1866 60.1168 -4.4157 0.0000 0.0000 0.0000
# 3 -2.4990 -4.4157 85.8592 0.0000 0.0000 0.0000
# 4 0.0000 0.0000 0.0000 28.3349 0.0000 0.0000
# 5 0.0000 0.0000 0.0000 0.0000 14.5717 0.0000
# 6 0.0000 0.0000 0.0000 0.0000 0.0000 19.4388
#
#
#
# Elastic Compliance Matrix: (Units=1/GPa)
#
#
# Indices 1 2 3 4 5 6 
#
# 1 0.011754 -0.000208 0.000331 0.000000 0.000000 0.000000
# 2 -0.000208 0.016701 0.000853 0.000000 0.000000 0.000000
# 3 0.000331 0.000853 0.011700 0.000000 0.000000 0.000000
# 4 0.000000 0.000000 0.000000 0.035292 0.000000 0.000000
# 5 0.000000 0.000000 0.000000 0.000000 0.068626 0.000000
# 6 0.000000 0.000000 0.000000 0.000000 0.000000 0.051444
#
#
# Mechanical properties :
#
#
# Convention : Reuss Voigt Hill
#
# Bulk Modulus (GPa) = 23.74808 24.40997 24.07902
# Shear Modulus (GPa) = 24.08476 28.26068 26.17272
#
# Velocity S-wave (km/s) = 3.32177 3.59824 3.46277
# Velocity P-wave (km/s) = 5.05887 5.33350 5.19800
#
# Compressibility (1/GPa) = 0.04210867
#
# Stress axis : x y z
#
# Youngs Moduli (GPa) = 85.07853 59.87653 85.46655
#
# Poissons Ratio (x) = 0.01243 -0.02833
# Poissons Ratio (y) = 0.01767 -0.07289
# Poissons Ratio (z) = -0.02820 -0.05107
#
# Static dielectric constant tensor:
#      x y z
#    x 1.895850 0.000000 0.000000 
#    y 0.000000 1.863600 0.000000 
#    z 0.000000 0.000000 1.762540 
# 
# From -- ./inp_files/13244.got.cif
#   From: 2010.05.17/outbox.cif.g08.bks.cpg/sg44_7_cif.got.tgz:13244.got - 2010.06.03 19:37:08.
