data_PCOD9375163
_publ_section_title
;
Structure prediction by ZEFSAII (Michael W. Deem and Ramdas Pophale) SiO2 
 PCOD9375163
Probable space group: I M M 2
;
_chemical_formula_sum "Si O2"
_cell_formula_units_Z 48
_cell_length_a 20.407711
_cell_length_b 7.880810
_cell_length_c 15.418719
_cell_angle_alpha 90.000000
_cell_angle_beta 90.000000
_cell_angle_gamma 90.000000
_cell_volume 2479.781675
_symmetry_space_group_name_H-M "I M M 2"
_symmetry_group_IT_number 44
_symmetry_cell_setting 'orthorhombic'
loop_
_space_group_symop_operation_xyz
x,y,z
-x,-y,z
-x,y,z
x,-y,z
1/2+x,1/2+y,1/2+z
1/2-x,1/2-y,1/2+z
1/2-x,1/2+y,1/2+z
1/2+x,1/2-y,1/2+z
loop_
_atom_site_type_symbol
_atom_site_label
_atom_site_fract_x
_atom_site_fract_y
_atom_site_fract_z
Si Si1 0.879733 0.807445 0.884870
Si Si2 0.291046 0.797403 0.102595
Si Si3 0.925940 0.500000 0.197341
Si Si4 0.927000 0.500000 0.991477
Si Si5 0.671489 0.694910 0.729051
Si Si6 0.926570 0.795629 0.693717
Si Si7 0.225549 0.696092 0.405628
O O1 0.894800 0.671252 0.957649
O O2 0.910923 0.750804 0.793721
O O3 0.801545 0.810853 0.878958
O O4 0.902378 0.000000 0.904261
O O5 0.233353 0.743278 0.169303
O O6 0.363834 0.759433 0.137676
O O7 0.284074 0.000000 0.098738
O O8 0.281438 0.735707 0.003731
O O9 0.886345 0.669711 0.220719
O O10 0.000000 0.500000 0.232487
O O11 0.928873 0.500000 0.093748
O O12 0.000000 0.500000 0.954916
O O13 0.655474 0.500000 0.704060
O O14 0.691574 0.699981 0.829820
O O15 0.000000 0.734568 0.669533
O O16 0.927623 0.000000 0.690286
O O17 0.201018 0.500000 0.404129
#
# Coordination Sequence:
#
# PCOD9375163 Si02
#       7
#     8   8   4   4   8   8   8
#     4  10  21  38  59  90 128 164 204 263 320 377
#     4  10  22  37  60  96 127 161 211 262 313 377
#     4  11  26  46  66  91 126 170 214 264 324 381
#     4  11  24  38  60  91 123 168 216 254 313 387
#     4  11  23  42  67  97 127 161 212 268 318 374
#     4  10  21  36  56  86 127 171 208 253 319 384
#     4  10  20  38  63  91 124 162 210 262 317 372
#
# _framework density 19.356542999999999
#
# number of rings (size 3 to 8) (size 9 to 14) (size 15 to 20)
#    0.000    1.667    2.500    1.500    3.500    4.333 
#    0.000    2.500    0.000    0.000    0.000    0.000 
#    0.000    0.000    0.000    0.000    0.000    0.000 
#
# Total GULP energy -133919.562705 kJ/mol
# GULP energy per Si atom -5579.981779 kJ/mol
# Density = 1.931249 g / cm^3
# Si number density = 19.356543 Si / 1000 Ang^3
#
#
#
# Elastic Constant Matrix: (Units=GPa)
#
#
# Indices 1 2 3 4 5 6 
#
# 1 131.5448 41.6859 43.7043 0.0000 0.0000 0.0000
# 2 41.6859 73.4492 24.8464 0.0000 0.0000 0.0000
# 3 43.7043 24.8464 98.4062 0.0000 0.0000 0.0000
# 4 0.0000 0.0000 0.0000 23.0285 0.0000 0.0000
# 5 0.0000 0.0000 0.0000 0.0000 28.3079 0.0000
# 6 0.0000 0.0000 0.0000 0.0000 0.0000 25.5778
#
#
#
# Elastic Compliance Matrix: (Units=1/GPa)
#
#
# Indices 1 2 3 4 5 6 
#
# 1 0.010189 -0.004649 -0.003351 0.000000 0.000000 0.000000
# 2 -0.004649 0.017008 -0.002230 0.000000 0.000000 0.000000
# 3 -0.003351 -0.002230 0.012213 0.000000 0.000000 0.000000
# 4 0.000000 0.000000 0.000000 0.043424 0.000000 0.000000
# 5 0.000000 0.000000 0.000000 0.000000 0.035326 0.000000
# 6 0.000000 0.000000 0.000000 0.000000 0.000000 0.039096
#
#
# Mechanical properties :
#
#
# Convention : Reuss Voigt Hill
#
# Bulk Modulus (GPa) = 52.77002 58.20815 55.48909
# Shear Modulus (GPa) = 27.16922 28.26042 27.71482
#
# Velocity S-wave (km/s) = 3.75056 3.82513 3.78803
# Velocity P-wave (km/s) = 6.78799 7.04597 6.91818
#
# Compressibility (1/GPa) = 0.01895015
#
# Stress axis : x y z
#
# Youngs Moduli (GPa) = 98.14930 58.79758 81.87845
#
# Poissons Ratio (x) = 0.27334 0.27439
# Poissons Ratio (y) = 0.45628 0.18255
# Poissons Ratio (z) = 0.32892 0.13109
#
# Static dielectric constant tensor:
#      x y z
#    x 1.791570 0.000000 0.000000 
#    y 0.000000 1.733860 0.000000 
#    z 0.000000 0.000000 1.672260 
# 
# From -- ./inp_files/16113.got.cif
#   From: 2010.05.17/outbox.cif.g08.bks.cpg/sg44_9_cif.got.tgz:16113.got - 2010.06.03 19:37:08.
