data_PCOD9375164
_publ_section_title
;
Structure prediction by ZEFSAII (Michael W. Deem and Ramdas Pophale) SiO2 
 PCOD9375164
Probable space group: I M M 2
;
_chemical_formula_sum "Si O2"
_cell_formula_units_Z 58
_cell_length_a 18.235356
_cell_length_b 16.423462
_cell_length_c 10.157484
_cell_angle_alpha 90.000000
_cell_angle_beta 90.000000
_cell_angle_gamma 90.000000
_cell_volume 3042.041280
_symmetry_space_group_name_H-M "I M M 2"
_symmetry_group_IT_number 44
_symmetry_cell_setting 'orthorhombic'
loop_
_space_group_symop_operation_xyz
x,y,z
-x,-y,z
-x,y,z
x,-y,z
1/2+x,1/2+y,1/2+z
1/2-x,1/2-y,1/2+z
1/2-x,1/2+y,1/2+z
1/2+x,1/2-y,1/2+z
loop_
_atom_site_type_symbol
_atom_site_label
_atom_site_fract_x
_atom_site_fract_y
_atom_site_fract_z
Si Si1 0.271203 0.090778 0.199070
Si Si2 0.578237 0.812280 0.242687
Si Si3 0.629305 0.229706 0.515550
Si Si4 0.736897 0.157250 0.923490
Si Si5 0.107719 0.850976 0.241237
Si Si6 0.370554 0.298312 0.013622
Si Si7 0.500000 0.500000 0.682830
Si Si8 0.737024 0.903127 0.624780
O O1 0.346647 0.136241 0.232531
O O2 0.196467 0.134582 0.245007
O O3 0.271752 0.000000 0.252682
O O4 0.267323 0.092344 0.040596
O O5 0.500000 0.853501 0.210693
O O6 0.576925 0.785160 0.393693
O O7 0.588161 0.737936 0.140005
O O8 0.690885 0.289978 0.454263
O O9 0.596967 0.275442 0.642449
O O10 0.670169 0.147123 0.559953
O O11 0.736754 0.119642 0.779550
O O12 0.671264 0.220863 0.948731
O O13 0.085364 0.835507 0.392052
O O14 0.064305 0.928436 0.187574
O O15 0.310519 0.363223 0.063974
O O16 0.733522 0.000000 0.605750
#
# Coordination Sequence:
#
# PCOD9375164 Si02
#       8
#     8   8   8   8   8   8   2   8
#     4  10  20  38  63  91 126 162 208 270 312 370
#     4  11  24  40  62  89 121 170 226 249 318 391
#     4  10  21  39  61  86 130 177 205 266 322 389
#     4   9  17  35  60  90 122 169 216 249 321 386
#     4  11  23  42  66  92 131 165 213 252 331 388
#     4  10  21  38  58  87 127 173 205 265 321 381
#     4  12  28  40  68 110 124 164 212 270 312 392
#     4  11  20  33  62 101 127 163 226 275 317 379
#
# _framework density 19.066144999999999
#
# number of rings (size 3 to 8) (size 9 to 14) (size 15 to 20)
#    0.000    1.655    3.448    2.897    2.897    1.931 
#    0.000    0.000    0.000    0.828    0.000    0.000 
#    0.000    0.000    0.000    0.000    0.000    0.000 
#
# Total GULP energy -161510.649591 kJ/mol
# GULP energy per Si atom -5569.332745 kJ/mol
# Density = 1.902275 g / cm^3
# Si number density = 19.066145 Si / 1000 Ang^3
#
#
#
# Elastic Constant Matrix: (Units=GPa)
#
#
# Indices 1 2 3 4 5 6 
#
# 1 108.0918 27.9157 29.5187 0.0000 0.0000 0.0000
# 2 27.9157 104.6583 36.8399 0.0000 0.0000 0.0000
# 3 29.5187 36.8399 140.4393 0.0000 0.0000 0.0000
# 4 0.0000 0.0000 0.0000 11.6348 0.0000 0.0000
# 5 0.0000 0.0000 0.0000 0.0000 -16.2320 0.0000
# 6 0.0000 0.0000 0.0000 0.0000 0.0000 13.0100
#
#
#
# Elastic Compliance Matrix: (Units=1/GPa)
#
#
# Indices 1 2 3 4 5 6 
#
# 1 0.010246 -0.002176 -0.001583 0.000000 0.000000 0.000000
# 2 -0.002176 0.010989 -0.002425 0.000000 0.000000 0.000000
# 3 -0.001583 -0.002425 0.008089 0.000000 0.000000 0.000000
# 4 0.000000 0.000000 0.000000 0.085949 0.000000 0.000000
# 5 0.000000 0.000000 0.000000 0.000000 -0.061607 0.000000
# 6 0.000000 0.000000 0.000000 0.000000 0.000000 0.076864
#
#
# Mechanical properties :
#
#
# Convention : Reuss Voigt Hill
#
# Bulk Modulus (GPa) = 58.97492 60.19313 59.58402
# Shear Modulus (GPa) = 33.65869 18.94355 26.30112
#
# Velocity S-wave (km/s) = 4.20618 3.15551 3.71815
# Velocity P-wave (km/s) = 7.38838 6.70191 7.05350
#
# Compressibility (1/GPa) = 0.01695636
#
# Stress axis : x y z
#
# Youngs Moduli (GPa) = 97.60358 91.00060 123.61855
#
# Poissons Ratio (x) = 0.19799 0.19566
# Poissons Ratio (y) = 0.21235 0.29981
# Poissons Ratio (z) = 0.15448 0.22070
#
# Static dielectric constant tensor:
#      x y z
#    x 1.691230 0.000000 0.000000 
#    y 0.000000 1.651480 0.000000 
#    z 0.000000 0.000000 1.694910 
# 
# From -- ./inp_files/8318.got.cif
#   From: 2010.05.17/outbox.cif.g08.bks.cpg/sg44_5_cif.got.tgz:8318.got - 2010.06.03 19:37:08.
