data_PCOD9375535
_publ_section_title
;
Structure prediction by ZEFSAII (Michael W. Deem and Ramdas Pophale) SiO2 
 PCOD9375535
Probable space group: I M M 2
;
_chemical_formula_sum "Si O2"
_cell_formula_units_Z 58
_cell_length_a 26.888623
_cell_length_b 7.410302
_cell_length_c 13.439340
_cell_angle_alpha 90.000000
_cell_angle_beta 90.000000
_cell_angle_gamma 90.000000
_cell_volume 2677.826351
_symmetry_space_group_name_H-M "I M M 2"
_symmetry_group_IT_number 44
_symmetry_cell_setting 'orthorhombic'
loop_
_space_group_symop_operation_xyz
x,y,z
-x,-y,z
-x,y,z
x,-y,z
1/2+x,1/2+y,1/2+z
1/2-x,1/2-y,1/2+z
1/2-x,1/2+y,1/2+z
1/2+x,1/2-y,1/2+z
loop_
_atom_site_type_symbol
_atom_site_label
_atom_site_fract_x
_atom_site_fract_y
_atom_site_fract_z
Si Si1 0.287340 0.286230 0.838860
Si Si2 0.444787 0.281200 0.124531
Si Si3 0.182080 0.718972 0.916974
Si Si4 0.611541 0.281414 0.934017
Si Si5 0.000000 0.500000 0.933065
Si Si6 0.842470 0.716758 0.137701
Si Si7 0.572895 0.290736 0.350899
Si Si8 0.444305 0.212932 0.731378
O O1 0.285647 0.500000 0.857931
O O2 0.233239 0.215849 0.867701
O O3 0.333957 0.214661 0.902682
O O4 0.304055 0.260570 0.725356
O O5 0.500000 0.230533 0.090569
O O6 0.442072 0.500000 0.126995
O O7 0.438662 0.224535 0.238527
O O8 0.406105 0.218403 0.041934
O O9 0.182042 0.500000 0.914753
O O10 0.131858 0.780039 0.864225
O O11 0.176682 0.778499 0.031320
O O12 0.612527 0.500000 0.935185
O O13 0.573154 0.231448 0.846113
O O14 0.956511 0.341252 0.924379
O O15 0.846272 0.500000 0.134269
O O16 0.897493 0.786425 0.168220
O O17 0.557701 0.500000 0.360940
O O18 0.500000 0.286886 0.715966
O O19 0.447306 0.000000 0.708232
#
# Coordination Sequence:
#
# PCOD9375535 Si02
#       8
#     8   8   8   8   2   8   8   8
#     4   9  19  35  57  81 116 150 194 252 303 353
#     4   9  17  31  51  79 115 152 195 244 292 354
#     4  10  21  39  58  86 116 156 200 247 301 361
#     4   9  17  31  52  77 107 152 194 240 299 353
#     4  12  22  44  64  86 128 162 198 252 306 342
#     4   9  19  36  57  80 111 151 193 239 303 363
#     4  11  23  40  63  90 121 163 205 244 298 364
#     4   9  17  31  47  74 108 143 186 241 293 356
#
# _framework density 21.659358999999998
#
# number of rings (size 3 to 8) (size 9 to 14) (size 15 to 20)
#    0.000    2.483    1.379    0.621    0.000    3.034 
#    2.483    2.759    0.000    0.000    0.000    0.000 
#    0.000    0.000    0.000    0.000    0.000    0.000 
#
# Total GULP energy -161685.894381 kJ/mol
# GULP energy per Si atom -5575.375668 kJ/mol
# Density = 2.161006 g / cm^3
# Si number density = 21.659359 Si / 1000 Ang^3
#
#
#
# Elastic Constant Matrix: (Units=GPa)
#
#
# Indices 1 2 3 4 5 6 
#
# 1 191.0204 14.3619 52.0204 0.0000 0.0000 0.0000
# 2 14.3619 93.9858 -2.5029 0.0000 0.0000 0.0000
# 3 52.0204 -2.5029 48.0384 0.0000 0.0000 0.0000
# 4 0.0000 0.0000 0.0000 27.4693 0.0000 0.0000
# 5 0.0000 0.0000 0.0000 0.0000 8.1687 0.0000
# 6 0.0000 0.0000 0.0000 0.0000 0.0000 12.1201
#
#
#
# Elastic Compliance Matrix: (Units=1/GPa)
#
#
# Indices 1 2 3 4 5 6 
#
# 1 0.007600 -0.001382 -0.008302 0.000000 0.000000 0.000000
# 2 -0.001382 0.010906 0.002065 0.000000 0.000000 0.000000
# 3 -0.008302 0.002065 0.029914 0.000000 0.000000 0.000000
# 4 0.000000 0.000000 0.000000 0.036404 0.000000 0.000000
# 5 0.000000 0.000000 0.000000 0.000000 0.122419 0.000000
# 6 0.000000 0.000000 0.000000 0.000000 0.000000 0.082508
#
#
# Mechanical properties :
#
#
# Convention : Reuss Voigt Hill
#
# Bulk Modulus (GPa) = 30.13661 51.20039 40.66850
# Shear Modulus (GPa) = 15.82028 27.49595 21.65812
#
# Velocity S-wave (km/s) = 2.70555 3.56683 3.16562
# Velocity P-wave (km/s) = 4.86868 6.37599 5.67263
#
# Compressibility (1/GPa) = 0.03318223
#
# Stress axis : x y z
#
# Youngs Moduli (GPa) = 131.58239 91.69146 33.42888
#
# Poissons Ratio (x) = 0.12675 0.27752
# Poissons Ratio (y) = 0.18190 -0.06904
# Poissons Ratio (z) = 1.09237 -0.18936
#
# Static dielectric constant tensor:
#      x y z
#    x 1.776110 0.000000 0.000000 
#    y 0.000000 1.800620 0.000000 
#    z 0.000000 0.000000 1.775370 
# 
# From -- ./inp_files/14867.got.cif
#   From: 2010.05.17/outbox.cif.g08.bks.cpg/sg44_8_cif.got.tgz:14867.got - 2010.06.03 19:37:08.
