data_PCOD9375620
_publ_section_title
;
Structure prediction by ZEFSAII (Michael W. Deem and Ramdas Pophale) SiO2 
 PCOD9375620
Probable space group: I M M 2
;
_chemical_formula_sum "Si O2"
_cell_formula_units_Z 64
_cell_length_a 9.101812
_cell_length_b 28.767402
_cell_length_c 13.272165
_cell_angle_alpha 90.000000
_cell_angle_beta 90.000000
_cell_angle_gamma 90.000000
_cell_volume 3475.123756
_symmetry_space_group_name_H-M "I M M 2"
_symmetry_group_IT_number 44
_symmetry_cell_setting 'orthorhombic'
loop_
_space_group_symop_operation_xyz
x,y,z
-x,-y,z
-x,y,z
x,-y,z
1/2+x,1/2+y,1/2+z
1/2-x,1/2-y,1/2+z
1/2-x,1/2+y,1/2+z
1/2+x,1/2-y,1/2+z
loop_
_atom_site_type_symbol
_atom_site_label
_atom_site_fract_x
_atom_site_fract_y
_atom_site_fract_z
Si Si1 0.823823 0.945202 0.656580
Si Si2 0.323953 0.874109 0.038919
Si Si3 0.166025 0.202550 0.909357
Si Si4 0.676110 0.145491 0.266363
Si Si5 0.838739 0.293417 0.037927
Si Si6 0.169357 0.245895 0.251865
Si Si7 0.825967 0.880686 0.470499
Si Si8 0.676057 0.945842 0.864380
O O1 0.779405 0.918077 0.555221
O O2 0.750380 0.928269 0.760937
O O3 0.000000 0.940388 0.666414
O O4 0.788807 0.000000 0.646687
O O5 0.500000 0.866491 0.032049
O O6 0.289446 0.877874 0.157702
O O7 0.238893 0.830740 0.990971
O O8 0.286473 0.916808 0.964577
O O9 0.266684 0.210334 0.813059
O O10 0.000000 0.187381 0.886376
O O11 0.160916 0.254735 0.952125
O O12 0.500000 0.148383 0.276880
O O13 0.742958 0.197647 0.262614
O O14 0.743797 0.119304 0.362926
O O15 0.823760 0.263385 0.137978
O O16 0.000000 0.316902 0.038913
O O17 0.714512 0.330879 0.018860
O O18 0.000000 0.237407 0.281201
O O19 0.000000 0.885153 0.454003
O O20 0.500000 0.943312 0.851771
O O21 0.717394 0.000000 0.876890
#
# Coordination Sequence:
#
# PCOD9375620 Si02
#       8
#     8   8   8   8   8   8   8   8
#     4   9  20  40  62  86 115 144 179 228 284 338
#     4  10  22  38  57  83 113 149 189 232 282 333
#     4  11  22  36  54  80 112 148 189 230 275 328
#     4  11  22  37  56  79 113 152 190 233 277 327
#     4  10  22  37  53  77 111 148 187 232 276 324
#     4  11  22  37  54  75 108 150 191 233 279 327
#     4  11  23  37  58  84 111 149 191 231 280 335
#     4   9  19  38  63  88 113 143 181 228 284 340
#
# _framework density 18.416609000000001
#
# number of rings (size 3 to 8) (size 9 to 14) (size 15 to 20)
#    0.000    1.750    2.500    1.500    1.750    3.500 
#    0.000    0.625    0.000    0.750    0.000    0.000 
#    0.000    0.000    0.000    0.000    0.000    0.000 
#
# Total GULP energy -178485.305758 kJ/mol
# GULP energy per Si atom -5577.665805 kJ/mol
# Density = 1.837469 g / cm^3
# Si number density = 18.416609 Si / 1000 Ang^3
#
#
#
# Elastic Constant Matrix: (Units=GPa)
#
#
# Indices 1 2 3 4 5 6 
#
# 1 58.8661 30.1209 53.3636 0.0000 0.0000 0.0000
# 2 30.1209 61.3272 53.2590 0.0000 0.0000 0.0000
# 3 53.3636 53.2590 146.7187 -0.0001 0.0000 0.0000
# 4 0.0000 0.0000 -0.0001 33.1687 0.0000 0.0000
# 5 0.0000 0.0000 0.0000 0.0000 25.5972 0.0000
# 6 0.0000 0.0000 0.0000 0.0000 0.0000 18.6672
#
#
#
# Elastic Compliance Matrix: (Units=1/GPa)
#
#
# Indices 1 2 3 4 5 6 
#
# 1 0.027244 -0.006974 -0.007377 0.000000 0.000000 0.000000
# 2 -0.006974 0.025598 -0.006756 0.000000 0.000000 0.000000
# 3 -0.007377 -0.006756 0.011951 0.000000 0.000000 0.000000
# 4 0.000000 0.000000 0.000000 0.030149 0.000000 0.000000
# 5 0.000000 0.000000 0.000000 0.000000 0.039067 0.000000
# 6 0.000000 0.000000 0.000000 0.000000 0.000000 0.053570
#
#
# Mechanical properties :
#
#
# Convention : Reuss Voigt Hill
#
# Bulk Modulus (GPa) = 44.28835 60.04434 52.16634
# Shear Modulus (GPa) = 21.06863 24.16453 22.61658
#
# Velocity S-wave (km/s) = 3.38598 3.62623 3.50816
# Velocity P-wave (km/s) = 6.27588 7.08568 6.69304
#
# Compressibility (1/GPa) = 0.02257930
#
# Stress axis : x y z
#
# Youngs Moduli (GPa) = 36.70518 39.06542 83.67281
#
# Poissons Ratio (x) = 0.27245 0.61729
# Poissons Ratio (y) = 0.25599 0.56526
# Poissons Ratio (z) = 0.27079 0.26391
#
# Static dielectric constant tensor:
#      x y z
#    x 1.653030 0.000000 0.000000 
#    y 0.000000 1.618050 0.000000 
#    z 0.000000 0.000000 1.660700 
# 
# From -- ./inp_files/11412.got.cif
#   From: 2010.05.17/outbox.cif.g08.bks.cpg/sg44_6_cif.got.tgz:11412.got - 2010.06.03 19:37:08.
