data_PCOD9375778
_publ_section_title
;
Structure prediction by ZEFSAII (Michael W. Deem and Ramdas Pophale) SiO2 
 PCOD9375778
Probable space group: I M M 2
;
_chemical_formula_sum "Si O2"
_cell_formula_units_Z 44
_cell_length_a 14.258464
_cell_length_b 15.853378
_cell_length_c 9.478717
_cell_angle_alpha 90.000000
_cell_angle_beta 90.000000
_cell_angle_gamma 90.000000
_cell_volume 2142.614873
_symmetry_space_group_name_H-M "I M M 2"
_symmetry_group_IT_number 44
_symmetry_cell_setting 'orthorhombic'
loop_
_space_group_symop_operation_xyz
x,y,z
-x,-y,z
-x,y,z
x,-y,z
1/2+x,1/2+y,1/2+z
1/2-x,1/2-y,1/2+z
1/2-x,1/2+y,1/2+z
1/2+x,1/2-y,1/2+z
loop_
_atom_site_type_symbol
_atom_site_label
_atom_site_fract_x
_atom_site_fract_y
_atom_site_fract_z
Si Si1 0.802537 0.403184 0.797640
Si Si2 0.000000 0.242956 0.081279
Si Si3 0.000000 0.898836 0.327794
Si Si4 0.674614 0.663295 0.009653
Si Si5 0.291969 0.679367 0.531564
Si Si6 0.890301 0.904190 0.795950
Si Si7 0.000000 0.600897 0.910945
O O1 0.797799 0.500000 0.753082
O O2 0.741624 0.351253 0.684844
O O3 0.909867 0.377266 0.815281
O O4 0.760010 0.393194 0.954028
O O5 0.000000 0.169701 0.202545
O O6 0.107539 0.226402 0.030018
O O7 0.000000 0.344689 0.054861
O O8 0.911301 0.874415 0.422389
O O9 0.000000 0.000000 0.290368
O O10 0.710447 0.757882 0.978245
O O11 0.647109 0.655259 0.172308
O O12 0.319113 0.604346 0.426014
O O13 0.000000 0.885204 0.833281
O O14 0.889942 0.000000 0.742192
O O15 0.000000 0.500000 0.936580
#
# Coordination Sequence:
#
# PCOD9375778 Si02
#       7
#     8   4   4   8   8   8   4
#     4  11  23  43  69  96 130 182 236 284 342 416
#     4  12  24  41  68 103 137 171 227 281 345 396
#     4  12  26  44  69 105 139 179 231 289 347 419
#     4  12  24  41  66  95 136 178 223 274 342 413
#     4  12  25  40  66  99 137 173 222 284 345 411
#     4  11  24  42  65  98 137 176 219 282 349 406
#     4  10  24  45  71  98 134 186 240 284 334 417
#
# _framework density 20.535654999999998
#
# number of rings (size 3 to 8) (size 9 to 14) (size 15 to 20)
#    0.000    0.545    5.455    3.273    0.000    1.455 
#    0.000    0.000    0.000    0.000    0.000    5.091 
#    0.000    0.000    0.000    0.000    0.000    0.000 
#
# Total GULP energy -122478.607706 kJ/mol
# GULP energy per Si atom -5567.209441 kJ/mol
# Density = 2.048891 g / cm^3
# Si number density = 20.535655 Si / 1000 Ang^3
#
#
#
# Elastic Constant Matrix: (Units=GPa)
#
#
# Indices 1 2 3 4 5 6 
#
# 1 110.7230 33.7996 9.5152 0.0000 0.0000 0.0000
# 2 33.7996 82.5528 34.8625 0.0000 0.0000 0.0000
# 3 9.5152 34.8625 50.6285 0.0000 0.0000 0.0000
# 4 0.0000 0.0000 0.0000 22.3935 0.0000 0.0000
# 5 0.0000 0.0000 0.0000 0.0000 23.5653 0.0000
# 6 0.0000 0.0000 0.0000 0.0000 0.0000 29.6106
#
#
#
# Elastic Compliance Matrix: (Units=1/GPa)
#
#
# Indices 1 2 3 4 5 6 
#
# 1 0.010389 -0.004835 0.001377 0.000000 0.000000 0.000000
# 2 -0.004835 0.019331 -0.012402 0.000000 0.000000 0.000000
# 3 0.001377 -0.012402 0.028033 0.000000 0.000000 0.000000
# 4 0.000000 0.000000 0.000000 0.044656 0.000000 0.000000
# 5 0.000000 0.000000 0.000000 0.000000 0.042435 0.000000
# 6 0.000000 0.000000 0.000000 0.000000 0.000000 0.033772
#
#
# Mechanical properties :
#
#
# Convention : Reuss Voigt Hill
#
# Bulk Modulus (GPa) = 38.41436 44.47320 41.44378
# Shear Modulus (GPa) = 22.82962 26.16236 24.49599
#
# Velocity S-wave (km/s) = 3.33784 3.57318 3.45752
# Velocity P-wave (km/s) = 5.79670 6.22311 6.01368
#
# Compressibility (1/GPa) = 0.02603193
#
# Stress axis : x y z
#
# Youngs Moduli (GPa) = 96.25376 51.73143 35.67218
#
# Poissons Ratio (x) = 0.25013 -0.04912
# Poissons Ratio (y) = 0.46540 0.44241
# Poissons Ratio (z) = -0.13253 0.64158
#
# Static dielectric constant tensor:
#      x y z
#    x 1.762470 0.000000 0.000000 
#    y 0.000000 1.759930 0.000000 
#    z 0.000000 0.000000 1.759860 
# 
# From -- ./inp_files/7072.got.cif
#   From: 2010.05.17/outbox.cif.g08.bks.cpg/sg44_4_cif.got.tgz:7072.got - 2010.06.03 19:37:08.
