data_PCOD9375453
_publ_section_title
;
Structure prediction by ZEFSAII (Michael W. Deem and Ramdas Pophale) SiO2 
 PCOD9375453
Probable space group: I M M 2
;
_chemical_formula_sum "Si O2"
_cell_formula_units_Z 40
_cell_length_a 19.241770
_cell_length_b 9.028205
_cell_length_c 10.795391
_cell_angle_alpha 90.000000
_cell_angle_beta 90.000000
_cell_angle_gamma 90.000000
_cell_volume 1875.360687
_symmetry_space_group_name_H-M "I M M 2"
_symmetry_group_IT_number 44
_symmetry_cell_setting 'orthorhombic'
loop_
_space_group_symop_operation_xyz
x,y,z
-x,-y,z
-x,y,z
x,-y,z
1/2+x,1/2+y,1/2+z
1/2-x,1/2-y,1/2+z
1/2-x,1/2+y,1/2+z
1/2+x,1/2-y,1/2+z
loop_
_atom_site_type_symbol
_atom_site_label
_atom_site_fract_x
_atom_site_fract_y
_atom_site_fract_z
Si Si1 0.582146 0.674245 0.358270
Si Si2 0.084161 0.667491 0.605450
Si Si3 0.710108 0.823974 0.466065
Si Si4 0.210391 0.823835 0.213805
Si Si5 0.081082 0.322031 0.323869
O O1 0.500000 0.702626 0.377129
O O2 0.594994 0.500000 0.374788
O O3 0.600279 0.724267 0.217915
O O4 0.631298 0.768725 0.446634
O O5 0.111008 0.500000 0.630298
O O6 0.101891 0.714656 0.466221
O O7 0.000000 0.656909 0.603131
O O8 0.748641 0.781961 0.338702
O O9 0.739792 0.746707 0.588447
O O10 0.713148 0.000000 0.480220
O O11 0.132908 0.762107 0.234430
O O12 0.210272 0.000000 0.202860
O O13 0.087952 0.500000 0.310992
O O14 0.000000 0.284530 0.305766
#
# Coordination Sequence:
#
# PCOD9375453 Si02
#       5
#     8   8   8   8   8
#     4  10  21  37  61  94 129 165 209 263 318 370
#     4   8  15  30  54  87 125 164 205 248 301 368
#     4  11  26  46  67  93 126 170 215 258 318 384
#     4  11  26  45  66  95 127 166 214 264 319 376
#     4   9  19  37  63  94 128 168 211 256 312 377
#
# _framework density 21.329229000000002
#
# number of rings (size 3 to 8) (size 9 to 14) (size 15 to 20)
#    0.000    2.200    0.000    3.000    2.800    6.400 
#    0.000    2.000    0.000    0.000    0.000    0.000 
#    0.000    0.000    0.000    0.000    0.000    0.000 
#
# Total GULP energy -111804.073299 kJ/mol
# GULP energy per Si atom -5590.203665 kJ/mol
# Density = 2.128068 g / cm^3
# Si number density = 21.329229 Si / 1000 Ang^3
#
#
#
# Elastic Constant Matrix: (Units=GPa)
#
#
# Indices 1 2 3 4 5 6 
#
# 1 82.1312 32.6748 46.9817 0.0000 0.0000 0.0000
# 2 32.6748 34.4674 59.4049 0.0000 0.0000 0.0000
# 3 46.9817 59.4049 146.9606 0.0000 0.0000 0.0000
# 4 0.0000 0.0000 0.0000 37.2242 0.0000 0.0000
# 5 0.0000 0.0000 0.0000 0.0000 33.8751 0.0000
# 6 0.0000 0.0000 0.0000 0.0000 0.0000 8.9471
#
#
#
# Elastic Compliance Matrix: (Units=1/GPa)
#
#
# Indices 1 2 3 4 5 6 
#
# 1 0.020325 -0.026603 0.004256 0.000000 0.000000 0.000000
# 2 -0.026603 0.130472 -0.044235 0.000000 0.000000 0.000000
# 3 0.004256 -0.044235 0.023325 0.000000 0.000000 0.000000
# 4 0.000000 0.000000 0.000000 0.026864 0.000000 0.000000
# 5 0.000000 0.000000 0.000000 0.000000 0.029520 0.000000
# 6 0.000000 0.000000 0.000000 0.000000 0.000000 0.111767
#
#
# Mechanical properties :
#
#
# Convention : Reuss Voigt Hill
#
# Bulk Modulus (GPa) = 24.41553 60.18689 42.30121
# Shear Modulus (GPa) = 10.22307 24.30914 17.26610
#
# Velocity S-wave (km/s) = 2.19166 3.37962 2.84827
# Velocity P-wave (km/s) = 4.22804 6.59609 5.54007
#
# Compressibility (1/GPa) = 0.04095754
#
# Stress axis : x y z
#
# Youngs Moduli (GPa) = 49.20136 7.66448 42.87251
#
# Poissons Ratio (x) = 0.20389 -0.18246
# Poissons Ratio (y) = 1.30888 1.89648
# Poissons Ratio (z) = -0.20939 0.33904
#
# Static dielectric constant tensor:
#      x y z
#    x 1.797460 0.000000 0.000000 
#    y 0.000000 1.709130 0.000000 
#    z 0.000000 0.000000 1.781160 
# 
# From -- ./inp_files/13686.got.cif
#   From: 2010.05.17/outbox.cif.g08.bks.cpg/sg44_7_cif.got.tgz:13686.got - 2010.06.03 19:37:08.
