data_PCOD9375392
_publ_section_title
;
Structure prediction by ZEFSAII (Michael W. Deem and Ramdas Pophale) SiO2 
 PCOD9375392
Probable space group: I M M 2
;
_chemical_formula_sum "Si O2"
_cell_formula_units_Z 56
_cell_length_a 13.912495
_cell_length_b 8.830203
_cell_length_c 20.269274
_cell_angle_alpha 90.000000
_cell_angle_beta 90.000000
_cell_angle_gamma 90.000000
_cell_volume 2490.083454
_symmetry_space_group_name_H-M "I M M 2"
_symmetry_group_IT_number 44
_symmetry_cell_setting 'orthorhombic'
loop_
_space_group_symop_operation_xyz
x,y,z
-x,-y,z
-x,y,z
x,-y,z
1/2+x,1/2+y,1/2+z
1/2-x,1/2-y,1/2+z
1/2-x,1/2+y,1/2+z
1/2+x,1/2-y,1/2+z
loop_
_atom_site_type_symbol
_atom_site_label
_atom_site_fract_x
_atom_site_fract_y
_atom_site_fract_z
Si Si1 0.303490 0.678859 0.842870
Si Si2 0.613834 0.334430 0.599376
Si Si3 0.611457 0.816970 0.114530
Si Si4 0.889497 0.329976 0.973271
Si Si5 0.109557 0.316523 0.765660
Si Si6 0.298569 0.825406 0.975333
Si Si7 0.885899 0.667024 0.220972
O O1 0.313615 0.500000 0.832724
O O2 0.193959 0.719977 0.817800
O O3 0.336847 0.721729 0.916457
O O4 0.367978 0.773890 0.793372
O O5 0.500000 0.356775 0.604547
O O6 0.653402 0.500000 0.577948
O O7 0.617462 0.188371 0.552333
O O8 0.654776 0.289155 0.669641
O O9 0.500000 0.777798 0.100119
O O10 0.630446 0.763775 0.190008
O O11 0.617559 0.000000 0.117347
O O12 0.674533 0.773732 0.049926
O O13 0.860936 0.500000 0.952072
O O14 0.000000 0.305737 0.953694
O O15 0.814595 0.198500 0.958333
O O16 0.106739 0.500000 0.763869
O O17 0.000000 0.267204 0.783066
O O18 0.327219 0.000000 0.968225
O O19 0.844827 0.500000 0.211032
O O20 0.000000 0.659051 0.209496
#
# Coordination Sequence:
#
# PCOD9375392 Si02
#       7
#     8   8   8   8   8   8   8
#     4  11  23  37  57  86 120 156 197 243 300 364
#     4   9  17  31  53  81 110 141 182 229 279 340
#     4   8  16  34  60  87 112 143 192 251 303 353
#     4  10  21  37  56  80 114 155 195 236 287 346
#     4   8  16  34  60  87 112 143 192 251 303 353
#     4  11  23  37  57  86 120 156 197 243 300 364
#     4  10  21  37  56  80 114 155 195 236 287 346
#
# _framework density 22.489207
#
# number of rings (size 3 to 8) (size 9 to 14) (size 15 to 20)
#    0.000    2.429    0.000    3.000    2.000    4.571 
#    0.000    2.857    0.000    2.571    0.000    8.000 
#    0.000    0.000    0.000    0.000    0.000    0.000 
#
# Total GULP energy -155887.003702 kJ/mol
# GULP energy per Si atom -5567.392989 kJ/mol
# Density = 2.243802 g / cm^3
# Si number density = 22.489207 Si / 1000 Ang^3
#
#
#
# Elastic Constant Matrix: (Units=GPa)
#
#
# Indices 1 2 3 4 5 6 
#
# 1 58.6030 6.0623 -1.5579 0.0000 0.0000 0.0000
# 2 6.0623 67.7817 20.7893 0.0000 0.0000 0.0000
# 3 -1.5579 20.7893 108.7483 0.0000 0.0000 0.0000
# 4 0.0000 0.0000 0.0000 40.8485 0.0000 0.0000
# 5 0.0000 0.0000 0.0000 0.0000 52.3217 0.0000
# 6 0.0000 0.0000 0.0000 0.0000 0.0000 18.1603
#
#
#
# Elastic Compliance Matrix: (Units=1/GPa)
#
#
# Indices 1 2 3 4 5 6 
#
# 1 0.017257 -0.001720 0.000576 0.000000 0.000000 0.000000
# 2 -0.001720 0.015844 -0.003053 0.000000 0.000000 0.000000
# 3 0.000576 -0.003053 0.009788 0.000000 0.000000 0.000000
# 4 0.000000 0.000000 0.000000 0.024481 0.000000 0.000000
# 5 0.000000 0.000000 0.000000 0.000000 0.019113 0.000000
# 6 0.000000 0.000000 0.000000 0.000000 0.000000 0.055065
#
#
# Mechanical properties :
#
#
# Convention : Reuss Voigt Hill
#
# Bulk Modulus (GPa) = 28.99111 31.74668 30.36890
# Shear Modulus (GPa) = 30.97132 36.25539 33.61336
#
# Velocity S-wave (km/s) = 3.71504 4.01948 3.87026
# Velocity P-wave (km/s) = 5.59653 5.97400 5.78834
#
# Compressibility (1/GPa) = 0.03449333
#
# Stress axis : x y z
#
# Youngs Moduli (GPa) = 57.94670 63.11694 102.17087
#
# Poissons Ratio (x) = 0.10857 -0.05886
# Poissons Ratio (y) = 0.09968 0.31197
# Poissons Ratio (z) = -0.03338 0.19272
#
# Static dielectric constant tensor:
#      x y z
#    x 1.777660 0.000000 0.000000 
#    y 0.000000 1.786030 0.000000 
#    z 0.000000 0.000000 1.906930 
# 
# From -- ./inp_files/23012.got.cif
#   From: 2010.05.17/outbox.cif.g08.bks.cpg/sg44_12_cif.got.tgz:23012.got - 2010.06.03 19:37:08.
