data_PCOD9375100
_publ_section_title
;
Structure prediction by ZEFSAII (Michael W. Deem and Ramdas Pophale) SiO2 
 PCOD9375100
Probable space group: I M M 2
;
_chemical_formula_sum "Si O2"
_cell_formula_units_Z 64
_cell_length_a 32.255227
_cell_length_b 7.732368
_cell_length_c 12.035097
_cell_angle_alpha 90.000000
_cell_angle_beta 90.000000
_cell_angle_gamma 90.000000
_cell_volume 3001.664939
_symmetry_space_group_name_H-M "I M M 2"
_symmetry_group_IT_number 44
_symmetry_cell_setting 'orthorhombic'
loop_
_space_group_symop_operation_xyz
x,y,z
-x,-y,z
-x,y,z
x,-y,z
1/2+x,1/2+y,1/2+z
1/2-x,1/2-y,1/2+z
1/2-x,1/2+y,1/2+z
1/2+x,1/2-y,1/2+z
loop_
_atom_site_type_symbol
_atom_site_label
_atom_site_fract_x
_atom_site_fract_y
_atom_site_fract_z
Si Si1 0.455403 0.794801 0.682300
Si Si2 0.373531 0.797703 0.564558
Si Si3 0.373655 0.297951 0.312653
Si Si4 0.299470 0.288144 0.155660
Si Si5 0.545782 0.203563 0.174358
Si Si6 0.570262 0.707841 0.926174
Si Si7 0.206601 0.701837 0.185416
Si Si8 0.333546 0.290790 0.916024
O O1 0.500000 0.722633 0.645381
O O2 0.414210 0.720955 0.624274
O O3 0.451430 0.771234 0.814489
O O4 0.456007 0.000000 0.658281
O O5 0.377761 0.786840 0.432743
O O6 0.329898 0.722069 0.608011
O O7 0.372326 0.000000 0.597851
O O8 0.366327 0.500000 0.333697
O O9 0.334430 0.228883 0.242675
O O10 0.415260 0.281534 0.239454
O O11 0.300334 0.500000 0.160308
O O12 0.252936 0.225125 0.177991
O O13 0.313137 0.238778 0.031974
O O14 0.500000 0.272530 0.204618
O O15 0.546299 0.000000 0.198927
O O16 0.552112 0.227850 0.042409
O O17 0.568250 0.500000 0.928331
O O18 0.618376 0.761280 0.917416
O O19 0.211216 0.500000 0.154123
O O20 0.189817 0.716660 0.310154
O O21 0.332191 0.500000 0.908295
#
# Coordination Sequence:
#
# PCOD9375100 Si02
#       8
#     8   8   8   8   8   8   8   8
#     4  10  21  38  59  83 115 154 194 240 294 349
#     4  10  22  39  58  84 116 154 199 245 293 346
#     4  11  23  41  62  85 118 156 194 240 295 350
#     4   9  20  39  59  84 119 155 189 239 296 344
#     4  11  24  41  62  88 118 153 194 240 290 346
#     4  11  21  36  60  89 121 154 189 236 294 351
#     4  10  21  38  61  86 116 154 198 242 287 345
#     4  10  20  37  60  85 118 153 188 238 298 346
#
# _framework density 21.321501999999999
#
# number of rings (size 3 to 8) (size 9 to 14) (size 15 to 20)
#    0.000    1.750    2.500    1.500    1.750    4.750 
#    0.000    2.500    0.000    0.000    0.000    0.000 
#    0.000    0.000    0.000    0.000    0.000    0.000 
#
# Total GULP energy -178790.979372 kJ/mol
# GULP energy per Si atom -5587.218105 kJ/mol
# Density = 2.127297 g / cm^3
# Si number density = 21.321502 Si / 1000 Ang^3
#
#
#
# Elastic Constant Matrix: (Units=GPa)
#
#
# Indices 1 2 3 4 5 6 
#
# 1 202.8236 3.1019 60.7573 0.0000 0.0000 0.0000
# 2 3.1019 32.3316 -18.8654 0.0000 0.0000 0.0000
# 3 60.7573 -18.8654 101.7144 0.0000 0.0000 0.0000
# 4 0.0000 0.0000 0.0000 121.5651 0.0000 0.0000
# 5 0.0000 0.0000 0.0000 0.0000 -134.4352 0.0000
# 6 0.0000 0.0000 0.0000 0.0000 0.0000 12.9020
#
#
#
# Elastic Compliance Matrix: (Units=1/GPa)
#
#
# Indices 1 2 3 4 5 6 
#
# 1 0.006275 -0.003127 -0.004328 0.000000 0.000000 0.000000
# 2 -0.003127 0.036242 0.008590 0.000000 0.000000 0.000000
# 3 -0.004328 0.008590 0.014010 0.000000 0.000000 0.000000
# 4 0.000000 0.000000 0.000000 0.008226 0.000000 0.000000
# 5 0.000000 0.000000 0.000000 0.000000 -0.007439 0.000000
# 6 0.000000 0.000000 0.000000 0.000000 0.000000 0.077508
#
#
# Mechanical properties :
#
#
# Convention : Reuss Voigt Hill
#
# Bulk Modulus (GPa) = 17.00816 47.42861 32.21838
# Shear Modulus (GPa) = 32.86200 19.46475 26.16338
#
# Velocity S-wave (km/s) = 3.93015 3.02473 3.50678
# Velocity P-wave (km/s) = 5.34688 5.87294 5.61607
#
# Compressibility (1/GPa) = 0.05879531
#
# Stress axis : x y z
#
# Youngs Moduli (GPa) = 159.36847 27.59248 71.37737
#
# Poissons Ratio (x) = 0.08630 0.30893
# Poissons Ratio (y) = 0.49842 -0.61314
# Poissons Ratio (z) = 0.68978 -0.23702
#
# Static dielectric constant tensor:
#      x y z
#    x 1.799000 0.000000 0.000000 
#    y 0.000000 1.789490 0.000000 
#    z 0.000000 0.000000 1.705190 
# 
# From -- ./inp_files/11451.got.cif
#   From: 2010.05.17/outbox.cif.g08.bks.cpg/sg44_6_cif.got.tgz:11451.got - 2010.06.03 19:37:08.
