data_PCOD9375824
_publ_section_title
;
Structure prediction by ZEFSAII (Michael W. Deem and Ramdas Pophale) SiO2 
 PCOD9375824
Probable space group: I M M 2
;
_chemical_formula_sum "Si O2"
_cell_formula_units_Z 48
_cell_length_a 7.896562
_cell_length_b 29.081921
_cell_length_c 10.505304
_cell_angle_alpha 90.000000
_cell_angle_beta 90.000000
_cell_angle_gamma 90.000000
_cell_volume 2412.513567
_symmetry_space_group_name_H-M "I M M 2"
_symmetry_group_IT_number 44
_symmetry_cell_setting 'orthorhombic'
loop_
_space_group_symop_operation_xyz
x,y,z
-x,-y,z
-x,y,z
x,-y,z
1/2+x,1/2+y,1/2+z
1/2-x,1/2-y,1/2+z
1/2-x,1/2+y,1/2+z
1/2+x,1/2-y,1/2+z
loop_
_atom_site_type_symbol
_atom_site_label
_atom_site_fract_x
_atom_site_fract_y
_atom_site_fract_z
Si Si1 0.697679 0.701623 0.876310
Si Si2 0.197209 0.354242 0.633474
Si Si3 0.795398 0.551693 0.519219
Si Si4 0.796146 0.050906 0.724145
Si Si5 0.303234 0.305383 0.379245
Si Si6 0.792745 0.145472 0.620692
O O1 0.500000 0.711709 0.899678
O O2 0.714453 0.673234 0.746376
O O3 0.788016 0.750619 0.870567
O O4 0.763513 0.671035 0.993614
O O5 0.265169 0.405545 0.603821
O O6 0.211852 0.325754 0.502408
O O7 0.000000 0.357967 0.668278
O O8 0.736617 0.500000 0.553565
O O9 0.746039 0.560000 0.372162
O O10 0.000000 0.551878 0.524734
O O11 0.734983 0.093007 0.638507
O O12 0.000000 0.049811 0.714665
O O13 0.730529 0.000000 0.692047
O O14 0.500000 0.318502 0.392969
O O15 0.239855 0.327223 0.247412
O O16 0.000000 0.145339 0.618277
#
# Coordination Sequence:
#
# PCOD9375824 Si02
#       6
#     8   8   8   8   8   8
#     4  11  23  38  55  78 113 151 186 228 277 331
#     4  11  22  37  56  82 114 148 187 230 276 331
#     4   9  18  33  54  80 109 141 180 228 276 323
#     4   9  16  30  55  82 105 133 174 223 276 331
#     4  11  21  37  60  83 108 141 186 234 280 334
#     4   9  19  35  54  79 109 138 173 223 277 324
#
# _framework density 19.896262
#
# number of rings (size 3 to 8) (size 9 to 14) (size 15 to 20)
#    0.000    2.000    1.667    2.500    0.000    2.000 
#    0.000    5.000    0.000    1.000    0.000    0.000 
#    0.000    0.000    0.000    0.000    0.000    0.000 
#
# Total GULP energy -134012.630104 kJ/mol
# GULP energy per Si atom -5583.859588 kJ/mol
# Density = 1.985098 g / cm^3
# Si number density = 19.896262 Si / 1000 Ang^3
#
#
#
# Elastic Constant Matrix: (Units=GPa)
#
#
# Indices 1 2 3 4 5 6 
#
# 1 25.5509 -7.3203 -6.6867 0.0000 0.0000 0.0000
# 2 -7.3203 148.4703 52.3666 -0.0001 0.0000 0.0000
# 3 -6.6867 52.3666 96.3636 0.0001 0.0000 -0.0001
# 4 0.0000 -0.0001 0.0001 -10.0302 0.0000 0.0000
# 5 0.0000 0.0000 0.0000 0.0000 5.5923 0.0000
# 6 0.0000 0.0000 -0.0001 0.0000 0.0000 14.2196
#
#
#
# Elastic Compliance Matrix: (Units=1/GPa)
#
#
# Indices 1 2 3 4 5 6 
#
# 1 0.040042 0.001230 0.002110 0.000000 0.000000 0.000000
# 2 0.001230 0.008370 -0.004463 0.000000 0.000000 0.000000
# 3 0.002110 -0.004463 0.012949 0.000000 0.000000 0.000000
# 4 0.000000 0.000000 0.000000 -0.099699 0.000000 0.000000
# 5 0.000000 0.000000 0.000000 0.000000 0.178818 0.000000
# 6 0.000000 0.000000 0.000000 0.000000 0.000000 0.070326
#
#
# Mechanical properties :
#
#
# Convention : Reuss Voigt Hill
#
# Bulk Modulus (GPa) = 16.91605 38.56711 27.74158
# Shear Modulus (GPa) = 21.48151 17.42467 19.45309
#
# Velocity S-wave (km/s) = 3.28941 2.96256 3.13025
# Velocity P-wave (km/s) = 4.79036 5.57930 5.19981
#
# Compressibility (1/GPa) = 0.05911545
#
# Stress axis : x y z
#
# Youngs Moduli (GPa) = 24.97362 119.47113 77.22464
#
# Poissons Ratio (x) = -0.14695 -0.16295
# Poissons Ratio (y) = -0.03072 0.34467
# Poissons Ratio (z) = -0.05270 0.53323
#
# Static dielectric constant tensor:
#      x y z
#    x 1.723110 0.000000 0.000000 
#    y 0.000000 1.721480 0.000000 
#    z 0.000000 0.000000 1.652390 
# 
# From -- ./inp_files/4904.got.cif
#   From: 2010.05.17/outbox.cif.g08.bks.cpg/sg44_3_cif.got.tgz:4904.got - 2010.06.03 19:37:08.
