data_PCOD9375573
_publ_section_title
;
Structure prediction by ZEFSAII (Michael W. Deem and Ramdas Pophale) SiO2 
 PCOD9375573
Probable space group: I M M 2
;
_chemical_formula_sum "Si O2"
_cell_formula_units_Z 48
_cell_length_a 8.914825
_cell_length_b 17.410229
_cell_length_c 16.765337
_cell_angle_alpha 90.000000
_cell_angle_beta 90.000000
_cell_angle_gamma 90.000000
_cell_volume 2602.133617
_symmetry_space_group_name_H-M "I M M 2"
_symmetry_group_IT_number 44
_symmetry_cell_setting 'orthorhombic'
loop_
_space_group_symop_operation_xyz
x,y,z
-x,-y,z
-x,y,z
x,-y,z
1/2+x,1/2+y,1/2+z
1/2-x,1/2-y,1/2+z
1/2-x,1/2+y,1/2+z
1/2+x,1/2-y,1/2+z
loop_
_atom_site_type_symbol
_atom_site_label
_atom_site_fract_x
_atom_site_fract_y
_atom_site_fract_z
Si Si1 0.679035 0.311745 0.319840
Si Si2 0.679239 0.910083 0.679142
Si Si3 0.819222 0.000000 0.094766
Si Si4 0.820786 0.500000 0.769875
Si Si5 0.179136 0.156804 0.003853
Si Si6 0.177503 0.817032 0.536195
Si Si7 0.178594 0.149643 0.350126
O O1 0.500000 0.305159 0.311050
O O2 0.745497 0.367520 0.253639
O O3 0.711089 0.342873 0.409135
O O4 0.753434 0.227776 0.314075
O O5 0.500000 0.902711 0.684435
O O6 0.737479 0.869559 0.599179
O O7 0.718301 0.000000 0.678701
O O8 0.737621 0.000000 0.179234
O O9 0.781183 0.923307 0.045269
O O10 0.000000 0.000000 0.107145
O O11 0.756193 0.575396 0.813212
O O12 0.000000 0.500000 0.772563
O O13 0.264024 0.229640 0.040635
O O14 0.000000 0.168660 0.013133
O O15 0.204429 0.845027 0.445464
O O16 0.000000 0.819553 0.551442
O O17 0.000000 0.146851 0.336240
#
# Coordination Sequence:
#
# PCOD9375573 Si02
#       7
#     8   8   4   4   8   8   8
#     4  10  21  39  65  93 121 157 201 250 301 356
#     4  11  25  41  60  89 124 163 202 244 301 360
#     4  10  22  40  62  89 122 161 200 245 300 361
#     4  12  26  40  60  91 124 159 204 255 300 355
#     4   9  20  39  64  90 120 158 200 245 301 361
#     4  10  22  40  64  90 119 156 201 251 305 357
#     4  10  22  42  65  89 121 161 201 248 307 365
#
# _framework density 18.446400000000001
#
# number of rings (size 3 to 8) (size 9 to 14) (size 15 to 20)
#    0.000    1.833    0.000    2.750    4.667    4.667 
#    0.000    0.000    0.000    0.000    0.000    0.000 
#    0.000    0.000    0.000    0.000    0.000    0.000 
#
# Total GULP energy -134152.121918 kJ/mol
# GULP energy per Si atom -5589.671747 kJ/mol
# Density = 1.840442 g / cm^3
# Si number density = 18.446400 Si / 1000 Ang^3
#
#
#
# Elastic Constant Matrix: (Units=GPa)
#
#
# Indices 1 2 3 4 5 6 
#
# 1 90.2826 99.7968 74.8818 0.0000 0.0000 0.0000
# 2 99.7968 201.2528 109.0688 0.0000 0.0000 0.0000
# 3 74.8818 109.0688 90.7118 0.0000 0.0000 0.0000
# 4 0.0000 0.0000 0.0000 30.0357 0.0000 0.0000
# 5 0.0000 0.0000 0.0000 0.0000 29.5751 0.0000
# 6 0.0000 0.0000 0.0000 0.0000 0.0000 32.7626
#
#
#
# Elastic Compliance Matrix: (Units=1/GPa)
#
#
# Indices 1 2 3 4 5 6 
#
# 1 0.036888 -0.005136 -0.024276 0.000000 0.000000 0.000000
# 2 -0.005136 0.014978 -0.013769 0.000000 0.000000 0.000000
# 3 -0.024276 -0.013769 0.047619 0.000000 0.000000 0.000000
# 4 0.000000 0.000000 0.000000 0.033294 0.000000 0.000000
# 5 0.000000 0.000000 0.000000 0.000000 0.033812 0.000000
# 6 0.000000 0.000000 0.000000 0.000000 0.000000 0.030523
#
#
# Mechanical properties :
#
#
# Convention : Reuss Voigt Hill
#
# Bulk Modulus (GPa) = 76.19979 105.52687 90.86333
# Shear Modulus (GPa) = 17.37021 25.04134 21.20577
#
# Velocity S-wave (km/s) = 3.07197 3.68845 3.39424
# Velocity P-wave (km/s) = 7.34719 8.68741 8.04525
#
# Compressibility (1/GPa) = 0.01312340
#
# Stress axis : x y z
#
# Youngs Moduli (GPa) = 27.10922 66.76499 21.00000
#
# Poissons Ratio (x) = 0.34289 0.50979
# Poissons Ratio (y) = 0.13923 0.28916
# Poissons Ratio (z) = 0.65809 0.91931
#
# Static dielectric constant tensor:
#      x y z
#    x 1.611750 0.000000 0.000000 
#    y 0.000000 1.596940 0.000000 
#    z 0.000000 0.000000 1.617180 
# 
# From -- ./inp_files/16205.got.cif
#   From: 2010.05.17/outbox.cif.g08.bks.cpg/sg44_9_cif.got.tgz:16205.got - 2010.06.03 19:37:08.
