data_PCOD9375927
_publ_section_title
;
Structure prediction by ZEFSAII (Michael W. Deem and Ramdas Pophale) SiO2 
 PCOD9375927
Probable space group: I M M 2
;
_chemical_formula_sum "Si O2"
_cell_formula_units_Z 64
_cell_length_a 18.415243
_cell_length_b 7.457580
_cell_length_c 21.396611
_cell_angle_alpha 90.000000
_cell_angle_beta 90.000000
_cell_angle_gamma 90.000000
_cell_volume 2938.463943
_symmetry_space_group_name_H-M "I M M 2"
_symmetry_group_IT_number 44
_symmetry_cell_setting 'orthorhombic'
loop_
_space_group_symop_operation_xyz
x,y,z
-x,-y,z
-x,y,z
x,-y,z
1/2+x,1/2+y,1/2+z
1/2-x,1/2-y,1/2+z
1/2-x,1/2+y,1/2+z
1/2+x,1/2-y,1/2+z
loop_
_atom_site_type_symbol
_atom_site_label
_atom_site_fract_x
_atom_site_fract_y
_atom_site_fract_z
Si Si1 0.871203 0.720461 0.470840
Si Si2 0.633321 0.288691 0.243286
Si Si3 0.285284 0.785221 0.601929
Si Si4 0.920364 0.718712 0.335156
Si Si5 0.795343 0.210482 0.965495
Si Si6 0.799612 0.281235 0.238178
Si Si7 0.384490 0.201698 0.104934
Si Si8 0.579253 0.719892 0.374871
O O1 0.871390 0.500000 0.474102
O O2 0.910327 0.772552 0.407219
O O3 0.787115 0.781142 0.464000
O O4 0.903488 0.784080 0.537362
O O5 0.640480 0.500000 0.252842
O O6 0.716299 0.218469 0.245383
O O7 0.599169 0.270187 0.174357
O O8 0.590008 0.221484 0.303115
O O9 0.321323 0.731532 0.536971
O O10 0.321893 0.733207 0.667263
O O11 0.203823 0.706074 0.602273
O O12 0.276466 0.000000 0.602353
O O13 0.917988 0.500000 0.334778
O O14 0.854861 0.780825 0.291092
O O15 0.000000 0.773003 0.312423
O O16 0.788040 0.000000 0.951246
O O17 0.853561 0.283366 0.916837
O O18 0.798580 0.500000 0.241350
O O19 0.411602 0.000000 0.104235
O O20 0.500000 0.776135 0.397817
O O21 0.579903 0.500000 0.376599
#
# Coordination Sequence:
#
# PCOD9375927 Si02
#       8
#     8   8   8   8   8   8   8   8
#     4   8  14  24  39  60  84 110 139 173 215 258
#     4   9  16  28  47  67  88 115 147 185 226 268
#     4   9  16  27  44  67  93 116 143 182 224 266
#     4   9  15  23  37  58  84 112 142 175 210 252
#     4   9  16  28  47  67  88 115 147 185 226 268
#     4   8  14  24  39  60  84 110 139 173 215 258
#     4   9  16  27  44  67  93 116 143 182 224 266
#     4   9  17  29  46  67  88 114 154 197 230 268
#
# _framework density 21.780085
#
# number of rings (size 3 to 8) (size 9 to 14) (size 15 to 20)
#    0.000    3.250    0.000    3.000    0.000    3.000 
#    0.000    1.875    0.000    3.000    0.000    2.625 
#    0.000   34.000    0.000    0.000    0.000    0.000 
#
# Total GULP energy -178357.147538 kJ/mol
# GULP energy per Si atom -5573.660861 kJ/mol
# Density = 2.173051 g / cm^3
# Si number density = 21.780085 Si / 1000 Ang^3
#
#
#
# Elastic Constant Matrix: (Units=GPa)
#
#
# Indices 1 2 3 4 5 6 
#
# 1 62.8656 2.5288 28.0768 0.0000 0.0000 0.0000
# 2 2.5288 56.5034 -12.6023 0.0000 0.0000 0.0000
# 3 28.0768 -12.6023 98.4950 0.0000 0.0000 0.0000
# 4 0.0000 0.0000 0.0000 17.5210 0.0000 0.0000
# 5 0.0000 0.0000 0.0000 0.0000 -28.7240 0.0000
# 6 0.0000 0.0000 0.0000 0.0000 0.0000 -1.8446
#
#
#
# Elastic Compliance Matrix: (Units=1/GPa)
#
#
# Indices 1 2 3 4 5 6 
#
# 1 0.018457 -0.002058 -0.005525 0.000000 0.000000 0.000000
# 2 -0.002058 0.018447 0.002947 0.000000 0.000000 0.000000
# 3 -0.005525 0.002947 0.012105 0.000000 0.000000 0.000000
# 4 0.000000 0.000000 0.000000 0.057074 0.000000 0.000000
# 5 0.000000 0.000000 0.000000 0.000000 -0.034814 0.000000
# 6 0.000000 0.000000 0.000000 0.000000 0.000000 -0.542120
#
#
# Mechanical properties :
#
#
# Convention : Reuss Voigt Hill
#
# Bulk Modulus (GPa) = 25.16512 28.20784 26.68648
# Shear Modulus (GPa) = -11.15243 10.71452 -0.21896
#
# Velocity S-wave (km/s) = -2.26530 2.22038 -0.31741
# Velocity P-wave (km/s) = 2.17650 4.42185 3.48496
#
# Compressibility (1/GPa) = 0.03973754
#
# Stress axis : x y z
#
# Youngs Moduli (GPa) = 54.17945 54.20796 82.61220
#
# Poissons Ratio (x) = 0.11157 0.45641
# Poissons Ratio (y) = 0.11152 -0.24346
# Poissons Ratio (z) = 0.29933 -0.15975
#
# Static dielectric constant tensor:
#      x y z
#    x 1.754670 0.000000 0.000000 
#    y 0.000000 1.845770 0.000000 
#    z 0.000000 0.000000 1.816210 
# 
# From -- ./inp_files/24477.got.cif
#   From: 2010.05.17/outbox.cif.g08.bks.cpg/sg44_13_cif.got.tgz:24477.got - 2010.06.03 19:37:08.
