data_PCOD9375825
_publ_section_title
;
Structure prediction by ZEFSAII (Michael W. Deem and Ramdas Pophale) SiO2 
 PCOD9375825
Probable space group: I M M 2
;
_chemical_formula_sum "Si O2"
_cell_formula_units_Z 58
_cell_length_a 7.841561
_cell_length_b 13.331352
_cell_length_c 23.023861
_cell_angle_alpha 90.000000
_cell_angle_beta 90.000000
_cell_angle_gamma 90.000000
_cell_volume 2406.882424
_symmetry_space_group_name_H-M "I M M 2"
_symmetry_group_IT_number 44
_symmetry_cell_setting 'orthorhombic'
loop_
_space_group_symop_operation_xyz
x,y,z
-x,-y,z
-x,y,z
x,-y,z
1/2+x,1/2+y,1/2+z
1/2-x,1/2-y,1/2+z
1/2-x,1/2+y,1/2+z
1/2+x,1/2-y,1/2+z
loop_
_atom_site_type_symbol
_atom_site_label
_atom_site_fract_x
_atom_site_fract_y
_atom_site_fract_z
Si Si1 0.792750 0.389752 0.745280
Si Si2 0.204894 0.611281 0.540107
Si Si3 0.500000 0.000000 0.750146
Si Si4 0.293678 0.885332 0.905583
Si Si5 0.817092 0.118203 0.493323
Si Si6 0.698263 0.179683 0.368582
Si Si7 0.302330 0.657879 0.221318
Si Si8 0.688111 0.199827 0.605891
O O1 0.734615 0.500000 0.722669
O O2 0.738057 0.378916 0.812660
O O3 0.753076 0.277465 0.722649
O O4 0.000000 0.392680 0.742745
O O5 0.270155 0.500000 0.551954
O O6 0.256041 0.636382 0.473210
O O7 0.259708 0.687576 0.589433
O O8 0.000000 0.607710 0.539324
O O9 0.654666 0.087693 0.747926
O O10 0.500000 0.881680 0.902043
O O11 0.219799 0.799873 0.864325
O O12 0.243447 0.000000 0.892491
O O13 0.787371 0.152254 0.428197
O O14 0.688717 0.151155 0.542294
O O15 0.000000 0.160783 0.512858
O O16 0.821380 0.000000 0.492463
O O17 0.500000 0.155467 0.375024
O O18 0.500000 0.645861 0.242389
O O19 0.302183 0.640544 0.151478
O O20 0.500000 0.195629 0.630696
#
# Coordination Sequence:
#
# PCOD9375825 Si02
#       8
#     8   8   2   8   8   8   8   8
#     4   9  21  45  74 101 136 181 234 291 363 434
#     4   9  18  34  57  83 121 173 222 271 334 407
#     4  12  26  52  74 110 144 176 246 298 360 444
#     4   9  18  34  54  81 121 171 220 268 327 399
#     4  11  24  39  58  88 126 174 221 264 332 410
#     4  11  21  37  63  97 132 172 219 280 342 412
#     4  11  25  48  76 104 141 191 236 296 369 428
#     4  12  24  39  61  97 135 171 226 286 342 415
#
# _framework density 24.097563000000001
#
# number of rings (size 3 to 8) (size 9 to 14) (size 15 to 20)
#    0.000    1.655    2.069    3.517    0.966    2.759 
#    3.724    3.103    0.000    0.000    0.000    0.000 
#    0.000    0.000    0.000    0.000    0.000    0.000 
#
# Total GULP energy -161703.166648 kJ/mol
# GULP energy per Si atom -5575.971264 kJ/mol
# Density = 2.404272 g / cm^3
# Si number density = 24.097563 Si / 1000 Ang^3
#
#
#
# Elastic Constant Matrix: (Units=GPa)
#
#
# Indices 1 2 3 4 5 6 
#
# 1 101.9632 28.0943 14.1540 0.0000 0.0000 0.0000
# 2 28.0943 135.3811 10.3411 0.0000 0.0000 0.0000
# 3 14.1540 10.3411 41.4641 0.0000 0.0000 0.0000
# 4 0.0000 0.0000 0.0000 4.0610 0.0000 0.0000
# 5 0.0000 0.0000 0.0000 0.0000 23.6020 0.0000
# 6 0.0000 0.0000 0.0000 0.0000 0.0000 40.2995
#
#
#
# Elastic Compliance Matrix: (Units=1/GPa)
#
#
# Indices 1 2 3 4 5 6 
#
# 1 0.010801 -0.001998 -0.003189 0.000000 0.000000 0.000000
# 2 -0.001998 0.007900 -0.001288 0.000000 0.000000 0.000000
# 3 -0.003189 -0.001288 0.025527 0.000000 0.000000 0.000000
# 4 0.000000 0.000000 0.000000 0.246242 0.000000 0.000000
# 5 0.000000 0.000000 0.000000 0.000000 0.042369 0.000000
# 6 0.000000 0.000000 0.000000 0.000000 0.000000 0.024814
#
#
# Mechanical properties :
#
#
# Convention : Reuss Voigt Hill
#
# Bulk Modulus (GPa) = 31.97141 42.66525 37.31833
# Shear Modulus (GPa) = 13.12241 28.67378 20.89810
#
# Velocity S-wave (km/s) = 2.33610 3.45324 2.94807
# Velocity P-wave (km/s) = 4.53572 5.80030 5.20655
#
# Compressibility (1/GPa) = 0.03127795
#
# Stress axis : x y z
#
# Youngs Moduli (GPa) = 92.58795 126.58981 39.17428
#
# Poissons Ratio (x) = 0.25290 0.12491
# Poissons Ratio (y) = 0.18497 0.05046
# Poissons Ratio (z) = 0.29523 0.16307
#
# Static dielectric constant tensor:
#      x y z
#    x 1.885020 0.000000 0.000000 
#    y 0.000000 2.001300 0.000000 
#    z 0.000000 0.000000 1.961350 
# 
# From -- ./inp_files/26230.got.cif
#   From: 2010.05.17/outbox.cif.g08.bks.cpg/sg44_14_cif.got.tgz:26230.got - 2010.06.03 19:37:08.
