data_PCOD9375307
_publ_section_title
;
Structure prediction by ZEFSAII (Michael W. Deem and Ramdas Pophale) SiO2 
 PCOD9375307
Probable space group: I M M 2
;
_chemical_formula_sum "Si O2"
_cell_formula_units_Z 32
_cell_length_a 8.148470
_cell_length_b 21.155919
_cell_length_c 9.543522
_cell_angle_alpha 90.000000
_cell_angle_beta 90.000000
_cell_angle_gamma 90.000000
_cell_volume 1645.192214
_symmetry_space_group_name_H-M "I M M 2"
_symmetry_group_IT_number 44
_symmetry_cell_setting 'orthorhombic'
loop_
_space_group_symop_operation_xyz
x,y,z
-x,-y,z
-x,y,z
x,-y,z
1/2+x,1/2+y,1/2+z
1/2-x,1/2-y,1/2+z
1/2-x,1/2+y,1/2+z
1/2+x,1/2-y,1/2+z
loop_
_atom_site_type_symbol
_atom_site_label
_atom_site_fract_x
_atom_site_fract_y
_atom_site_fract_z
Si Si1 0.697682 0.190420 0.424240
Si Si2 0.304658 0.309686 0.244628
Si Si3 0.700295 0.928539 0.246072
Si Si4 0.801826 0.571687 0.423846
O O1 0.500000 0.190096 0.413913
O O2 0.759582 0.251391 0.338702
O O3 0.741338 0.193461 0.586678
O O4 0.757711 0.126083 0.350009
O O5 0.500000 0.304266 0.239110
O O6 0.260124 0.375213 0.319448
O O7 0.500000 0.928733 0.248046
O O8 0.752893 0.000000 0.282217
O O9 0.748776 0.915150 0.084949
O O10 0.749243 0.500000 0.388804
O O11 0.000000 0.572565 0.421117
#
# Coordination Sequence:
#
# PCOD9375307 Si02
#       4
#     8   8   8   8
#     4  10  21  36  54  77 106 141 180 222 270 322
#     4  11  23  36  53  79 110 142 178 226 274 315
#     4   8  15  31  56  81 102 131 177 224 259 304
#     4   9  18  35  59  82 106 141 181 219 263 319
#
# _framework density 19.450614999999999
#
# number of rings (size 3 to 8) (size 9 to 14) (size 15 to 20)
#    0.000    2.500    0.000    3.750    0.000    5.500 
#    0.000    3.750    0.000    1.500    0.000    0.000 
#    0.000    0.000    0.000    0.000    0.000    0.000 
#
# Total GULP energy -89311.672561 kJ/mol
# GULP energy per Si atom -5581.979535 kJ/mol
# Density = 1.940635 g / cm^3
# Si number density = 19.450615 Si / 1000 Ang^3
#
#
#
# Elastic Constant Matrix: (Units=GPa)
#
#
# Indices 1 2 3 4 5 6 
#
# 1 10.8948 16.5025 11.8373 0.0002 0.0001 0.0000
# 2 16.5025 178.4449 140.3867 0.0004 0.0002 0.0000
# 3 11.8373 140.3867 178.4222 0.0000 -0.0002 0.0001
# 4 0.0002 0.0004 0.0000 40.0352 -0.0001 0.0000
# 5 0.0001 0.0002 -0.0002 -0.0001 25.1616 0.0000
# 6 0.0000 0.0000 0.0001 0.0000 0.0000 15.3915
#
#
#
# Elastic Compliance Matrix: (Units=1/GPa)
#
#
# Indices 1 2 3 4 5 6 
#
# 1 0.106959 -0.011310 0.001803 0.000000 0.000000 0.000000
# 2 -0.011310 0.015905 -0.011764 0.000000 0.000000 0.000000
# 3 0.001803 -0.011764 0.014741 0.000000 0.000000 0.000000
# 4 0.000000 0.000000 0.000000 0.024978 0.000000 0.000000
# 5 0.000000 0.000000 0.000000 0.000000 0.039743 0.000000
# 6 0.000000 0.000000 0.000000 0.000000 0.000000 0.064971
#
#
# Mechanical properties :
#
#
# Convention : Reuss Voigt Hill
#
# Bulk Modulus (GPa) = 10.51930 78.35721 44.43826
# Shear Modulus (GPa) = 14.64011 29.38669 22.01340
#
# Velocity S-wave (km/s) = 2.74648 3.89116 3.36781
# Velocity P-wave (km/s) = 3.93414 7.78209 6.16597
#
# Compressibility (1/GPa) = 0.09506332
#
# Stress axis : x y z
#
# Youngs Moduli (GPa) = 9.34935 62.87361 67.83662
#
# Poissons Ratio (x) = 0.71108 -0.12228
# Poissons Ratio (y) = 0.10574 0.79803
# Poissons Ratio (z) = -0.01685 0.73965
#
# Static dielectric constant tensor:
#      x y z
#    x 1.693110 0.000000 0.000000 
#    y 0.000000 1.684840 0.000000 
#    z 0.000000 0.000000 1.641220 
# 
# From -- ./inp_files/4215.got.cif
#   From: 2010.05.17/outbox.cif.g08.bks.cpg/sg44_3_cif.got.tgz:4215.got - 2010.06.03 19:37:08.
