data_PCOD9375130
_publ_section_title
;
Structure prediction by ZEFSAII (Michael W. Deem and Ramdas Pophale) SiO2 
 PCOD9375130
Probable space group: I M M 2
;
_chemical_formula_sum "Si O2"
_cell_formula_units_Z 56
_cell_length_a 21.804749
_cell_length_b 13.851798
_cell_length_c 8.058139
_cell_angle_alpha 90.000000
_cell_angle_beta 90.000000
_cell_angle_gamma 90.000000
_cell_volume 2433.839840
_symmetry_space_group_name_H-M "I M M 2"
_symmetry_group_IT_number 44
_symmetry_cell_setting 'orthorhombic'
loop_
_space_group_symop_operation_xyz
x,y,z
-x,-y,z
-x,y,z
x,-y,z
1/2+x,1/2+y,1/2+z
1/2-x,1/2-y,1/2+z
1/2-x,1/2+y,1/2+z
1/2+x,1/2-y,1/2+z
loop_
_atom_site_type_symbol
_atom_site_label
_atom_site_fract_x
_atom_site_fract_y
_atom_site_fract_z
Si Si1 0.398018 0.110469 0.056250
Si Si2 0.762717 0.382457 0.420137
Si Si3 0.187441 0.886639 0.230175
Si Si4 0.801783 0.883667 0.588610
Si Si5 0.068899 0.192050 0.709715
Si Si6 0.569694 0.102537 0.680716
Si Si7 0.928812 0.809300 0.097941
O O1 0.422853 0.192716 0.177480
O O2 0.399380 0.000000 0.121816
O O3 0.329639 0.137011 0.994550
O O4 0.432832 0.110401 0.879990
O O5 0.760090 0.500000 0.410087
O O6 0.715566 0.348061 0.560081
O O7 0.741710 0.349187 0.238168
O O8 0.212300 0.846270 0.403544
O O9 0.114705 0.872783 0.211905
O O10 0.201808 0.000000 0.231372
O O11 0.872444 0.856619 0.625694
O O12 0.797872 0.000000 0.584532
O O13 0.000000 0.166037 0.650799
O O14 0.072418 0.165614 0.904178
O O15 0.500000 0.099290 0.616650
O O16 0.597197 0.200400 0.613870
O O17 0.600972 0.000000 0.641866
O O18 0.000000 0.810269 0.152255
#
# Coordination Sequence:
#
# PCOD9375130 Si02
#       7
#     8   8   8   8   8   8   8
#     4  10  21  39  61  87 119 161 207 257 312 368
#     4   9  19  40  61  85 123 156 200 255 301 362
#     4  10  20  37  62  88 119 161 202 248 307 366
#     4  10  21  40  65  92 123 163 205 254 312 369
#     4  11  23  39  60  91 126 162 209 261 314 376
#     4   9  18  35  58  82 111 150 196 247 301 352
#     4  10  21  37  57  85 123 160 201 255 308 370
#
# _framework density 23.00891
#
# number of rings (size 3 to 8) (size 9 to 14) (size 15 to 20)
#    0.000    2.143    1.429    1.286    0.000    3.714 
#    7.714    4.286    0.000    0.000    0.000    0.000 
#    0.000    0.000    0.000    0.000    0.000    0.000 
#
# Total GULP energy -156335.836620 kJ/mol
# GULP energy per Si atom -5583.422736 kJ/mol
# Density = 2.295654 g / cm^3
# Si number density = 23.008910 Si / 1000 Ang^3
#
#
#
# Elastic Constant Matrix: (Units=GPa)
#
#
# Indices 1 2 3 4 5 6 
#
# 1 83.3854 -7.4642 20.8679 0.0000 0.0000 0.0000
# 2 -7.4642 34.3914 9.2222 0.0000 0.0000 0.0000
# 3 20.8679 9.2222 97.4471 0.0000 0.0000 0.0000
# 4 0.0000 0.0000 0.0000 29.8360 0.0000 0.0000
# 5 0.0000 0.0000 0.0000 0.0000 26.2355 0.0000
# 6 0.0000 0.0000 0.0000 0.0000 0.0000 26.8115
#
#
#
# Elastic Compliance Matrix: (Units=1/GPa)
#
#
# Indices 1 2 3 4 5 6 
#
# 1 0.013113 0.003693 -0.003158 0.000000 0.000000 0.000000
# 2 0.003693 0.030874 -0.003713 0.000000 0.000000 0.000000
# 3 -0.003158 -0.003713 0.011290 0.000000 0.000000 0.000000
# 4 0.000000 0.000000 0.000000 0.033517 0.000000 0.000000
# 5 0.000000 0.000000 0.000000 0.000000 0.038116 0.000000
# 6 0.000000 0.000000 0.000000 0.000000 0.000000 0.037297
#
#
# Mechanical properties :
#
#
# Convention : Reuss Voigt Hill
#
# Bulk Modulus (GPa) = 20.44073 28.94173 24.69123
# Shear Modulus (GPa) = 26.75663 29.41645 28.08654
#
# Velocity S-wave (km/s) = 3.41380 3.57946 3.49761
# Velocity P-wave (km/s) = 4.94387 5.44878 5.20245
#
# Compressibility (1/GPa) = 0.04892193
#
# Stress axis : x y z
#
# Youngs Moduli (GPa) = 76.25848 32.38962 88.57765
#
# Poissons Ratio (x) = -0.11961 0.27970
# Poissons Ratio (y) = -0.28161 0.32886
# Poissons Ratio (z) = 0.24080 0.12025
#
# Static dielectric constant tensor:
#      x y z
#    x 1.785800 0.000000 0.000000 
#    y 0.000000 1.914620 0.000000 
#    z 0.000000 0.000000 1.846640 
# 
# From -- ./inp_files/8928.got.cif
#   From: 2010.05.17/outbox.cif.g08.bks.cpg/sg44_5_cif.got.tgz:8928.got - 2010.06.03 19:37:08.
