data_PCOD9375598
_publ_section_title
;
Structure prediction by ZEFSAII (Michael W. Deem and Ramdas Pophale) SiO2 
 PCOD9375598
Probable space group: I M M 2
;
_chemical_formula_sum "Si O2"
_cell_formula_units_Z 58
_cell_length_a 7.592318
_cell_length_b 18.227967
_cell_length_c 17.464366
_cell_angle_alpha 90.000000
_cell_angle_beta 90.000000
_cell_angle_gamma 90.000000
_cell_volume 2416.937655
_symmetry_space_group_name_H-M "I M M 2"
_symmetry_group_IT_number 44
_symmetry_cell_setting 'orthorhombic'
loop_
_space_group_symop_operation_xyz
x,y,z
-x,-y,z
-x,y,z
x,-y,z
1/2+x,1/2+y,1/2+z
1/2-x,1/2-y,1/2+z
1/2-x,1/2+y,1/2+z
1/2+x,1/2-y,1/2+z
loop_
_atom_site_type_symbol
_atom_site_label
_atom_site_fract_x
_atom_site_fract_y
_atom_site_fract_z
Si Si1 0.785434 0.341072 0.794130
Si Si2 0.198289 0.112451 0.129109
Si Si3 0.205036 0.418295 0.405613
Si Si4 0.000000 0.500000 0.582828
Si Si5 0.293649 0.674294 0.264521
Si Si6 0.787866 0.284723 0.509488
Si Si7 0.200838 0.375198 0.958819
Si Si8 0.713119 0.080721 0.622219
O O1 0.727324 0.385368 0.719772
O O2 0.725876 0.256157 0.783469
O O3 0.721652 0.376671 0.873598
O O4 0.000000 0.340419 0.795533
O O5 0.232753 0.193489 0.094891
O O6 0.000000 0.089931 0.111795
O O7 0.345686 0.062777 0.090826
O O8 0.282304 0.500000 0.411793
O O9 0.210657 0.386702 0.320036
O O10 0.277209 0.352922 0.457720
O O11 0.000000 0.425915 0.428592
O O12 0.500000 0.675451 0.282381
O O13 0.271775 0.645167 0.178445
O O14 0.702861 0.210865 0.479699
O O15 0.000000 0.277455 0.503671
O O16 0.000000 0.402694 0.952611
O O17 0.279743 0.411065 0.034977
O O18 0.500000 0.083997 0.619519
O O19 0.764430 0.000000 0.651808
#
# Coordination Sequence:
#
# PCOD9375598 Si02
#       8
#     8   8   8   2   8   8   8   8
#     4  10  21  42  64  95 134 170 219 287 342 397
#     4  12  26  44  72 100 133 183 231 278 346 413
#     4  10  22  37  58  87 126 173 215 267 334 400
#     4  12  26  52  68  98 144 176 226 296 336 406
#     4  11  22  37  62  90 128 169 213 271 337 394
#     4  11  22  39  65  95 136 176 219 278 341 405
#     4  10  21  40  66  96 129 170 226 281 336 406
#     4  10  22  40  61  89 124 168 220 268 329 404
#
# _framework density 23.997308
#
# number of rings (size 3 to 8) (size 9 to 14) (size 15 to 20)
#    0.000    1.379    2.759    2.276    0.966    7.172 
#    1.241    0.000    0.000    0.000    0.000    0.000 
#    0.000    0.000    0.000    0.000    0.000    0.000 
#
# Total GULP energy -161961.866106 kJ/mol
# GULP energy per Si atom -5584.891935 kJ/mol
# Density = 2.394269 g / cm^3
# Si number density = 23.997308 Si / 1000 Ang^3
#
#
#
# Elastic Constant Matrix: (Units=GPa)
#
#
# Indices 1 2 3 4 5 6 
#
# 1 105.9605 10.0435 1.0644 0.0000 0.0000 0.0000
# 2 10.0435 63.8053 -7.2352 0.0000 0.0000 0.0000
# 3 1.0644 -7.2352 118.3507 0.0000 0.0000 0.0000
# 4 0.0000 0.0000 0.0000 -3.9428 0.0000 0.0000
# 5 0.0000 0.0000 0.0000 0.0000 1.0589 0.0000
# 6 0.0000 0.0000 0.0000 0.0000 0.0000 -0.6192
#
#
#
# Elastic Compliance Matrix: (Units=1/GPa)
#
#
# Indices 1 2 3 4 5 6 
#
# 1 0.009584 -0.001529 -0.000180 0.000000 0.000000 0.000000
# 2 -0.001529 0.016026 0.000993 0.000000 0.000000 0.000000
# 3 -0.000180 0.000993 0.008512 0.000000 0.000000 0.000000
# 4 0.000000 0.000000 0.000000 -0.253626 0.000000 0.000000
# 5 0.000000 0.000000 0.000000 0.000000 0.944348 0.000000
# 6 0.000000 0.000000 0.000000 0.000000 0.000000 -1.615057
#
#
# Mechanical properties :
#
#
# Convention : Reuss Voigt Hill
#
# Bulk Modulus (GPa) = 30.58887 32.87355 31.73121
# Shear Modulus (GPa) = -5.69551 18.24897 6.27673
#
# Velocity S-wave (km/s) = -1.54225 2.76063 1.61904
# Velocity P-wave (km/s) = 3.09888 4.88775 4.09226
#
# Compressibility (1/GPa) = 0.03269163
#
# Stress axis : x y z
#
# Youngs Moduli (GPa) = 104.33827 62.39851 117.48372
#
# Poissons Ratio (x) = 0.09541 0.02111
# Poissons Ratio (y) = 0.15953 -0.11672
# Poissons Ratio (z) = 0.01875 -0.06199
#
# Static dielectric constant tensor:
#      x y z
#    x 1.889830 0.000000 0.000000 
#    y 0.000000 1.917720 0.000000 
#    z 0.000000 0.000000 1.971010 
# 
# From -- ./inp_files/20586.got.cif
#   From: 2010.05.17/outbox.cif.g08.bks.cpg/sg44_11_cif.got.tgz:20586.got - 2010.06.03 19:37:08.
