data_PCOD9375344
_publ_section_title
;
Structure prediction by ZEFSAII (Michael W. Deem and Ramdas Pophale) SiO2 
 PCOD9375344
Probable space group: I M M 2
;
_chemical_formula_sum "Si O2"
_cell_formula_units_Z 58
_cell_length_a 28.474203
_cell_length_b 8.021977
_cell_length_c 11.545994
_cell_angle_alpha 90.000000
_cell_angle_beta 90.000000
_cell_angle_gamma 90.000000
_cell_volume 2637.329040
_symmetry_space_group_name_H-M "I M M 2"
_symmetry_group_IT_number 44
_symmetry_cell_setting 'orthorhombic'
loop_
_space_group_symop_operation_xyz
x,y,z
-x,-y,z
-x,y,z
x,-y,z
1/2+x,1/2+y,1/2+z
1/2-x,1/2-y,1/2+z
1/2-x,1/2+y,1/2+z
1/2+x,1/2-y,1/2+z
loop_
_atom_site_type_symbol
_atom_site_label
_atom_site_fract_x
_atom_site_fract_y
_atom_site_fract_z
Si Si1 0.120914 0.306366 0.561340
Si Si2 0.000000 0.500000 0.827625
Si Si3 0.049688 0.818554 0.742049
Si Si4 0.694560 0.195366 0.682116
Si Si5 0.947034 0.199855 0.078291
Si Si6 0.647289 0.199551 0.447822
Si Si7 0.896253 0.192403 0.306975
Si Si8 0.700711 0.799857 0.217953
O O1 0.114108 0.500000 0.591525
O O2 0.089489 0.202665 0.649028
O O3 0.105817 0.280246 0.430226
O O4 0.174301 0.263925 0.596681
O O5 0.040559 0.649887 0.814534
O O6 0.000000 0.824674 0.674879
O O7 0.053594 0.000000 0.803167
O O8 0.685030 0.241120 0.548111
O O9 0.656185 0.294920 0.755180
O O10 0.747643 0.225339 0.719324
O O11 0.682973 0.000000 0.695647
O O12 0.902770 0.236834 0.995067
O O13 0.930428 0.260979 0.205982
O O14 0.000000 0.264474 0.049438
O O15 0.950261 0.000000 0.084790
O O16 0.667314 0.258111 0.324288
O O17 0.643634 0.000000 0.441523
O O18 0.908774 0.000000 0.326441
O O19 0.705550 0.000000 0.228756
#
# Coordination Sequence:
#
# PCOD9375344 Si02
#       8
#     8   2   8   8   8   8   8   8
#     4  11  21  36  54  83 121 157 201 249 302 364
#     4   8  14  32  52  74 104 152 188 240 280 354
#     4   9  17  31  52  75 107 151 191 234 290 347
#     4  10  21  38  59  84 113 149 198 251 301 362
#     4   9  19  38  63  90 118 153 197 250 307 361
#     4   9  20  40  61  86 119 155 199 249 300 365
#     4  10  21  36  57  84 119 156 196 247 307 366
#     4  10  23  39  59  84 118 160 198 246 308 369
#
# _framework density 21.991945000000001
#
# number of rings (size 3 to 8) (size 9 to 14) (size 15 to 20)
#    0.414    1.931    0.690    1.241    1.931    3.586 
#    0.000    2.069    0.000    4.138    0.000    0.000 
#    0.000    0.000    0.000    0.000    0.000    0.000 
#
# Total GULP energy -161519.148852 kJ/mol
# GULP energy per Si atom -5569.625822 kJ/mol
# Density = 2.194189 g / cm^3
# Si number density = 21.991945 Si / 1000 Ang^3
#
#
#
# Elastic Constant Matrix: (Units=GPa)
#
#
# Indices 1 2 3 4 5 6 
#
# 1 126.6824 11.2885 51.9841 0.0000 0.0000 0.0000
# 2 11.2885 71.0838 16.2111 0.0000 0.0000 0.0000
# 3 51.9841 16.2111 102.2173 0.0000 0.0000 0.0000
# 4 0.0000 0.0000 0.0000 -0.3430 0.0000 0.0000
# 5 0.0000 0.0000 0.0000 0.0000 26.1275 0.0000
# 6 0.0000 0.0000 0.0000 0.0000 0.0000 35.0318
#
#
#
# Elastic Compliance Matrix: (Units=1/GPa)
#
#
# Indices 1 2 3 4 5 6 
#
# 1 0.009989 -0.000444 -0.005010 0.000000 0.000000 0.000000
# 2 -0.000444 0.014616 -0.002092 0.000000 0.000000 0.000000
# 3 -0.005010 -0.002092 0.012663 0.000000 0.000000 0.000000
# 4 0.000000 0.000000 0.000000 -2.915770 0.000000 0.000000
# 5 0.000000 0.000000 0.000000 0.000000 0.038274 0.000000
# 6 0.000000 0.000000 0.000000 0.000000 0.000000 0.028545
#
#
# Mechanical properties :
#
#
# Convention : Reuss Voigt Hill
#
# Bulk Modulus (GPa) = 45.09433 50.99455 48.04444
# Shear Modulus (GPa) = -1.79263 26.86325 12.53531
#
# Velocity S-wave (km/s) = -0.90382 3.49879 2.39005
# Velocity P-wave (km/s) = 4.41138 6.28969 5.43233
#
# Compressibility (1/GPa) = 0.02217574
#
# Stress axis : x y z
#
# Youngs Moduli (GPa) = 100.10989 68.42037 78.97251
#
# Poissons Ratio (x) = 0.03037 0.39563
# Poissons Ratio (y) = 0.04443 0.16523
# Poissons Ratio (z) = 0.50152 0.14315
#
# Static dielectric constant tensor:
#      x y z
#    x 1.813020 0.000000 0.000000 
#    y 0.000000 1.832050 0.000000 
#    z 0.000000 0.000000 1.816440 
# 
# From -- ./inp_files/14854.got.cif
#   From: 2010.05.17/outbox.cif.g08.bks.cpg/sg44_8_cif.got.tgz:14854.got - 2010.06.03 19:37:08.
