data_PCOD9375474
_publ_section_title
;
Structure prediction by ZEFSAII (Michael W. Deem and Ramdas Pophale) SiO2 
 PCOD9375474
Probable space group: I M M 2
;
_chemical_formula_sum "Si O2"
_cell_formula_units_Z 64
_cell_length_a 13.876490
_cell_length_b 8.914753
_cell_length_c 24.394726
_cell_angle_alpha 90.000000
_cell_angle_beta 90.000000
_cell_angle_gamma 90.000000
_cell_volume 3017.761310
_symmetry_space_group_name_H-M "I M M 2"
_symmetry_group_IT_number 44
_symmetry_cell_setting 'orthorhombic'
loop_
_space_group_symop_operation_xyz
x,y,z
-x,-y,z
-x,y,z
x,-y,z
1/2+x,1/2+y,1/2+z
1/2-x,1/2-y,1/2+z
1/2-x,1/2+y,1/2+z
1/2+x,1/2-y,1/2+z
loop_
_atom_site_type_symbol
_atom_site_label
_atom_site_fract_x
_atom_site_fract_y
_atom_site_fract_z
Si Si1 0.807327 0.822587 0.473790
Si Si2 0.610687 0.674930 0.477577
Si Si3 0.247022 0.827799 0.662048
Si Si4 0.892479 0.679266 0.576146
Si Si5 0.113517 0.833088 0.766852
Si Si6 0.384590 0.177344 0.863783
Si Si7 0.885600 0.663378 0.868229
Si Si8 0.884865 0.826060 0.245746
O O1 0.700915 0.774524 0.495999
O O2 0.880151 0.739821 0.514677
O O3 0.828215 0.764336 0.411970
O O4 0.819651 0.000000 0.476635
O O5 0.500000 0.717774 0.493022
O O6 0.624241 0.500000 0.490674
O O7 0.619679 0.705516 0.412533
O O8 0.193689 0.747343 0.612121
O O9 0.167437 0.828105 0.710082
O O10 0.334782 0.744417 0.692199
O O11 0.271722 0.000000 0.648329
O O12 0.885603 0.500000 0.576611
O O13 0.000000 0.721555 0.596701
O O14 0.152479 0.712600 0.809710
O O15 0.000000 0.810454 0.758179
O O16 0.126245 0.000000 0.790884
O O17 0.500000 0.198408 0.872632
O O18 0.364185 0.236549 0.802272
O O19 0.363321 0.000000 0.867137
O O20 0.848820 0.500000 0.887249
O O21 0.000000 0.647515 0.860641
O O22 0.000000 0.820548 0.238745
O O23 0.855829 0.000000 0.251953
#
# Coordination Sequence:
#
# PCOD9375474 Si02
#       8
#     8   8   8   8   8   8   8   8
#     4  12  25  40  64  95 128 169 215 265 322 384
#     4  10  21  38  59  83 118 163 208 256 310 369
#     4  11  23  39  63  92 124 164 209 259 317 379
#     4  11  25  46  70  96 129 167 210 263 318 377
#     4   9  18  32  50  76 113 156 198 240 294 362
#     4  10  21  39  64  94 129 169 214 265 321 383
#     4   9  17  29  47  74 110 151 195 243 294 351
#     4  10  22  41  64  92 129 170 214 267 323 381
#
# _framework density 21.207771999999999
#
# number of rings (size 3 to 8) (size 9 to 14) (size 15 to 20)
#    0.000    1.750    0.000    4.125    1.750    7.750 
#    0.000    1.875    0.000    3.750    0.000    0.000 
#    0.000    0.000    0.000    0.000    0.000    0.000 
#
# Total GULP energy -178658.229701 kJ/mol
# GULP energy per Si atom -5583.069678 kJ/mol
# Density = 2.115950 g / cm^3
# Si number density = 21.207772 Si / 1000 Ang^3
#
#
#
# Elastic Constant Matrix: (Units=GPa)
#
#
# Indices 1 2 3 4 5 6 
#
# 1 94.6785 35.8063 20.0669 0.0000 0.0000 0.0000
# 2 35.8063 90.7363 19.0948 0.0000 0.0000 0.0000
# 3 20.0669 19.0948 65.4670 0.0000 0.0000 0.0000
# 4 0.0000 0.0000 0.0000 32.5942 0.0000 0.0000
# 5 0.0000 0.0000 0.0000 0.0000 29.5703 0.0000
# 6 0.0000 0.0000 0.0000 0.0000 0.0000 27.3418
#
#
#
# Elastic Compliance Matrix: (Units=1/GPa)
#
#
# Indices 1 2 3 4 5 6 
#
# 1 0.012822 -0.004509 -0.002615 0.000000 0.000000 0.000000
# 2 -0.004509 0.013328 -0.002505 0.000000 0.000000 0.000000
# 3 -0.002615 -0.002505 0.016807 0.000000 0.000000 0.000000
# 4 0.000000 0.000000 0.000000 0.030680 0.000000 0.000000
# 5 0.000000 0.000000 0.000000 0.000000 0.033818 0.000000
# 6 0.000000 0.000000 0.000000 0.000000 0.000000 0.036574
#
#
# Mechanical properties :
#
#
# Convention : Reuss Voigt Hill
#
# Bulk Modulus (GPa) = 42.19814 44.53531 43.36672
# Shear Modulus (GPa) = 29.20797 29.62885 29.41841
#
# Velocity S-wave (km/s) = 3.71513 3.74180 3.72849
# Velocity P-wave (km/s) = 6.19222 6.30184 6.24727
#
# Compressibility (1/GPa) = 0.02369773
#
# Stress axis : x y z
#
# Youngs Moduli (GPa) = 77.99294 75.03219 59.49893
#
# Poissons Ratio (x) = 0.33835 0.15558
# Poissons Ratio (y) = 0.35170 0.14905
# Poissons Ratio (z) = 0.20394 0.18796
#
# Static dielectric constant tensor:
#      x y z
#    x 1.824920 0.000000 0.000000 
#    y 0.000000 1.762110 0.000000 
#    z 0.000000 0.000000 1.734170 
# 
# From -- ./inp_files/25793.got.cif
#   From: 2010.05.17/outbox.cif.g08.bks.cpg/sg44_13_cif.got.tgz:25793.got - 2010.06.03 19:37:08.
