data_PCOD9375259
_publ_section_title
;
Structure prediction by ZEFSAII (Michael W. Deem and Ramdas Pophale) SiO2 
 PCOD9375259
Probable space group: I M M 2
;
_chemical_formula_sum "Si O2"
_cell_formula_units_Z 48
_cell_length_a 8.682397
_cell_length_b 15.330824
_cell_length_c 19.497266
_cell_angle_alpha 90.000000
_cell_angle_beta 90.000000
_cell_angle_gamma 90.000000
_cell_volume 2595.247938
_symmetry_space_group_name_H-M "I M M 2"
_symmetry_group_IT_number 44
_symmetry_cell_setting 'orthorhombic'
loop_
_space_group_symop_operation_xyz
x,y,z
-x,-y,z
-x,y,z
x,-y,z
1/2+x,1/2+y,1/2+z
1/2-x,1/2-y,1/2+z
1/2-x,1/2+y,1/2+z
1/2+x,1/2-y,1/2+z
loop_
_atom_site_type_symbol
_atom_site_label
_atom_site_fract_x
_atom_site_fract_y
_atom_site_fract_z
Si Si1 0.315898 0.264443 0.601960
Si Si2 0.812547 0.900804 0.367592
Si Si3 0.183961 0.601802 0.491920
Si Si4 0.684286 0.600881 0.342983
Si Si5 0.813725 0.756778 0.258785
Si Si6 0.685556 0.398488 0.024931
O O1 0.500000 0.271515 0.599018
O O2 0.244451 0.336476 0.551772
O O3 0.265984 0.275181 0.680864
O O4 0.264297 0.169961 0.574709
O O5 0.759860 0.831364 0.311731
O O6 0.768499 0.879278 0.445884
O O7 0.000000 0.900780 0.366809
O O8 0.763155 0.000000 0.352513
O O9 0.224157 0.500000 0.504314
O O10 0.254419 0.626987 0.418269
O O11 0.000000 0.609118 0.487249
O O12 0.500000 0.605450 0.342744
O O13 0.730602 0.500000 0.331755
O O14 0.752113 0.665188 0.286568
O O15 0.000000 0.754949 0.260485
O O16 0.500000 0.389155 0.029388
O O17 0.722112 0.500000 0.038850
#
# Coordination Sequence:
#
# PCOD9375259 Si02
#       6
#     8   8   8   8   8   8
#     4  11  23  35  51  80 115 148 182 223 270 322
#     4   8  15  31  55  78  97 124 169 219 262 308
#     4  10  21  38  60  82 106 142 186 230 277 331
#     4  10  21  37  58  83 109 139 179 229 280 327
#     4  10  21  35  53  79 110 145 180 216 265 323
#     4   9  18  34  57  80 101 134 182 229 272 323
#
# _framework density 18.495342000000001
#
# number of rings (size 3 to 8) (size 9 to 14) (size 15 to 20)
#    0.000    2.333    0.000    3.500    0.000    6.333 
#    0.000    5.000    0.000    1.500    0.000    0.000 
#    0.000    0.000    0.000    0.000    0.000    0.000 
#
# Total GULP energy -133999.732061 kJ/mol
# GULP energy per Si atom -5583.322169 kJ/mol
# Density = 1.845325 g / cm^3
# Si number density = 18.495342 Si / 1000 Ang^3
#
#
#
# Elastic Constant Matrix: (Units=GPa)
#
#
# Indices 1 2 3 4 5 6 
#
# 1 12.0438 4.2389 3.2579 0.0000 0.0000 0.0000
# 2 4.2389 26.0851 -1.9394 0.0000 0.0000 0.0000
# 3 3.2579 -1.9394 24.2390 0.0000 0.0000 0.0000
# 4 0.0000 0.0000 0.0000 -6.0992 0.0000 0.0000
# 5 0.0000 0.0000 0.0000 0.0000 27.8838 0.0000
# 6 0.0000 0.0000 0.0000 0.0000 0.0000 27.0033
#
#
#
# Elastic Compliance Matrix: (Units=1/GPa)
#
#
# Indices 1 2 3 4 5 6 
#
# 1 0.092378 -0.016030 -0.013699 0.000000 0.000000 0.000000
# 2 -0.016030 0.041347 0.005463 0.000000 0.000000 0.000000
# 3 -0.013699 0.005463 0.043534 0.000000 0.000000 0.000000
# 4 0.000000 0.000000 0.000000 -0.163957 0.000000 0.000000
# 5 0.000000 0.000000 0.000000 0.000000 0.035863 0.000000
# 6 0.000000 0.000000 0.000000 0.000000 0.000000 0.037032
#
#
# Mechanical properties :
#
#
# Convention : Reuss Voigt Hill
#
# Bulk Modulus (GPa) = 7.76839 8.16475 7.96657
# Shear Modulus (GPa) = 28.14694 13.54496 20.84595
#
# Velocity S-wave (km/s) = 3.90531 2.70912 3.36086
# Velocity P-wave (km/s) = 4.95425 3.76960 4.40195
#
# Compressibility (1/GPa) = 0.12872680
#
# Stress axis : x y z
#
# Youngs Moduli (GPa) = 10.82507 24.18550 22.97050
#
# Poissons Ratio (x) = 0.38770 0.31467
# Poissons Ratio (y) = 0.17353 -0.12548
# Poissons Ratio (z) = 0.14829 -0.13212
#
# Static dielectric constant tensor:
#      x y z
#    x 1.628540 0.000000 0.000000 
#    y 0.000000 1.633280 0.000000 
#    z 0.000000 0.000000 1.615770 
# 
# From -- ./inp_files/20302.got.cif
#   From: 2010.05.17/outbox.cif.g08.bks.cpg/sg44_11_cif.got.tgz:20302.got - 2010.06.03 19:37:08.
