data_PCOD9375751
_publ_section_title
;
Structure prediction by ZEFSAII (Michael W. Deem and Ramdas Pophale) SiO2 
 PCOD9375751
Probable space group: I M M 2
;
_chemical_formula_sum "Si O2"
_cell_formula_units_Z 56
_cell_length_a 19.111280
_cell_length_b 14.398269
_cell_length_c 9.763679
_cell_angle_alpha 90.000000
_cell_angle_beta 90.000000
_cell_angle_gamma 90.000000
_cell_volume 2686.665208
_symmetry_space_group_name_H-M "I M M 2"
_symmetry_group_IT_number 44
_symmetry_cell_setting 'orthorhombic'
loop_
_space_group_symop_operation_xyz
x,y,z
-x,-y,z
-x,y,z
x,-y,z
1/2+x,1/2+y,1/2+z
1/2-x,1/2-y,1/2+z
1/2-x,1/2+y,1/2+z
1/2+x,1/2-y,1/2+z
loop_
_atom_site_type_symbol
_atom_site_label
_atom_site_fract_x
_atom_site_fract_y
_atom_site_fract_z
Si Si1 0.777657 0.108448 0.126700
Si Si2 0.423284 0.397736 0.774437
Si Si3 0.171980 0.388637 0.863968
Si Si4 0.918040 0.734132 0.708596
Si Si5 0.174530 0.607264 0.175149
Si Si6 0.681943 0.391504 0.328585
Si Si7 0.080811 0.705328 0.404887
O O1 0.858012 0.112206 0.175379
O O2 0.730151 0.146386 0.252388
O O3 0.756039 0.000000 0.113674
O O4 0.782728 0.143291 0.971281
O O5 0.500000 0.391100 0.705676
O O6 0.418206 0.500000 0.838413
O O7 0.419731 0.315804 0.881668
O O8 0.177783 0.500000 0.867417
O O9 0.098836 0.350965 0.808597
O O10 0.176146 0.355759 0.020433
O O11 0.876777 0.822519 0.770074
O O12 0.893005 0.696510 0.559801
O O13 0.000000 0.754649 0.696449
O O14 0.150030 0.500000 0.173934
O O15 0.254267 0.607852 0.223452
O O16 0.127152 0.661093 0.285178
O O17 0.658540 0.500000 0.347851
O O18 0.000000 0.672000 0.394677
#
# Coordination Sequence:
#
# PCOD9375751 Si02
#       7
#     8   8   8   8   8   8   8
#     4   9  19  37  62  91 121 159 205 252 308 367
#     4   9  19  35  58  89 125 166 207 247 297 363
#     4  10  23  42  66  94 123 160 208 263 316 374
#     4  11  26  42  61  92 125 168 214 254 315 377
#     4  10  23  42  66  94 122 161 211 260 318 377
#     4  10  23  41  63  93 128 165 205 256 312 370
#     4  10  23  41  62  91 126 165 211 260 312 372
#
# _framework density 20.843684
#
# number of rings (size 3 to 8) (size 9 to 14) (size 15 to 20)
#    0.000    2.143    0.000    0.857    6.000    4.286 
#    0.000    5.714    0.000    0.000    0.000    0.000 
#    0.000    0.000    0.000    0.000    0.000    0.000 
#
# Total GULP energy -156111.058008 kJ/mol
# GULP energy per Si atom -5575.394929 kJ/mol
# Density = 2.079624 g / cm^3
# Si number density = 20.843684 Si / 1000 Ang^3
#
#
#
# Elastic Constant Matrix: (Units=GPa)
#
#
# Indices 1 2 3 4 5 6 
#
# 1 73.7488 17.9643 52.3292 0.0000 0.0000 0.0000
# 2 17.9643 49.0642 38.7818 0.0000 0.0000 0.0000
# 3 52.3292 38.7818 167.5420 0.0000 0.0000 0.0000
# 4 0.0000 0.0000 0.0000 23.1943 0.0000 0.0000
# 5 0.0000 0.0000 0.0000 0.0000 23.5865 0.0000
# 6 0.0000 0.0000 0.0000 0.0000 0.0000 27.6376
#
#
#
# Elastic Compliance Matrix: (Units=1/GPa)
#
#
# Indices 1 2 3 4 5 6 
#
# 1 0.017683 -0.002581 -0.004926 0.000000 0.000000 0.000000
# 2 -0.002581 0.025322 -0.005055 0.000000 0.000000 0.000000
# 3 -0.004926 -0.005055 0.008677 0.000000 0.000000 0.000000
# 4 0.000000 0.000000 0.000000 0.043114 0.000000 0.000000
# 5 0.000000 0.000000 0.000000 0.000000 0.042397 0.000000
# 6 0.000000 0.000000 0.000000 0.000000 0.000000 0.036183
#
#
# Mechanical properties :
#
#
# Convention : Reuss Voigt Hill
#
# Bulk Modulus (GPa) = 37.65243 56.50062 47.07653
# Shear Modulus (GPa) = 24.11337 26.96900 25.54118
#
# Velocity S-wave (km/s) = 3.40496 3.60094 3.50432
# Velocity P-wave (km/s) = 5.79325 6.66744 6.24566
#
# Compressibility (1/GPa) = 0.02655871
#
# Stress axis : x y z
#
# Youngs Moduli (GPa) = 56.55045 39.49078 115.24354
#
# Poissons Ratio (x) = 0.10193 0.56765
# Poissons Ratio (y) = 0.14597 0.58259
# Poissons Ratio (z) = 0.27855 0.19964
#
# Static dielectric constant tensor:
#      x y z
#    x 1.745010 0.000000 0.000000 
#    y 0.000000 1.795960 0.000000 
#    z 0.000000 0.000000 1.828390 
# 
# From -- ./inp_files/8913.got.cif
#   From: 2010.05.17/outbox.cif.g08.bks.cpg/sg44_5_cif.got.tgz:8913.got - 2010.06.03 19:37:08.
