data_PCOD9375160
_publ_section_title
;
Structure prediction by ZEFSAII (Michael W. Deem and Ramdas Pophale) SiO2 
 PCOD9375160
Probable space group: I M M 2
;
_chemical_formula_sum "Si O2"
_cell_formula_units_Z 64
_cell_length_a 31.545886
_cell_length_b 8.779756
_cell_length_c 12.235074
_cell_angle_alpha 90.000000
_cell_angle_beta 90.000000
_cell_angle_gamma 90.000000
_cell_volume 3388.689496
_symmetry_space_group_name_H-M "I M M 2"
_symmetry_group_IT_number 44
_symmetry_cell_setting 'orthorhombic'
loop_
_space_group_symop_operation_xyz
x,y,z
-x,-y,z
-x,y,z
x,-y,z
1/2+x,1/2+y,1/2+z
1/2-x,1/2-y,1/2+z
1/2-x,1/2+y,1/2+z
1/2+x,1/2-y,1/2+z
loop_
_atom_site_type_symbol
_atom_site_label
_atom_site_fract_x
_atom_site_fract_y
_atom_site_fract_z
Si Si1 0.452482 0.817936 0.671240
Si Si2 0.375127 0.682719 0.532623
Si Si3 0.375636 0.315796 0.278537
Si Si4 0.296482 0.314657 0.132679
Si Si5 0.547314 0.182122 0.138967
Si Si6 0.567585 0.678471 0.905194
Si Si7 0.200376 0.681781 0.173592
Si Si8 0.330697 0.320980 0.896878
O O1 0.500000 0.781024 0.630935
O O2 0.415578 0.745631 0.598328
O O3 0.448349 0.757065 0.794873
O O4 0.447471 0.000000 0.671738
O O5 0.375424 0.500000 0.539336
O O6 0.376606 0.728586 0.405521
O O7 0.332628 0.743528 0.589900
O O8 0.377060 0.500000 0.272816
O O9 0.332157 0.264956 0.219222
O O10 0.415674 0.252351 0.212465
O O11 0.296681 0.500000 0.135062
O O12 0.248723 0.264943 0.156792
O O13 0.310740 0.269442 0.011257
O O14 0.500000 0.220965 0.179921
O O15 0.551537 0.000000 0.137479
O O16 0.551510 0.244245 0.015694
O O17 0.556198 0.500000 0.904617
O O18 0.618629 0.690050 0.905103
O O19 0.198883 0.500000 0.159806
O O20 0.185663 0.726513 0.294696
O O21 0.320362 0.500000 0.879970
#
# Coordination Sequence:
#
# PCOD9375160 Si02
#       8
#     8   8   8   8   8   8   8   8
#     4  11  24  41  62  88 121 159 199 249 306 361
#     4  11  24  41  63  88 120 160 203 252 301 358
#     4  10  22  43  65  85 116 160 207 252 298 354
#     4   9  20  40  62  87 120 157 196 245 300 352
#     4  11  24  40  60  90 126 159 196 247 305 362
#     4  11  21  37  64  92 123 160 199 246 298 356
#     4  11  23  38  62  91 123 160 198 245 302 360
#     4  10  20  38  63  88 121 158 198 248 298 351
#
# _framework density 18.886357
#
# number of rings (size 3 to 8) (size 9 to 14) (size 15 to 20)
#    0.000    1.500    2.500    2.250    1.750    5.500 
#    0.000    4.375    0.000    0.000    0.000    0.000 
#    0.000    0.000    0.000    0.000    0.000    0.000 
#
# Total GULP energy -178850.325096 kJ/mol
# GULP energy per Si atom -5589.072659 kJ/mol
# Density = 1.884337 g / cm^3
# Si number density = 18.886357 Si / 1000 Ang^3
#
#
#
# Elastic Constant Matrix: (Units=GPa)
#
#
# Indices 1 2 3 4 5 6 
#
# 1 172.0103 47.1741 90.4135 0.0000 0.0000 0.0000
# 2 47.1741 41.9701 38.8196 0.0000 0.0000 0.0000
# 3 90.4135 38.8196 153.1783 0.0000 0.0000 0.0000
# 4 0.0000 0.0000 0.0000 14.7089 0.0000 0.0000
# 5 0.0000 0.0000 0.0000 0.0000 35.1860 0.0000
# 6 0.0000 0.0000 0.0000 0.0000 0.0000 22.9076
#
#
#
# Elastic Compliance Matrix: (Units=1/GPa)
#
#
# Indices 1 2 3 4 5 6 
#
# 1 0.009968 -0.007526 -0.003976 0.000000 0.000000 0.000000
# 2 -0.007526 0.036804 -0.004885 0.000000 0.000000 0.000000
# 3 -0.003976 -0.004885 0.010113 0.000000 0.000000 0.000000
# 4 0.000000 0.000000 0.000000 0.067986 0.000000 0.000000
# 5 0.000000 0.000000 0.000000 0.000000 0.028420 0.000000
# 6 0.000000 0.000000 0.000000 0.000000 0.000000 0.043654
#
#
# Mechanical properties :
#
#
# Convention : Reuss Voigt Hill
#
# Bulk Modulus (GPa) = 41.47526 79.99701 60.73614
# Shear Modulus (GPa) = 21.03002 27.27726 24.15364
#
# Velocity S-wave (km/s) = 3.34054 3.80450 3.58004
# Velocity P-wave (km/s) = 6.07347 7.85798 7.02264
#
# Compressibility (1/GPa) = 0.02411076
#
# Stress axis : x y z
#
# Youngs Moduli (GPa) = 100.32593 27.17113 98.88054
#
# Poissons Ratio (x) = 0.20448 0.39316
# Poissons Ratio (y) = 0.75503 0.48303
# Poissons Ratio (z) = 0.39890 0.13273
#
# Static dielectric constant tensor:
#      x y z
#    x 1.649750 0.000000 0.000000 
#    y 0.000000 1.636810 0.000000 
#    z 0.000000 0.000000 1.620120 
# 
# From -- ./inp_files/15028.got.cif
#   From: 2010.05.17/outbox.cif.g08.bks.cpg/sg44_8_cif.got.tgz:15028.got - 2010.06.03 19:37:08.
