data_PCOD9375025
_publ_section_title
;
Structure prediction by ZEFSAII (Michael W. Deem and Ramdas Pophale) SiO2 
 PCOD9375025
Probable space group: I M M 2
;
_chemical_formula_sum "Si O2"
_cell_formula_units_Z 40
_cell_length_a 9.182720
_cell_length_b 8.059608
_cell_length_c 29.595153
_cell_angle_alpha 90.000000
_cell_angle_beta 90.000000
_cell_angle_gamma 90.000000
_cell_volume 2190.311336
_symmetry_space_group_name_H-M "I M M 2"
_symmetry_group_IT_number 44
_symmetry_cell_setting 'orthorhombic'
loop_
_space_group_symop_operation_xyz
x,y,z
-x,-y,z
-x,y,z
x,-y,z
1/2+x,1/2+y,1/2+z
1/2-x,1/2-y,1/2+z
1/2-x,1/2+y,1/2+z
1/2+x,1/2-y,1/2+z
loop_
_atom_site_type_symbol
_atom_site_label
_atom_site_fract_x
_atom_site_fract_y
_atom_site_fract_z
Si Si1 0.325311 0.000000 0.971441
Si Si2 0.174212 0.194693 0.404952
Si Si3 0.325630 0.500000 0.567929
Si Si4 0.834417 0.311292 0.641222
Si Si5 0.336824 0.806365 0.725964
Si Si6 0.163225 0.302258 0.813521
O O1 0.292531 0.832453 0.942941
O O2 0.500000 0.000000 0.980855
O O3 0.235362 0.000000 0.017591
O O4 0.251808 0.249822 0.358616
O O5 0.000000 0.197507 0.398009
O O6 0.212928 0.000000 0.415366
O O7 0.500000 0.500000 0.570383
O O8 0.256751 0.656915 0.595434
O O9 0.844344 0.500000 0.660094
O O10 0.748460 0.213120 0.679021
O O11 0.000000 0.253264 0.633098
O O12 0.500000 0.734702 0.722024
O O13 0.249467 0.732019 0.767745
O O14 0.348440 0.000000 0.735744
O O15 0.152363 0.500000 0.817466
O O16 0.000000 0.231505 0.811474
#
# Coordination Sequence:
#
# PCOD9375025 Si02
#       6
#     4   8   4   8   8   8
#     4  10  20  36  60  86 114 150 194 244 293 352
#     4   9  19  36  57  82 114 151 192 240 292 344
#     4  10  20  36  60  86 110 144 188 232 287 348
#     4   9  19  36  58  80 105 139 183 232 278 334
#     4  11  23  35  51  79 114 150 190 234 284 342
#     4  10  21  36  54  78 110 149 191 235 285 343
#
# _framework density 18.262245
#
# number of rings (size 3 to 8) (size 9 to 14) (size 15 to 20)
#    0.600    1.600    0.000    3.000    1.400    6.000 
#    0.000    1.000    0.000    3.600    0.000    0.000 
#    0.000    0.000    0.000    0.000    0.000    0.000 
#
# Total GULP energy -111409.471634 kJ/mol
# GULP energy per Si atom -5570.473582 kJ/mol
# Density = 1.822068 g / cm^3
# Si number density = 18.262245 Si / 1000 Ang^3
#
#
#
# Elastic Constant Matrix: (Units=GPa)
#
#
# Indices 1 2 3 4 5 6 
#
# 1 135.8973 27.9541 95.8524 0.0000 0.0000 0.0000
# 2 27.9541 39.7742 32.7970 0.0000 0.0000 0.0000
# 3 95.8524 32.7970 156.3176 0.0000 0.0000 0.0000
# 4 0.0000 0.0000 0.0000 -20.1868 0.0000 0.0000
# 5 0.0000 0.0000 0.0000 0.0000 34.1227 0.0000
# 6 0.0000 0.0000 0.0000 0.0000 0.0000 14.6921
#
#
#
# Elastic Compliance Matrix: (Units=1/GPa)
#
#
# Indices 1 2 3 4 5 6 
#
# 1 0.013289 -0.003169 -0.007484 0.000000 0.000000 0.000000
# 2 -0.003169 0.031157 -0.004594 0.000000 0.000000 0.000000
# 3 -0.007484 -0.004594 0.011950 0.000000 0.000000 0.000000
# 4 0.000000 0.000000 0.000000 -0.049537 0.000000 0.000000
# 5 0.000000 0.000000 0.000000 0.000000 0.029306 0.000000
# 6 0.000000 0.000000 0.000000 0.000000 0.000000 0.068064
#
#
# Mechanical properties :
#
#
# Convention : Reuss Voigt Hill
#
# Bulk Modulus (GPa) = 38.60555 71.68845 55.14700
# Shear Modulus (GPa) = 34.87829 17.41798 26.14814
#
# Velocity S-wave (km/s) = 4.37493 3.09167 3.78804
# Velocity P-wave (km/s) = 6.83414 7.21698 7.02817
#
# Compressibility (1/GPa) = 0.02590301
#
# Stress axis : x y z
#
# Youngs Moduli (GPa) = 75.25128 32.09538 83.68152
#
# Poissons Ratio (x) = 0.10170 0.62625
# Poissons Ratio (y) = 0.23845 0.38444
# Poissons Ratio (z) = 0.56316 0.14745
#
# Static dielectric constant tensor:
#      x y z
#    x 1.667870 0.000000 0.000000 
#    y 0.000000 1.639300 0.000000 
#    z 0.000000 0.000000 1.585210 
# 
# From -- ./inp_files/25948.got.cif
#   From: 2010.05.17/outbox.cif.g08.bks.cpg/sg44_13_cif.got.tgz:25948.got - 2010.06.03 19:37:08.
