data_PCOD9375105
_publ_section_title
;
Structure prediction by ZEFSAII (Michael W. Deem and Ramdas Pophale) SiO2 
 PCOD9375105
Probable space group: I M M 2
;
_chemical_formula_sum "Si O2"
_cell_formula_units_Z 64
_cell_length_a 19.629863
_cell_length_b 14.099751
_cell_length_c 11.116482
_cell_angle_alpha 90.000000
_cell_angle_beta 90.000000
_cell_angle_gamma 90.000000
_cell_volume 3076.777428
_symmetry_space_group_name_H-M "I M M 2"
_symmetry_group_IT_number 44
_symmetry_cell_setting 'orthorhombic'
loop_
_space_group_symop_operation_xyz
x,y,z
-x,-y,z
-x,y,z
x,-y,z
1/2+x,1/2+y,1/2+z
1/2-x,1/2-y,1/2+z
1/2-x,1/2+y,1/2+z
1/2+x,1/2-y,1/2+z
loop_
_atom_site_type_symbol
_atom_site_label
_atom_site_fract_x
_atom_site_fract_y
_atom_site_fract_z
Si Si1 0.737186 0.394203 0.909560
Si Si2 0.690278 0.106132 0.163476
Si Si3 0.893995 0.391409 0.988472
Si Si4 0.296774 0.188499 0.913147
Si Si5 0.343121 0.389608 0.364238
Si Si6 0.574902 0.764843 0.260227
Si Si7 0.419688 0.607563 0.616743
Si Si8 0.921909 0.698071 0.246449
O O1 0.709229 0.500000 0.932504
O O2 0.752500 0.384315 0.766208
O O3 0.698908 0.299460 0.948226
O O4 0.812143 0.389162 0.970529
O O5 0.630401 0.179864 0.184121
O O6 0.663021 0.000000 0.179634
O O7 0.714171 0.123298 0.029280
O O8 0.915627 0.500000 0.966992
O O9 0.913968 0.357772 0.120731
O O10 0.922884 0.319591 0.889080
O O11 0.226051 0.169726 0.843231
O O12 0.363928 0.164563 0.838097
O O13 0.331920 0.500000 0.340746
O O14 0.400521 0.341576 0.282617
O O15 0.371980 0.378921 0.500442
O O16 0.500000 0.770265 0.208804
O O17 0.500000 0.614286 0.580093
O O18 0.408606 0.500000 0.662287
O O19 0.408730 0.691545 0.711483
O O20 0.000000 0.688291 0.288986
#
# Coordination Sequence:
#
# PCOD9375105 Si02
#       8
#     8   8   8   8   8   8   8   8
#     4   9  20  38  65  93 120 157 207 262 312 358
#     4  10  23  42  60  87 123 166 215 255 300 363
#     4  10  20  37  60  88 121 156 203 258 312 361
#     4  12  24  40  63  87 127 168 206 252 308 374
#     4  11  22  36  60  94 125 157 199 255 319 376
#     4  11  21  38  64  92 124 160 205 261 313 363
#     4   9  18  35  61  92 124 157 197 250 311 371
#     4  11  24  39  58  89 126 164 204 253 311 371
#
# _framework density 20.800984
#
# number of rings (size 3 to 8) (size 9 to 14) (size 15 to 20)
#    0.000    1.625    3.750    2.250    3.500    4.500 
#    0.000    1.875    0.000    0.000    0.000    1.750 
#    0.000    0.000    0.000    0.000    0.000    0.000 
#
# Total GULP energy -178758.198762 kJ/mol
# GULP energy per Si atom -5586.193711 kJ/mol
# Density = 2.075364 g / cm^3
# Si number density = 20.800984 Si / 1000 Ang^3
#
#
#
# Elastic Constant Matrix: (Units=GPa)
#
#
# Indices 1 2 3 4 5 6 
#
# 1 73.0966 3.7283 12.6379 0.0000 0.0000 0.0000
# 2 3.7283 94.2644 5.1629 0.0000 0.0000 0.0000
# 3 12.6379 5.1629 20.0894 0.0000 0.0000 0.0000
# 4 0.0000 0.0000 0.0000 14.3668 0.0000 0.0000
# 5 0.0000 0.0000 0.0000 0.0000 8.6883 0.0000
# 6 0.0000 0.0000 0.0000 0.0000 0.0000 15.9546
#
#
#
# Elastic Compliance Matrix: (Units=1/GPa)
#
#
# Indices 1 2 3 4 5 6 
#
# 1 0.015351 -0.000079 -0.009636 0.000000 0.000000 0.000000
# 2 -0.000079 0.010760 -0.002715 0.000000 0.000000 0.000000
# 3 -0.009636 -0.002715 0.056537 0.000000 0.000000 0.000000
# 4 0.000000 0.000000 0.000000 0.069605 0.000000 0.000000
# 5 0.000000 0.000000 0.000000 0.000000 0.115097 0.000000
# 6 0.000000 0.000000 0.000000 0.000000 0.000000 0.062678
#
#
# Mechanical properties :
#
#
# Convention : Reuss Voigt Hill
#
# Bulk Modulus (GPa) = 17.30526 25.61210 21.45868
# Shear Modulus (GPa) = 13.36352 18.86337 16.11345
#
# Velocity S-wave (km/s) = 2.53740 3.01466 2.78627
# Velocity P-wave (km/s) = 4.11364 4.94543 4.54859
#
# Compressibility (1/GPa) = 0.05778589
#
# Stress axis : x y z
#
# Youngs Moduli (GPa) = 65.14384 92.93401 17.68740
#
# Poissons Ratio (x) = 0.00737 0.17044
# Poissons Ratio (y) = 0.00517 0.04803
# Poissons Ratio (z) = 0.62776 0.25236
#
# Static dielectric constant tensor:
#      x y z
#    x 1.751640 0.000000 0.000000 
#    y 0.000000 1.743120 0.000000 
#    z 0.000000 0.000000 1.742260 
# 
# From -- ./inp_files/13994.got.cif
#   From: 2010.05.17/outbox.cif.g08.bks.cpg/sg44_7_cif.got.tgz:13994.got - 2010.06.03 19:37:08.
