data_PCOD9375547
_publ_section_title
;
Structure prediction by ZEFSAII (Michael W. Deem and Ramdas Pophale) SiO2 
 PCOD9375547
Probable space group: I M M 2
;
_chemical_formula_sum "Si O2"
_cell_formula_units_Z 48
_cell_length_a 8.327367
_cell_length_b 23.720041
_cell_length_c 11.755703
_cell_angle_alpha 90.000000
_cell_angle_beta 90.000000
_cell_angle_gamma 90.000000
_cell_volume 2322.050956
_symmetry_space_group_name_H-M "I M M 2"
_symmetry_group_IT_number 44
_symmetry_cell_setting 'orthorhombic'
loop_
_space_group_symop_operation_xyz
x,y,z
-x,-y,z
-x,y,z
x,-y,z
1/2+x,1/2+y,1/2+z
1/2-x,1/2-y,1/2+z
1/2-x,1/2+y,1/2+z
1/2+x,1/2-y,1/2+z
loop_
_atom_site_type_symbol
_atom_site_label
_atom_site_fract_x
_atom_site_fract_y
_atom_site_fract_z
Si Si1 0.194083 0.857609 0.456000
Si Si2 0.688733 0.654620 0.577365
Si Si3 0.306021 0.565502 0.168605
Si Si4 0.805174 0.937602 0.248425
Si Si5 0.685496 0.154426 0.830651
Si Si6 0.313833 0.227403 0.283184
O O1 0.246491 0.889471 0.570961
O O2 0.243326 0.900687 0.355932
O O3 0.259906 0.798626 0.405747
O O4 0.000000 0.852473 0.459903
O O5 0.500000 0.655570 0.547274
O O6 0.733624 0.594984 0.633835
O O7 0.790474 0.662020 0.464944
O O8 0.717902 0.698324 0.680110
O O9 0.500000 0.564310 0.165059
O O10 0.252958 0.500000 0.152988
O O11 0.248761 0.594602 0.284914
O O12 0.000000 0.939699 0.253820
O O13 0.740166 0.000000 0.253885
O O14 0.500000 0.160732 0.800000
O O15 0.784596 0.206128 0.777774
O O16 0.500000 0.214283 0.267712
#
# Coordination Sequence:
#
# PCOD9375547 Si02
#       6
#     8   8   8   8   8   8
#     4   9  18  35  61  92 124 158 203 255 306 362
#     4  10  21  39  61  88 119 153 201 254 309 372
#     4  10  22  41  65  93 127 169 215 259 310 376
#     4   8  14  28  55  88 117 148 188 238 293 350
#     4  12  26  42  61  86 122 166 209 258 314 374
#     4  11  23  40  63  90 122 159 204 257 318 379
#
# _framework density 20.671381
#
# number of rings (size 3 to 8) (size 9 to 14) (size 15 to 20)
#    0.000    2.000    0.000    5.000    2.333    3.667 
#    0.000    1.667    0.000   16.000    0.000    0.000 
#    0.000    0.000    0.000    0.000    0.000    0.000 
#
# Total GULP energy -133920.958380 kJ/mol
# GULP energy per Si atom -5580.039933 kJ/mol
# Density = 2.062433 g / cm^3
# Si number density = 20.671381 Si / 1000 Ang^3
#
#
#
# Elastic Constant Matrix: (Units=GPa)
#
#
# Indices 1 2 3 4 5 6 
#
# 1 34.8886 5.7250 -0.9951 0.0000 0.0000 0.0000
# 2 5.7250 88.2412 15.2900 0.0000 0.0000 0.0000
# 3 -0.9951 15.2900 59.8849 -0.0002 0.0000 0.0001
# 4 0.0000 0.0000 -0.0002 15.3710 0.0000 0.0000
# 5 0.0000 0.0000 0.0000 0.0000 26.2409 0.0000
# 6 0.0000 0.0000 0.0001 0.0000 0.0000 18.1592
#
#
#
# Elastic Compliance Matrix: (Units=1/GPa)
#
#
# Indices 1 2 3 4 5 6 
#
# 1 0.029029 -0.002058 0.001008 0.000000 0.000000 0.000000
# 2 -0.002058 0.012003 -0.003099 0.000000 0.000000 0.000000
# 3 0.001008 -0.003099 0.017507 0.000000 0.000000 0.000000
# 4 0.000000 0.000000 0.000000 0.065058 0.000000 0.000000
# 5 0.000000 0.000000 0.000000 0.000000 0.038108 0.000000
# 6 0.000000 0.000000 0.000000 0.000000 0.000000 0.055069
#
#
# Mechanical properties :
#
#
# Convention : Reuss Voigt Hill
#
# Bulk Modulus (GPa) = 19.90415 24.78383 22.34399
# Shear Modulus (GPa) = 20.67668 22.82054 21.74861
#
# Velocity S-wave (km/s) = 3.16611 3.32621 3.24715
# Velocity P-wave (km/s) = 4.79744 5.17368 4.98911
#
# Compressibility (1/GPa) = 0.05024077
#
# Stress axis : x y z
#
# Youngs Moduli (GPa) = 34.44818 83.31213 57.12115
#
# Poissons Ratio (x) = 0.17146 -0.05757
# Poissons Ratio (y) = 0.07089 0.17701
# Poissons Ratio (z) = -0.03472 0.25817
#
# Static dielectric constant tensor:
#      x y z
#    x 1.712760 0.000000 0.000000 
#    y 0.000000 1.750530 0.000000 
#    z 0.000000 0.000000 1.735910 
# 
# From -- ./inp_files/11158.got.cif
#   From: 2010.05.17/outbox.cif.g08.bks.cpg/sg44_6_cif.got.tgz:11158.got - 2010.06.03 19:37:08.
