data_PCOD9375316
_publ_section_title
;
Structure prediction by ZEFSAII (Michael W. Deem and Ramdas Pophale) SiO2 
 PCOD9375316
Probable space group: I M M 2
;
_chemical_formula_sum "Si O2"
_cell_formula_units_Z 40
_cell_length_a 18.155965
_cell_length_b 7.594191
_cell_length_c 13.310784
_cell_angle_alpha 90.000000
_cell_angle_beta 90.000000
_cell_angle_gamma 90.000000
_cell_volume 1835.289114
_symmetry_space_group_name_H-M "I M M 2"
_symmetry_group_IT_number 44
_symmetry_cell_setting 'orthorhombic'
loop_
_space_group_symop_operation_xyz
x,y,z
-x,-y,z
-x,y,z
x,-y,z
1/2+x,1/2+y,1/2+z
1/2-x,1/2-y,1/2+z
1/2-x,1/2+y,1/2+z
1/2+x,1/2-y,1/2+z
loop_
_atom_site_type_symbol
_atom_site_label
_atom_site_fract_x
_atom_site_fract_y
_atom_site_fract_z
Si Si1 0.171603 0.715415 0.535610
Si Si2 0.917964 0.210802 0.936460
Si Si3 0.670245 0.712852 0.626287
Si Si4 0.417948 0.789197 0.226293
Si Si5 0.586619 0.209769 0.834767
O O1 0.174932 0.500000 0.529751
O O2 0.250499 0.771100 0.581951
O O3 0.117369 0.771809 0.624235
O O4 0.136091 0.775306 0.429706
O O5 0.877760 0.248624 0.831247
O O6 0.000000 0.284991 0.928528
O O7 0.921353 0.000000 0.944361
O O8 0.883369 0.276257 0.038220
O O9 0.673230 0.500000 0.628175
O O10 0.634483 0.762274 0.733219
O O11 0.500000 0.714384 0.232917
O O12 0.421475 0.000000 0.220059
O O13 0.500000 0.275051 0.829827
O O14 0.580060 0.000000 0.848473
#
# Coordination Sequence:
#
# PCOD9375316 Si02
#       5
#     8   8   8   8   8
#     4   9  19  35  55  79 109 143 179 221 273 326
#     4   9  18  32  50  73 103 138 172 210 262 321
#     4  10  21  36  55  79 110 146 182 222 272 327
#     4   9  17  31  53  77 101 133 174 218 263 316
#     4  10  21  38  60  84 111 146 188 231 275 328
#
# _framework density 21.794930000000001
#
# number of rings (size 3 to 8) (size 9 to 14) (size 15 to 20)
#    0.000    2.600    0.000    1.200    2.800    4.400 
#    0.000    4.000    0.000    2.400    0.000    0.000 
#    0.000    0.000    0.000    0.000    0.000    0.000 
#
# Total GULP energy -111348.367674 kJ/mol
# GULP energy per Si atom -5567.418384 kJ/mol
# Density = 2.174532 g / cm^3
# Si number density = 21.794930 Si / 1000 Ang^3
#
#
#
# Elastic Constant Matrix: (Units=GPa)
#
#
# Indices 1 2 3 4 5 6 
#
# 1 134.1272 4.5806 110.5087 0.0000 0.0000 0.0000
# 2 4.5806 47.3250 -1.5011 0.0000 0.0000 0.0000
# 3 110.5087 -1.5011 267.2276 0.0000 0.0000 0.0000
# 4 0.0000 0.0000 0.0000 28.9005 0.0000 0.0000
# 5 0.0000 0.0000 0.0000 0.0000 27.9888 0.0000
# 6 0.0000 0.0000 0.0000 0.0000 0.0000 16.3654
#
#
#
# Elastic Compliance Matrix: (Units=1/GPa)
#
#
# Indices 1 2 3 4 5 6 
#
# 1 0.011382 -0.001251 -0.004714 0.000000 0.000000 0.000000
# 2 -0.001251 0.021272 0.000637 0.000000 0.000000 0.000000
# 3 -0.004714 0.000637 0.005695 0.000000 0.000000 0.000000
# 4 0.000000 0.000000 0.000000 0.034601 0.000000 0.000000
# 5 0.000000 0.000000 0.000000 0.000000 0.035729 0.000000
# 6 0.000000 0.000000 0.000000 0.000000 0.000000 0.061105
#
#
# Mechanical properties :
#
#
# Convention : Reuss Voigt Hill
#
# Bulk Modulus (GPa) = 36.11084 75.09516 55.60300
# Shear Modulus (GPa) = 26.36138 36.99037 31.67588
#
# Velocity S-wave (km/s) = 3.48159 4.12418 3.81643
# Velocity P-wave (km/s) = 5.72419 7.56364 6.70727
#
# Compressibility (1/GPa) = 0.02769251
#
# Stress axis : x y z
#
# Youngs Moduli (GPa) = 87.85592 47.01066 175.58843
#
# Poissons Ratio (x) = 0.05882 0.82773
# Poissons Ratio (y) = 0.10993 -0.11183
# Poissons Ratio (z) = 0.41416 -0.02994
#
# Static dielectric constant tensor:
#      x y z
#    x 1.954640 0.000000 0.000000 
#    y 0.000000 1.818200 0.000000 
#    z 0.000000 0.000000 1.831080 
# 
# From -- ./inp_files/5631.got.cif
#   From: 2010.05.17/outbox.cif.g08.bks.cpg/sg44_3_cif.got.tgz:5631.got - 2010.06.03 19:37:08.
