data_PCOD9375349
_publ_section_title
;
Structure prediction by ZEFSAII (Michael W. Deem and Ramdas Pophale) SiO2 
 PCOD9375349
Probable space group: I M M 2
;
_chemical_formula_sum "Si O2"
_cell_formula_units_Z 64
_cell_length_a 15.603970
_cell_length_b 9.043299
_cell_length_c 23.428428
_cell_angle_alpha 90.000000
_cell_angle_beta 90.000000
_cell_angle_gamma 90.000000
_cell_volume 3306.017485
_symmetry_space_group_name_H-M "I M M 2"
_symmetry_group_IT_number 44
_symmetry_cell_setting 'orthorhombic'
loop_
_space_group_symop_operation_xyz
x,y,z
-x,-y,z
-x,y,z
x,-y,z
1/2+x,1/2+y,1/2+z
1/2-x,1/2-y,1/2+z
1/2-x,1/2+y,1/2+z
1/2+x,1/2-y,1/2+z
loop_
_atom_site_type_symbol
_atom_site_label
_atom_site_fract_x
_atom_site_fract_y
_atom_site_fract_z
Si Si1 0.231108 0.175441 0.079100
Si Si2 0.599750 0.166198 0.353581
Si Si3 0.907309 0.821929 0.544361
Si Si4 0.900459 0.323144 0.297085
Si Si5 0.398556 0.674781 0.240380
Si Si6 0.826495 0.671788 0.968481
Si Si7 0.135877 0.828047 0.417517
Si Si8 0.772400 0.823493 0.205839
O O1 0.325281 0.246765 0.071805
O O2 0.195216 0.210264 0.141750
O O3 0.239282 0.000000 0.074352
O O4 0.176798 0.236943 0.026189
O O5 0.500000 0.147859 0.343167
O O6 0.626521 0.281589 0.305600
O O7 0.610641 0.218238 0.418190
O O8 0.639859 0.000000 0.347505
O O9 0.908359 0.782961 0.476955
O O10 0.000000 0.784108 0.569950
O O11 0.896466 0.000000 0.547278
O O12 0.890324 0.500000 0.295619
O O13 0.883865 0.264923 0.361448
O O14 0.832730 0.250078 0.253552
O O15 0.000000 0.287584 0.282481
O O16 0.500000 0.711310 0.230097
O O17 0.389655 0.500000 0.230748
O O18 0.325576 0.763920 0.207056
O O19 0.841691 0.500000 0.982812
O O20 0.735114 0.680982 0.936056
O O21 0.114593 0.000000 0.405911
O O22 0.771351 0.000000 0.214490
#
# Coordination Sequence:
#
# PCOD9375349 Si02
#       8
#     8   8   8   8   8   8   8   8
#     4  10  22  37  53  75 101 134 180 227 268 312
#     4   9  17  31  53  81 111 141 174 213 261 323
#     4   9  18  33  54  80 109 141 173 205 252 318
#     4  11  24  39  57  84 113 142 182 233 285 331
#     4  10  21  36  57  87 118 147 181 224 276 329
#     4   9  18  33  53  77 106 141 177 213 261 320
#     4   9  17  31  53  80 110 144 178 212 259 324
#     4  11  24  41  59  78 106 149 194 232 274 327
#
# _framework density 19.358639
#
# number of rings (size 3 to 8) (size 9 to 14) (size 15 to 20)
#    0.000    2.250    0.000    3.375    0.000    8.500 
#    0.000    3.125    0.000    2.250    0.000    0.000 
#    0.000    0.000    0.000    0.000    0.000    0.000 
#
# Total GULP energy -178409.553750 kJ/mol
# GULP energy per Si atom -5575.298555 kJ/mol
# Density = 1.931458 g / cm^3
# Si number density = 19.358639 Si / 1000 Ang^3
#
#
#
# Elastic Constant Matrix: (Units=GPa)
#
#
# Indices 1 2 3 4 5 6 
#
# 1 31.7734 20.1872 23.0610 0.0000 0.0000 0.0000
# 2 20.1872 46.6984 40.3876 0.0000 0.0000 0.0000
# 3 23.0610 40.3876 98.1167 0.0000 0.0000 0.0000
# 4 0.0000 0.0000 0.0000 27.5824 0.0000 0.0000
# 5 0.0000 0.0000 0.0000 0.0000 9.4372 0.0000
# 6 0.0000 0.0000 0.0000 0.0000 0.0000 13.0930
#
#
#
# Elastic Compliance Matrix: (Units=1/GPa)
#
#
# Indices 1 2 3 4 5 6 
#
# 1 0.044346 -0.015770 -0.003931 0.000000 0.000000 0.000000
# 2 -0.015770 0.038860 -0.012289 0.000000 0.000000 0.000000
# 3 -0.003931 -0.012289 0.016175 0.000000 0.000000 0.000000
# 4 0.000000 0.000000 0.000000 0.036255 0.000000 0.000000
# 5 0.000000 0.000000 0.000000 0.000000 0.105963 0.000000
# 6 0.000000 0.000000 0.000000 0.000000 0.000000 0.076376
#
#
# Mechanical properties :
#
#
# Convention : Reuss Voigt Hill
#
# Bulk Modulus (GPa) = 28.24970 38.20670 33.22820
# Shear Modulus (GPa) = 12.69822 16.21937 14.45880
#
# Velocity S-wave (km/s) = 2.56392 2.89768 2.73590
# Velocity P-wave (km/s) = 4.83626 5.56547 5.21363
#
# Compressibility (1/GPa) = 0.03539860
#
# Stress axis : x y z
#
# Youngs Moduli (GPa) = 22.55002 25.73359 61.82538
#
# Poissons Ratio (x) = 0.40582 0.24307
# Poissons Ratio (y) = 0.35562 0.75979
# Poissons Ratio (z) = 0.08866 0.31625
#
# Static dielectric constant tensor:
#      x y z
#    x 1.759890 0.000000 0.000000 
#    y 0.000000 1.663020 0.000000 
#    z 0.000000 0.000000 1.690340 
# 
# From -- ./inp_files/24363.got.cif
#   From: 2010.05.17/outbox.cif.g08.bks.cpg/sg44_13_cif.got.tgz:24363.got - 2010.06.03 19:37:08.
