data_PCOD9375357
_publ_section_title
;
Structure prediction by ZEFSAII (Michael W. Deem and Ramdas Pophale) SiO2 
 PCOD9375357
Probable space group: I M M 2
;
_chemical_formula_sum "Si O2"
_cell_formula_units_Z 64
_cell_length_a 26.044885
_cell_length_b 7.980701
_cell_length_c 15.438200
_cell_angle_alpha 90.000000
_cell_angle_beta 90.000000
_cell_angle_gamma 90.000000
_cell_volume 3208.929288
_symmetry_space_group_name_H-M "I M M 2"
_symmetry_group_IT_number 44
_symmetry_cell_setting 'orthorhombic'
loop_
_space_group_symop_operation_xyz
x,y,z
-x,-y,z
-x,y,z
x,-y,z
1/2+x,1/2+y,1/2+z
1/2-x,1/2-y,1/2+z
1/2-x,1/2+y,1/2+z
1/2+x,1/2-y,1/2+z
loop_
_atom_site_type_symbol
_atom_site_label
_atom_site_fract_x
_atom_site_fract_y
_atom_site_fract_z
Si Si1 0.736633 0.691542 0.468870
Si Si2 0.558614 0.795176 0.438568
Si Si3 0.332752 0.297189 0.759722
Si Si4 0.719653 0.806211 0.279311
Si Si5 0.651509 0.699607 0.955460
Si Si6 0.606480 0.205511 0.255087
Si Si7 0.857659 0.301106 0.077136
Si Si8 0.942584 0.297740 0.575426
O O1 0.732818 0.500000 0.440529
O O2 0.722153 0.799791 0.384221
O O3 0.795443 0.727753 0.493782
O O4 0.695708 0.723921 0.543597
O O5 0.500000 0.739739 0.449382
O O6 0.581245 0.742498 0.345677
O O7 0.596617 0.740147 0.514973
O O8 0.558347 0.000000 0.438788
O O9 0.331406 0.500000 0.759870
O O10 0.273981 0.232654 0.749448
O O11 0.351170 0.243411 0.854970
O O12 0.364939 0.239514 0.677699
O O13 0.665355 0.733291 0.250173
O O14 0.719600 0.000000 0.251363
O O15 0.657295 0.500000 0.955210
O O16 0.601335 0.746090 0.008653
O O17 0.574410 0.257748 0.171483
O O18 0.607670 0.000000 0.256302
O O19 0.853672 0.500000 0.066234
O O20 0.943757 0.500000 0.576738
O O21 0.000000 0.237541 0.554408
#
# Coordination Sequence:
#
# PCOD9375357 Si02
#       8
#     8   8   8   8   8   8   8   8
#     4  11  21  34  55  82 114 149 186 230 284 342
#     4   9  17  31  54  82 111 146 186 227 272 326
#     4   9  20  36  55  79 111 147 188 237 288 343
#     4   9  17  33  54  80 113 148 187 228 276 334
#     4  10  22  41  61  81 110 150 194 241 295 347
#     4   9  16  30  54  83 116 150 185 226 277 335
#     4  11  21  34  55  84 116 148 188 235 281 338
#     4  10  21  36  58  89 118 150 197 245 287 337
#
# _framework density 19.944348000000002
#
# number of rings (size 3 to 8) (size 9 to 14) (size 15 to 20)
#    0.000    2.250    1.250    3.000    1.750    4.250 
#    0.000    1.250    0.000    3.750    0.000    0.000 
#    0.000    0.000    0.000    0.000    0.000    0.000 
#
# Total GULP energy -178647.665120 kJ/mol
# GULP energy per Si atom -5582.739535 kJ/mol
# Density = 1.989895 g / cm^3
# Si number density = 19.944348 Si / 1000 Ang^3
#
#
#
# Elastic Constant Matrix: (Units=GPa)
#
#
# Indices 1 2 3 4 5 6 
#
# 1 150.9684 15.2861 84.1018 0.0000 0.0000 0.0000
# 2 15.2861 27.3576 7.6086 0.0000 0.0000 0.0000
# 3 84.1018 7.6086 112.3996 0.0000 0.0000 0.0000
# 4 0.0000 0.0000 0.0000 20.8687 0.0000 0.0000
# 5 0.0000 0.0000 0.0000 0.0000 26.9736 0.0000
# 6 0.0000 0.0000 0.0000 0.0000 0.0000 12.5836
#
#
#
# Elastic Compliance Matrix: (Units=1/GPa)
#
#
# Indices 1 2 3 4 5 6 
#
# 1 0.011819 -0.004224 -0.008557 0.000000 0.000000 0.000000
# 2 -0.004224 0.038764 0.000536 0.000000 0.000000 0.000000
# 3 -0.008557 0.000536 0.015263 0.000000 0.000000 0.000000
# 4 0.000000 0.000000 0.000000 0.047919 0.000000 0.000000
# 5 0.000000 0.000000 0.000000 0.000000 0.037073 0.000000
# 6 0.000000 0.000000 0.000000 0.000000 0.000000 0.079468
#
#
# Mechanical properties :
#
#
# Convention : Reuss Voigt Hill
#
# Bulk Modulus (GPa) = 24.17997 56.07984 40.12991
# Shear Modulus (GPa) = 18.61636 24.33380 21.47508
#
# Velocity S-wave (km/s) = 3.05850 3.49676 3.28495
# Velocity P-wave (km/s) = 4.96212 6.66951 5.87813
#
# Compressibility (1/GPa) = 0.04135654
#
# Stress axis : x y z
#
# Youngs Moduli (GPa) = 84.61184 25.79727 65.51617
#
# Poissons Ratio (x) = 0.10896 0.56064
# Poissons Ratio (y) = 0.35738 -0.03514
# Poissons Ratio (z) = 0.72405 -0.01384
#
# Static dielectric constant tensor:
#      x y z
#    x 1.697010 0.000000 0.000000 
#    y 0.000000 1.739090 0.000000 
#    z 0.000000 0.000000 1.696150 
# 
# From -- ./inp_files/19490.got.cif
#   From: 2010.05.17/outbox.cif.g08.bks.cpg/sg44_10_cif.got.tgz:19490.got - 2010.06.03 19:37:08.
