data_PCOD9375428
_publ_section_title
;
Structure prediction by ZEFSAII (Michael W. Deem and Ramdas Pophale) SiO2 
 PCOD9375428
Probable space group: I M M 2
;
_chemical_formula_sum "Si O2"
_cell_formula_units_Z 40
_cell_length_a 9.181788
_cell_length_b 28.665286
_cell_length_c 7.874263
_cell_angle_alpha 90.000000
_cell_angle_beta 90.000000
_cell_angle_gamma 90.000000
_cell_volume 2072.494832
_symmetry_space_group_name_H-M "I M M 2"
_symmetry_group_IT_number 44
_symmetry_cell_setting 'orthorhombic'
loop_
_space_group_symop_operation_xyz
x,y,z
-x,-y,z
-x,y,z
x,-y,z
1/2+x,1/2+y,1/2+z
1/2-x,1/2-y,1/2+z
1/2-x,1/2+y,1/2+z
1/2+x,1/2-y,1/2+z
loop_
_atom_site_type_symbol
_atom_site_label
_atom_site_fract_x
_atom_site_fract_y
_atom_site_fract_z
Si Si1 0.668841 0.798773 0.962020
Si Si2 0.326548 0.103489 0.509778
Si Si3 0.168553 0.705306 0.866595
Si Si4 0.673190 0.609002 0.352214
Si Si5 0.829714 0.555653 0.654547
O O1 0.500000 0.803833 0.911307
O O2 0.728454 0.747908 0.915226
O O3 0.764105 0.838792 0.875800
O O4 0.678470 0.804360 0.165492
O O5 0.500000 0.098703 0.540912
O O6 0.296871 0.157622 0.464277
O O7 0.238302 0.089871 0.676254
O O8 0.290317 0.074006 0.341840
O O9 0.000000 0.717896 0.904030
O O10 0.500000 0.609336 0.349637
O O11 0.733978 0.579606 0.510386
O O12 0.818420 0.500000 0.647197
O O13 0.000000 0.569015 0.626591
#
# Coordination Sequence:
#
# PCOD9375428 Si02
#       5
#     8   8   8   8   8
#     4  11  22  38  59  86 124 167 215 261 308 373
#     4  10  21  41  66  93 127 165 212 264 314 373
#     4  10  21  37  58  88 124 162 209 264 317 371
#     4  12  25  40  62  94 132 169 209 257 318 379
#     4  10  22  44  72  97 123 163 215 266 318 375
#
# _framework density 19.300411
#
# number of rings (size 3 to 8) (size 9 to 14) (size 15 to 20)
#    0.000    1.400    2.000    3.600    0.000    7.600 
#    0.000    2.000    0.000    0.000    0.000    0.000 
#    0.000    0.000    0.000    0.000    0.000    0.000 
#
# Total GULP energy -111869.195940 kJ/mol
# GULP energy per Si atom -5593.459797 kJ/mol
# Density = 1.925648 g / cm^3
# Si number density = 19.300411 Si / 1000 Ang^3
#
#
#
# Elastic Constant Matrix: (Units=GPa)
#
#
# Indices 1 2 3 4 5 6 
#
# 1 111.0824 44.0762 76.7643 -0.0002 0.0014 0.0026
# 2 44.0762 48.2066 21.5657 0.0000 0.0020 0.0039
# 3 76.7643 21.5657 108.7179 0.0036 0.0029 0.0142
# 4 -0.0002 0.0000 0.0036 20.5375 -0.0005 0.0004
# 5 0.0014 0.0020 0.0029 -0.0005 22.1165 -0.0025
# 6 0.0026 0.0039 0.0142 0.0004 -0.0025 19.9300
#
#
#
# Elastic Compliance Matrix: (Units=1/GPa)
#
#
# Indices 1 2 3 4 5 6 
#
# 1 0.026361 -0.017312 -0.015179 0.000003 0.000002 0.000011
# 2 -0.017312 0.034133 0.005453 -0.000001 -0.000003 -0.000008
# 3 -0.015179 0.005453 0.018834 -0.000003 -0.000002 -0.000013
# 4 0.000003 -0.000001 -0.000003 0.048691 0.000001 -0.000001
# 5 0.000002 -0.000003 -0.000002 0.000001 0.045215 0.000006
# 6 0.000011 -0.000008 -0.000013 -0.000001 0.000006 0.050176
#
#
# Mechanical properties :
#
#
# Convention : Reuss Voigt Hill
#
# Bulk Modulus (GPa) = 39.60040 61.42437 50.51239
# Shear Modulus (GPa) = 17.48832 20.89019 19.18925
#
# Velocity S-wave (km/s) = 3.01343 3.29351 3.15658
# Velocity P-wave (km/s) = 5.71578 6.80863 6.28600
#
# Compressibility (1/GPa) = 0.02525227
#
# Stress axis : x y z
#
# Youngs Moduli (GPa) = 37.93437 29.29691 53.09448
#
# Poissons Ratio (x) = 0.50719 0.80594
# Poissons Ratio (y) = 0.65672 -0.28952
# Poissons Ratio (z) = 0.57582 -0.15976
#
# Static dielectric constant tensor:
#      x y z
#    x 1.642940 0.000000 0.000000 
#    y 0.000000 1.651540 0.000000 
#    z 0.000000 0.000000 1.674900 
# 
# From -- ./inp_files/4603.got.cif
#   From: 2010.05.17/outbox.cif.g08.bks.cpg/sg44_3_cif.got.tgz:4603.got - 2010.06.03 19:37:08.
