data_PCOD9375900
_publ_section_title
;
Structure prediction by ZEFSAII (Michael W. Deem and Ramdas Pophale) SiO2 
 PCOD9375900
Probable space group: I M M 2
;
_chemical_formula_sum "Si O2"
_cell_formula_units_Z 40
_cell_length_a 7.402256
_cell_length_b 28.481096
_cell_length_c 7.305095
_cell_angle_alpha 90.000000
_cell_angle_beta 90.000000
_cell_angle_gamma 90.000000
_cell_volume 1540.092006
_symmetry_space_group_name_H-M "I M M 2"
_symmetry_group_IT_number 44
_symmetry_cell_setting 'orthorhombic'
loop_
_space_group_symop_operation_xyz
x,y,z
-x,-y,z
-x,y,z
x,-y,z
1/2+x,1/2+y,1/2+z
1/2-x,1/2-y,1/2+z
1/2-x,1/2+y,1/2+z
1/2+x,1/2-y,1/2+z
loop_
_atom_site_type_symbol
_atom_site_label
_atom_site_fract_x
_atom_site_fract_y
_atom_site_fract_z
Si Si1 0.222870 0.500000 0.018821
Si Si2 0.786913 0.899332 0.105259
Si Si3 0.205967 0.601513 0.034925
Si Si4 0.213708 0.500000 0.595427
Si Si5 0.221339 0.700036 0.953615
Si Si6 0.795523 0.196101 0.030750
O O1 0.000000 0.500000 0.025547
O O2 0.284416 0.550914 0.092057
O O3 0.281352 0.500000 0.805436
O O4 0.702769 0.901480 0.309559
O O5 0.715250 0.855188 0.987633
O O6 0.000000 0.891509 0.130438
O O7 0.766445 0.950068 0.014698
O O8 0.282676 0.654018 0.066824
O O9 0.000000 0.602015 0.099481
O O10 0.000000 0.500000 0.601237
O O11 0.290281 0.692840 0.749731
O O12 0.000000 0.699657 0.960068
O O13 0.286019 0.752594 0.998239
O O14 0.000000 0.198495 0.958131
#
# Coordination Sequence:
#
# PCOD9375900 Si02
#       6
#     4   8   8   4   8   8
#     4   7  10  17  31  51  72  95 124 158 196 240
#     4   9  15  23  36  55  80 106 133 171 215 251
#     4   8  13  22  36  54  78 106 135 168 208 253
#     4   9  15  23  35  53  78 105 134 166 204 256
#     4   9  17  29  44  62  86 116 147 179 217 260
#     4   9  18  30  43  63  89 114 146 185 218 255
#
# _framework density 25.972474999999999
#
# number of rings (size 3 to 8) (size 9 to 14) (size 15 to 20)
#    0.000    3.400    0.000    2.100    0.000    1.600 
#    0.000    0.000    0.000    0.000    0.000    1.400 
#    0.000    1.600    0.000    0.000    0.000    0.000 
#
# Total GULP energy -111407.114184 kJ/mol
# GULP energy per Si atom -5570.355709 kJ/mol
# Density = 2.591336 g / cm^3
# Si number density = 25.972475 Si / 1000 Ang^3
#
#
#
# Elastic Constant Matrix: (Units=GPa)
#
#
# Indices 1 2 3 4 5 6 
#
# 1 109.0864 22.1863 -1.8435 0.0002 0.0000 -0.0004
# 2 22.1863 328.9139 1.1082 0.0022 0.0007 -0.0020
# 3 -1.8435 1.1082 69.2014 0.0028 0.0007 -0.0019
# 4 0.0002 0.0022 0.0028 11.3800 0.0004 -0.0007
# 5 0.0000 0.0007 0.0007 0.0004 -1.7474 0.0002
# 6 -0.0004 -0.0020 -0.0019 -0.0007 0.0002 19.7217
#
#
#
# Elastic Compliance Matrix: (Units=1/GPa)
#
#
# Indices 1 2 3 4 5 6 
#
# 1 0.009299 -0.000628 0.000258 0.000000 0.000000 0.000000
# 2 -0.000628 0.003083 -0.000066 -0.000001 0.000001 0.000000
# 3 0.000258 -0.000066 0.014459 -0.000003 0.000006 0.000001
# 4 0.000000 -0.000001 -0.000003 0.087874 0.000018 0.000003
# 5 0.000000 0.000001 0.000006 0.000018 -0.572283 0.000006
# 6 0.000000 0.000000 0.000001 0.000003 0.000006 0.050705
#
#
# Mechanical properties :
#
#
# Convention : Reuss Voigt Hill
#
# Bulk Modulus (GPa) = 38.50943 61.12264 49.81604
# Shear Modulus (GPa) = -12.58383 38.25425 12.83521
#
# Velocity S-wave (km/s) = -2.20354 3.84197 2.22544
# Velocity P-wave (km/s) = 2.89570 6.57767 5.08187
#
# Compressibility (1/GPa) = 0.02596767
#
# Stress axis : x y z
#
# Youngs Moduli (GPa) = 107.53671 324.36978 69.16343
#
# Poissons Ratio (x) = 0.20375 -0.01783
# Poissons Ratio (y) = 0.06755 0.00457
# Poissons Ratio (z) = -0.02772 0.02144
#
# Static dielectric constant tensor:
#      x y z
#    x 1.983390 0.000000 0.000000 
#    y 0.000000 2.296390 0.000000 
#    z 0.000000 0.000000 2.057780 
# 
# From -- ./inp_files/4631.got.cif
#   From: 2010.05.17/outbox.cif.g08.bks.cpg/sg44_3_cif.got.tgz:4631.got - 2010.06.03 19:37:08.
