data_PCOD9375502
_publ_section_title
;
Structure prediction by ZEFSAII (Michael W. Deem and Ramdas Pophale) SiO2 
 PCOD9375502
Probable space group: I M M 2
;
_chemical_formula_sum "Si O2"
_cell_formula_units_Z 64
_cell_length_a 22.032361
_cell_length_b 16.947718
_cell_length_c 8.507133
_cell_angle_alpha 90.000000
_cell_angle_beta 90.000000
_cell_angle_gamma 90.000000
_cell_volume 3176.548499
_symmetry_space_group_name_H-M "I M M 2"
_symmetry_group_IT_number 44
_symmetry_cell_setting 'orthorhombic'
loop_
_space_group_symop_operation_xyz
x,y,z
-x,-y,z
-x,y,z
x,-y,z
1/2+x,1/2+y,1/2+z
1/2-x,1/2-y,1/2+z
1/2-x,1/2+y,1/2+z
1/2+x,1/2-y,1/2+z
loop_
_atom_site_type_symbol
_atom_site_label
_atom_site_fract_x
_atom_site_fract_y
_atom_site_fract_z
Si Si1 0.931514 0.635323 0.832670
Si Si2 0.932628 0.755314 0.339155
Si Si3 0.698410 0.690986 0.827850
Si Si4 0.712862 0.123032 0.825659
Si Si5 0.825928 0.911202 0.635298
Si Si6 0.067624 0.800824 0.702794
Si Si7 0.195811 0.412569 0.679537
Si Si8 0.090992 0.588735 0.186467
O O1 0.923807 0.730173 0.825810
O O2 0.871491 0.604116 0.746038
O O3 0.000000 0.618929 0.767330
O O4 0.929920 0.602977 0.009020
O O5 0.872942 0.801318 0.273986
O O6 0.927077 0.761615 0.528405
O O7 0.930159 0.663653 0.288828
O O8 0.000000 0.785982 0.295351
O O9 0.716429 0.782509 0.841392
O O10 0.750681 0.647772 0.728165
O O11 0.696427 0.644616 0.992996
O O12 0.776192 0.089909 0.770589
O O13 0.663667 0.097715 0.696207
O O14 0.691385 0.090922 0.992044
O O15 0.884928 0.870230 0.705895
O O16 0.836730 0.000000 0.578721
O O17 0.000000 0.831848 0.718941
O O18 0.214155 0.500000 0.732823
O O19 0.074147 0.500000 0.237415
#
# Coordination Sequence:
#
# PCOD9375502 Si02
#       8
#     8   8   8   8   8   8   8   8
#     4  11  23  39  59  84 117 156 194 233 283 348
#     4   9  19  37  60  85 115 153 194 236 284 346
#     4  10  21  38  61  86 115 154 194 235 286 347
#     4  11  23  40  59  83 115 155 196 233 285 351
#     4  11  21  36  60  89 119 148 191 250 299 338
#     4   9  20  39  60  83 114 154 198 236 284 353
#     4  12  24  39  60  86 117 150 191 241 290 340
#     4  11  22  36  56  85 119 151 190 240 290 339
#
# _framework density 20.147653999999999
#
# number of rings (size 3 to 8) (size 9 to 14) (size 15 to 20)
#    0.000    1.500    0.000    6.750    0.000    5.000 
#    0.000    1.250    0.000   10.125    0.000    0.000 
#    0.000    4.000    0.000    0.000    0.000    0.000 
#
# Total GULP energy -178593.279556 kJ/mol
# GULP energy per Si atom -5581.039986 kJ/mol
# Density = 2.010180 g / cm^3
# Si number density = 20.147654 Si / 1000 Ang^3
#
#
#
# Elastic Constant Matrix: (Units=GPa)
#
#
# Indices 1 2 3 4 5 6 
#
# 1 140.2900 59.8717 40.5629 0.0000 0.0000 0.0000
# 2 59.8717 118.1555 20.0025 0.0000 0.0000 0.0000
# 3 40.5629 20.0025 35.9293 0.0000 0.0000 0.0000
# 4 0.0000 0.0000 0.0000 18.5234 0.0000 0.0000
# 5 0.0000 0.0000 0.0000 0.0000 17.6691 0.0000
# 6 0.0000 0.0000 0.0000 0.0000 0.0000 -2.3502
#
#
#
# Elastic Compliance Matrix: (Units=1/GPa)
#
#
# Indices 1 2 3 4 5 6 
#
# 1 0.012270 -0.004275 -0.011472 0.000000 0.000000 0.000000
# 2 -0.004275 0.010834 -0.001205 0.000000 0.000000 0.000000
# 3 -0.011472 -0.001205 0.041455 0.000000 0.000000 0.000000
# 4 0.000000 0.000000 0.000000 0.053986 0.000000 0.000000
# 5 0.000000 0.000000 0.000000 0.000000 0.056596 0.000000
# 6 0.000000 0.000000 0.000000 0.000000 0.000000 -0.425504
#
#
# Mechanical properties :
#
#
# Convention : Reuss Voigt Hill
#
# Bulk Modulus (GPa) = 32.62204 59.47211 46.04708
# Shear Modulus (GPa) = -24.24324 18.36430 -2.93947
#
# Velocity S-wave (km/s) = -3.47259 3.02236 -1.20919
# Velocity P-wave (km/s) = 0.38482 6.46233 4.57765
#
# Compressibility (1/GPa) = 0.03065413
#
# Stress axis : x y z
#
# Youngs Moduli (GPa) = 81.50284 92.30468 24.12283
#
# Poissons Ratio (x) = 0.39462 0.27673
# Poissons Ratio (y) = 0.34844 0.02906
# Poissons Ratio (z) = 0.93499 0.11121
#
# Static dielectric constant tensor:
#      x y z
#    x 1.751450 0.000000 0.000000 
#    y 0.000000 1.700750 0.000000 
#    z 0.000000 0.000000 1.706840 
# 
# From -- ./inp_files/9036.got.cif
#   From: 2010.05.17/outbox.cif.g08.bks.cpg/sg44_5_cif.got.tgz:9036.got - 2010.06.03 19:37:08.
