data_PCOD9375556
_publ_section_title
;
Structure prediction by ZEFSAII (Michael W. Deem and Ramdas Pophale) SiO2 
 PCOD9375556
Probable space group: I M M 2
;
_chemical_formula_sum "Si O2"
_cell_formula_units_Z 56
_cell_length_a 14.654965
_cell_length_b 19.790558
_cell_length_c 10.254553
_cell_angle_alpha 90.000000
_cell_angle_beta 90.000000
_cell_angle_gamma 90.000000
_cell_volume 2974.127338
_symmetry_space_group_name_H-M "I M M 2"
_symmetry_group_IT_number 44
_symmetry_cell_setting 'orthorhombic'
loop_
_space_group_symop_operation_xyz
x,y,z
-x,-y,z
-x,y,z
x,-y,z
1/2+x,1/2+y,1/2+z
1/2-x,1/2-y,1/2+z
1/2-x,1/2+y,1/2+z
1/2+x,1/2-y,1/2+z
loop_
_atom_site_type_symbol
_atom_site_label
_atom_site_fract_x
_atom_site_fract_y
_atom_site_fract_z
Si Si1 0.394715 0.282221 0.686920
Si Si2 0.392030 0.709232 0.377709
Si Si3 0.606613 0.126475 0.770748
Si Si4 0.287918 0.162906 0.284096
Si Si5 0.107776 0.077384 0.719439
Si Si6 0.770107 0.577452 0.038337
Si Si7 0.890689 0.580120 0.560912
O O1 0.500000 0.303558 0.706394
O O2 0.376037 0.282326 0.531718
O O3 0.385183 0.206313 0.742430
O O4 0.318700 0.328123 0.753303
O O5 0.500000 0.721886 0.355340
O O6 0.333576 0.763496 0.298336
O O7 0.371378 0.633796 0.327593
O O8 0.500000 0.108058 0.756258
O O9 0.665454 0.088431 0.662992
O O10 0.634177 0.107429 0.917259
O O11 0.298919 0.125603 0.421709
O O12 0.337052 0.120742 0.171123
O O13 0.168900 0.092011 0.593017
O O14 0.000000 0.081139 0.691417
O O15 0.128614 0.000000 0.760421
O O16 0.774441 0.500000 0.994488
O O17 0.872536 0.500000 0.568105
O O18 0.000000 0.590037 0.577600
#
# Coordination Sequence:
#
# PCOD9375556 Si02
#       7
#     8   8   8   8   8   8   8
#     4  10  23  40  60  89 125 159 203 255 303 361
#     4  10  21  39  62  90 122 158 201 254 308 359
#     4  10  21  40  63  88 119 158 202 250 305 361
#     4  12  24  37  63  90 126 162 203 245 310 361
#     4   9  20  39  63  89 118 153 199 252 301 355
#     4  11  23  38  59  90 122 158 202 244 297 363
#     4  10  23  42  63  91 125 161 205 256 308 366
#
# _framework density 18.829053999999999
#
# number of rings (size 3 to 8) (size 9 to 14) (size 15 to 20)
#    0.000    1.714    1.429    2.143    4.000    2.000 
#    0.000    3.571    0.000    2.143    0.000    0.000 
#    0.000    0.000    0.000    0.000    0.000    0.000 
#
# Total GULP energy -156434.494652 kJ/mol
# GULP energy per Si atom -5586.946238 kJ/mol
# Density = 1.878620 g / cm^3
# Si number density = 18.829054 Si / 1000 Ang^3
#
#
#
# Elastic Constant Matrix: (Units=GPa)
#
#
# Indices 1 2 3 4 5 6 
#
# 1 59.8836 37.7725 46.4805 0.0000 0.0000 0.0000
# 2 37.7725 81.9739 58.4271 0.0000 0.0000 0.0000
# 3 46.4805 58.4271 104.0555 0.0000 0.0000 0.0000
# 4 0.0000 0.0000 0.0000 15.8099 0.0000 0.0000
# 5 0.0000 0.0000 0.0000 0.0000 27.6331 0.0000
# 6 0.0000 0.0000 0.0000 0.0000 0.0000 24.0430
#
#
#
# Elastic Compliance Matrix: (Units=1/GPa)
#
#
# Indices 1 2 3 4 5 6 
#
# 1 0.027511 -0.006532 -0.008621 0.000000 0.000000 0.000000
# 2 -0.006532 0.021890 -0.009373 0.000000 0.000000 0.000000
# 3 -0.008621 -0.009373 0.018724 0.000000 0.000000 0.000000
# 4 0.000000 0.000000 0.000000 0.063251 0.000000 0.000000
# 5 0.000000 0.000000 0.000000 0.000000 0.036188 0.000000
# 6 0.000000 0.000000 0.000000 0.000000 0.000000 0.041592
#
#
# Mechanical properties :
#
#
# Convention : Reuss Voigt Hill
#
# Bulk Modulus (GPa) = 52.43257 59.03035 55.73146
# Shear Modulus (GPa) = 18.89882 20.37939 19.63911
#
# Velocity S-wave (km/s) = 3.17157 3.29346 3.23309
# Velocity P-wave (km/s) = 6.42798 6.77357 6.60303
#
# Compressibility (1/GPa) = 0.01907212
#
# Stress axis : x y z
#
# Youngs Moduli (GPa) = 36.34952 45.68360 53.40642
#
# Poissons Ratio (x) = 0.29840 0.46042
# Poissons Ratio (y) = 0.23743 0.50060
# Poissons Ratio (z) = 0.31337 0.42821
#
# Static dielectric constant tensor:
#      x y z
#    x 1.662390 0.000000 0.000000 
#    y 0.000000 1.639040 0.000000 
#    z 0.000000 0.000000 1.609620 
# 
# From -- ./inp_files/7382.got.cif
#   From: 2010.05.17/outbox.cif.g08.bks.cpg/sg44_4_cif.got.tgz:7382.got - 2010.06.03 19:37:08.
