data_PCOD9375072
_publ_section_title
;
Structure prediction by ZEFSAII (Michael W. Deem and Ramdas Pophale) SiO2 
 PCOD9375072
Probable space group: I M M 2
;
_chemical_formula_sum "Si O2"
_cell_formula_units_Z 58
_cell_length_a 25.558012
_cell_length_b 7.803453
_cell_length_c 13.993425
_cell_angle_alpha 90.000000
_cell_angle_beta 90.000000
_cell_angle_gamma 90.000000
_cell_volume 2790.859113
_symmetry_space_group_name_H-M "I M M 2"
_symmetry_group_IT_number 44
_symmetry_cell_setting 'orthorhombic'
loop_
_space_group_symop_operation_xyz
x,y,z
-x,-y,z
-x,y,z
x,-y,z
1/2+x,1/2+y,1/2+z
1/2-x,1/2-y,1/2+z
1/2-x,1/2+y,1/2+z
1/2+x,1/2-y,1/2+z
loop_
_atom_site_type_symbol
_atom_site_label
_atom_site_fract_x
_atom_site_fract_y
_atom_site_fract_z
Si Si1 0.372178 0.702158 0.517560
Si Si2 0.423377 0.189412 0.702464
Si Si3 0.440980 0.707054 0.119166
Si Si4 0.237594 0.793358 0.112552
Si Si5 0.340328 0.701014 0.007354
Si Si6 0.940378 0.704539 0.841408
Si Si7 0.683447 0.291660 0.798227
Si Si8 0.000000 0.000000 0.244669
O O1 0.373553 0.500000 0.539630
O O2 0.413247 0.790795 0.589177
O O3 0.313159 0.759814 0.547423
O O4 0.395031 0.728534 0.411710
O O5 0.367331 0.213660 0.749706
O O6 0.455930 0.348371 0.739581
O O7 0.443327 0.000000 0.723357
O O8 0.500000 0.767536 0.094452
O O9 0.441524 0.500000 0.112507
O O10 0.394203 0.773112 0.051475
O O11 0.431123 0.751250 0.230222
O O12 0.292128 0.719754 0.078414
O O13 0.228451 0.745154 0.223271
O O14 0.240274 0.000000 0.105753
O O15 0.350947 0.500000 0.991342
O O16 0.318510 0.769956 0.906776
O O17 0.940820 0.500000 0.850567
O O18 0.000000 0.767510 0.865385
O O19 0.681176 0.500000 0.796624
#
# Coordination Sequence:
#
# PCOD9375072 Si02
#       8
#     8   8   8   8   8   8   8   2
#     4  10  20  37  56  82 121 162 198 250 313 360
#     4  11  22  37  59  87 121 167 211 256 309 372
#     4   9  19  38  57  81 113 153 197 246 301 364
#     4   9  20  37  58  82 119 154 190 241 305 364
#     4  10  21  37  63  90 114 151 202 247 307 373
#     4  10  21  34  53  82 115 154 199 246 298 360
#     4   9  19  41  59  82 120 161 196 252 318 364
#     4  12  22  40  56  86 128 166 214 260 310 350
#
# _framework density 20.782132000000001
#
# number of rings (size 3 to 8) (size 9 to 14) (size 15 to 20)
#    0.000    2.207    1.379    1.862    0.966    5.793 
#    1.241    2.759    0.000    0.000    0.000    0.000 
#    0.000    0.000    0.000    0.000    0.000    0.000 
#
# Total GULP energy -161441.004936 kJ/mol
# GULP energy per Si atom -5566.931205 kJ/mol
# Density = 2.073483 g / cm^3
# Si number density = 20.782132 Si / 1000 Ang^3
#
#
#
# Elastic Constant Matrix: (Units=GPa)
#
#
# Indices 1 2 3 4 5 6 
#
# 1 85.1772 -1.9058 64.4264 0.0000 0.0000 0.0000
# 2 -1.9058 61.6740 -0.8510 0.0000 0.0000 0.0000
# 3 64.4264 -0.8510 122.6043 0.0000 0.0000 0.0000
# 4 0.0000 0.0000 0.0000 11.4021 0.0000 0.0000
# 5 0.0000 0.0000 0.0000 0.0000 14.9581 0.0000
# 6 0.0000 0.0000 0.0000 0.0000 0.0000 21.9070
#
#
#
# Elastic Compliance Matrix: (Units=1/GPa)
#
#
# Indices 1 2 3 4 5 6 
#
# 1 0.019498 0.000461 -0.010243 0.000000 0.000000 0.000000
# 2 0.000461 0.016227 -0.000130 0.000000 0.000000 0.000000
# 3 -0.010243 -0.000130 0.013538 0.000000 0.000000 0.000000
# 4 0.000000 0.000000 0.000000 0.087703 0.000000 0.000000
# 5 0.000000 0.000000 0.000000 0.000000 0.066854 0.000000
# 6 0.000000 0.000000 0.000000 0.000000 0.000000 0.045647
#
#
# Mechanical properties :
#
#
# Convention : Reuss Voigt Hill
#
# Bulk Modulus (GPa) = 33.96729 43.64385 38.80557
# Shear Modulus (GPa) = 17.91462 23.50584 20.71023
#
# Velocity S-wave (km/s) = 2.93920 3.36677 3.16023
# Velocity P-wave (km/s) = 5.28190 6.01330 5.65943
#
# Compressibility (1/GPa) = 0.02944009
#
# Stress axis : x y z
#
# Youngs Moduli (GPa) = 51.28779 61.62661 73.86778
#
# Poissons Ratio (x) = -0.02842 0.75659
# Poissons Ratio (y) = -0.02365 0.00958
# Poissons Ratio (z) = 0.52532 0.00799
#
# Static dielectric constant tensor:
#      x y z
#    x 1.752130 0.000000 0.000000 
#    y 0.000000 1.776820 0.000000 
#    z 0.000000 0.000000 1.802070 
# 
# From -- ./inp_files/19445.got.cif
#   From: 2010.05.17/outbox.cif.g08.bks.cpg/sg44_10_cif.got.tgz:19445.got - 2010.06.03 19:37:08.
