data_PCOD9375263
_publ_section_title
;
Structure prediction by ZEFSAII (Michael W. Deem and Ramdas Pophale) SiO2 
 PCOD9375263
Probable space group: I M M 2
;
_chemical_formula_sum "Si O2"
_cell_formula_units_Z 40
_cell_length_a 7.521389
_cell_length_b 9.112554
_cell_length_c 30.105716
_cell_angle_alpha 90.000000
_cell_angle_beta 90.000000
_cell_angle_gamma 90.000000
_cell_volume 2063.417578
_symmetry_space_group_name_H-M "I M M 2"
_symmetry_group_IT_number 44
_symmetry_cell_setting 'orthorhombic'
loop_
_space_group_symop_operation_xyz
x,y,z
-x,-y,z
-x,y,z
x,-y,z
1/2+x,1/2+y,1/2+z
1/2-x,1/2-y,1/2+z
1/2-x,1/2+y,1/2+z
1/2+x,1/2-y,1/2+z
loop_
_atom_site_type_symbol
_atom_site_label
_atom_site_fract_x
_atom_site_fract_y
_atom_site_fract_z
Si Si1 0.000000 0.324507 0.418550
Si Si2 0.212394 0.334361 0.671823
Si Si3 0.213215 0.825959 0.761693
Si Si4 0.213043 0.665477 0.081180
Si Si5 0.709081 0.325628 0.491801
Si Si6 0.000000 0.175573 0.323356
O O1 0.828888 0.291824 0.449242
O O2 0.000000 0.233803 0.373577
O O3 0.000000 0.500000 0.408840
O O4 0.284455 0.500000 0.674088
O O5 0.270266 0.236159 0.713490
O O6 0.249140 0.260248 0.624698
O O7 0.000000 0.343450 0.675707
O O8 0.328016 0.741124 0.798136
O O9 0.000000 0.803257 0.767069
O O10 0.246598 0.000000 0.764129
O O11 0.282035 0.500000 0.086124
O O12 0.000000 0.658419 0.077561
O O13 0.273818 0.740561 0.035556
O O14 0.500000 0.293884 0.484178
O O15 0.725344 0.500000 0.500512
O O16 0.000000 0.000000 0.321205
#
# Coordination Sequence:
#
# PCOD9375263 Si02
#       6
#     4   8   8   8   8   4
#     4  10  22  40  62  88 116 152 204 254 303 366
#     4  10  21  36  56  84 118 156 198 243 297 359
#     4  10  22  42  66  90 121 160 204 256 309 363
#     4  10  21  35  53  81 117 157 198 241 293 355
#     4   9  19  37  59  83 115 153 195 248 303 354
#     4  12  26  42  64  94 126 162 204 252 311 374
#
# _framework density 19.385314999999999
#
# number of rings (size 3 to 8) (size 9 to 14) (size 15 to 20)
#    0.000    2.000    0.000    2.700    2.800    5.200 
#    0.000    2.000    0.000    0.000    0.000    0.000 
#    0.000    0.000    0.000    0.000    0.000    0.000 
#
# Total GULP energy -111730.738509 kJ/mol
# GULP energy per Si atom -5586.536925 kJ/mol
# Density = 1.934119 g / cm^3
# Si number density = 19.385315 Si / 1000 Ang^3
#
#
#
# Elastic Constant Matrix: (Units=GPa)
#
#
# Indices 1 2 3 4 5 6 
#
# 1 78.4846 58.6414 54.7599 0.0000 0.0000 0.0000
# 2 58.6414 155.4931 110.5819 0.0000 0.0000 0.0000
# 3 54.7599 110.5819 176.0963 0.0000 0.0000 0.0000
# 4 0.0000 0.0000 0.0000 41.9675 0.0000 0.0000
# 5 0.0000 0.0000 0.0000 0.0000 30.5867 0.0000
# 6 0.0000 0.0000 0.0000 0.0000 0.0000 20.1667
#
#
#
# Elastic Compliance Matrix: (Units=1/GPa)
#
#
# Indices 1 2 3 4 5 6 
#
# 1 0.018308 -0.005160 -0.002453 0.000000 0.000000 0.000000
# 2 -0.005160 0.013075 -0.006606 0.000000 0.000000 0.000000
# 3 -0.002453 -0.006606 0.010590 0.000000 0.000000 0.000000
# 4 0.000000 0.000000 0.000000 0.023828 0.000000 0.000000
# 5 0.000000 0.000000 0.000000 0.000000 0.032694 0.000000
# 6 0.000000 0.000000 0.000000 0.000000 0.000000 0.049587
#
#
# Mechanical properties :
#
#
# Convention : Reuss Voigt Hill
#
# Bulk Modulus (GPa) = 73.88221 95.33783 84.61002
# Shear Modulus (GPa) = 27.61937 30.95023 29.28480
#
# Velocity S-wave (km/s) = 3.77869 4.00006 3.89095
# Velocity P-wave (km/s) = 7.56526 8.40364 7.99545
#
# Compressibility (1/GPa) = 0.01353506
#
# Stress axis : x y z
#
# Youngs Moduli (GPa) = 54.61990 76.47958 94.42980
#
# Poissons Ratio (x) = 0.39466 0.23162
# Poissons Ratio (y) = 0.28186 0.62382
# Poissons Ratio (z) = 0.13397 0.50524
#
# Static dielectric constant tensor:
#      x y z
#    x 1.701540 0.000000 0.000000 
#    y 0.000000 1.672760 0.000000 
#    z 0.000000 0.000000 1.631890 
# 
# From -- ./inp_files/25941.got.cif
#   From: 2010.05.17/outbox.cif.g08.bks.cpg/sg44_13_cif.got.tgz:25941.got - 2010.06.03 19:37:08.
