data_PCOD9375098
_publ_section_title
;
Structure prediction by ZEFSAII (Michael W. Deem and Ramdas Pophale) SiO2 
 PCOD9375098
Probable space group: I M M 2
;
_chemical_formula_sum "Si O2"
_cell_formula_units_Z 40
_cell_length_a 16.548760
_cell_length_b 13.032120
_cell_length_c 9.445602
_cell_angle_alpha 90.000000
_cell_angle_beta 90.000000
_cell_angle_gamma 90.000000
_cell_volume 2037.089781
_symmetry_space_group_name_H-M "I M M 2"
_symmetry_group_IT_number 44
_symmetry_cell_setting 'orthorhombic'
loop_
_space_group_symop_operation_xyz
x,y,z
-x,-y,z
-x,y,z
x,-y,z
1/2+x,1/2+y,1/2+z
1/2-x,1/2-y,1/2+z
1/2-x,1/2+y,1/2+z
1/2+x,1/2-y,1/2+z
loop_
_atom_site_type_symbol
_atom_site_label
_atom_site_fract_x
_atom_site_fract_y
_atom_site_fract_z
Si Si1 0.404672 0.879369 0.497090
Si Si2 0.856634 0.302396 0.689165
Si Si3 0.590085 0.886382 0.914984
Si Si4 0.096641 0.885558 0.487803
Si Si5 0.327596 0.736112 0.738068
O O1 0.500000 0.883201 0.525886
O O2 0.389520 0.829799 0.343256
O O3 0.366376 0.797134 0.606369
O O4 0.375429 0.000000 0.503175
O O5 0.897001 0.382643 0.581832
O O6 0.877249 0.194140 0.610994
O O7 0.759955 0.304778 0.700091
O O8 0.500000 0.841524 0.883870
O O9 0.589441 0.000000 0.857226
O O10 0.666691 0.827091 0.853846
O O11 0.125068 0.849137 0.331040
O O12 0.000000 0.887430 0.489030
O O13 0.128103 0.000000 0.515670
#
# Coordination Sequence:
#
# PCOD9375098 Si02
#       5
#     8   8   8   8   8
#     4  11  22  37  60  89 119 147 180 234 297 345
#     4  11  22  36  56  85 118 148 183 232 285 337
#     4  10  20  37  60  81 106 146 191 230 273 334
#     4  10  22  42  63  79 107 158 206 233 263 327
#     4  11  22  36  56  85 118 148 183 232 285 337
#
# _framework density 19.635854999999999
#
# number of rings (size 3 to 8) (size 9 to 14) (size 15 to 20)
#    0.000    1.400    0.000    8.400    0.000    8.000 
#    0.000    1.000    0.000    3.600    0.000    0.000 
#    0.000    0.000    0.000    0.000    0.000    0.000 
#
# Total GULP energy -111349.314648 kJ/mol
# GULP energy per Si atom -5567.465732 kJ/mol
# Density = 1.959116 g / cm^3
# Si number density = 19.635855 Si / 1000 Ang^3
#
#
#
# Elastic Constant Matrix: (Units=GPa)
#
#
# Indices 1 2 3 4 5 6 
#
# 1 76.6104 3.2078 9.9629 0.0000 0.0000 0.0000
# 2 3.2078 106.7661 19.1188 0.0000 0.0000 0.0000
# 3 9.9629 19.1188 122.3044 0.0000 0.0000 0.0000
# 4 0.0000 0.0000 0.0000 8.4409 0.0000 0.0000
# 5 0.0000 0.0000 0.0000 0.0000 39.9606 0.0000
# 6 0.0000 0.0000 0.0000 0.0000 0.0000 -13.1982
#
#
#
# Elastic Compliance Matrix: (Units=1/GPa)
#
#
# Indices 1 2 3 4 5 6 
#
# 1 0.013197 -0.000210 -0.001042 0.000000 0.000000 0.000000
# 2 -0.000210 0.009639 -0.001490 0.000000 0.000000 0.000000
# 3 -0.001042 -0.001490 0.008494 0.000000 0.000000 0.000000
# 4 0.000000 0.000000 0.000000 0.118471 0.000000 0.000000
# 5 0.000000 0.000000 0.000000 0.000000 0.025025 0.000000
# 6 0.000000 0.000000 0.000000 0.000000 0.000000 -0.075768
#
#
# Mechanical properties :
#
#
# Convention : Reuss Voigt Hill
#
# Bulk Modulus (GPa) = 38.68905 41.13997 39.91451
# Shear Modulus (GPa) = 44.18610 25.26676 34.72643
#
# Velocity S-wave (km/s) = 4.74885 3.59104 4.20994
# Velocity P-wave (km/s) = 7.05796 6.17989 6.63347
#
# Compressibility (1/GPa) = 0.02584710
#
# Stress axis : x y z
#
# Youngs Moduli (GPa) = 75.77255 103.74154 117.72875
#
# Poissons Ratio (x) = 0.02177 0.12270
# Poissons Ratio (y) = 0.01590 0.17538
# Poissons Ratio (z) = 0.07897 0.15455
#
# Static dielectric constant tensor:
#      x y z
#    x 1.659340 0.000000 0.000000 
#    y 0.000000 1.754930 0.000000 
#    z 0.000000 0.000000 1.729660 
# 
# From -- ./inp_files/6803.got.cif
#   From: 2010.05.17/outbox.cif.g08.bks.cpg/sg44_4_cif.got.tgz:6803.got - 2010.06.03 19:37:08.
