data_PCOD9375536
_publ_section_title
;
Structure prediction by ZEFSAII (Michael W. Deem and Ramdas Pophale) SiO2 
 PCOD9375536
Probable space group: I M M 2
;
_chemical_formula_sum "Si O2"
_cell_formula_units_Z 64
_cell_length_a 33.194589
_cell_length_b 8.820942
_cell_length_c 11.998358
_cell_angle_alpha 90.000000
_cell_angle_beta 90.000000
_cell_angle_gamma 90.000000
_cell_volume 3513.209741
_symmetry_space_group_name_H-M "I M M 2"
_symmetry_group_IT_number 44
_symmetry_cell_setting 'orthorhombic'
loop_
_space_group_symop_operation_xyz
x,y,z
-x,-y,z
-x,y,z
x,-y,z
1/2+x,1/2+y,1/2+z
1/2-x,1/2-y,1/2+z
1/2-x,1/2+y,1/2+z
1/2+x,1/2-y,1/2+z
loop_
_atom_site_type_symbol
_atom_site_label
_atom_site_fract_x
_atom_site_fract_y
_atom_site_fract_z
Si Si1 0.046081 0.818154 0.886930
Si Si2 0.150656 0.683818 0.499897
Si Si3 0.686748 0.681074 0.573867
Si Si4 0.814995 0.672903 0.836082
Si Si5 0.273586 0.318651 0.129986
Si Si6 0.123810 0.318256 0.249220
Si Si7 0.399005 0.828963 0.203921
Si Si8 0.547515 0.683086 0.638565
O O1 0.071693 0.762761 0.783196
O O2 0.000000 0.767702 0.874075
O O3 0.046739 0.000000 0.889050
O O4 0.059290 0.769348 0.011524
O O5 0.154872 0.500000 0.510679
O O6 0.191624 0.758562 0.545980
O O7 0.139455 0.720207 0.373263
O O8 0.114269 0.730853 0.582936
O O9 0.686653 0.500000 0.577875
O O10 0.677678 0.740033 0.450092
O O11 0.730854 0.746018 0.601129
O O12 0.654179 0.745946 0.659914
O O13 0.800884 0.500000 0.856557
O O14 0.785376 0.761834 0.753621
O O15 0.856822 0.664465 0.769819
O O16 0.271867 0.500000 0.125942
O O17 0.124365 0.500000 0.238478
O O18 0.079043 0.257800 0.222495
O O19 0.414765 0.000000 0.191063
O O20 0.500000 0.720285 0.654978
O O21 0.550805 0.500000 0.645137
#
# Coordination Sequence:
#
# PCOD9375536 Si02
#       8
#     8   8   8   8   8   8   8   8
#     4   9  18  32  52  80 113 146 180 226 283 343
#     4   9  21  41  59  78 113 155 194 239 291 348
#     4  12  25  39  58  84 117 152 190 240 293 346
#     4  10  21  39  59  82 111 143 185 232 283 341
#     4  11  23  39  60  85 113 149 192 237 292 349
#     4  11  23  39  60  86 116 153 201 249 296 356
#     4   9  18  34  56  79 105 140 180 227 278 332
#     4   9  19  37  59  84 118 156 193 239 300 362
#
# _framework density 18.21696
#
# number of rings (size 3 to 8) (size 9 to 14) (size 15 to 20)
#    0.000    2.000    0.000    5.250    1.750    6.500 
#    0.000    1.875    0.000    3.750    0.000    0.000 
#    0.000    0.000    0.000    0.000    0.000    0.000 
#
# Total GULP energy -178610.679818 kJ/mol
# GULP energy per Si atom -5581.583744 kJ/mol
# Density = 1.817550 g / cm^3
# Si number density = 18.216960 Si / 1000 Ang^3
#
#
#
# Elastic Constant Matrix: (Units=GPa)
#
#
# Indices 1 2 3 4 5 6 
#
# 1 69.8132 37.6578 56.9926 0.0000 0.0000 0.0000
# 2 37.6578 86.8542 54.7262 0.0000 0.0000 0.0000
# 3 56.9926 54.7262 139.6087 0.0000 0.0000 0.0000
# 4 0.0000 0.0000 0.0000 1.8733 0.0000 0.0000
# 5 0.0000 0.0000 0.0000 0.0000 10.6041 0.0000
# 6 0.0000 0.0000 0.0000 0.0000 0.0000 13.8981
#
#
#
# Elastic Compliance Matrix: (Units=1/GPa)
#
#
# Indices 1 2 3 4 5 6 
#
# 1 0.023277 -0.005452 -0.007366 0.000000 0.000000 0.000000
# 2 -0.005452 0.016567 -0.004269 0.000000 0.000000 0.000000
# 3 -0.007366 -0.004269 0.011843 0.000000 0.000000 0.000000
# 4 0.000000 0.000000 0.000000 0.533828 0.000000 0.000000
# 5 0.000000 0.000000 0.000000 0.000000 0.094303 0.000000
# 6 0.000000 0.000000 0.000000 0.000000 0.000000 0.071952
#
#
# Mechanical properties :
#
#
# Convention : Reuss Voigt Hill
#
# Bulk Modulus (GPa) = 57.09136 66.11437 61.60286
# Shear Modulus (GPa) = 6.31488 15.06842 10.69165
#
# Velocity S-wave (km/s) = 1.86387 2.87917 2.42524
# Velocity P-wave (km/s) = 6.00331 6.88653 6.46003
#
# Compressibility (1/GPa) = 0.01751578
#
# Stress axis : x y z
#
# Youngs Moduli (GPa) = 42.95994 60.36156 84.43773
#
# Poissons Ratio (x) = 0.32906 0.62194
# Poissons Ratio (y) = 0.23420 0.36044
# Poissons Ratio (z) = 0.31643 0.25766
#
# Static dielectric constant tensor:
#      x y z
#    x 1.620790 0.000000 0.000000 
#    y 0.000000 1.625480 0.000000 
#    z 0.000000 0.000000 1.631250 
# 
# From -- ./inp_files/15090.got.cif
#   From: 2010.05.17/outbox.cif.g08.bks.cpg/sg44_8_cif.got.tgz:15090.got - 2010.06.03 19:37:08.
