data_PCOD9375991
_publ_section_title
;
Structure prediction by ZEFSAII (Michael W. Deem and Ramdas Pophale) SiO2 
 PCOD9375991
Probable space group: I M M 2
;
_chemical_formula_sum "Si O2"
_cell_formula_units_Z 24
_cell_length_a 9.000000
_cell_length_b 24.000000
_cell_length_c 12.000000
_cell_angle_alpha 90.000000
_cell_angle_beta 90.000000
_cell_angle_gamma 90.000000
_cell_volume 2592.000000
_symmetry_space_group_name_H-M "I M M 2"
_symmetry_group_IT_number 44
_symmetry_cell_setting 'orthorhombic'
loop_
_space_group_symop_operation_xyz
x,y,z
-x,-y,z
-x,y,z
x,-y,z
1/2+x,1/2+y,1/2+z
1/2-x,1/2-y,1/2+z
1/2-x,1/2+y,1/2+z
1/2+x,1/2-y,1/2+z
loop_
_atom_site_type_symbol
_atom_site_label
_atom_site_fract_x
_atom_site_fract_y
_atom_site_fract_z
Si Si1 0.174892 0.134199 0.530990
Si Si2 0.819172 0.647246 0.641688
Si Si3 0.168334 0.565299 0.212159
Si Si4 0.679749 0.934801 0.332175
Si Si5 0.673013 0.156949 0.890055
Si Si6 0.321026 0.271239 0.198629
O O1 0.210968 0.090928 0.630110
O O2 0.258909 0.107238 0.426394
O O3 0.223916 0.193192 0.587490
O O4 0.000000 0.137713 0.506868
O O5 0.774228 0.594182 0.715452
O O6 0.767209 0.649789 0.514197
O O7 0.775835 0.706791 0.694009
O O8 0.000000 0.645779 0.639002
O O9 0.185527 0.500000 0.224426
O O10 0.177524 0.597708 0.327897
O O11 0.000000 0.576205 0.166849
O O12 0.500000 0.934852 0.338524
O O13 0.726982 0.000000 0.344491
O O14 0.500000 0.174777 0.896941
O O15 0.755988 0.199037 0.807601
O O16 0.500000 0.274109 0.202183
#
# Coordination Sequence:
#
# PCOD9375991 Si02
#       6
#     8   8   8   8   8   8
#     4  10  20  33  52  77 105 137 173 214 258 305
#     4   9  19  35  54  75 103 137 170 211 261 311
#     4   9  17  30  50  76 103 131 167 212 257 301
#     4  10  21  36  54  77 106 141 178 214 257 310
#     4   9  18  33  53  76 100 129 169 213 256 305
#     4   9  19  35  53  75 104 135 169 212 263 312
#
# _framework density 9.2592590000000001
#
# number of rings (size 3 to 8) (size 9 to 14) (size 15 to 20)
#    0.000    2.667    0.000    1.000    2.333    4.000 
#    0.000    5.000    0.000    0.000    0.000    2.333 
#    0.000    0.000    0.000    0.000    0.000    0.000 
#
# Total GULP energy -133723.808184 kJ/mol
# GULP energy per Si atom -5571.825341 kJ/mol
# Density = 0.923818 g / cm^3
# Si number density = 9.259259 Si / 1000 Ang^3
#
#
#
# Elastic Constant Matrix: (Units=GPa)
#
#
# Indices 1 2 3 4 5 6 
#
# 1 11.0619 9.1792 8.9699 0.0000 0.0000 0.0000
# 2 9.1792 66.7590 18.1305 -0.0001 0.0000 0.0000
# 3 8.9699 18.1305 97.4026 -0.0001 0.0000 0.0000
# 4 0.0000 -0.0001 -0.0001 11.3550 0.0000 0.0000
# 5 0.0000 0.0000 0.0000 0.0000 15.0294 0.0000
# 6 0.0000 0.0000 0.0000 0.0000 0.0000 18.9805
#
#
#
# Elastic Compliance Matrix: (Units=1/GPa)
#
#
# Indices 1 2 3 4 5 6 
#
# 1 0.106996 -0.012677 -0.007494 0.000000 0.000000 0.000000
# 2 -0.012677 0.017279 -0.002049 0.000000 0.000000 0.000000
# 3 -0.007494 -0.002049 0.011338 0.000000 0.000000 0.000000
# 4 0.000000 0.000000 0.000000 0.088067 0.000000 0.000000
# 5 0.000000 0.000000 0.000000 0.000000 0.066536 0.000000
# 6 0.000000 0.000000 0.000000 0.000000 0.000000 0.052686
#
#
# Mechanical properties :
#
#
# Convention : Reuss Voigt Hill
#
# Bulk Modulus (GPa) = 10.96799 27.53143 19.24971
# Shear Modulus (GPa) = 11.96941 18.33590 15.15265
#
# Velocity S-wave (km/s) = 2.54510 3.15006 2.86360
# Velocity P-wave (km/s) = 3.81736 5.30375 4.62071
#
# Compressibility (1/GPa) = 0.09117437
#
# Stress axis : x y z
#
# Youngs Moduli (GPa) = 9.34616 57.87480 88.19784
#
# Poissons Ratio (x) = 0.73365 0.66093
# Poissons Ratio (y) = 0.11848 0.18071
# Poissons Ratio (z) = 0.07004 0.11858
#
# Static dielectric constant tensor:
#      x y z
#    x 1.644950 0.000000 0.000000 
#    y 0.000000 1.635210 0.000000 
#    z 0.000000 0.000000 1.654810 
# 
# From -- ./inp_files/11154.got.cif
#   From: 2010.05.17/outbox.ucp.g08.bks.cvg/sg44_6_cif.got.tgz:11154.got - 2010.06.11 16:32:36.
