data_PCOD9375278
_publ_section_title
;
Structure prediction by ZEFSAII (Michael W. Deem and Ramdas Pophale) SiO2 
 PCOD9375278
Probable space group: I M M 2
;
_chemical_formula_sum "Si O2"
_cell_formula_units_Z 58
_cell_length_a 15.531111
_cell_length_b 7.758297
_cell_length_c 24.188430
_cell_angle_alpha 90.000000
_cell_angle_beta 90.000000
_cell_angle_gamma 90.000000
_cell_volume 2914.584193
_symmetry_space_group_name_H-M "I M M 2"
_symmetry_group_IT_number 44
_symmetry_cell_setting 'orthorhombic'
loop_
_space_group_symop_operation_xyz
x,y,z
-x,-y,z
-x,y,z
x,-y,z
1/2+x,1/2+y,1/2+z
1/2-x,1/2-y,1/2+z
1/2-x,1/2+y,1/2+z
1/2+x,1/2-y,1/2+z
loop_
_atom_site_type_symbol
_atom_site_label
_atom_site_fract_x
_atom_site_fract_y
_atom_site_fract_z
Si Si1 0.096669 0.292142 0.082670
Si Si2 0.764381 0.790601 0.522570
Si Si3 0.265500 0.194536 0.802138
Si Si4 0.902678 0.294824 0.738093
Si Si5 0.854363 0.802449 0.408420
Si Si6 0.500000 0.000000 0.900708
Si Si7 0.902609 0.207541 0.611876
Si Si8 0.901506 0.794176 0.209880
O O1 0.093880 0.500000 0.079124
O O2 0.170662 0.228462 0.041698
O O3 0.118869 0.248176 0.146203
O O4 0.000000 0.226431 0.071862
O O5 0.796375 0.752589 0.461322
O O6 0.834987 0.728159 0.566999
O O7 0.762201 0.000000 0.526612
O O8 0.170870 0.230099 0.778655
O O9 0.297038 0.306920 0.853185
O O10 0.333064 0.217217 0.751938
O O11 0.268980 0.000000 0.821970
O O12 0.905503 0.500000 0.743043
O O13 0.878822 0.252241 0.674672
O O14 0.000000 0.226882 0.747452
O O15 0.925723 0.654959 0.401203
O O16 0.887628 0.000000 0.417977
O O17 0.000000 0.271663 0.601635
O O18 0.904640 0.000000 0.608041
O O19 0.000000 0.733941 0.220852
O O20 0.899934 0.000000 0.216595
#
# Coordination Sequence:
#
# PCOD9375278 Si02
#       8
#     8   8   8   8   8   2   8   8
#     4   9  17  33  57  87 120 158 201 250 302 363
#     4   9  19  36  58  83 117 160 202 247 307 363
#     4  12  24  40  60  87 120 159 211 257 306 372
#     4  10  21  38  59  88 120 158 202 252 314 371
#     4  11  25  45  66  91 127 165 206 258 306 368
#     4  12  26  48  64  98 122 160 218 248 312 368
#     4   9  17  31  53  83 116 155 200 244 303 370
#     4  10  21  35  55  87 122 159 199 246 313 372
#
# _framework density 19.899923000000001
#
# number of rings (size 3 to 8) (size 9 to 14) (size 15 to 20)
#    0.000    1.931    0.690    3.103    1.931    2.759 
#    2.483    0.690    0.000    2.483    0.000    0.000 
#    0.000    0.000    0.000    0.000    0.000    0.000 
#
# Total GULP energy -161674.707002 kJ/mol
# GULP energy per Si atom -5574.989897 kJ/mol
# Density = 1.985463 g / cm^3
# Si number density = 19.899923 Si / 1000 Ang^3
#
#
#
# Elastic Constant Matrix: (Units=GPa)
#
#
# Indices 1 2 3 4 5 6 
#
# 1 126.9453 21.7338 95.7762 0.0000 0.0000 0.0000
# 2 21.7338 73.0906 15.0953 0.0000 0.0000 0.0000
# 3 95.7762 15.0953 104.6656 0.0000 0.0000 0.0000
# 4 0.0000 0.0000 0.0000 19.9709 0.0000 0.0000
# 5 0.0000 0.0000 0.0000 0.0000 -17.0281 0.0000
# 6 0.0000 0.0000 0.0000 0.0000 0.0000 5.4382
#
#
#
# Elastic Compliance Matrix: (Units=1/GPa)
#
#
# Indices 1 2 3 4 5 6 
#
# 1 0.026029 -0.002907 -0.023399 0.000000 0.000000 0.000000
# 2 -0.002907 0.014426 0.000580 0.000000 0.000000 0.000000
# 3 -0.023399 0.000580 0.030882 0.000000 0.000000 0.000000
# 4 0.000000 0.000000 0.000000 0.050073 0.000000 0.000000
# 5 0.000000 0.000000 0.000000 0.000000 -0.058727 0.000000
# 6 0.000000 0.000000 0.000000 0.000000 0.000000 0.183885
#
#
# Mechanical properties :
#
#
# Convention : Reuss Voigt Hill
#
# Bulk Modulus (GPa) = 50.29017 63.32356 56.80687
# Shear Modulus (GPa) = 16.41227 13.14927 14.78077
#
# Velocity S-wave (km/s) = 2.87494 2.57333 2.72831
# Velocity P-wave (km/s) = 6.02883 6.38118 6.20751
#
# Compressibility (1/GPa) = 0.01988460
#
# Stress axis : x y z
#
# Youngs Moduli (GPa) = 38.41883 69.31729 32.38107
#
# Poissons Ratio (x) = 0.20152 0.75768
# Poissons Ratio (y) = 0.11169 -0.01877
# Poissons Ratio (z) = 0.89896 -0.04018
#
# Static dielectric constant tensor:
#      x y z
#    x 1.673330 0.000000 0.000000 
#    y 0.000000 1.725070 0.000000 
#    z 0.000000 0.000000 1.665220 
# 
# From -- ./inp_files/25742.got.cif
#   From: 2010.05.17/outbox.cif.g08.bks.cpg/sg44_13_cif.got.tgz:25742.got - 2010.06.03 19:37:08.
