data_PCOD9375994
_publ_section_title
;
Structure prediction by ZEFSAII (Michael W. Deem and Ramdas Pophale) SiO2 
 PCOD9375994
Probable space group: I M M 2
;
_chemical_formula_sum "Si O2"
_cell_formula_units_Z 32
_cell_length_a 15.000000
_cell_length_b 18.000000
_cell_length_c 12.000000
_cell_angle_alpha 90.000000
_cell_angle_beta 90.000000
_cell_angle_gamma 90.000000
_cell_volume 3240.000000
_symmetry_space_group_name_H-M "I M M 2"
_symmetry_group_IT_number 44
_symmetry_cell_setting 'orthorhombic'
loop_
_space_group_symop_operation_xyz
x,y,z
-x,-y,z
-x,y,z
x,-y,z
1/2+x,1/2+y,1/2+z
1/2-x,1/2-y,1/2+z
1/2-x,1/2+y,1/2+z
1/2+x,1/2-y,1/2+z
loop_
_atom_site_type_symbol
_atom_site_label
_atom_site_fract_x
_atom_site_fract_y
_atom_site_fract_z
Si Si1 0.165710 0.201529 0.429040
Si Si2 0.600796 0.813294 0.584541
Si Si3 0.899104 0.173149 0.680784
Si Si4 0.220651 0.181925 0.044437
Si Si5 0.602633 0.844904 0.189042
Si Si6 0.405085 0.151859 0.835931
Si Si7 0.305691 0.087665 0.395802
Si Si8 0.213915 0.086183 0.858799
O O1 0.127136 0.178175 0.549951
O O2 0.246839 0.258379 0.452160
O O3 0.101695 0.260250 0.368440
O O4 0.211088 0.130011 0.373282
O O5 0.500000 0.798372 0.543258
O O6 0.653315 0.735864 0.608822
O O7 0.595255 0.852390 0.703275
O O8 0.651263 0.869255 0.501022
O O9 0.898255 0.258102 0.723610
O O10 0.829091 0.127826 0.753584
O O11 0.000000 0.144119 0.691291
O O12 0.310896 0.154932 0.106524
O O13 0.174441 0.117129 0.975033
O O14 0.500000 0.859964 0.149697
O O15 0.629590 0.896620 0.291565
O O16 0.500000 0.124092 0.880225
O O17 0.318639 0.105887 0.870877
O O18 0.294746 0.000000 0.414735
O O19 0.200362 0.000000 0.845539
#
# Coordination Sequence:
#
# PCOD9375994 Si02
#       8
#     8   8   8   8   8   8   8   8
#     4   9  18  35  58  82 108 144 188 233 279 334
#     4  10  20  34  55  80 107 144 189 234 280 333
#     4  10  20  36  60  85 109 144 193 244 288 336
#     4   9  19  36  55  76 104 141 190 239 282 333
#     4  10  20  36  59  83 108 145 196 250 294 336
#     4  10  20  36  59  83 107 141 187 234 279 335
#     4  11  22  34  52  82 121 157 187 227 287 357
#     4  11  23  36  52  80 116 148 180 224 287 356
#
# _framework density 9.8765429999999999
#
# number of rings (size 3 to 8) (size 9 to 14) (size 15 to 20)
#    0.000    2.000    0.000    6.000    0.000    8.500 
#    0.000    1.250    0.000    1.125    0.000    1.750 
#    0.000    0.000    0.000    0.000    0.000    0.000 
#
# Total GULP energy -178150.299211 kJ/mol
# GULP energy per Si atom -5567.196850 kJ/mol
# Density = 0.985406 g / cm^3
# Si number density = 9.876543 Si / 1000 Ang^3
#
#
#
# Elastic Constant Matrix: (Units=GPa)
#
#
# Indices 1 2 3 4 5 6 
#
# 1 45.5937 13.8700 -11.8434 0.0000 0.0000 0.0000
# 2 13.8700 57.0251 32.5815 0.0000 0.0000 0.0000
# 3 -11.8434 32.5815 45.3278 0.0000 0.0000 0.0000
# 4 0.0000 0.0000 0.0000 10.6824 0.0000 0.0000
# 5 0.0000 0.0000 0.0000 0.0000 8.0322 0.0000
# 6 0.0000 0.0000 0.0000 0.0000 0.0000 11.0335
#
#
#
# Elastic Compliance Matrix: (Units=1/GPa)
#
#
# Indices 1 2 3 4 5 6 
#
# 1 0.036244 -0.024140 0.026822 0.000000 0.000000 0.000000
# 2 -0.024140 0.045835 -0.039254 0.000000 0.000000 0.000000
# 3 0.026822 -0.039254 0.057285 0.000000 0.000000 0.000000
# 4 0.000000 0.000000 0.000000 0.093612 0.000000 0.000000
# 5 0.000000 0.000000 0.000000 0.000000 0.124499 0.000000
# 6 0.000000 0.000000 0.000000 0.000000 0.000000 0.090633
#
#
# Mechanical properties :
#
#
# Convention : Reuss Voigt Hill
#
# Bulk Modulus (GPa) = 15.10122 24.12919 19.61520
# Shear Modulus (GPa) = 9.20259 13.50552 11.35405
#
# Velocity S-wave (km/s) = 2.16077 2.61764 2.40010
# Velocity P-wave (km/s) = 3.72650 4.62363 4.19909
#
# Compressibility (1/GPa) = 0.06621983
#
# Stress axis : x y z
#
# Youngs Moduli (GPa) = 27.59109 21.81723 17.45656
#
# Poissons Ratio (x) = 0.52667 -0.46821
# Poissons Ratio (y) = 0.66605 0.68523
# Poissons Ratio (z) = -0.74004 0.85641
#
# Static dielectric constant tensor:
#      x y z
#    x 1.776750 0.000000 0.000000 
#    y 0.000000 1.699180 0.000000 
#    z 0.000000 0.000000 1.756340 
# 
# From -- ./inp_files/13429.got.cif
#   From: 2010.05.17/outbox.ucp.g08.bks.cvg/sg44_7_cif.got.tgz:13429.got - 2010.06.11 16:32:36.
