data_PCOD9375499
_publ_section_title
;
Structure prediction by ZEFSAII (Michael W. Deem and Ramdas Pophale) SiO2 
 PCOD9375499
Probable space group: I M M 2
;
_chemical_formula_sum "Si O2"
_cell_formula_units_Z 48
_cell_length_a 19.121668
_cell_length_b 8.953121
_cell_length_c 15.477133
_cell_angle_alpha 90.000000
_cell_angle_beta 90.000000
_cell_angle_gamma 90.000000
_cell_volume 2649.663615
_symmetry_space_group_name_H-M "I M M 2"
_symmetry_group_IT_number 44
_symmetry_cell_setting 'orthorhombic'
loop_
_space_group_symop_operation_xyz
x,y,z
-x,-y,z
-x,y,z
x,-y,z
1/2+x,1/2+y,1/2+z
1/2-x,1/2-y,1/2+z
1/2-x,1/2+y,1/2+z
1/2+x,1/2-y,1/2+z
loop_
_atom_site_type_symbol
_atom_site_label
_atom_site_fract_x
_atom_site_fract_y
_atom_site_fract_z
Si Si1 0.081508 0.821281 0.636310
Si Si2 0.671815 0.177784 0.487624
Si Si3 0.917493 0.822211 0.140241
Si Si4 0.175305 0.678822 0.489728
Si Si5 0.082090 0.821955 0.838280
Si Si6 0.418646 0.178586 0.824561
O O1 0.131872 0.734817 0.572221
O O2 0.095572 0.789415 0.737337
O O3 0.000000 0.784396 0.619303
O O4 0.089507 0.000000 0.624437
O O5 0.629084 0.241059 0.569278
O O6 0.749191 0.245936 0.487739
O O7 0.630890 0.231858 0.402411
O O8 0.674846 0.000000 0.491426
O O9 0.901013 0.763344 0.236233
O O10 0.000000 0.791153 0.124686
O O11 0.907282 0.000000 0.134986
O O12 0.182512 0.500000 0.492058
O O13 0.131068 0.718964 0.403981
O O14 0.000000 0.791305 0.855362
O O15 0.092615 0.000000 0.851496
O O16 0.500000 0.211093 0.846017
O O17 0.413146 0.000000 0.809929
#
# Coordination Sequence:
#
# PCOD9375499 Si02
#       6
#     8   8   8   8   8   8
#     4   9  19  37  61  87 115 148 185 227 276 330
#     4  12  25  38  55  81 114 151 188 230 280 332
#     4  10  21  38  61  86 111 143 184 230 279 332
#     4  11  23  38  57  82 115 153 189 229 277 329
#     4   9  19  38  62  85 111 145 184 227 277 332
#     4   9  19  37  60  85 112 144 184 229 277 328
#
# _framework density 18.115506
#
# number of rings (size 3 to 8) (size 9 to 14) (size 15 to 20)
#    0.000    2.000    0.000    4.500    0.000    7.667 
#    0.000    5.000    0.000    0.000    0.000    0.000 
#    0.000    0.000    0.000    0.000    0.000    0.000 
#
# Total GULP energy -134102.830164 kJ/mol
# GULP energy per Si atom -5587.617924 kJ/mol
# Density = 1.807427 g / cm^3
# Si number density = 18.115506 Si / 1000 Ang^3
#
#
#
# Elastic Constant Matrix: (Units=GPa)
#
#
# Indices 1 2 3 4 5 6 
#
# 1 139.2196 94.4393 120.8077 0.0000 0.0000 0.0000
# 2 94.4393 92.3353 91.7410 0.0000 0.0000 0.0000
# 3 120.8077 91.7410 140.7993 0.0000 0.0000 0.0000
# 4 0.0000 0.0000 0.0000 38.6386 0.0000 0.0000
# 5 0.0000 0.0000 0.0000 0.0000 -20.1978 0.0000
# 6 0.0000 0.0000 0.0000 0.0000 0.0000 31.7903
#
#
#
# Elastic Compliance Matrix: (Units=1/GPa)
#
#
# Indices 1 2 3 4 5 6 
#
# 1 0.035751 -0.017266 -0.019425 0.000000 0.000000 0.000000
# 2 -0.017266 0.039052 -0.010631 0.000000 0.000000 0.000000
# 3 -0.019425 -0.010631 0.030696 0.000000 0.000000 0.000000
# 4 0.000000 0.000000 0.000000 0.025881 0.000000 0.000000
# 5 0.000000 0.000000 0.000000 0.000000 -0.049510 0.000000
# 6 0.000000 0.000000 0.000000 0.000000 0.000000 0.031456
#
#
# Mechanical properties :
#
#
# Convention : Reuss Voigt Hill
#
# Bulk Modulus (GPa) = 92.11811 109.59225 100.85518
# Shear Modulus (GPa) = 23.63092 14.40397 19.01744
#
# Velocity S-wave (km/s) = 3.61565 2.82284 3.24356
# Velocity P-wave (km/s) = 8.26991 8.44111 8.35595
#
# Compressibility (1/GPa) = 0.01085563
#
# Stress axis : x y z
#
# Youngs Moduli (GPa) = 27.97104 25.60715 32.57756
#
# Poissons Ratio (x) = 0.44213 0.63282
# Poissons Ratio (y) = 0.48294 0.34632
# Poissons Ratio (z) = 0.54334 0.27222
#
# Static dielectric constant tensor:
#      x y z
#    x 1.595140 0.000000 0.000000 
#    y 0.000000 1.601990 0.000000 
#    z 0.000000 0.000000 1.596980 
# 
# From -- ./inp_files/16066.got.cif
#   From: 2010.05.17/outbox.cif.g08.bks.cpg/sg44_9_cif.got.tgz:16066.got - 2010.06.03 19:37:08.
