data_PCOD9375687
_publ_section_title
;
Structure prediction by ZEFSAII (Michael W. Deem and Ramdas Pophale) SiO2 
 PCOD9375687
Probable space group: I M M 2
;
_chemical_formula_sum "Si O2"
_cell_formula_units_Z 64
_cell_length_a 25.647477
_cell_length_b 8.805305
_cell_length_c 15.219258
_cell_angle_alpha 90.000000
_cell_angle_beta 90.000000
_cell_angle_gamma 90.000000
_cell_volume 3437.023742
_symmetry_space_group_name_H-M "I M M 2"
_symmetry_group_IT_number 44
_symmetry_cell_setting 'orthorhombic'
loop_
_space_group_symop_operation_xyz
x,y,z
-x,-y,z
-x,y,z
x,-y,z
1/2+x,1/2+y,1/2+z
1/2-x,1/2-y,1/2+z
1/2-x,1/2+y,1/2+z
1/2+x,1/2-y,1/2+z
loop_
_atom_site_type_symbol
_atom_site_label
_atom_site_fract_x
_atom_site_fract_y
_atom_site_fract_z
Si Si1 0.834403 0.180480 0.562190
Si Si2 0.765941 0.820110 0.831315
Si Si3 0.135881 0.679681 0.736101
Si Si4 0.602809 0.819209 0.563494
Si Si5 0.441770 0.683160 0.739198
Si Si6 0.781723 0.318928 0.021578
Si Si7 0.344562 0.683046 0.857110
Si Si8 0.061606 0.180957 0.881505
O O1 0.866480 0.269571 0.634966
O O2 0.772284 0.212023 0.571236
O O3 0.847589 0.218164 0.461094
O O4 0.842007 0.000000 0.574729
O O5 0.808346 0.738272 0.771279
O O6 0.707199 0.760688 0.818864
O O7 0.768739 0.000000 0.818372
O O8 0.780526 0.774785 0.931395
O O9 0.132560 0.500000 0.745176
O O10 0.092623 0.756261 0.797800
O O11 0.571919 0.743257 0.642724
O O12 0.664761 0.786826 0.571651
O O13 0.583956 0.757054 0.469722
O O14 0.595629 0.000000 0.565812
O O15 0.500000 0.732483 0.764836
O O16 0.441204 0.500000 0.737163
O O17 0.396260 0.731266 0.805721
O O18 0.781290 0.500000 0.999282
O O19 0.338473 0.500000 0.850275
O O20 0.000000 0.211933 0.874906
O O21 0.069316 0.000000 0.887454
#
# Coordination Sequence:
#
# PCOD9375687 Si02
#       8
#     8   8   8   8   8   8   8   8
#     4   9  19  37  59  84 119 155 194 244 295 348
#     4  11  21  34  57  86 117 152 193 239 292 350
#     4  12  24  38  58  87 122 157 197 240 293 356
#     4  11  22  36  58  89 123 159 196 239 295 352
#     4  10  22  40  61  86 117 156 203 249 294 350
#     4   9  19  36  56  83 120 157 193 234 286 349
#     4   9  20  40  62  85 117 155 198 249 300 350
#     4  11  24  42  63  87 117 156 202 247 293 350
#
# _framework density 18.620761999999999
#
# number of rings (size 3 to 8) (size 9 to 14) (size 15 to 20)
#    0.000    1.750    1.250    4.125    1.750    5.750 
#    0.000    0.625    0.000    2.250    0.000    0.000 
#    0.000    0.000    0.000    0.000    0.000    0.000 
#
# Total GULP energy -178798.536364 kJ/mol
# GULP energy per Si atom -5587.454261 kJ/mol
# Density = 1.857838 g / cm^3
# Si number density = 18.620762 Si / 1000 Ang^3
#
#
#
# Elastic Constant Matrix: (Units=GPa)
#
#
# Indices 1 2 3 4 5 6 
#
# 1 105.9444 24.0837 33.2851 0.0000 0.0000 0.0000
# 2 24.0837 23.4405 8.3300 0.0000 0.0000 0.0000
# 3 33.2851 8.3300 50.9206 0.0000 0.0000 0.0000
# 4 0.0000 0.0000 0.0000 24.0402 0.0000 0.0000
# 5 0.0000 0.0000 0.0000 0.0000 26.2892 0.0000
# 6 0.0000 0.0000 0.0000 0.0000 0.0000 20.1183
#
#
#
# Elastic Compliance Matrix: (Units=1/GPa)
#
#
# Indices 1 2 3 4 5 6 
#
# 1 0.014609 -0.012333 -0.007532 0.000000 0.000000 0.000000
# 2 -0.012333 0.055706 -0.001051 0.000000 0.000000 0.000000
# 3 -0.007532 -0.001051 0.024734 0.000000 0.000000 0.000000
# 4 0.000000 0.000000 0.000000 0.041597 0.000000 0.000000
# 5 0.000000 0.000000 0.000000 0.000000 0.038039 0.000000
# 6 0.000000 0.000000 0.000000 0.000000 0.000000 0.049706
#
#
# Mechanical properties :
#
#
# Convention : Reuss Voigt Hill
#
# Bulk Modulus (GPa) = 18.79111 34.63367 26.71239
# Shear Modulus (GPa) = 17.60807 21.72999 19.66903
#
# Velocity S-wave (km/s) = 3.07842 3.41981 3.25360
# Velocity P-wave (km/s) = 4.76959 5.85093 5.33771
#
# Compressibility (1/GPa) = 0.05321665
#
# Stress axis : x y z
#
# Youngs Moduli (GPa) = 68.45191 17.95135 40.43081
#
# Poissons Ratio (x) = 0.22140 0.30451
# Poissons Ratio (y) = 0.84422 0.04250
# Poissons Ratio (z) = 0.51556 0.01887
#
# Static dielectric constant tensor:
#      x y z
#    x 1.643200 0.000000 0.000000 
#    y 0.000000 1.620420 0.000000 
#    z 0.000000 0.000000 1.635750 
# 
# From -- ./inp_files/19459.got.cif
#   From: 2010.05.17/outbox.cif.g08.bks.cpg/sg44_10_cif.got.tgz:19459.got - 2010.06.03 19:37:08.
