data_PCOD9375117
_publ_section_title
;
Structure prediction by ZEFSAII (Michael W. Deem and Ramdas Pophale) SiO2 
 PCOD9375117
Probable space group: I M M 2
;
_chemical_formula_sum "Si O2"
_cell_formula_units_Z 58
_cell_length_a 18.126426
_cell_length_b 9.431280
_cell_length_c 17.313867
_cell_angle_alpha 90.000000
_cell_angle_beta 90.000000
_cell_angle_gamma 90.000000
_cell_volume 2959.899041
_symmetry_space_group_name_H-M "I M M 2"
_symmetry_group_IT_number 44
_symmetry_cell_setting 'orthorhombic'
loop_
_space_group_symop_operation_xyz
x,y,z
-x,-y,z
-x,y,z
x,-y,z
1/2+x,1/2+y,1/2+z
1/2-x,1/2-y,1/2+z
1/2-x,1/2+y,1/2+z
1/2+x,1/2-y,1/2+z
loop_
_atom_site_type_symbol
_atom_site_label
_atom_site_fract_x
_atom_site_fract_y
_atom_site_fract_z
Si Si1 0.658438 0.333414 0.090210
Si Si2 0.416714 0.668709 0.929942
Si Si3 0.301669 0.668319 0.539882
Si Si4 0.500000 0.000000 0.463128
Si Si5 0.155047 0.833888 0.765833
Si Si6 0.673615 0.835611 0.805447
Si Si7 0.587825 0.834863 0.645861
Si Si8 0.138396 0.344303 0.906859
O O1 0.681979 0.500000 0.086477
O O2 0.727862 0.233356 0.075731
O O3 0.631572 0.310413 0.177476
O O4 0.602185 0.308925 0.020205
O O5 0.500000 0.719214 0.912821
O O6 0.414212 0.500000 0.916630
O O7 0.357118 0.742280 0.875087
O O8 0.300251 0.500000 0.535915
O O9 0.368062 0.726565 0.592692
O O10 0.311912 0.738212 0.455796
O O11 0.435081 0.120533 0.454528
O O12 0.243255 0.806214 0.776027
O O13 0.118203 0.728680 0.826418
O O14 0.142397 0.000000 0.784355
O O15 0.619209 0.819241 0.732282
O O16 0.672278 0.000000 0.829667
O O17 0.500000 0.816137 0.642810
O O18 0.602537 0.000000 0.622111
O O19 0.174271 0.500000 0.894642
#
# Coordination Sequence:
#
# PCOD9375117 Si02
#       8
#     8   8   8   2   8   8   8   8
#     4  10  21  41  64  89 122 162 202 247 304 368
#     4  10  22  39  60  88 122 159 200 245 299 360
#     4  12  24  37  59  91 124 155 203 253 303 359
#     4   8  24  44  62  84 116 164 210 248 300 392
#     4  10  20  38  64  92 119 150 203 264 306 355
#     4  10  20  37  61  88 119 155 200 245 297 360
#     4  10  21  37  59  84 118 163 202 242 302 371
#     4  10  22  41  62  82 116 159 202 245 306 366
#
# _framework density 19.595264
#
# number of rings (size 3 to 8) (size 9 to 14) (size 15 to 20)
#    0.414    1.379    1.379    2.897    0.966    5.517 
#    1.241    1.034    0.000    0.000    0.000    0.000 
#    0.000    0.000    0.000    0.000    0.000    0.000 
#
# Total GULP energy -161657.433981 kJ/mol
# GULP energy per Si atom -5574.394275 kJ/mol
# Density = 1.955066 g / cm^3
# Si number density = 19.595264 Si / 1000 Ang^3
#
#
#
# Elastic Constant Matrix: (Units=GPa)
#
#
# Indices 1 2 3 4 5 6 
#
# 1 29.2945 6.4710 -7.8889 0.0000 0.0000 0.0000
# 2 6.4710 70.8967 35.6948 0.0000 0.0000 0.0000
# 3 -7.8889 35.6948 86.9495 0.0000 0.0000 0.0000
# 4 0.0000 0.0000 0.0000 21.3250 0.0000 0.0000
# 5 0.0000 0.0000 0.0000 0.0000 10.8916 0.0000
# 6 0.0000 0.0000 0.0000 0.0000 0.0000 30.1245
#
#
#
# Elastic Compliance Matrix: (Units=1/GPa)
#
#
# Indices 1 2 3 4 5 6 
#
# 1 0.037171 -0.006417 0.006007 0.000000 0.000000 0.000000
# 2 -0.006417 0.018888 -0.008336 0.000000 0.000000 0.000000
# 3 0.006007 -0.008336 0.015468 0.000000 0.000000 0.000000
# 4 0.000000 0.000000 0.000000 0.046893 0.000000 0.000000
# 5 0.000000 0.000000 0.000000 0.000000 0.091814 0.000000
# 6 0.000000 0.000000 0.000000 0.000000 0.000000 0.033196
#
#
# Mechanical properties :
#
#
# Convention : Reuss Voigt Hill
#
# Bulk Modulus (GPa) = 18.50669 28.41050 23.45860
# Shear Modulus (GPa) = 17.92541 22.65915 20.29228
#
# Velocity S-wave (km/s) = 3.02782 3.40422 3.22152
# Velocity P-wave (km/s) = 4.65710 5.47556 5.08283
#
# Compressibility (1/GPa) = 0.05403452
#
# Stress axis : x y z
#
# Youngs Moduli (GPa) = 26.90252 52.94439 64.64925
#
# Poissons Ratio (x) = 0.33975 -0.38834
# Poissons Ratio (y) = 0.17264 0.53892
# Poissons Ratio (z) = -0.16160 0.44135
#
# Static dielectric constant tensor:
#      x y z
#    x 1.683140 0.000000 0.000000 
#    y 0.000000 1.661980 0.000000 
#    z 0.000000 0.000000 1.725860 
# 
# From -- ./inp_files/22134.got.cif
#   From: 2010.05.17/outbox.cif.g08.bks.cpg/sg44_12_cif.got.tgz:22134.got - 2010.06.03 19:37:08.
