data_PCOD9375627
_publ_section_title
;
Structure prediction by ZEFSAII (Michael W. Deem and Ramdas Pophale) SiO2 
 PCOD9375627
Probable space group: I M M 2
;
_chemical_formula_sum "Si O2"
_cell_formula_units_Z 26
_cell_length_a 7.513349
_cell_length_b 23.526642
_cell_length_c 7.578604
_cell_angle_alpha 90.000000
_cell_angle_beta 90.000000
_cell_angle_gamma 90.000000
_cell_volume 1339.623388
_symmetry_space_group_name_H-M "I M M 2"
_symmetry_group_IT_number 44
_symmetry_cell_setting 'orthorhombic'
loop_
_space_group_symop_operation_xyz
x,y,z
-x,-y,z
-x,y,z
x,-y,z
1/2+x,1/2+y,1/2+z
1/2-x,1/2-y,1/2+z
1/2-x,1/2+y,1/2+z
1/2+x,1/2-y,1/2+z
loop_
_atom_site_type_symbol
_atom_site_label
_atom_site_fract_x
_atom_site_fract_y
_atom_site_fract_z
Si Si1 0.714045 0.183940 0.833710
Si Si2 0.295146 0.098901 0.528668
Si Si3 0.709501 0.689755 0.739951
Si Si4 0.500000 0.500000 0.984880
O O1 0.500000 0.185504 0.823516
O O2 0.768396 0.134306 0.700789
O O3 0.779049 0.246199 0.772395
O O4 0.766676 0.174623 0.035422
O O5 0.500000 0.079457 0.556432
O O6 0.296099 0.144453 0.369537
O O7 0.156878 0.049517 0.488376
O O8 0.500000 0.689719 0.781418
#
# Coordination Sequence:
#
# PCOD9375627 Si02
#       4
#     8   8   8   2
#     4  10  22  37  62  99 137 173 217 279 345 398
#     4  11  24  45  67  97 134 179 228 275 331 397
#     4  11  21  36  64 100 137 173 217 278 345 399
#     4  12  26  48  70  94 136 190 238 262 326 414
#
# _framework density 19.408441
#
# number of rings (size 3 to 8) (size 9 to 14) (size 15 to 20)
#    0.000    1.231    4.615    1.385    2.154    1.231 
#    0.000    3.077    0.000    3.692    0.000    0.000 
#    0.000    0.000    0.000    0.000    0.000    0.000 
#
# Total GULP energy -72382.767666 kJ/mol
# GULP energy per Si atom -5567.905205 kJ/mol
# Density = 1.936427 g / cm^3
# Si number density = 19.408441 Si / 1000 Ang^3
#
#
#
# Elastic Constant Matrix: (Units=GPa)
#
#
# Indices 1 2 3 4 5 6 
#
# 1 97.4035 24.2134 -17.8692 0.0005 -0.0001 -0.0004
# 2 24.2134 52.4499 -24.3581 0.0015 -0.0002 0.0000
# 3 -17.8692 -24.3581 71.4486 -0.0005 0.0007 -0.0022
# 4 0.0005 0.0015 -0.0005 -2.9356 -0.0001 -0.0003
# 5 -0.0001 -0.0002 0.0007 -0.0001 24.5516 0.0010
# 6 -0.0004 0.0000 -0.0022 -0.0003 0.0010 84.8245
#
#
#
# Elastic Compliance Matrix: (Units=1/GPa)
#
#
# Indices 1 2 3 4 5 6 
#
# 1 0.011696 -0.004801 0.001288 -0.000001 0.000000 0.000000
# 2 -0.004801 0.024623 0.007194 0.000010 0.000000 0.000000
# 3 0.001288 0.007194 0.016771 0.000001 0.000000 0.000000
# 4 -0.000001 0.000010 0.000001 -0.340649 -0.000001 -0.000001
# 5 0.000000 0.000000 0.000000 -0.000001 0.040731 0.000000
# 6 0.000000 0.000000 0.000000 -0.000001 0.000000 0.011789
#
#
# Mechanical properties :
#
#
# Convention : Reuss Voigt Hill
#
# Bulk Modulus (GPa) = 16.54205 20.58600 18.56403
# Shear Modulus (GPa) = -22.49720 37.24249 7.37265
#
# Velocity S-wave (km/s) = -3.40832 4.38526 1.95113
# Velocity P-wave (km/s) = 2.63575 6.02249 3.82905
#
# Compressibility (1/GPa) = 0.06045198
#
# Stress axis : x y z
#
# Youngs Moduli (GPa) = 85.49573 40.61222 59.62755
#
# Poissons Ratio (x) = 0.19499 -0.07683
# Poissons Ratio (y) = 0.41049 -0.42894
# Poissons Ratio (z) = -0.11016 -0.29215
#
# Static dielectric constant tensor:
#      x y z
#    x 1.709670 0.000000 0.000000 
#    y 0.000000 1.648500 0.000000 
#    z 0.000000 0.000000 1.664970 
# 
# From -- ./inp_files/296.got.cif
#   From: 2010.05.17/outbox.cif.g08.bks.cpg/sg44_1_cif.got.tgz:296.got - 2010.06.03 19:37:08.
