data_PCOD9375781
_publ_section_title
;
Structure prediction by ZEFSAII (Michael W. Deem and Ramdas Pophale) SiO2 
 PCOD9375781
Probable space group: I M M 2
;
_chemical_formula_sum "Si O2"
_cell_formula_units_Z 58
_cell_length_a 15.695236
_cell_length_b 7.400003
_cell_length_c 24.656054
_cell_angle_alpha 90.000000
_cell_angle_beta 90.000000
_cell_angle_gamma 90.000000
_cell_volume 2863.672300
_symmetry_space_group_name_H-M "I M M 2"
_symmetry_group_IT_number 44
_symmetry_cell_setting 'orthorhombic'
loop_
_space_group_symop_operation_xyz
x,y,z
-x,-y,z
-x,y,z
x,-y,z
1/2+x,1/2+y,1/2+z
1/2-x,1/2-y,1/2+z
1/2-x,1/2+y,1/2+z
1/2+x,1/2-y,1/2+z
loop_
_atom_site_type_symbol
_atom_site_label
_atom_site_fract_x
_atom_site_fract_y
_atom_site_fract_z
Si Si1 0.403160 0.218347 0.925610
Si Si2 0.758027 0.205880 0.338754
Si Si3 0.403861 0.779622 0.049977
Si Si4 0.402649 0.720347 0.530286
Si Si5 0.094589 0.786609 0.908271
Si Si6 0.341218 0.721443 0.727698
Si Si7 0.740696 0.718959 0.614107
Si Si8 0.500000 0.000000 0.720275
O O1 0.500000 0.275186 0.911553
O O2 0.332255 0.279879 0.883714
O O3 0.402179 0.000000 0.924518
O O4 0.385233 0.273914 0.987624
O O5 0.670100 0.266936 0.365681
O O6 0.794321 0.282812 0.282937
O O7 0.741995 0.000000 0.325235
O O8 0.500000 0.722164 0.063285
O O9 0.330896 0.717930 0.090633
O O10 0.404029 0.000000 0.049934
O O11 0.500000 0.773391 0.542953
O O12 0.400546 0.500000 0.531156
O O13 0.382619 0.781613 0.468808
O O14 0.334656 0.782639 0.574181
O O15 0.000000 0.716724 0.893166
O O16 0.085767 0.000000 0.915519
O O17 0.357330 0.500000 0.729121
O O18 0.282201 0.760354 0.675650
O O19 0.425712 0.839980 0.721526
O O20 0.741871 0.500000 0.610377
#
# Coordination Sequence:
#
# PCOD9375781 Si02
#       8
#     8   8   8   8   8   8   8   2
#     4   9  18  31  54  84 111 142 190 237 284 347
#     4  11  23  36  52  78 116 152 190 236 286 350
#     4   8  14  27  51  85 112 141 189 241 285 340
#     4   8  14  25  49  81 105 138 185 231 287 345
#     4   9  18  34  58  85 109 141 192 240 283 346
#     4  10  25  42  60  90 118 154 202 239 290 357
#     4   9  16  30  53  78 113 150 186 238 288 336
#     4  12  26  44  68  82 118 160 194 248 300 328
#
# _framework density 20.253713000000001
#
# number of rings (size 3 to 8) (size 9 to 14) (size 15 to 20)
#    0.000    2.759    0.000    3.103    3.862    2.759 
#    0.000    0.690    6.069    2.483    0.000    0.000 
#    0.000    0.000    0.000    0.000    0.000    0.000 
#
# Total GULP energy -161490.519264 kJ/mol
# GULP energy per Si atom -5568.638595 kJ/mol
# Density = 2.020761 g / cm^3
# Si number density = 20.253713 Si / 1000 Ang^3
#
#
#
# Elastic Constant Matrix: (Units=GPa)
#
#
# Indices 1 2 3 4 5 6 
#
# 1 161.4967 8.0528 123.2832 0.0000 0.0000 0.0000
# 2 8.0528 73.1230 11.8614 0.0000 0.0000 0.0000
# 3 123.2832 11.8614 139.5423 0.0000 0.0000 0.0000
# 4 0.0000 0.0000 0.0000 8.4279 0.0000 0.0000
# 5 0.0000 0.0000 0.0000 0.0000 -12.2299 0.0000
# 6 0.0000 0.0000 0.0000 0.0000 0.0000 3.6106
#
#
#
# Elastic Compliance Matrix: (Units=1/GPa)
#
#
# Indices 1 2 3 4 5 6 
#
# 1 0.019049 0.000641 -0.016884 0.000000 0.000000 0.000000
# 2 0.000641 0.013888 -0.001747 0.000000 0.000000 0.000000
# 3 -0.016884 -0.001747 0.022231 0.000000 0.000000 0.000000
# 4 0.000000 0.000000 0.000000 0.118654 0.000000 0.000000
# 5 0.000000 0.000000 0.000000 0.000000 -0.081767 0.000000
# 6 0.000000 0.000000 0.000000 0.000000 0.000000 0.276962
#
#
# Mechanical properties :
#
#
# Convention : Reuss Voigt Hill
#
# Bulk Modulus (GPa) = 52.11267 73.39520 62.75394
# Shear Modulus (GPa) = 12.15381 15.35935 13.75658
#
# Velocity S-wave (km/s) = 2.45231 2.75680 2.60900
# Velocity P-wave (km/s) = 5.81414 6.81541 6.33459
#
# Compressibility (1/GPa) = 0.01918919
#
# Stress axis : x y z
#
# Youngs Moduli (GPa) = 52.49641 72.00278 44.98146
#
# Poissons Ratio (x) = -0.04615 0.75946
# Poissons Ratio (y) = -0.03365 0.07857
# Poissons Ratio (z) = 0.88634 0.12578
#
# Static dielectric constant tensor:
#      x y z
#    x 1.718600 0.000000 0.000000 
#    y 0.000000 1.811330 0.000000 
#    z 0.000000 0.000000 1.717650 
# 
# From -- ./inp_files/25032.got.cif
#   From: 2010.05.17/outbox.cif.g08.bks.cpg/sg44_13_cif.got.tgz:25032.got - 2010.06.03 19:37:08.
