data_PCOD9375121
_publ_section_title
;
Structure prediction by ZEFSAII (Michael W. Deem and Ramdas Pophale) SiO2 
 PCOD9375121
Probable space group: I M M 2
;
_chemical_formula_sum "Si O2"
_cell_formula_units_Z 64
_cell_length_a 8.677305
_cell_length_b 24.320414
_cell_length_c 15.775209
_cell_angle_alpha 90.000000
_cell_angle_beta 90.000000
_cell_angle_gamma 90.000000
_cell_volume 3329.131485
_symmetry_space_group_name_H-M "I M M 2"
_symmetry_group_IT_number 44
_symmetry_cell_setting 'orthorhombic'
loop_
_space_group_symop_operation_xyz
x,y,z
-x,-y,z
-x,y,z
x,-y,z
1/2+x,1/2+y,1/2+z
1/2-x,1/2-y,1/2+z
1/2-x,1/2+y,1/2+z
1/2+x,1/2-y,1/2+z
loop_
_atom_site_type_symbol
_atom_site_label
_atom_site_fract_x
_atom_site_fract_y
_atom_site_fract_z
Si Si1 0.182595 0.746549 0.090420
Si Si2 0.184346 0.361186 0.531062
Si Si3 0.312278 0.937073 0.188516
Si Si4 0.315204 0.248658 0.278701
Si Si5 0.817331 0.869836 0.536580
Si Si6 0.685584 0.130584 0.354874
Si Si7 0.816529 0.868049 0.852121
Si Si8 0.183964 0.564539 0.194901
O O1 0.239180 0.801905 0.045396
O O2 0.229054 0.751166 0.189107
O O3 0.263745 0.692691 0.053233
O O4 0.000000 0.740546 0.080795
O O5 0.235080 0.401368 0.607178
O O6 0.233409 0.383018 0.439416
O O7 0.000000 0.355286 0.535806
O O8 0.500000 0.937509 0.188072
O O9 0.266513 0.906904 0.275332
O O10 0.259430 0.000000 0.184607
O O11 0.500000 0.247612 0.261690
O O12 0.277531 0.193789 0.330838
O O13 0.279802 0.304639 0.328292
O O14 0.763310 0.885650 0.442626
O O15 0.739935 0.907068 0.608610
O O16 0.000000 0.873536 0.544805
O O17 0.500000 0.126815 0.364108
O O18 0.762419 0.905081 0.773953
O O19 0.000000 0.872254 0.862716
O O20 0.221353 0.500000 0.194772
O O21 0.000000 0.570952 0.201972
#
# Coordination Sequence:
#
# PCOD9375121 Si02
#       8
#     8   8   8   8   8   8   8   8
#     4  12  23  37  62  92 125 162 206 254 311 375
#     4  11  22  39  63  92 128 166 208 255 309 369
#     4   9  19  37  62  90 120 160 208 255 301 353
#     4  10  20  37  61  90 123 160 199 250 313 375
#     4  12  25  41  63  93 128 162 203 253 316 380
#     4  10  20  38  63  91 126 163 205 252 306 370
#     4  11  23  39  63  94 128 161 201 255 317 376
#     4  11  25  45  67  91 121 163 215 262 306 365
#
# _framework density 19.224233999999999
#
# number of rings (size 3 to 8) (size 9 to 14) (size 15 to 20)
#    0.000    1.250    2.500    4.125    0.000    4.000 
#    0.000    2.500    0.000    2.625    0.000    0.000 
#    0.000    0.000    0.000    0.000    0.000    0.000 
#
# Total GULP energy -178979.681263 kJ/mol
# GULP energy per Si atom -5593.115039 kJ/mol
# Density = 1.918048 g / cm^3
# Si number density = 19.224234 Si / 1000 Ang^3
#
#
#
# Elastic Constant Matrix: (Units=GPa)
#
#
# Indices 1 2 3 4 5 6 
#
# 1 19.6495 7.0531 1.2767 0.0000 0.0000 0.0000
# 2 7.0531 97.0390 23.8397 0.0000 0.0000 0.0000
# 3 1.2767 23.8397 107.5263 0.0002 0.0000 0.0000
# 4 0.0000 0.0000 0.0002 -4.8735 0.0000 0.0000
# 5 0.0000 0.0000 0.0000 0.0000 32.8581 0.0000
# 6 0.0000 0.0000 0.0000 0.0000 0.0000 22.6624
#
#
#
# Elastic Compliance Matrix: (Units=1/GPa)
#
#
# Indices 1 2 3 4 5 6 
#
# 1 0.052261 -0.003856 0.000234 0.000000 0.000000 0.000000
# 2 -0.003856 0.011183 -0.002434 0.000000 0.000000 0.000000
# 3 0.000234 -0.002434 0.009837 0.000000 0.000000 0.000000
# 4 0.000000 0.000000 0.000000 -0.205192 0.000000 0.000000
# 5 0.000000 0.000000 0.000000 0.000000 0.030434 0.000000
# 6 0.000000 0.000000 0.000000 0.000000 0.000000 0.044126
#
#
# Mechanical properties :
#
#
# Convention : Reuss Voigt Hill
#
# Bulk Modulus (GPa) = 16.34782 32.06151 24.20467
# Shear Modulus (GPa) = -201.20260 22.93243 -89.13508
#
# Velocity S-wave (km/s) = -10.24149 3.45757 -6.81665
# Velocity P-wave (km/s) = 11.45987 5.71433 7.02407
#
# Compressibility (1/GPa) = 0.06117022
#
# Stress axis : x y z
#
# Youngs Moduli (GPa) = 19.13486 89.41922 101.65871
#
# Poissons Ratio (x) = 0.34480 -0.02383
# Poissons Ratio (y) = 0.07378 0.24740
# Poissons Ratio (z) = -0.00449 0.21762
#
# Static dielectric constant tensor:
#      x y z
#    x 1.646390 0.000000 0.000000 
#    y 0.000000 1.651440 0.000000 
#    z 0.000000 0.000000 1.652300 
# 
# From -- ./inp_files/16799.got.cif
#   From: 2010.05.17/outbox.cif.g08.bks.cpg/sg44_9_cif.got.tgz:16799.got - 2010.06.03 19:37:08.
