data_PCOD9375291
_publ_section_title
;
Structure prediction by ZEFSAII (Michael W. Deem and Ramdas Pophale) SiO2 
 PCOD9375291
Probable space group: I M M 2
;
_chemical_formula_sum "Si O2"
_cell_formula_units_Z 64
_cell_length_a 16.525808
_cell_length_b 8.067583
_cell_length_c 23.116380
_cell_angle_alpha 90.000000
_cell_angle_beta 90.000000
_cell_angle_gamma 90.000000
_cell_volume 3081.952706
_symmetry_space_group_name_H-M "I M M 2"
_symmetry_group_IT_number 44
_symmetry_cell_setting 'orthorhombic'
loop_
_space_group_symop_operation_xyz
x,y,z
-x,-y,z
-x,y,z
x,-y,z
1/2+x,1/2+y,1/2+z
1/2-x,1/2-y,1/2+z
1/2-x,1/2+y,1/2+z
1/2+x,1/2-y,1/2+z
loop_
_atom_site_type_symbol
_atom_site_label
_atom_site_fract_x
_atom_site_fract_y
_atom_site_fract_z
Si Si1 0.409863 0.199522 0.040210
Si Si2 0.307372 0.306817 0.372191
Si Si3 0.090812 0.693316 0.106037
Si Si4 0.085328 0.195599 0.284224
Si Si5 0.268758 0.693843 0.127499
Si Si6 0.239565 0.695865 0.749199
Si Si7 0.622115 0.193457 0.909798
Si Si8 0.594169 0.690182 0.477822
O O1 0.500000 0.254033 0.060272
O O2 0.334327 0.244071 0.081133
O O3 0.410506 0.000000 0.037556
O O4 0.398312 0.257868 0.973651
O O5 0.329162 0.500000 0.363853
O O6 0.305704 0.224946 0.309594
O O7 0.217930 0.299806 0.399312
O O8 0.363410 0.234745 0.422052
O O9 0.087654 0.500000 0.122991
O O10 0.176591 0.767996 0.127474
O O11 0.000000 0.765220 0.119203
O O12 0.101636 0.709785 0.036867
O O13 0.169098 0.266499 0.259793
O O14 0.087554 0.216189 0.353586
O O15 0.000000 0.267638 0.262629
O O16 0.085905 0.000000 0.271263
O O17 0.259079 0.500000 0.115760
O O18 0.298537 0.722774 0.192807
O O19 0.244307 0.500000 0.739093
O O20 0.597154 0.000000 0.906573
O O21 0.500000 0.677806 0.465127
O O22 0.625359 0.500000 0.487515
#
# Coordination Sequence:
#
# PCOD9375291 Si02
#       8
#     8   8   8   8   8   8   8   8
#     4  10  21  37  57  81 109 141 178 220 265 314
#     4   9  17  31  51  75 104 134 165 207 258 310
#     4   9  19  35  54  79 111 143 175 214 262 317
#     4   9  18  32  50  75 106 135 164 205 258 313
#     4  11  23  38  56  77 104 141 183 225 268 313
#     4  10  21  36  53  72  97 133 177 219 259 309
#     4   9  17  30  51  78 105 134 167 203 250 311
#     4   9  17  30  51  79 106 132 166 209 258 312
#
# _framework density 20.766055999999999
#
# number of rings (size 3 to 8) (size 9 to 14) (size 15 to 20)
#    0.000    2.500    0.000    1.875    0.000    5.000 
#    0.000    3.125    0.000    2.250    0.000    0.000 
#    0.000    0.000    0.000    0.000    0.000    0.000 
#
# Total GULP energy -178369.231232 kJ/mol
# GULP energy per Si atom -5574.038476 kJ/mol
# Density = 2.071879 g / cm^3
# Si number density = 20.766056 Si / 1000 Ang^3
#
#
#
# Elastic Constant Matrix: (Units=GPa)
#
#
# Indices 1 2 3 4 5 6 
#
# 1 50.9480 7.0320 44.8816 0.0000 0.0000 0.0000
# 2 7.0320 20.9822 -4.1201 0.0000 0.0000 0.0000
# 3 44.8816 -4.1201 103.0854 0.0000 0.0000 0.0000
# 4 0.0000 0.0000 0.0000 21.9449 0.0000 0.0000
# 5 0.0000 0.0000 0.0000 0.0000 -17.3441 0.0000
# 6 0.0000 0.0000 0.0000 0.0000 0.0000 -4.4109
#
#
#
# Elastic Compliance Matrix: (Units=1/GPa)
#
#
# Indices 1 2 3 4 5 6 
#
# 1 0.036146 -0.015325 -0.016350 0.000000 0.000000 0.000000
# 2 -0.015325 0.054534 0.008852 0.000000 0.000000 0.000000
# 3 -0.016350 0.008852 0.017173 0.000000 0.000000 0.000000
# 4 0.000000 0.000000 0.000000 0.045569 0.000000 0.000000
# 5 0.000000 0.000000 0.000000 0.000000 -0.057657 0.000000
# 6 0.000000 0.000000 0.000000 0.000000 0.000000 -0.226710
#
#
# Mechanical properties :
#
#
# Convention : Reuss Voigt Hill
#
# Bulk Modulus (GPa) = 16.07539 30.06695 23.07117
# Shear Modulus (GPa) = -77.44194 8.51945 -34.46125
#
# Velocity S-wave (km/s) = -6.11339 2.02768 -4.07811
# Velocity P-wave (km/s) = 6.48640 4.47128 3.32273
#
# Compressibility (1/GPa) = 0.06220688
#
# Stress axis : x y z
#
# Youngs Moduli (GPa) = 27.66552 18.33735 58.23120
#
# Poissons Ratio (x) = 0.28101 0.95207
# Poissons Ratio (y) = 0.42396 -0.51544
# Poissons Ratio (z) = 0.45233 -0.16232
#
# Static dielectric constant tensor:
#      x y z
#    x 1.802880 0.000000 0.000000 
#    y 0.000000 1.758760 0.000000 
#    z 0.000000 0.000000 1.733420 
# 
# From -- ./inp_files/24364.got.cif
#   From: 2010.05.17/outbox.cif.g08.bks.cpg/sg44_13_cif.got.tgz:24364.got - 2010.06.03 19:37:08.
