data_PCOD9375941
_publ_section_title
;
Structure prediction by ZEFSAII (Michael W. Deem and Ramdas Pophale) SiO2 
 PCOD9375941
Probable space group: I M M 2
;
_chemical_formula_sum "Si O2"
_cell_formula_units_Z 64
_cell_length_a 7.349316
_cell_length_b 17.101151
_cell_length_c 23.046643
_cell_angle_alpha 90.000000
_cell_angle_beta 90.000000
_cell_angle_gamma 90.000000
_cell_volume 2896.542716
_symmetry_space_group_name_H-M "I M M 2"
_symmetry_group_IT_number 44
_symmetry_cell_setting 'orthorhombic'
loop_
_space_group_symop_operation_xyz
x,y,z
-x,-y,z
-x,y,z
x,-y,z
1/2+x,1/2+y,1/2+z
1/2-x,1/2-y,1/2+z
1/2-x,1/2+y,1/2+z
1/2+x,1/2-y,1/2+z
loop_
_atom_site_type_symbol
_atom_site_label
_atom_site_fract_x
_atom_site_fract_y
_atom_site_fract_z
Si Si1 0.721215 0.782526 0.938870
Si Si2 0.779563 0.416150 0.846015
Si Si3 0.277990 0.087013 0.605959
Si Si4 0.781788 0.585962 0.525384
Si Si5 0.790552 0.256198 0.311088
Si Si6 0.290941 0.888532 0.475991
Si Si7 0.206922 0.912168 0.159471
Si Si8 0.223331 0.735648 0.184308
O O1 0.500000 0.780697 0.936932
O O2 0.788517 0.782903 0.872639
O O3 0.783597 0.704274 0.970226
O O4 0.782026 0.852491 0.978889
O O5 0.727375 0.500000 0.820378
O O6 0.714595 0.338574 0.814198
O O7 0.715262 0.414304 0.913338
O O8 0.000000 0.411653 0.846674
O O9 0.500000 0.089913 0.605303
O O10 0.214744 0.089900 0.538695
O O11 0.220666 0.165596 0.640671
O O12 0.228552 0.000000 0.629261
O O13 0.744411 0.500000 0.502670
O O14 0.703606 0.591868 0.589536
O O15 0.000000 0.594854 0.532357
O O16 0.716397 0.283986 0.249816
O O17 0.000000 0.281292 0.311386
O O18 0.500000 0.914892 0.476230
O O19 0.285281 0.826152 0.174862
O O20 0.000000 0.913164 0.181836
O O21 0.285653 0.000000 0.173341
O O22 0.000000 0.738166 0.181728
#
# Coordination Sequence:
#
# PCOD9375941 Si02
#       8
#     8   8   8   8   8   8   8   8
#     4   9  17  29  44  63  88 116 145 178 217 260
#     4   9  17  29  45  67  93 116 140 175 218 263
#     4   9  16  26  43  68  93 115 143 182 225 264
#     4   9  17  29  44  63  88 115 142 176 220 266
#     4   9  18  31  45  62  86 117 151 182 212 252
#     4   9  16  27  46  69  90 112 139 174 219 268
#     4   9  17  29  46  68  91 114 143 180 220 263
#     4   9  17  29  44  63  89 119 150 184 219 256
#
# _framework density 22.095306999999998
#
# number of rings (size 3 to 8) (size 9 to 14) (size 15 to 20)
#    0.000    3.000    0.000    1.125    0.000    3.750 
#    0.000    2.500    0.000    7.125    0.000    0.000 
#    0.000    1.000    0.000    0.000    0.000    0.000 
#
# Total GULP energy -178381.005897 kJ/mol
# GULP energy per Si atom -5574.406434 kJ/mol
# Density = 2.204502 g / cm^3
# Si number density = 22.095307 Si / 1000 Ang^3
#
#
#
# Elastic Constant Matrix: (Units=GPa)
#
#
# Indices 1 2 3 4 5 6 
#
# 1 82.0912 6.8709 1.0845 0.0000 0.0000 0.0000
# 2 6.8709 111.9552 56.2943 0.0000 0.0000 0.0000
# 3 1.0845 56.2943 106.9791 0.0000 0.0000 0.0000
# 4 0.0000 0.0000 0.0000 -8.2056 0.0000 0.0000
# 5 0.0000 0.0000 0.0000 0.0000 0.6823 0.0000
# 6 0.0000 0.0000 0.0000 0.0000 0.0000 -2.0078
#
#
#
# Elastic Compliance Matrix: (Units=1/GPa)
#
#
# Indices 1 2 3 4 5 6 
#
# 1 0.012255 -0.000938 0.000369 0.000000 0.000000 0.000000
# 2 -0.000938 0.012218 -0.006420 0.000000 0.000000 0.000000
# 3 0.000369 -0.006420 0.012722 0.000000 0.000000 0.000000
# 4 0.000000 0.000000 0.000000 -0.121867 0.000000 0.000000
# 5 0.000000 0.000000 0.000000 0.000000 1.465664 0.000000
# 6 0.000000 0.000000 0.000000 0.000000 0.000000 -0.498046
#
#
# Mechanical properties :
#
#
# Convention : Reuss Voigt Hill
#
# Bulk Modulus (GPa) = 43.06913 47.72498 45.39705
# Shear Modulus (GPa) = 5.52693 13.87881 9.70287
#
# Velocity S-wave (km/s) = 1.58330 2.50898 2.09783
# Velocity P-wave (km/s) = 4.78301 5.48086 5.14378
#
# Compressibility (1/GPa) = 0.02321849
#
# Stress axis : x y z
#
# Youngs Moduli (GPa) = 81.59815 81.84854 78.60388
#
# Poissons Ratio (x) = 0.07676 -0.02902
# Poissons Ratio (y) = 0.07652 0.50461
# Poissons Ratio (z) = -0.03013 0.52544
#
# Static dielectric constant tensor:
#      x y z
#    x 1.902760 0.000000 0.000000 
#    y 0.000000 1.820570 0.000000 
#    z 0.000000 0.000000 1.790140 
# 
# From -- ./inp_files/23315.got.cif
#   From: 2010.05.17/outbox.cif.g08.bks.cpg/sg44_12_cif.got.tgz:23315.got - 2010.06.03 19:37:08.
