data_PCOD9375719
_publ_section_title
;
Structure prediction by ZEFSAII (Michael W. Deem and Ramdas Pophale) SiO2 
 PCOD9375719
Probable space group: I M M 2
;
_chemical_formula_sum "Si O2"
_cell_formula_units_Z 48
_cell_length_a 8.735129
_cell_length_b 18.670102
_cell_length_c 15.372335
_cell_angle_alpha 90.000000
_cell_angle_beta 90.000000
_cell_angle_gamma 90.000000
_cell_volume 2507.008774
_symmetry_space_group_name_H-M "I M M 2"
_symmetry_group_IT_number 44
_symmetry_cell_setting 'orthorhombic'
loop_
_space_group_symop_operation_xyz
x,y,z
-x,-y,z
-x,y,z
x,-y,z
1/2+x,1/2+y,1/2+z
1/2-x,1/2-y,1/2+z
1/2-x,1/2+y,1/2+z
1/2+x,1/2-y,1/2+z
loop_
_atom_site_type_symbol
_atom_site_label
_atom_site_fract_x
_atom_site_fract_y
_atom_site_fract_z
Si Si1 0.178490 0.396522 0.423090
Si Si2 0.681384 0.000000 0.597091
Si Si3 0.180424 0.000000 0.786758
Si Si4 0.178415 0.766046 0.370678
Si Si5 0.685651 0.347880 0.041093
Si Si6 0.182718 0.726101 0.681396
Si Si7 0.183378 0.078437 0.111049
O O1 0.270944 0.432293 0.344789
O O2 0.184508 0.311335 0.415794
O O3 0.251788 0.419878 0.513402
O O4 0.000000 0.417453 0.418414
O O5 0.725564 0.000000 0.698506
O O6 0.751200 0.073315 0.559285
O O7 0.500000 0.000000 0.585399
O O8 0.000000 0.000000 0.768564
O O9 0.232502 0.820851 0.444998
O O10 0.268855 0.761143 0.280812
O O11 0.000000 0.781929 0.350047
O O12 0.500000 0.349480 0.043152
O O13 0.734529 0.289664 0.115149
O O14 0.250194 0.648819 0.656075
O O15 0.000000 0.722832 0.673739
O O16 0.000000 0.083364 0.109272
O O17 0.224318 0.000000 0.149568
#
# Coordination Sequence:
#
# PCOD9375719 Si02
#       7
#     8   4   4   8   8   8   8
#     4  11  21  37  62  92 125 160 202 256 311 369
#     4  12  26  42  62  93 124 161 212 266 316 366
#     4  12  24  38  58  91 128 167 206 250 314 382
#     4  10  22  41  64  92 123 162 209 254 313 376
#     4  10  22  44  67  89 125 170 208 255 317 380
#     4  11  23  41  66  95 124 163 212 260 311 370
#     4  11  23  39  61  91 127 167 206 249 309 375
#
# _framework density 19.146322999999999
#
# number of rings (size 3 to 8) (size 9 to 14) (size 15 to 20)
#    0.000    1.167    2.500    4.000    0.000    7.000 
#    1.500    0.000    0.000    0.000    0.000    0.000 
#    0.000    0.000    0.000    0.000    0.000    0.000 
#
# Total GULP energy -134096.170903 kJ/mol
# GULP energy per Si atom -5587.340454 kJ/mol
# Density = 1.910274 g / cm^3
# Si number density = 19.146323 Si / 1000 Ang^3
#
#
#
# Elastic Constant Matrix: (Units=GPa)
#
#
# Indices 1 2 3 4 5 6 
#
# 1 53.7043 33.6249 20.0830 0.0000 0.0000 0.0000
# 2 33.6249 138.5499 37.4347 0.0000 0.0000 0.0000
# 3 20.0830 37.4347 67.2439 0.0000 0.0000 0.0000
# 4 0.0000 0.0000 0.0000 -30.9426 0.0000 0.0000
# 5 0.0000 0.0000 0.0000 0.0000 34.0284 0.0000
# 6 0.0000 0.0000 0.0000 0.0000 0.0000 38.6738
#
#
#
# Elastic Compliance Matrix: (Units=1/GPa)
#
#
# Indices 1 2 3 4 5 6 
#
# 1 0.023027 -0.004391 -0.004433 0.000000 0.000000 0.000000
# 2 -0.004391 0.009333 -0.003884 0.000000 0.000000 0.000000
# 3 -0.004433 -0.003884 0.018357 0.000000 0.000000 0.000000
# 4 0.000000 0.000000 0.000000 -0.032318 0.000000 0.000000
# 5 0.000000 0.000000 0.000000 0.000000 0.029387 0.000000
# 6 0.000000 0.000000 0.000000 0.000000 0.000000 0.025857
#
#
# Mechanical properties :
#
#
# Convention : Reuss Voigt Hill
#
# Bulk Modulus (GPa) = 39.52304 49.08701 44.30502
# Shear Modulus (GPa) = 46.51424 19.57560 33.04492
#
# Velocity S-wave (km/s) = 4.93425 3.20100 4.15892
# Velocity P-wave (km/s) = 7.29040 6.27338 6.80093
#
# Compressibility (1/GPa) = 0.02530170
#
# Stress axis : x y z
#
# Youngs Moduli (GPa) = 43.42662 107.15036 54.47366
#
# Poissons Ratio (x) = 0.47048 0.24148
# Poissons Ratio (y) = 0.19068 0.21158
# Poissons Ratio (z) = 0.19251 0.41619
#
# Static dielectric constant tensor:
#      x y z
#    x 1.647320 0.000000 0.000000 
#    y 0.000000 1.692290 0.000000 
#    z 0.000000 0.000000 1.651150 
# 
# From -- ./inp_files/16178.got.cif
#   From: 2010.05.17/outbox.cif.g08.bks.cpg/sg44_9_cif.got.tgz:16178.got - 2010.06.03 19:37:08.
