data_PCOD9375587
_publ_section_title
;
Structure prediction by ZEFSAII (Michael W. Deem and Ramdas Pophale) SiO2 
 PCOD9375587
Probable space group: I M M 2
;
_chemical_formula_sum "Si O2"
_cell_formula_units_Z 64
_cell_length_a 19.036729
_cell_length_b 14.326521
_cell_length_c 11.874689
_cell_angle_alpha 90.000000
_cell_angle_beta 90.000000
_cell_angle_gamma 90.000000
_cell_volume 3238.585092
_symmetry_space_group_name_H-M "I M M 2"
_symmetry_group_IT_number 44
_symmetry_cell_setting 'orthorhombic'
loop_
_space_group_symop_operation_xyz
x,y,z
-x,-y,z
-x,y,z
x,-y,z
1/2+x,1/2+y,1/2+z
1/2-x,1/2-y,1/2+z
1/2-x,1/2+y,1/2+z
1/2+x,1/2-y,1/2+z
loop_
_atom_site_type_symbol
_atom_site_label
_atom_site_fract_x
_atom_site_fract_y
_atom_site_fract_z
Si Si1 0.583962 0.606697 0.362720
Si Si2 0.282304 0.605682 0.711983
Si Si3 0.381408 0.897795 0.141299
Si Si4 0.650592 0.748350 0.537409
Si Si5 0.078578 0.396544 0.175217
Si Si6 0.079648 0.193946 0.624278
Si Si7 0.173144 0.398503 0.395486
Si Si8 0.209436 0.195041 0.450983
O O1 0.500000 0.614254 0.382962
O O2 0.605194 0.500000 0.389252
O O3 0.623285 0.684762 0.435636
O O4 0.594856 0.628046 0.230504
O O5 0.304504 0.500000 0.688219
O O6 0.199144 0.611413 0.683847
O O7 0.322215 0.678032 0.633250
O O8 0.295635 0.631910 0.841194
O O9 0.418554 0.801123 0.169567
O O10 0.408030 0.000000 0.178812
O O11 0.377314 0.899874 0.004862
O O12 0.591316 0.814879 0.587569
O O13 0.716034 0.817035 0.511056
O O14 0.087085 0.500000 0.124248
O O15 0.131497 0.389707 0.279677
O O16 0.000000 0.390274 0.221761
O O17 0.141801 0.185417 0.532033
O O18 0.000000 0.175579 0.581970
O O19 0.210327 0.500000 0.397391
O O20 0.215372 0.303696 0.411827
#
# Coordination Sequence:
#
# PCOD9375587 Si02
#       8
#     8   8   8   8   8   8   8   8
#     4  10  23  42  63  87 115 157 212 257 296 353
#     4  11  22  38  58  88 125 160 197 252 306 354
#     4   9  18  35  57  85 122 156 194 242 298 360
#     4  12  22  38  66  87 123 161 200 251 308 361
#     4  10  22  39  60  91 127 160 198 247 306 366
#     4  10  21  40  63  87 120 159 202 253 304 358
#     4   9  17  32  55  82 116 156 194 237 287 347
#     4  11  23  38  59  91 124 157 204 248 303 366
#
# _framework density 19.761716
#
# number of rings (size 3 to 8) (size 9 to 14) (size 15 to 20)
#    0.000    1.750    3.750    1.500    0.000    3.750 
#    0.000    4.375    0.000    2.250    0.000    0.000 
#    0.000    0.000    0.000    0.000    0.000    0.000 
#
# Total GULP energy -178487.365683 kJ/mol
# GULP energy per Si atom -5577.730178 kJ/mol
# Density = 1.971674 g / cm^3
# Si number density = 19.761716 Si / 1000 Ang^3
#
#
#
# Elastic Constant Matrix: (Units=GPa)
#
#
# Indices 1 2 3 4 5 6 
#
# 1 67.0842 9.7764 36.9458 0.0000 0.0000 0.0000
# 2 9.7764 37.2273 21.1105 0.0000 0.0000 0.0000
# 3 36.9458 21.1105 77.5769 0.0000 0.0000 0.0000
# 4 0.0000 0.0000 0.0000 9.5340 0.0000 0.0000
# 5 0.0000 0.0000 0.0000 0.0000 15.0516 0.0000
# 6 0.0000 0.0000 0.0000 0.0000 0.0000 17.6467
#
#
#
# Elastic Compliance Matrix: (Units=1/GPa)
#
#
# Indices 1 2 3 4 5 6 
#
# 1 0.020208 0.000178 -0.009672 0.000000 0.000000 0.000000
# 2 0.000178 0.031765 -0.008729 0.000000 0.000000 0.000000
# 3 -0.009672 -0.008729 0.019872 0.000000 0.000000 0.000000
# 4 0.000000 0.000000 0.000000 0.104887 0.000000 0.000000
# 5 0.000000 0.000000 0.000000 0.000000 0.066438 0.000000
# 6 0.000000 0.000000 0.000000 0.000000 0.000000 0.056668
#
#
# Mechanical properties :
#
#
# Convention : Reuss Voigt Hill
#
# Bulk Modulus (GPa) = 28.24958 35.28375 31.76666
# Shear Modulus (GPa) = 14.36437 16.05019 15.20728
#
# Velocity S-wave (km/s) = 2.69899 2.85298 2.77705
# Velocity P-wave (km/s) = 4.90295 5.36153 5.13736
#
# Compressibility (1/GPa) = 0.03539876
#
# Stress axis : x y z
#
# Youngs Moduli (GPa) = 49.48644 31.48108 50.32173
#
# Poissons Ratio (x) = -0.00560 0.48672
# Poissons Ratio (y) = -0.00881 0.43925
# Poissons Ratio (z) = 0.47864 0.27479
#
# Static dielectric constant tensor:
#      x y z
#    x 1.705320 0.000000 0.000000 
#    y 0.000000 1.709490 0.000000 
#    z 0.000000 0.000000 1.671820 
# 
# From -- ./inp_files/14011.got.cif
#   From: 2010.05.17/outbox.cif.g08.bks.cpg/sg44_8_cif.got.tgz:14011.got - 2010.06.03 19:37:08.
