data_PCOD9375510
_publ_section_title
;
Structure prediction by ZEFSAII (Michael W. Deem and Ramdas Pophale) SiO2 
 PCOD9375510
Probable space group: I M M 2
;
_chemical_formula_sum "Si O2"
_cell_formula_units_Z 48
_cell_length_a 9.032929
_cell_length_b 28.064983
_cell_length_c 9.888158
_cell_angle_alpha 90.000000
_cell_angle_beta 90.000000
_cell_angle_gamma 90.000000
_cell_volume 2506.737035
_symmetry_space_group_name_H-M "I M M 2"
_symmetry_group_IT_number 44
_symmetry_cell_setting 'orthorhombic'
loop_
_space_group_symop_operation_xyz
x,y,z
-x,-y,z
-x,y,z
x,-y,z
1/2+x,1/2+y,1/2+z
1/2-x,1/2-y,1/2+z
1/2-x,1/2+y,1/2+z
1/2+x,1/2-y,1/2+z
loop_
_atom_site_type_symbol
_atom_site_label
_atom_site_fract_x
_atom_site_fract_y
_atom_site_fract_z
Si Si1 0.674036 0.399297 0.419460
Si Si2 0.321952 0.444348 0.710329
Si Si3 0.176791 0.699735 0.337389
Si Si4 0.327307 0.877612 0.432806
Si Si5 0.176862 0.784613 0.545215
Si Si6 0.168073 0.553070 0.186424
O O1 0.500000 0.388494 0.417291
O O2 0.711145 0.422844 0.562798
O O3 0.762577 0.351367 0.384597
O O4 0.716382 0.436509 0.303200
O O5 0.500000 0.442295 0.729833
O O6 0.277750 0.500000 0.720151
O O7 0.242560 0.410696 0.818084
O O8 0.209025 0.737732 0.456104
O O9 0.249613 0.714347 0.193942
O O10 0.000000 0.697379 0.317885
O O11 0.500000 0.867673 0.404434
O O12 0.239420 0.829206 0.460280
O O13 0.318112 0.907979 0.570540
O O14 0.000000 0.788859 0.560723
O O15 0.187057 0.500000 0.129443
O O16 0.000000 0.556312 0.241684
#
# Coordination Sequence:
#
# PCOD9375510 Si02
#       6
#     8   8   8   8   8   8
#     4  11  23  40  64  92 125 165 212 259 312 372
#     4  10  23  42  62  90 129 171 215 260 310 371
#     4  11  25  44  66  95 128 163 208 258 314 377
#     4  11  23  40  64  93 127 165 210 259 313 371
#     4  11  25  44  67  96 127 164 210 256 313 377
#     4  10  21  38  61  90 124 162 205 256 312 370
#
# _framework density 19.148399000000001
#
# number of rings (size 3 to 8) (size 9 to 14) (size 15 to 20)
#    0.000    1.333    1.667    3.000    2.333    6.667 
#    0.000    0.000    0.000    0.000    0.000    0.000 
#    0.000    0.000    0.000    0.000    0.000    0.000 
#
# Total GULP energy -134141.541556 kJ/mol
# GULP energy per Si atom -5589.230898 kJ/mol
# Density = 1.910482 g / cm^3
# Si number density = 19.148399 Si / 1000 Ang^3
#
#
#
# Elastic Constant Matrix: (Units=GPa)
#
#
# Indices 1 2 3 4 5 6 
#
# 1 43.0567 18.5033 27.9069 -0.0017 0.0002 -0.0025
# 2 18.5033 73.2374 -6.2293 -0.0022 0.0000 0.0006
# 3 27.9069 -6.2293 57.3630 -0.0088 -0.0002 -0.0286
# 4 -0.0017 -0.0022 -0.0088 36.5660 0.0002 0.0257
# 5 0.0002 0.0000 -0.0002 0.0002 35.6210 0.0007
# 6 -0.0025 0.0006 -0.0286 0.0257 0.0007 -6.3640
#
#
#
# Elastic Compliance Matrix: (Units=1/GPa)
#
#
# Indices 1 2 3 4 5 6 
#
# 1 0.043310 -0.012853 -0.022466 -0.000004 0.000000 0.000082
# 2 -0.012853 0.017596 0.008164 0.000002 0.000000 -0.000030
# 3 -0.022466 0.008164 0.029249 0.000007 0.000000 -0.000122
# 4 -0.000004 0.000002 0.000007 0.027348 0.000000 0.000110
# 5 0.000000 0.000000 0.000000 0.000000 0.028073 0.000003
# 6 0.000082 -0.000030 -0.000122 0.000110 0.000003 -0.157132
#
#
# Mechanical properties :
#
#
# Convention : Reuss Voigt Hill
#
# Bulk Modulus (GPa) = 27.89835 28.22434 28.06135
# Shear Modulus (GPa) = 91.40479 22.06298 56.73388
#
# Velocity S-wave (km/s) = 6.91654 3.39810 5.44911
# Velocity P-wave (km/s) = 8.85358 5.49254 7.36729
#
# Compressibility (1/GPa) = 0.03584441
#
# Stress axis : x y z
#
# Youngs Moduli (GPa) = 23.08943 56.83142 34.18930
#
# Poissons Ratio (x) = 0.73046 0.76809
# Poissons Ratio (y) = 0.29677 -0.27911
# Poissons Ratio (z) = 0.51872 -0.46396
#
# Static dielectric constant tensor:
#      x y z
#    x 1.660590 0.000010 0.000000 
#    y 0.000010 1.535030 0.000000 
#    z 0.000000 0.000000 1.643090 
# 
# From -- ./inp_files/4867.got.cif
#   From: 2010.05.17/outbox.cif.g08.bks.cpg/sg44_3_cif.got.tgz:4867.got - 2010.06.03 19:37:08.
