data_PCOD9375159
_publ_section_title
;
Structure prediction by ZEFSAII (Michael W. Deem and Ramdas Pophale) SiO2 
 PCOD9375159
Probable space group: I M M 2
;
_chemical_formula_sum "Si O2"
_cell_formula_units_Z 48
_cell_length_a 7.705692
_cell_length_b 27.576477
_cell_length_c 9.718663
_cell_angle_alpha 90.000000
_cell_angle_beta 90.000000
_cell_angle_gamma 90.000000
_cell_volume 2065.175440
_symmetry_space_group_name_H-M "I M M 2"
_symmetry_group_IT_number 44
_symmetry_cell_setting 'orthorhombic'
loop_
_space_group_symop_operation_xyz
x,y,z
-x,-y,z
-x,y,z
x,-y,z
1/2+x,1/2+y,1/2+z
1/2-x,1/2-y,1/2+z
1/2-x,1/2+y,1/2+z
1/2+x,1/2-y,1/2+z
loop_
_atom_site_type_symbol
_atom_site_label
_atom_site_fract_x
_atom_site_fract_y
_atom_site_fract_z
Si Si1 0.210840 0.224670 0.496960
Si Si2 0.300836 0.579346 0.318400
Si Si3 0.787216 0.053973 0.123680
Si Si4 0.196277 0.133274 0.332378
Si Si5 0.198892 0.552849 0.025810
Si Si6 0.205413 0.689803 0.302737
O O1 0.276187 0.181985 0.394519
O O2 0.263979 0.275000 0.426306
O O3 0.266696 0.214558 0.653259
O O4 0.000000 0.222637 0.496787
O O5 0.500000 0.563312 0.305263
O O6 0.236533 0.562091 0.466146
O O7 0.201167 0.558394 0.189049
O O8 0.293025 0.637555 0.309453
O O9 0.724292 0.099664 0.213356
O O10 0.000000 0.054814 0.131374
O O11 0.732078 0.000000 0.168896
O O12 0.194204 0.096092 0.460073
O O13 0.000000 0.145728 0.288510
O O14 0.268241 0.500000 0.988126
O O15 0.000000 0.557101 0.978338
O O16 0.000000 0.681735 0.318061
#
# Coordination Sequence:
#
# PCOD9375159 Si02
#       6
#     8   8   8   8   8   8
#     4  10  23  41  62  91 121 157 202 246 299 364
#     4  11  22  38  62  88 119 159 204 248 296 357
#     4   9  19  35  58  89 119 152 199 249 294 344
#     4  10  20  38  63  88 117 154 199 250 297 356
#     4  11  23  38  58  87 122 158 197 246 304 361
#     4  11  24  41  63  91 124 157 196 249 306 359
#
# _framework density 23.242576
#
# number of rings (size 3 to 8) (size 9 to 14) (size 15 to 20)
#    0.000    1.667    1.667    2.500    2.333    4.000 
#    0.000    1.667    0.000    4.000    0.000    0.000 
#    0.000    0.000    0.000    0.000    0.000    0.000 
#
# Total GULP energy -134176.381523 kJ/mol
# GULP energy per Si atom -5590.682563 kJ/mol
# Density = 2.318968 g / cm^3
# Si number density = 23.242576 Si / 1000 Ang^3
#
#
#
# Elastic Constant Matrix: (Units=GPa)
#
#
# Indices 1 2 3 4 5 6 
#
# 1 52.2763 -3.7790 -8.4886 0.0002 0.0000 0.0002
# 2 -3.7790 86.0309 -0.1482 0.0007 0.0002 0.0003
# 3 -8.4886 -0.1482 93.4191 0.0016 0.0004 0.0012
# 4 0.0002 0.0007 0.0016 47.4035 0.0003 0.0003
# 5 0.0000 0.0002 0.0004 0.0003 16.6938 0.0000
# 6 0.0002 0.0003 0.0012 0.0003 0.0000 89.7221
#
#
#
# Elastic Compliance Matrix: (Units=1/GPa)
#
#
# Indices 1 2 3 4 5 6 
#
# 1 0.019479 0.000859 0.001771 0.000000 0.000000 0.000000
# 2 0.000859 0.011662 0.000097 0.000000 0.000000 0.000000
# 3 0.001771 0.000097 0.010866 0.000000 0.000000 0.000000
# 4 0.000000 0.000000 0.000000 0.021096 0.000000 0.000000
# 5 0.000000 0.000000 0.000000 0.000000 0.059902 0.000000
# 6 0.000000 0.000000 0.000000 0.000000 0.000000 0.011146
#
#
# Mechanical properties :
#
#
# Convention : Reuss Voigt Hill
#
# Bulk Modulus (GPa) = 21.07076 22.98827 22.02951
# Shear Modulus (GPa) = 34.59823 47.04001 40.81912
#
# Velocity S-wave (km/s) = 3.86239 4.50363 4.19528
# Velocity P-wave (km/s) = 5.38293 6.07911 5.74158
#
# Compressibility (1/GPa) = 0.04745913
#
# Stress axis : x y z
#
# Youngs Moduli (GPa) = 51.33773 85.75138 92.03396
#
# Poissons Ratio (x) = -0.07363 -0.16302
# Poissons Ratio (y) = -0.04408 -0.00888
# Poissons Ratio (z) = -0.09094 -0.00828
#
# Static dielectric constant tensor:
#      x y z
#    x 1.878560 0.000000 0.000000 
#    y 0.000000 1.845560 0.000000 
#    z 0.000000 0.000000 1.857340 
# 
# From -- ./inp_files/4903.got.cif
#   From: 2010.05.17/outbox.cif.g08.bks.cpg/sg44_3_cif.got.tgz:4903.got - 2010.06.03 19:37:08.
