data_PCOD9375201
_publ_section_title
;
Structure prediction by ZEFSAII (Michael W. Deem and Ramdas Pophale) SiO2 
 PCOD9375201
Probable space group: I M M 2
;
_chemical_formula_sum "Si O2"
_cell_formula_units_Z 58
_cell_length_a 7.642120
_cell_length_b 18.492465
_cell_length_c 17.576969
_cell_angle_alpha 90.000000
_cell_angle_beta 90.000000
_cell_angle_gamma 90.000000
_cell_volume 2484.006026
_symmetry_space_group_name_H-M "I M M 2"
_symmetry_group_IT_number 44
_symmetry_cell_setting 'orthorhombic'
loop_
_space_group_symop_operation_xyz
x,y,z
-x,-y,z
-x,y,z
x,-y,z
1/2+x,1/2+y,1/2+z
1/2-x,1/2-y,1/2+z
1/2-x,1/2+y,1/2+z
1/2+x,1/2-y,1/2+z
loop_
_atom_site_type_symbol
_atom_site_label
_atom_site_fract_x
_atom_site_fract_y
_atom_site_fract_z
Si Si1 0.705899 0.674547 0.454910
Si Si2 0.000000 0.500000 0.778906
Si Si3 0.796967 0.581992 0.596745
Si Si4 0.787408 0.659501 0.984037
Si Si5 0.796711 0.112203 0.322801
Si Si6 0.785782 0.364503 0.150747
Si Si7 0.711421 0.920079 0.813200
Si Si8 0.201886 0.212940 0.204141
O O1 0.500000 0.675447 0.472156
O O2 0.787120 0.615889 0.512692
O O3 0.769949 0.756281 0.472729
O O4 0.731780 0.643332 0.370270
O O5 0.155059 0.560696 0.786431
O O6 0.724993 0.500000 0.600515
O O7 0.715429 0.642600 0.651060
O O8 0.000000 0.576292 0.619713
O O9 0.731601 0.623846 0.063732
O O10 0.000000 0.660095 0.981630
O O11 0.721581 0.614251 0.912721
O O12 0.744427 0.190296 0.288260
O O13 0.000000 0.097372 0.302516
O O14 0.732269 0.408714 0.225469
O O15 0.717850 0.283233 0.167575
O O16 0.000000 0.369354 0.148601
O O17 0.500000 0.918902 0.813777
O O18 0.769119 0.000000 0.839642
O O19 0.000000 0.232816 0.210535
#
# Coordination Sequence:
#
# PCOD9375201 Si02
#       8
#     8   2   8   8   8   8   8   8
#     4  11  22  38  63  89 125 168 211 265 330 392
#     4  12  26  48  68  94 140 176 218 292 320 406
#     4  11  24  37  56  87 125 167 212 266 328 392
#     4  10  20  40  64  93 127 165 217 277 333 388
#     4  11  25  43  69  98 130 178 225 272 340 396
#     4   9  18  38  64  92 126 166 216 269 327 392
#     4  10  21  38  61  91 125 166 216 265 323 396
#     4  10  21  39  62  90 125 167 216 268 324 400
#
# _framework density 23.349378999999999
#
# number of rings (size 3 to 8) (size 9 to 14) (size 15 to 20)
#    0.000    1.655    2.069    2.276    1.931    5.241 
#    1.241    1.379    0.000    0.000    0.000    0.000 
#    0.000    0.000    0.000    0.000    0.000    0.000 
#
# Total GULP energy -161701.163305 kJ/mol
# GULP energy per Si atom -5575.902183 kJ/mol
# Density = 2.329624 g / cm^3
# Si number density = 23.349379 Si / 1000 Ang^3
#
#
#
# Elastic Constant Matrix: (Units=GPa)
#
#
# Indices 1 2 3 4 5 6 
#
# 1 66.0853 3.9669 -1.1262 0.0000 0.0000 0.0000
# 2 3.9669 42.5656 -11.6848 0.0000 0.0000 0.0000
# 3 -1.1262 -11.6848 110.6293 0.0000 0.0000 0.0000
# 4 0.0000 0.0000 0.0000 -10.8402 0.0000 0.0000
# 5 0.0000 0.0000 0.0000 0.0000 21.2538 0.0000
# 6 0.0000 0.0000 0.0000 0.0000 0.0000 12.7392
#
#
#
# Elastic Compliance Matrix: (Units=1/GPa)
#
#
# Indices 1 2 3 4 5 6 
#
# 1 0.015217 -0.001417 0.000005 0.000000 0.000000 0.000000
# 2 -0.001417 0.024327 0.002555 0.000000 0.000000 0.000000
# 3 0.000005 0.002555 0.009309 0.000000 0.000000 0.000000
# 4 0.000000 0.000000 0.000000 -0.092249 0.000000 0.000000
# 5 0.000000 0.000000 0.000000 0.000000 0.047050 0.000000
# 6 0.000000 0.000000 0.000000 0.000000 0.000000 0.078498
#
#
# Mechanical properties :
#
#
# Convention : Reuss Voigt Hill
#
# Bulk Modulus (GPa) = 19.55422 22.39910 20.97666
# Shear Modulus (GPa) = 51.59366 19.83885 35.71625
#
# Velocity S-wave (km/s) = 4.70578 2.91804 3.91531
# Velocity P-wave (km/s) = 6.15781 4.57899 5.42613
#
# Compressibility (1/GPa) = 0.05113986
#
# Stress axis : x y z
#
# Youngs Moduli (GPa) = 65.71563 41.10730 107.42159
#
# Poissons Ratio (x) = 0.05824 -0.00057
# Poissons Ratio (y) = 0.09310 -0.27446
# Poissons Ratio (z) = -0.00035 -0.10503
#
# Static dielectric constant tensor:
#      x y z
#    x 1.884000 0.000000 0.000000 
#    y 0.000000 1.930530 0.000000 
#    z 0.000000 0.000000 1.915790 
# 
# From -- ./inp_files/20580.got.cif
#   From: 2010.05.17/outbox.cif.g08.bks.cpg/sg44_11_cif.got.tgz:20580.got - 2010.06.03 19:37:08.
