data_PCOD9375388
_publ_section_title
;
Structure prediction by ZEFSAII (Michael W. Deem and Ramdas Pophale) SiO2 
 PCOD9375388
Probable space group: I M M 2
;
_chemical_formula_sum "Si O2"
_cell_formula_units_Z 56
_cell_length_a 14.212768
_cell_length_b 8.978778
_cell_length_c 24.888788
_cell_angle_alpha 90.000000
_cell_angle_beta 90.000000
_cell_angle_gamma 90.000000
_cell_volume 3176.140087
_symmetry_space_group_name_H-M "I M M 2"
_symmetry_group_IT_number 44
_symmetry_cell_setting 'orthorhombic'
loop_
_space_group_symop_operation_xyz
x,y,z
-x,-y,z
-x,y,z
x,-y,z
1/2+x,1/2+y,1/2+z
1/2-x,1/2-y,1/2+z
1/2-x,1/2+y,1/2+z
1/2+x,1/2-y,1/2+z
loop_
_atom_site_type_symbol
_atom_site_label
_atom_site_fract_x
_atom_site_fract_y
_atom_site_fract_z
Si Si1 0.700738 0.677381 0.979440
Si Si2 0.393668 0.336302 0.353548
Si Si3 0.238568 0.673189 0.783461
Si Si4 0.604523 0.670721 0.482292
Si Si5 0.612349 0.831600 0.081164
Si Si6 0.390683 0.318534 0.865744
Si Si7 0.889573 0.821734 0.693062
O O1 0.691165 0.500000 0.980577
O O2 0.807380 0.725002 0.992893
O O3 0.664339 0.729121 0.920275
O O4 0.640781 0.751550 0.026445
O O5 0.500000 0.327592 0.332582
O O6 0.355123 0.500000 0.336994
O O7 0.333771 0.200188 0.332469
O O8 0.398481 0.335267 0.417487
O O9 0.247477 0.500000 0.769336
O O10 0.335774 0.727419 0.811225
O O11 0.185618 0.759128 0.735759
O O12 0.500000 0.717840 0.500743
O O13 0.620837 0.500000 0.500796
O O14 0.500000 0.840158 0.082038
O O15 0.638212 0.740417 0.134525
O O16 0.650709 0.000000 0.083130
O O17 0.500000 0.272276 0.867421
O O18 0.388644 0.500000 0.865722
O O19 0.000000 0.776202 0.703556
O O20 0.887942 0.000000 0.693542
#
# Coordination Sequence:
#
# PCOD9375388 Si02
#       7
#     8   8   8   8   8   8   8
#     4  11  20  33  55  81 110 146 183 223 271 322
#     4   9  17  29  45  67  99 137 170 204 252 309
#     4  11  20  31  50  76 104 137 176 219 264 312
#     4   9  18  32  49  71 104 143 179 218 264 315
#     4  10  21  37  57  82 110 140 179 226 271 319
#     4   9  19  34  50  73 107 144 181 218 260 315
#     4  10  21  37  56  79 108 141 175 215 270 331
#
# _framework density 17.631463
#
# number of rings (size 3 to 8) (size 9 to 14) (size 15 to 20)
#    0.000    2.143    1.429    3.429    0.000    4.571 
#    0.000    1.429    0.000    5.143    0.000    2.000 
#    0.000    0.000    0.000    0.000    0.000    0.000 
#
# Total GULP energy -155954.940491 kJ/mol
# GULP energy per Si atom -5569.819303 kJ/mol
# Density = 1.759133 g / cm^3
# Si number density = 17.631463 Si / 1000 Ang^3
#
#
#
# Elastic Constant Matrix: (Units=GPa)
#
#
# Indices 1 2 3 4 5 6 
#
# 1 81.3409 27.3742 33.2861 0.0000 0.0000 0.0000
# 2 27.3742 53.3569 31.9615 0.0000 0.0000 0.0000
# 3 33.2861 31.9615 88.8407 0.0000 0.0000 0.0000
# 4 0.0000 0.0000 0.0000 27.3100 0.0000 0.0000
# 5 0.0000 0.0000 0.0000 0.0000 29.5474 0.0000
# 6 0.0000 0.0000 0.0000 0.0000 0.0000 23.4528
#
#
#
# Elastic Compliance Matrix: (Units=1/GPa)
#
#
# Indices 1 2 3 4 5 6 
#
# 1 0.015822 -0.005821 -0.003834 0.000000 0.000000 0.000000
# 2 -0.005821 0.026031 -0.007184 0.000000 0.000000 0.000000
# 3 -0.003834 -0.007184 0.015277 0.000000 0.000000 0.000000
# 4 0.000000 0.000000 0.000000 0.036617 0.000000 0.000000
# 5 0.000000 0.000000 0.000000 0.000000 0.033844 0.000000
# 6 0.000000 0.000000 0.000000 0.000000 0.000000 0.042639
#
#
# Mechanical properties :
#
#
# Convention : Reuss Voigt Hill
#
# Bulk Modulus (GPa) = 42.63906 45.42026 44.02966
# Shear Modulus (GPa) = 23.61556 24.78982 24.20269
#
# Velocity S-wave (km/s) = 3.66375 3.75373 3.70901
# Velocity P-wave (km/s) = 6.49103 6.67864 6.58550
#
# Compressibility (1/GPa) = 0.02345267
#
# Stress axis : x y z
#
# Youngs Moduli (GPa) = 63.20435 38.41516 65.45705
#
# Poissons Ratio (x) = 0.22360 0.25096
# Poissons Ratio (y) = 0.36789 0.47026
# Poissons Ratio (z) = 0.24232 0.27599
#
# Static dielectric constant tensor:
#      x y z
#    x 1.642390 0.000000 0.000000 
#    y 0.000000 1.621760 0.000000 
#    z 0.000000 0.000000 1.605100 
# 
# From -- ./inp_files/24137.got.cif
#   From: 2010.05.17/outbox.cif.g08.bks.cpg/sg44_13_cif.got.tgz:24137.got - 2010.06.03 19:37:08.
