data_PCOD9375656
_publ_section_title
;
Structure prediction by ZEFSAII (Michael W. Deem and Ramdas Pophale) SiO2 
 PCOD9375656
Probable space group: I M M 2
;
_chemical_formula_sum "Si O2"
_cell_formula_units_Z 64
_cell_length_a 8.881019
_cell_length_b 26.814218
_cell_length_c 13.205466
_cell_angle_alpha 90.000000
_cell_angle_beta 90.000000
_cell_angle_gamma 90.000000
_cell_volume 3144.717710
_symmetry_space_group_name_H-M "I M M 2"
_symmetry_group_IT_number 44
_symmetry_cell_setting 'orthorhombic'
loop_
_space_group_symop_operation_xyz
x,y,z
-x,-y,z
-x,y,z
x,-y,z
1/2+x,1/2+y,1/2+z
1/2-x,1/2-y,1/2+z
1/2-x,1/2+y,1/2+z
1/2+x,1/2-y,1/2+z
loop_
_atom_site_type_symbol
_atom_site_label
_atom_site_fract_x
_atom_site_fract_y
_atom_site_fract_z
Si Si1 0.320788 0.117987 0.019090
Si Si2 0.822025 0.873355 0.236789
Si Si3 0.675114 0.716817 0.435515
Si Si4 0.819818 0.556728 0.906403
Si Si5 0.328856 0.298211 0.049124
Si Si6 0.323459 0.440224 0.331860
Si Si7 0.830254 0.268457 0.743703
Si Si8 0.180211 0.399376 0.124655
O O1 0.500000 0.113727 0.022653
O O2 0.253866 0.109326 0.131071
O O3 0.272801 0.173669 0.984803
O O4 0.252891 0.082650 0.931973
O O5 0.760306 0.904332 0.332266
O O6 0.779769 0.815058 0.249226
O O7 0.000000 0.879142 0.229050
O O8 0.500000 0.707502 0.458691
O O9 0.722055 0.772710 0.467085
O O10 0.700483 0.721154 0.315831
O O11 0.776554 0.500000 0.880906
O O12 0.000000 0.561952 0.893038
O O13 0.789133 0.566812 0.025228
O O14 0.500000 0.307267 0.013139
O O15 0.332797 0.255197 0.133465
O O16 0.257621 0.347249 0.096146
O O17 0.500000 0.425914 0.331212
O O18 0.312224 0.500000 0.334042
O O19 0.246623 0.420524 0.228958
O O20 0.000000 0.286457 0.768455
O O21 0.000000 0.393856 0.134475
#
# Coordination Sequence:
#
# PCOD9375656 Si02
#       8
#     8   8   8   8   8   8   8   8
#     4  12  25  43  67  94 130 173 219 269 327 394
#     4  12  25  41  65  95 130 170 217 272 327 386
#     4  11  22  38  61  91 127 166 210 261 315 374
#     4  10  23  44  68  93 126 171 219 269 328 391
#     4  11  22  37  59  89 126 169 211 252 309 375
#     4  11  25  45  69  97 130 169 216 274 337 396
#     4  10  22  39  59  85 124 168 207 252 309 376
#     4  11  23  41  67  99 134 171 218 271 326 393
#
# _framework density 20.351588
#
# number of rings (size 3 to 8) (size 9 to 14) (size 15 to 20)
#    0.000    1.000    1.250    5.625    0.000    8.750 
#    0.000    0.000    0.000    0.000    0.000    0.000 
#    0.000    0.000    0.000    0.000    0.000    0.000 
#
# Total GULP energy -178891.793806 kJ/mol
# GULP energy per Si atom -5590.368556 kJ/mol
# Density = 2.030527 g / cm^3
# Si number density = 20.351588 Si / 1000 Ang^3
#
#
#
# Elastic Constant Matrix: (Units=GPa)
#
#
# Indices 1 2 3 4 5 6 
#
# 1 107.5382 32.8267 34.1502 0.0000 0.0000 0.0000
# 2 32.8267 68.8505 6.1415 0.0000 0.0000 0.0000
# 3 34.1502 6.1415 83.0602 -0.0003 0.0000 0.0000
# 4 0.0000 0.0000 -0.0003 34.0564 0.0000 0.0000
# 5 0.0000 0.0000 0.0000 0.0000 32.6423 0.0000
# 6 0.0000 0.0000 0.0000 0.0000 0.0000 28.4564
#
#
#
# Elastic Compliance Matrix: (Units=1/GPa)
#
#
# Indices 1 2 3 4 5 6 
#
# 1 0.012489 -0.005533 -0.004726 0.000000 0.000000 0.000000
# 2 -0.005533 0.017072 0.001013 0.000000 0.000000 0.000000
# 3 -0.004726 0.001013 0.013908 0.000000 0.000000 0.000000
# 4 0.000000 0.000000 0.000000 0.029363 0.000000 0.000000
# 5 0.000000 0.000000 0.000000 0.000000 0.030635 0.000000
# 6 0.000000 0.000000 0.000000 0.000000 0.000000 0.035142
#
#
# Mechanical properties :
#
#
# Convention : Reuss Voigt Hill
#
# Bulk Modulus (GPa) = 40.03813 45.07619 42.55716
# Shear Modulus (GPa) = 30.22519 31.45304 30.83911
#
# Velocity S-wave (km/s) = 3.85795 3.93553 3.89693
# Velocity P-wave (km/s) = 6.28975 6.54584 6.41907
#
# Compressibility (1/GPa) = 0.02497619
#
# Stress axis : x y z
#
# Youngs Moduli (GPa) = 80.07281 58.57591 71.90353
#
# Poissons Ratio (x) = 0.32409 0.33979
# Poissons Ratio (y) = 0.44303 -0.07280
# Poissons Ratio (z) = 0.37839 -0.05931
#
# Static dielectric constant tensor:
#      x y z
#    x 1.709710 0.000000 0.000000 
#    y 0.000000 1.704910 0.000000 
#    z 0.000000 0.000000 1.758120 
# 
# From -- ./inp_files/16842.got.cif
#   From: 2010.05.17/outbox.cif.g08.bks.cpg/sg44_9_cif.got.tgz:16842.got - 2010.06.03 19:37:08.
