data_PCOD9375321
_publ_section_title
;
Structure prediction by ZEFSAII (Michael W. Deem and Ramdas Pophale) SiO2 
 PCOD9375321
Probable space group: I M M 2
;
_chemical_formula_sum "Si O2"
_cell_formula_units_Z 56
_cell_length_a 9.118124
_cell_length_b 14.566904
_cell_length_c 22.934285
_cell_angle_alpha 90.000000
_cell_angle_beta 90.000000
_cell_angle_gamma 90.000000
_cell_volume 3046.196798
_symmetry_space_group_name_H-M "I M M 2"
_symmetry_group_IT_number 44
_symmetry_cell_setting 'orthorhombic'
loop_
_space_group_symop_operation_xyz
x,y,z
-x,-y,z
-x,y,z
x,-y,z
1/2+x,1/2+y,1/2+z
1/2-x,1/2-y,1/2+z
1/2-x,1/2+y,1/2+z
1/2+x,1/2-y,1/2+z
loop_
_atom_site_type_symbol
_atom_site_label
_atom_site_fract_x
_atom_site_fract_y
_atom_site_fract_z
Si Si1 0.174610 0.780553 0.654530
Si Si2 0.324600 0.783001 0.433306
Si Si3 0.175896 0.605886 0.392662
Si Si4 0.171520 0.608023 0.816020
Si Si5 0.327215 0.108486 0.756110
Si Si6 0.176274 0.107294 0.537974
Si Si7 0.325235 0.394104 0.693351
O O1 0.233204 0.831957 0.711994
O O2 0.212539 0.841904 0.598432
O O3 0.248990 0.680900 0.652886
O O4 0.000000 0.770969 0.657465
O O5 0.500000 0.781176 0.438395
O O6 0.258829 0.681056 0.430415
O O7 0.287154 0.832146 0.371803
O O8 0.255285 0.841524 0.485202
O O9 0.213280 0.500000 0.406080
O O10 0.210766 0.622165 0.324110
O O11 0.000000 0.615726 0.398816
O O12 0.184399 0.500000 0.831034
O O13 0.268753 0.624837 0.759117
O O14 0.000000 0.625766 0.801677
O O15 0.500000 0.130262 0.748928
O O16 0.308183 0.000000 0.743852
O O17 0.000000 0.112763 0.530123
O O18 0.216796 0.000000 0.540329
O O19 0.500000 0.385144 0.691068
O O20 0.285814 0.500000 0.679934
#
# Coordination Sequence:
#
# PCOD9375321 Si02
#       7
#     8   8   8   8   8   8   8
#     4  11  22  36  56  81 109 143 183 225 270 320
#     4  11  22  35  55  83 111 141 180 226 275 321
#     4   9  19  36  56  79 110 147 184 220 262 319
#     4   9  18  33  53  80 114 146 176 216 269 326
#     4   9  18  33  55  84 115 146 180 219 266 320
#     4  10  23  42  60  79 106 142 183 222 262 317
#     4  10  21  36  55  81 111 143 181 223 268 321
#
# _framework density 18.383579999999998
#
# number of rings (size 3 to 8) (size 9 to 14) (size 15 to 20)
#    0.000    2.143    0.000    3.857    0.000    8.000 
#    0.000    3.571    0.000    0.857    0.000    0.000 
#    0.000    0.000    0.000    0.000    0.000    0.000 
#
# Total GULP energy -156401.731975 kJ/mol
# GULP energy per Si atom -5585.776142 kJ/mol
# Density = 1.834174 g / cm^3
# Si number density = 18.383580 Si / 1000 Ang^3
#
#
#
# Elastic Constant Matrix: (Units=GPa)
#
#
# Indices 1 2 3 4 5 6 
#
# 1 46.5498 69.2303 43.0318 0.0000 0.0000 0.0000
# 2 69.2303 158.9702 90.0278 0.0000 0.0000 0.0000
# 3 43.0318 90.0278 61.0135 0.0000 0.0000 0.0000
# 4 0.0000 0.0000 0.0000 34.2987 0.0000 0.0000
# 5 0.0000 0.0000 0.0000 0.0000 30.1199 0.0000
# 6 0.0000 0.0000 0.0000 0.0000 0.0000 32.1846
#
#
#
# Elastic Compliance Matrix: (Units=1/GPa)
#
#
# Indices 1 2 3 4 5 6 
#
# 1 0.066928 -0.014689 -0.025528 0.000000 0.000000 0.000000
# 2 -0.014689 0.041494 -0.050865 0.000000 0.000000 0.000000
# 3 -0.025528 -0.050865 0.109448 0.000000 0.000000 0.000000
# 4 0.000000 0.000000 0.000000 0.029156 0.000000 0.000000
# 5 0.000000 0.000000 0.000000 0.000000 0.033201 0.000000
# 6 0.000000 0.000000 0.000000 0.000000 0.000000 0.031071
#
#
# Mechanical properties :
#
#
# Convention : Reuss Voigt Hill
#
# Bulk Modulus (GPa) = 28.00823 74.56814 51.28819
# Shear Modulus (GPa) = 9.89388 23.60354 16.74871
#
# Velocity S-wave (km/s) = 2.32241 3.58711 3.02167
# Velocity P-wave (km/s) = 4.73920 7.60308 6.33510
#
# Compressibility (1/GPa) = 0.03570379
#
# Stress axis : x y z
#
# Youngs Moduli (GPa) = 14.94149 24.10014 9.13678
#
# Poissons Ratio (x) = 0.35402 0.23324
# Poissons Ratio (y) = 0.21948 0.46474
# Poissons Ratio (z) = 0.38143 1.22586
#
# Static dielectric constant tensor:
#      x y z
#    x 1.609520 0.000000 0.000000 
#    y 0.000000 1.642680 0.000000 
#    z 0.000000 0.000000 1.603530 
# 
# From -- ./inp_files/23002.got.cif
#   From: 2010.05.17/outbox.cif.g08.bks.cpg/sg44_12_cif.got.tgz:23002.got - 2010.06.03 19:37:08.
