data_PCOD9375338
_publ_section_title
;
Structure prediction by ZEFSAII (Michael W. Deem and Ramdas Pophale) SiO2 
 PCOD9375338
Probable space group: I M M 2
;
_chemical_formula_sum "Si O2"
_cell_formula_units_Z 64
_cell_length_a 14.346586
_cell_length_b 8.820887
_cell_length_c 24.720788
_cell_angle_alpha 90.000000
_cell_angle_beta 90.000000
_cell_angle_gamma 90.000000
_cell_volume 3128.406178
_symmetry_space_group_name_H-M "I M M 2"
_symmetry_group_IT_number 44
_symmetry_cell_setting 'orthorhombic'
loop_
_space_group_symop_operation_xyz
x,y,z
-x,-y,z
-x,y,z
x,-y,z
1/2+x,1/2+y,1/2+z
1/2-x,1/2-y,1/2+z
1/2-x,1/2+y,1/2+z
1/2+x,1/2-y,1/2+z
loop_
_atom_site_type_symbol
_atom_site_label
_atom_site_fract_x
_atom_site_fract_y
_atom_site_fract_z
Si Si1 0.890183 0.681223 0.955470
Si Si2 0.804220 0.816492 0.063292
Si Si3 0.102691 0.182122 0.171383
Si Si4 0.890364 0.181603 0.837928
Si Si5 0.603063 0.177852 0.071448
Si Si6 0.260803 0.825265 0.755486
Si Si7 0.389216 0.665605 0.961623
Si Si8 0.391403 0.171825 0.858943
O O1 0.881731 0.500000 0.954182
O O2 0.866004 0.747121 0.896172
O O3 0.000000 0.720106 0.964834
O O4 0.829963 0.746497 0.005241
O O5 0.880440 0.778357 0.108601
O O6 0.704530 0.764843 0.089318
O O7 0.800364 0.000000 0.057366
O O8 0.188406 0.240834 0.206955
O O9 0.000000 0.237814 0.189234
O O10 0.102649 0.000000 0.175168
O O11 0.830990 0.236496 0.786158
O O12 0.000000 0.207567 0.829213
O O13 0.873624 0.000000 0.842006
O O14 0.500000 0.243486 0.086050
O O15 0.598624 0.000000 0.083596
O O16 0.616273 0.208037 0.007456
O O17 0.335655 0.822396 0.804010
O O18 0.243269 0.000000 0.739560
O O19 0.500000 0.651967 0.953049
O O20 0.354193 0.500000 0.979265
O O21 0.351145 0.717398 0.904298
O O22 0.500000 0.205164 0.848682
O O23 0.386026 0.000000 0.880714
#
# Coordination Sequence:
#
# PCOD9375338 Si02
#       8
#     8   8   8   8   8   8   8   8
#     4  10  21  36  56  86 120 150 185 235 291 341
#     4  10  21  37  59  83 111 152 197 235 280 341
#     4  10  22  40  60  84 115 148 185 235 291 343
#     4   9  19  37  59  83 115 153 191 232 280 340
#     4   9  18  33  52  74 104 143 185 227 269 319
#     4  10  21  36  57  82 108 144 190 233 279 334
#     4   9  17  28  43  67 101 138 173 213 265 319
#     4   9  17  29  45  68 100 136 175 218 263 317
#
# _framework density 20.457701
#
# number of rings (size 3 to 8) (size 9 to 14) (size 15 to 20)
#    0.000    2.500    0.000    1.500    1.750    5.500 
#    0.000    1.875    0.000    0.750    0.000    0.000 
#    0.000    0.000    0.000    0.000    0.000    0.000 
#
# Total GULP energy -178282.388784 kJ/mol
# GULP energy per Si atom -5571.324650 kJ/mol
# Density = 2.041114 g / cm^3
# Si number density = 20.457701 Si / 1000 Ang^3
#
#
#
# Elastic Constant Matrix: (Units=GPa)
#
#
# Indices 1 2 3 4 5 6 
#
# 1 132.2163 20.0123 36.2113 0.0000 0.0000 0.0000
# 2 20.0123 13.6207 17.3637 0.0000 0.0000 0.0000
# 3 36.2113 17.3637 75.2347 0.0000 0.0000 0.0000
# 4 0.0000 0.0000 0.0000 19.4640 0.0000 0.0000
# 5 0.0000 0.0000 0.0000 0.0000 25.5748 0.0000
# 6 0.0000 0.0000 0.0000 0.0000 0.0000 18.2218
#
#
#
# Elastic Compliance Matrix: (Units=1/GPa)
#
#
# Indices 1 2 3 4 5 6 
#
# 1 0.009935 -0.012045 -0.002002 0.000000 0.000000 0.000000
# 2 -0.012045 0.118626 -0.021581 0.000000 0.000000 0.000000
# 3 -0.002002 -0.021581 0.019236 0.000000 0.000000 0.000000
# 4 0.000000 0.000000 0.000000 0.051377 0.000000 0.000000
# 5 0.000000 0.000000 0.000000 0.000000 0.039101 0.000000
# 6 0.000000 0.000000 0.000000 0.000000 0.000000 0.054879
#
#
# Mechanical properties :
#
#
# Convention : Reuss Voigt Hill
#
# Bulk Modulus (GPa) = 13.06480 40.91626 26.99053
# Shear Modulus (GPa) = 12.82308 22.48443 17.65375
#
# Velocity S-wave (km/s) = 2.50633 3.31882 2.94077
# Velocity P-wave (km/s) = 3.84392 5.89321 4.97522
#
# Compressibility (1/GPa) = 0.07654157
#
# Stress axis : x y z
#
# Youngs Moduli (GPa) = 100.65729 8.42989 51.98587
#
# Poissons Ratio (x) = 0.10153 0.10407
# Poissons Ratio (y) = 1.21238 1.12190
# Poissons Ratio (z) = 0.20150 0.18192
#
# Static dielectric constant tensor:
#      x y z
#    x 1.825380 0.000000 0.000000 
#    y 0.000000 1.740420 0.000000 
#    z 0.000000 0.000000 1.685000 
# 
# From -- ./inp_files/25804.got.cif
#   From: 2010.05.17/outbox.cif.g08.bks.cpg/sg44_13_cif.got.tgz:25804.got - 2010.06.03 19:37:08.
