data_PCOD9375449
_publ_section_title
;
Structure prediction by ZEFSAII (Michael W. Deem and Ramdas Pophale) SiO2 
 PCOD9375449
Probable space group: I M M 2
;
_chemical_formula_sum "Si O2"
_cell_formula_units_Z 64
_cell_length_a 13.524109
_cell_length_b 13.926908
_cell_length_c 17.535226
_cell_angle_alpha 90.000000
_cell_angle_beta 90.000000
_cell_angle_gamma 90.000000
_cell_volume 3302.742665
_symmetry_space_group_name_H-M "I M M 2"
_symmetry_group_IT_number 44
_symmetry_cell_setting 'orthorhombic'
loop_
_space_group_symop_operation_xyz
x,y,z
-x,-y,z
-x,y,z
x,-y,z
1/2+x,1/2+y,1/2+z
1/2-x,1/2-y,1/2+z
1/2-x,1/2+y,1/2+z
1/2+x,1/2-y,1/2+z
loop_
_atom_site_type_symbol
_atom_site_label
_atom_site_fract_x
_atom_site_fract_y
_atom_site_fract_z
Si Si1 0.885948 0.108648 0.119140
Si Si2 0.776583 0.258353 0.217689
Si Si3 0.116977 0.896698 0.434790
Si Si4 0.116679 0.389672 0.782205
Si Si5 0.252979 0.388785 0.074598
Si Si6 0.614244 0.803209 0.444818
Si Si7 0.287033 0.391859 0.456938
Si Si8 0.619032 0.192120 0.866766
O O1 0.858273 0.187244 0.181141
O O2 0.000000 0.120519 0.093072
O O3 0.877461 0.000000 0.149802
O O4 0.811963 0.116223 0.047000
O O5 0.687885 0.188666 0.244129
O O6 0.741100 0.328975 0.151263
O O7 0.827949 0.318578 0.285346
O O8 0.149356 0.884697 0.522205
O O9 0.145386 0.802457 0.388845
O O10 0.000000 0.900865 0.429355
O O11 0.158092 0.000000 0.408013
O O12 0.141514 0.500000 0.762126
O O13 0.126714 0.373256 0.873071
O O14 0.000000 0.374074 0.764072
O O15 0.229319 0.500000 0.089142
O O16 0.173109 0.342042 0.017427
O O17 0.500000 0.797649 0.464217
O O18 0.651763 0.696846 0.422311
O O19 0.316219 0.500000 0.434293
O O20 0.174906 0.372264 0.429873
O O21 0.500000 0.180004 0.865082
#
# Coordination Sequence:
#
# PCOD9375449 Si02
#       8
#     8   8   8   8   8   8   8   8
#     4  10  21  37  61  91 119 152 199 255 309 361
#     4  12  22  38  57  88 128 168 195 243 301 372
#     4   9  18  36  63  89 112 146 198 254 299 342
#     4  10  22  40  64  93 123 159 206 258 311 364
#     4  11  23  38  60  89 121 158 199 246 300 360
#     4  11  21  40  66  92 117 151 202 262 314 358
#     4  11  22  40  62  86 117 159 206 254 301 356
#     4  11  23  39  59  88 123 162 201 243 296 364
#
# _framework density 19.377835000000001
#
# number of rings (size 3 to 8) (size 9 to 14) (size 15 to 20)
#    0.000    1.375    3.750    1.500    0.000    5.250 
#    0.000    1.875    0.000    0.750    0.000    0.000 
#    0.000    0.000    0.000    0.000    0.000    0.000 
#
# Total GULP energy -178567.070666 kJ/mol
# GULP energy per Si atom -5580.220958 kJ/mol
# Density = 1.933373 g / cm^3
# Si number density = 19.377835 Si / 1000 Ang^3
#
#
#
# Elastic Constant Matrix: (Units=GPa)
#
#
# Indices 1 2 3 4 5 6 
#
# 1 55.9898 10.8394 16.3624 0.0000 0.0000 0.0000
# 2 10.8394 83.1849 14.3652 0.0000 0.0000 0.0000
# 3 16.3624 14.3652 56.1761 0.0000 0.0000 0.0000
# 4 0.0000 0.0000 0.0000 25.3691 0.0000 0.0000
# 5 0.0000 0.0000 0.0000 0.0000 8.1822 0.0000
# 6 0.0000 0.0000 0.0000 0.0000 0.0000 24.8595
#
#
#
# Elastic Compliance Matrix: (Units=1/GPa)
#
#
# Indices 1 2 3 4 5 6 
#
# 1 0.019737 -0.001652 -0.005326 0.000000 0.000000 0.000000
# 2 -0.001652 0.012715 -0.002770 0.000000 0.000000 0.000000
# 3 -0.005326 -0.002770 0.020061 0.000000 0.000000 0.000000
# 4 0.000000 0.000000 0.000000 0.039418 0.000000 0.000000
# 5 0.000000 0.000000 0.000000 0.000000 0.122217 0.000000
# 6 0.000000 0.000000 0.000000 0.000000 0.000000 0.040226
#
#
# Mechanical properties :
#
#
# Convention : Reuss Voigt Hill
#
# Bulk Modulus (GPa) = 30.28867 30.94278 30.61572
# Shear Modulus (GPa) = 17.55147 21.93440 19.74294
#
# Velocity S-wave (km/s) = 3.01283 3.36807 3.19539
# Velocity P-wave (km/s) = 5.26948 5.57925 5.42657
#
# Compressibility (1/GPa) = 0.03301565
#
# Stress axis : x y z
#
# Youngs Moduli (GPa) = 50.66681 78.64682 49.84808
#
# Poissons Ratio (x) = 0.12992 0.26551
# Poissons Ratio (y) = 0.08370 0.13809
# Poissons Ratio (z) = 0.26987 0.21787
#
# Static dielectric constant tensor:
#      x y z
#    x 1.699200 0.000000 0.000000 
#    y 0.000000 1.700250 0.000000 
#    z 0.000000 0.000000 1.668530 
# 
# From -- ./inp_files/21903.got.cif
#   From: 2010.05.17/outbox.cif.g08.bks.cpg/sg44_11_cif.got.tgz:21903.got - 2010.06.03 19:37:08.
