data_PCOD9375223
_publ_section_title
;
Structure prediction by ZEFSAII (Michael W. Deem and Ramdas Pophale) SiO2 
 PCOD9375223
Probable space group: I M M 2
;
_chemical_formula_sum "Si O2"
_cell_formula_units_Z 64
_cell_length_a 22.875881
_cell_length_b 18.935371
_cell_length_c 5.988639
_cell_angle_alpha 90.000000
_cell_angle_beta 90.000000
_cell_angle_gamma 90.000000
_cell_volume 2594.058594
_symmetry_space_group_name_H-M "I M M 2"
_symmetry_group_IT_number 44
_symmetry_cell_setting 'orthorhombic'
loop_
_space_group_symop_operation_xyz
x,y,z
-x,-y,z
-x,y,z
x,-y,z
1/2+x,1/2+y,1/2+z
1/2-x,1/2-y,1/2+z
1/2-x,1/2+y,1/2+z
1/2+x,1/2-y,1/2+z
loop_
_atom_site_type_symbol
_atom_site_label
_atom_site_fract_x
_atom_site_fract_y
_atom_site_fract_z
Si Si1 0.564142 0.198165 0.927000
Si Si2 0.244251 0.162911 0.338372
Si Si3 0.571113 0.347289 0.391623
Si Si4 0.844796 0.618226 0.164732
Si Si5 0.242482 0.075653 0.940820
Si Si6 0.820613 0.207426 0.714088
Si Si7 0.067153 0.576976 0.793854
Si Si8 0.934170 0.867735 0.402155
O O1 0.500000 0.176758 0.840629
O O2 0.616448 0.179009 0.767667
O O3 0.561831 0.282546 0.940504
O O4 0.574617 0.145783 0.137608
O O5 0.291690 0.148926 0.526032
O O6 0.183251 0.183003 0.454663
O O7 0.276294 0.226415 0.208913
O O8 0.240139 0.091309 0.201721
O O9 0.500000 0.331401 0.394606
O O10 0.617607 0.283444 0.340352
O O11 0.586503 0.376659 0.640833
O O12 0.584044 0.390994 0.158702
O O13 0.887396 0.578483 0.996162
O O14 0.809760 0.578764 0.360369
O O15 0.207200 0.142016 0.846666
O O16 0.218004 0.000000 0.876034
O O17 0.073588 0.500000 0.676029
O O18 0.000000 0.580019 0.873965
O O19 0.000000 0.896822 0.386897
#
# Coordination Sequence:
#
# PCOD9375223 Si02
#       8
#     8   8   8   8   8   8   8   8
#     4  10  21  34  52  80 117 168 222 280 343 406
#     4  11  24  41  65 101 129 178 228 285 344 416
#     4  10  22  39  67 103 139 178 222 284 353 426
#     4  11  23  37  62  86 122 168 226 284 351 412
#     4  11  26  46  66  95 133 176 228 287 355 429
#     4  11  24  42  72  98 139 178 233 285 353 424
#     4  10  22  38  54  77 114 167 231 292 347 408
#     4   9  20  35  56  92 135 172 214 267 338 409
#
# _framework density 24.671765000000001
#
# number of rings (size 3 to 8) (size 9 to 14) (size 15 to 20)
#    0.000    1.625    1.250    2.250    7.000    4.500 
#    0.000    1.250    0.000    0.375    0.000    0.000 
#    0.000    0.000    0.000    0.000    0.000    0.000 
#
# Total GULP energy -178208.914574 kJ/mol
# GULP energy per Si atom -5569.028580 kJ/mol
# Density = 2.461561 g / cm^3
# Si number density = 24.671765 Si / 1000 Ang^3
#
#
#
# Elastic Constant Matrix: (Units=GPa)
#
#
# Indices 1 2 3 4 5 6 
#
# 1 115.4925 17.0330 36.4905 0.0000 0.0000 0.0000
# 2 17.0330 41.2172 -5.8392 0.0000 0.0000 0.0000
# 3 36.4905 -5.8392 131.7744 0.0000 0.0000 0.0000
# 4 0.0000 0.0000 0.0000 -3.3959 0.0000 0.0000
# 5 0.0000 0.0000 0.0000 0.0000 38.2993 0.0000
# 6 0.0000 0.0000 0.0000 0.0000 0.0000 29.1464
#
#
#
# Elastic Compliance Matrix: (Units=1/GPa)
#
#
# Indices 1 2 3 4 5 6 
#
# 1 0.010320 -0.004699 -0.003066 0.000000 0.000000 0.000000
# 2 -0.004699 0.026555 0.002478 0.000000 0.000000 0.000000
# 3 -0.003066 0.002478 0.008548 0.000000 0.000000 0.000000
# 4 0.000000 0.000000 0.000000 -0.294470 0.000000 0.000000
# 5 0.000000 0.000000 0.000000 0.000000 0.026110 0.000000
# 6 0.000000 0.000000 0.000000 0.000000 0.000000 0.034310
#
#
# Mechanical properties :
#
#
# Convention : Reuss Voigt Hill
#
# Bulk Modulus (GPa) = 28.69610 42.65030 35.67320
# Shear Modulus (GPa) = -30.04139 28.86328 -0.58905
#
# Velocity S-wave (km/s) = -3.49326 3.42408 -0.48916
# Velocity P-wave (km/s) = 2.14804 5.74082 3.76450
#
# Compressibility (1/GPa) = 0.03484794
#
# Stress axis : x y z
#
# Youngs Moduli (GPa) = 96.89563 37.65804 116.99204
#
# Poissons Ratio (x) = 0.17697 0.35871
# Poissons Ratio (y) = 0.45534 -0.28991
# Poissons Ratio (z) = 0.29709 -0.09332
#
# Static dielectric constant tensor:
#      x y z
#    x 2.067980 0.000000 0.000000 
#    y 0.000000 1.972990 0.000000 
#    z 0.000000 0.000000 2.131090 
# 
# From -- ./inp_files/2843.got.cif
#   From: 2010.05.17/outbox.cif.g08.bks.cpg/sg44_2_cif.got.tgz:2843.got - 2010.06.03 19:37:08.
