data_PCOD9375993
_publ_section_title
;
Structure prediction by ZEFSAII (Michael W. Deem and Ramdas Pophale) SiO2 
 PCOD9375993
Probable space group: I M M 2
;
_chemical_formula_sum "Si O2"
_cell_formula_units_Z 28
_cell_length_a 9.000000
_cell_length_b 15.000000
_cell_length_c 21.000000
_cell_angle_alpha 90.000000
_cell_angle_beta 90.000000
_cell_angle_gamma 90.000000
_cell_volume 2835.000000
_symmetry_space_group_name_H-M "I M M 2"
_symmetry_group_IT_number 44
_symmetry_cell_setting 'orthorhombic'
loop_
_space_group_symop_operation_xyz
x,y,z
-x,-y,z
-x,y,z
x,-y,z
1/2+x,1/2+y,1/2+z
1/2-x,1/2-y,1/2+z
1/2-x,1/2+y,1/2+z
1/2+x,1/2-y,1/2+z
loop_
_atom_site_type_symbol
_atom_site_label
_atom_site_fract_x
_atom_site_fract_y
_atom_site_fract_z
Si Si1 0.822275 0.218475 0.390010
Si Si2 0.675079 0.399150 0.769430
Si Si3 0.178443 0.207750 0.614647
Si Si4 0.175039 0.397968 0.226970
Si Si5 0.677648 0.599975 0.365705
Si Si6 0.821576 0.402796 0.632162
Si Si7 0.825044 0.394331 0.000068
O O1 0.789513 0.177392 0.320124
O O2 0.759531 0.317743 0.398584
O O3 0.742028 0.153719 0.438952
O O4 0.000000 0.217225 0.398510
O O5 0.500000 0.391449 0.753335
O O6 0.696604 0.500000 0.796475
O O7 0.769512 0.393884 0.705323
O O8 0.254833 0.172298 0.678841
O O9 0.224248 0.310092 0.599935
O O10 0.235931 0.143849 0.559693
O O11 0.000000 0.203920 0.620745
O O12 0.186594 0.500000 0.201248
O O13 0.262430 0.396822 0.293281
O O14 0.000000 0.379797 0.237793
O O15 0.500000 0.611709 0.367047
O O16 0.712172 0.500000 0.390280
O O17 0.766343 0.500000 0.608770
O O18 0.000000 0.405101 0.629929
O O19 0.807406 0.500000 0.995254
O O20 0.000000 0.374571 0.007208
#
# Coordination Sequence:
#
# PCOD9375993 Si02
#       7
#     8   8   8   8   8   8   8
#     4  11  22  37  59  84 112 148 188 232 281 334
#     4   9  18  32  52  81 114 145 178 219 270 326
#     4  11  22  36  57  82 109 146 189 234 284 335
#     4  10  20  34  54  82 116 151 186 228 281 339
#     4  10  21  37  57  83 116 151 188 232 280 333
#     4   9  19  35  54  79 111 144 179 220 268 324
#     4  11  25  43  61  82 110 145 185 230 280 337
#
# _framework density 9.8765429999999999
#
# number of rings (size 3 to 8) (size 9 to 14) (size 15 to 20)
#    0.000    1.857    0.000    3.857    0.000    9.714 
#    0.000    2.143    0.000    2.571    0.000    0.000 
#    0.000    0.000    0.000    0.000    0.000    0.000 
#
# Total GULP energy -156361.331767 kJ/mol
# GULP energy per Si atom -5584.333277 kJ/mol
# Density = 0.985406 g / cm^3
# Si number density = 9.876543 Si / 1000 Ang^3
#
#
#
# Elastic Constant Matrix: (Units=GPa)
#
#
# Indices 1 2 3 4 5 6 
#
# 1 27.4748 28.1744 -15.8361 0.0000 0.0000 0.0000
# 2 28.1744 103.2668 -6.4188 0.0000 0.0000 0.0000
# 3 -15.8361 -6.4188 -0.5223 0.0000 0.0000 0.0000
# 4 0.0000 0.0000 0.0000 29.2397 0.0000 0.0000
# 5 0.0000 0.0000 0.0000 0.0000 22.4401 0.0000
# 6 0.0000 0.0000 0.0000 0.0000 0.0000 32.8336
#
#
#
# Elastic Compliance Matrix: (Units=1/GPa)
#
#
# Indices 1 2 3 4 5 6 
#
# 1 0.004253 -0.005202 -0.065023 0.000000 0.000000 0.000000
# 2 -0.005202 0.011853 0.012062 0.000000 0.000000 0.000000
# 3 -0.065023 0.012062 -0.091351 0.000000 0.000000 0.000000
# 4 0.000000 0.000000 0.000000 0.034200 0.000000 0.000000
# 5 0.000000 0.000000 0.000000 0.000000 0.044563 0.000000
# 6 0.000000 0.000000 0.000000 0.000000 0.000000 0.030457
#
#
# Mechanical properties :
#
#
# Convention : Reuss Voigt Hill
#
# Bulk Modulus (GPa) = -5.22000 15.78426 5.28213
# Shear Modulus (GPa) = 57.84143 25.18932 41.51537
#
# Velocity S-wave (km/s) = 5.41718 3.57488 4.58942
# Velocity P-wave (km/s) = 6.03981 5.00478 5.54649
#
# Compressibility (1/GPa) = -0.19157073
#
# Stress axis : x y z
#
# Youngs Moduli (GPa) = 235.11658 84.36909 -10.94677
#
# Poissons Ratio (x) = 0.43889 -0.71179
# Poissons Ratio (y) = 1.22309 0.13204
# Poissons Ratio (z) = 15.28794 -1.01767
#
# Static dielectric constant tensor:
#      x y z
#    x 1.649140 0.000000 0.000000 
#    y 0.000000 1.741020 0.000000 
#    z 0.000000 0.000000 1.714480 
# 
# From -- ./inp_files/23030.got.cif
#   From: 2010.05.17/outbox.ucp.g08.bks.cvg/sg44_12_cif.got.tgz:23030.got - 2010.06.11 16:32:36.
