data_PCOD9375585
_publ_section_title
;
Structure prediction by ZEFSAII (Michael W. Deem and Ramdas Pophale) SiO2 
 PCOD9375585
Probable space group: I M M 2
;
_chemical_formula_sum "Si O2"
_cell_formula_units_Z 58
_cell_length_a 7.431378
_cell_length_b 18.542522
_cell_length_c 17.659788
_cell_angle_alpha 90.000000
_cell_angle_beta 90.000000
_cell_angle_gamma 90.000000
_cell_volume 2433.456802
_symmetry_space_group_name_H-M "I M M 2"
_symmetry_group_IT_number 44
_symmetry_cell_setting 'orthorhombic'
loop_
_space_group_symop_operation_xyz
x,y,z
-x,-y,z
-x,y,z
x,-y,z
1/2+x,1/2+y,1/2+z
1/2-x,1/2-y,1/2+z
1/2-x,1/2+y,1/2+z
1/2+x,1/2-y,1/2+z
loop_
_atom_site_type_symbol
_atom_site_label
_atom_site_fract_x
_atom_site_fract_y
_atom_site_fract_z
Si Si1 0.793096 0.610542 0.457310
Si Si2 0.290035 0.831863 0.109529
Si Si3 0.219569 0.829536 0.576577
Si Si4 0.219551 0.081877 0.723154
Si Si5 0.702548 0.633708 0.777596
Si Si6 0.783237 0.209405 0.835252
Si Si7 0.500000 0.500000 0.405920
Si Si8 0.719686 0.580624 0.935141
O O1 0.721501 0.616524 0.543054
O O2 0.780493 0.689331 0.419135
O O3 0.657078 0.561733 0.410962
O O4 0.000000 0.586084 0.454803
O O5 0.500000 0.825121 0.090985
O O6 0.217068 0.750264 0.101365
O O7 0.278097 0.864120 0.193113
O O8 0.268658 0.887923 0.640643
O O9 0.279358 0.859204 0.495136
O O10 0.000000 0.828067 0.576602
O O11 0.277581 0.143381 0.781763
O O12 0.000000 0.079379 0.728118
O O13 0.281028 0.000000 0.736690
O O14 0.500000 0.606477 0.769314
O O15 0.705894 0.716560 0.804725
O O16 0.785750 0.592870 0.849388
O O17 0.000000 0.215130 0.831984
O O18 0.500000 0.585002 0.932516
O O19 0.765789 0.500000 0.961152
#
# Coordination Sequence:
#
# PCOD9375585 Si02
#       8
#     8   8   8   8   8   8   2   8
#     4  11  25  44  68  96 132 175 224 279 338 401
#     4  10  21  40  62  90 122 161 215 274 330 392
#     4   9  15  30  56  84 118 155 199 260 323 388
#     4   9  17  27  49  85 121 158 202 257 318 385
#     4  11  22  36  59  91 128 168 218 273 327 393
#     4  11  21  37  62  91 130 172 219 269 329 398
#     4  12  26  48  68  98 132 176 222 280 336 414
#     4   9  18  33  54  85 120 155 201 263 331 392
#
# _framework density 23.834408
#
# number of rings (size 3 to 8) (size 9 to 14) (size 15 to 20)
#    0.000    1.931    2.069    2.276    1.931    3.862 
#    1.241    0.000    0.000    1.241    0.000    0.000 
#    0.000    0.000    0.000    0.000    0.000    0.000 
#
# Total GULP energy -161846.011022 kJ/mol
# GULP energy per Si atom -5580.896932 kJ/mol
# Density = 2.378016 g / cm^3
# Si number density = 23.834408 Si / 1000 Ang^3
#
#
#
# Elastic Constant Matrix: (Units=GPa)
#
#
# Indices 1 2 3 4 5 6 
#
# 1 95.0044 4.5701 -1.8418 0.0000 0.0000 0.0000
# 2 4.5701 39.7752 -2.4792 0.0000 0.0000 0.0000
# 3 -1.8418 -2.4792 111.4804 0.0000 0.0000 0.0000
# 4 0.0000 0.0000 0.0000 13.3451 0.0000 0.0000
# 5 0.0000 0.0000 0.0000 0.0000 7.2081 0.0000
# 6 0.0000 0.0000 0.0000 0.0000 0.0000 29.0909
#
#
#
# Elastic Compliance Matrix: (Units=1/GPa)
#
#
# Indices 1 2 3 4 5 6 
#
# 1 0.010587 -0.001207 0.000148 0.000000 0.000000 0.000000
# 2 -0.001207 0.025314 0.000543 0.000000 0.000000 0.000000
# 3 0.000148 0.000543 0.008985 0.000000 0.000000 0.000000
# 4 0.000000 0.000000 0.000000 0.074934 0.000000 0.000000
# 5 0.000000 0.000000 0.000000 0.000000 0.138734 0.000000
# 6 0.000000 0.000000 0.000000 0.000000 0.000000 0.034375
#
#
# Mechanical properties :
#
#
# Convention : Reuss Voigt Hill
#
# Bulk Modulus (GPa) = 22.80339 27.41756 25.11048
# Shear Modulus (GPa) = 16.20338 26.32954 21.26646
#
# Velocity S-wave (km/s) = 2.61019 3.32729 2.99031
# Velocity P-wave (km/s) = 4.32114 5.12732 4.74140
#
# Compressibility (1/GPa) = 0.04385312
#
# Stress axis : x y z
#
# Youngs Moduli (GPa) = 94.45751 39.50412 111.30016
#
# Poissons Ratio (x) = 0.04769 -0.01648
# Poissons Ratio (y) = 0.11403 -0.06044
# Poissons Ratio (z) = -0.01399 -0.02145
#
# Static dielectric constant tensor:
#      x y z
#    x 1.909340 0.000000 0.000000 
#    y 0.000000 1.887310 0.000000 
#    z 0.000000 0.000000 1.937440 
# 
# From -- ./inp_files/20583.got.cif
#   From: 2010.05.17/outbox.cif.g08.bks.cpg/sg44_11_cif.got.tgz:20583.got - 2010.06.03 19:37:08.
