data_PCOD9375235
_publ_section_title
;
Structure prediction by ZEFSAII (Michael W. Deem and Ramdas Pophale) SiO2 
 PCOD9375235
Probable space group: I M M 2
;
_chemical_formula_sum "Si O2"
_cell_formula_units_Z 48
_cell_length_a 33.556815
_cell_length_b 7.408950
_cell_length_c 8.954703
_cell_angle_alpha 90.000000
_cell_angle_beta 90.000000
_cell_angle_gamma 90.000000
_cell_volume 2226.325106
_symmetry_space_group_name_H-M "I M M 2"
_symmetry_group_IT_number 44
_symmetry_cell_setting 'orthorhombic'
loop_
_space_group_symop_operation_xyz
x,y,z
-x,-y,z
-x,y,z
x,-y,z
1/2+x,1/2+y,1/2+z
1/2-x,1/2-y,1/2+z
1/2-x,1/2+y,1/2+z
1/2+x,1/2-y,1/2+z
loop_
_atom_site_type_symbol
_atom_site_label
_atom_site_fract_x
_atom_site_fract_y
_atom_site_fract_z
Si Si1 0.370928 0.280911 0.418540
Si Si2 0.209267 0.782579 0.078963
Si Si3 0.542856 0.781354 0.086984
Si Si4 0.957113 0.788247 0.942922
Si Si5 0.709867 0.213504 0.928798
Si Si6 0.371287 0.788454 0.065676
O O1 0.371931 0.500000 0.421816
O O2 0.331693 0.217596 0.504167
O O3 0.413420 0.215993 0.485169
O O4 0.368187 0.227193 0.244920
O O5 0.210615 0.736952 0.252315
O O6 0.208741 0.000000 0.063792
O O7 0.249384 0.713720 0.999851
O O8 0.500000 0.721733 0.023489
O O9 0.542908 0.728441 0.262079
O O10 0.584939 0.714813 0.022303
O O11 0.543475 0.000000 0.082475
O O12 0.000000 0.711222 0.993840
O O13 0.957523 0.000000 0.981075
O O14 0.709687 0.000000 0.964468
O O15 0.668602 0.290222 0.993858
O O16 0.372183 0.000000 0.025779
#
# Coordination Sequence:
#
# PCOD9375235 Si02
#       6
#     8   8   8   8   8   8
#     4   9  17  29  46  69  94 119 150 186 223 265
#     4  10  21  35  50  69  92 118 150 186 224 269
#     4   8  13  22  38  61  88 116 145 179 218 257
#     4   8  13  22  38  61  88 116 145 179 218 257
#     4  10  21  35  50  69  92 118 150 186 224 269
#     4   9  17  29  46  69  94 119 150 186 223 265
#
# _framework density 21.560195
#
# number of rings (size 3 to 8) (size 9 to 14) (size 15 to 20)
#    0.000    3.000    0.000    1.000    0.000    2.000 
#    0.000    0.000    0.000    1.000    0.000    0.000 
#    0.000    0.000    0.000    0.000    0.000    0.000 
#
# Total GULP energy -133755.598577 kJ/mol
# GULP energy per Si atom -5573.149941 kJ/mol
# Density = 2.151112 g / cm^3
# Si number density = 21.560195 Si / 1000 Ang^3
#
#
#
# Elastic Constant Matrix: (Units=GPa)
#
#
# Indices 1 2 3 4 5 6 
#
# 1 300.5190 6.2817 66.3516 0.0000 0.0000 0.0000
# 2 6.2817 75.2244 -18.0818 0.0000 0.0000 0.0000
# 3 66.3516 -18.0818 41.4185 0.0000 0.0000 0.0000
# 4 0.0000 0.0000 0.0000 15.7387 0.0000 0.0000
# 5 0.0000 0.0000 0.0000 0.0000 48.5362 0.0000
# 6 0.0000 0.0000 0.0000 0.0000 0.0000 1.4584
#
#
#
# Elastic Compliance Matrix: (Units=1/GPa)
#
#
# Indices 1 2 3 4 5 6 
#
# 1 0.005689 -0.002978 -0.010414 0.000000 0.000000 0.000000
# 2 -0.002978 0.016411 0.011936 0.000000 0.000000 0.000000
# 3 -0.010414 0.011936 0.046038 0.000000 0.000000 0.000000
# 4 0.000000 0.000000 0.000000 0.063538 0.000000 0.000000
# 5 0.000000 0.000000 0.000000 0.000000 0.020603 0.000000
# 6 0.000000 0.000000 0.000000 0.000000 0.000000 0.685670
#
#
# Mechanical properties :
#
#
# Convention : Reuss Voigt Hill
#
# Bulk Modulus (GPa) = 15.33155 58.47387 36.90271
# Shear Modulus (GPa) = 5.79640 37.32070 21.55855
#
# Velocity S-wave (km/s) = 1.64144 4.16504 3.16559
# Velocity P-wave (km/s) = 3.27397 7.09297 5.52400
#
# Compressibility (1/GPa) = 0.06522496
#
# Stress axis : x y z
#
# Youngs Moduli (GPa) = 175.77227 60.93354 21.72127
#
# Poissons Ratio (x) = 0.18148 0.22621
# Poissons Ratio (y) = 0.52351 -0.25926
# Poissons Ratio (z) = 1.83052 -0.72729
#
# Static dielectric constant tensor:
#      x y z
#    x 1.873610 0.000000 0.000000 
#    y 0.000000 1.782020 0.000000 
#    z 0.000000 0.000000 1.697950 
# 
# From -- ./inp_files/9970.got.cif
#   From: 2010.05.17/outbox.cif.g08.bks.cpg/sg44_5_cif.got.tgz:9970.got - 2010.06.03 19:37:08.
