data_PCOD9375113
_publ_section_title
;
Structure prediction by ZEFSAII (Michael W. Deem and Ramdas Pophale) SiO2 
 PCOD9375113
Probable space group: I M M 2
;
_chemical_formula_sum "Si O2"
_cell_formula_units_Z 40
_cell_length_a 8.353579
_cell_length_b 23.708954
_cell_length_c 10.568560
_cell_angle_alpha 90.000000
_cell_angle_beta 90.000000
_cell_angle_gamma 90.000000
_cell_volume 2093.152137
_symmetry_space_group_name_H-M "I M M 2"
_symmetry_group_IT_number 44
_symmetry_cell_setting 'orthorhombic'
loop_
_space_group_symop_operation_xyz
x,y,z
-x,-y,z
-x,y,z
x,-y,z
1/2+x,1/2+y,1/2+z
1/2-x,1/2-y,1/2+z
1/2-x,1/2+y,1/2+z
1/2+x,1/2-y,1/2+z
loop_
_atom_site_type_symbol
_atom_site_label
_atom_site_fract_x
_atom_site_fract_y
_atom_site_fract_z
Si Si1 0.806414 0.878934 0.849180
Si Si2 0.193347 0.677027 0.091434
Si Si3 0.191749 0.000000 0.242415
Si Si4 0.695331 0.500000 0.448787
Si Si5 0.693602 0.693266 0.592366
Si Si6 0.191721 0.620407 0.830436
O O1 0.747086 0.855775 0.716070
O O2 0.000000 0.878789 0.848093
O O3 0.752816 0.942570 0.880767
O O4 0.753953 0.838432 0.964406
O O5 0.249059 0.742021 0.095487
O O6 0.000000 0.677997 0.088815
O O7 0.249181 0.646618 0.963114
O O8 0.250163 0.056829 0.308765
O O9 0.000000 0.000000 0.241012
O O10 0.246714 0.000000 0.095525
O O11 0.500000 0.500000 0.449635
O O12 0.500000 0.692984 0.592610
O O13 0.750123 0.658634 0.713955
O O14 0.000000 0.620766 0.831049
#
# Coordination Sequence:
#
# PCOD9375113 Si02
#       6
#     8   8   4   4   8   8
#     4  10  20  37  61  86 112 148 195 244 289 341
#     4  10  23  39  55  84 124 157 189 237 295 347
#     4  11  21  40  65  86 114 154 197 241 290 349
#     4   9  18  36  61  84 108 142 189 239 284 339
#     4  10  20  38  62  85 114 156 200 239 285 345
#     4  11  23  39  60  89 122 154 192 243 295 342
#
# _framework density 19.109935
#
# number of rings (size 3 to 8) (size 9 to 14) (size 15 to 20)
#    0.000    1.800    2.000    2.100    0.000    5.600 
#    0.000    2.500    0.000    0.000    0.000    0.000 
#    0.000    0.000    0.000    0.000    0.000    0.000 
#
# Total GULP energy -111752.280972 kJ/mol
# GULP energy per Si atom -5587.614049 kJ/mol
# Density = 1.906644 g / cm^3
# Si number density = 19.109935 Si / 1000 Ang^3
#
#
#
# Elastic Constant Matrix: (Units=GPa)
#
#
# Indices 1 2 3 4 5 6 
#
# 1 12.4159 24.0284 21.1248 0.0000 0.0000 0.0001
# 2 24.0284 222.3947 124.9851 0.0001 0.0000 0.0000
# 3 21.1248 124.9851 200.0863 0.0001 0.0001 0.0001
# 4 0.0000 0.0001 0.0001 20.3408 0.0001 0.0000
# 5 0.0000 0.0000 0.0001 0.0001 33.5608 0.0001
# 6 0.0001 0.0000 0.0001 0.0000 0.0001 19.6879
#
#
#
# Elastic Compliance Matrix: (Units=1/GPa)
#
#
# Indices 1 2 3 4 5 6 
#
# 1 0.106696 -0.008008 -0.006262 0.000000 0.000000 0.000000
# 2 -0.008008 0.007530 -0.003858 0.000000 0.000000 0.000000
# 3 -0.006262 -0.003858 0.008069 0.000000 0.000000 0.000000
# 4 0.000000 0.000000 0.000000 0.049162 0.000000 0.000000
# 5 0.000000 0.000000 0.000000 0.000000 0.029797 0.000000
# 6 0.000000 0.000000 0.000000 0.000000 0.000000 0.050793
#
#
# Mechanical properties :
#
#
# Convention : Reuss Voigt Hill
#
# Bulk Modulus (GPa) = 11.62289 86.13036 48.87663
# Shear Modulus (GPa) = 15.77371 32.36847 24.07109
#
# Velocity S-wave (km/s) = 2.87613 4.12005 3.55295
# Velocity P-wave (km/s) = 4.13821 8.23419 6.51639
#
# Compressibility (1/GPa) = 0.08603709
#
# Stress axis : x y z
#
# Youngs Moduli (GPa) = 9.37245 132.80105 123.93063
#
# Poissons Ratio (x) = 1.06353 0.77608
# Poissons Ratio (y) = 0.07506 0.47815
# Poissons Ratio (z) = 0.05869 0.51237
#
# Static dielectric constant tensor:
#      x y z
#    x 1.670280 0.000000 0.000000 
#    y 0.000000 1.648070 0.000000 
#    z 0.000000 0.000000 1.626250 
# 
# From -- ./inp_files/4474.got.cif
#   From: 2010.05.17/outbox.cif.g08.bks.cpg/sg44_3_cif.got.tgz:4474.got - 2010.06.03 19:37:08.
