data_PCOD9375032
_publ_section_title
;
Structure prediction by ZEFSAII (Michael W. Deem and Ramdas Pophale) SiO2 
 PCOD9375032
Probable space group: I M M 2
;
_chemical_formula_sum "Si O2"
_cell_formula_units_Z 32
_cell_length_a 17.626910
_cell_length_b 12.441783
_cell_length_c 7.407902
_cell_angle_alpha 90.000000
_cell_angle_beta 90.000000
_cell_angle_gamma 90.000000
_cell_volume 1624.628389
_symmetry_space_group_name_H-M "I M M 2"
_symmetry_group_IT_number 44
_symmetry_cell_setting 'orthorhombic'
loop_
_space_group_symop_operation_xyz
x,y,z
-x,-y,z
-x,y,z
x,-y,z
1/2+x,1/2+y,1/2+z
1/2-x,1/2-y,1/2+z
1/2-x,1/2+y,1/2+z
1/2+x,1/2-y,1/2+z
loop_
_atom_site_type_symbol
_atom_site_label
_atom_site_fract_x
_atom_site_fract_y
_atom_site_fract_z
Si Si1 0.589150 0.122087 0.619320
Si Si2 0.802917 0.699545 0.405293
Si Si3 0.330722 0.624801 0.167915
Si Si4 0.585175 0.170932 0.201520
O O1 0.500000 0.137474 0.657894
O O2 0.598325 0.133485 0.404799
O O3 0.610887 0.000000 0.670163
O O4 0.640169 0.201341 0.735851
O O5 0.726305 0.647338 0.333980
O O6 0.792346 0.817083 0.493548
O O7 0.849328 0.636894 0.562142
O O8 0.343985 0.500000 0.143640
O O9 0.404280 0.699349 0.198281
O O10 0.500000 0.139944 0.146535
#
# Coordination Sequence:
#
# PCOD9375032 Si02
#       4
#     8   8   8   8
#     4  10  20  36  60  90 122 157 200 252 307 360
#     4  10  21  38  60  88 120 159 200 253 303 357
#     4  10  22  39  61  86 118 161 200 245 304 356
#     4   9  21  39  62  90 123 161 204 250 300 365
#
# _framework density 19.696812000000001
#
# number of rings (size 3 to 8) (size 9 to 14) (size 15 to 20)
#    1.500    0.750    0.000    3.000    0.000    2.500 
#    0.000    8.750    0.000    1.500    0.000    0.000 
#    0.000    0.000    0.000    0.000    0.000    0.000 
#
# Total GULP energy -89105.559538 kJ/mol
# GULP energy per Si atom -5569.097471 kJ/mol
# Density = 1.965198 g / cm^3
# Si number density = 19.696812 Si / 1000 Ang^3
#
#
#
# Elastic Constant Matrix: (Units=GPa)
#
#
# Indices 1 2 3 4 5 6 
#
# 1 52.5937 2.5839 20.2734 0.0000 0.0000 0.0000
# 2 2.5839 97.6934 11.7429 0.0000 0.0000 0.0000
# 3 20.2734 11.7429 77.5964 0.0000 0.0000 0.0000
# 4 0.0000 0.0000 0.0000 21.5495 0.0000 0.0000
# 5 0.0000 0.0000 0.0000 0.0000 44.2861 0.0000
# 6 0.0000 0.0000 0.0000 0.0000 0.0000 6.6178
#
#
#
# Elastic Compliance Matrix: (Units=1/GPa)
#
#
# Indices 1 2 3 4 5 6 
#
# 1 0.021144 0.000107 -0.005540 0.000000 0.000000 0.000000
# 2 0.000107 0.010426 -0.001606 0.000000 0.000000 0.000000
# 3 -0.005540 -0.001606 0.014578 0.000000 0.000000 0.000000
# 4 0.000000 0.000000 0.000000 0.046405 0.000000 0.000000
# 5 0.000000 0.000000 0.000000 0.000000 0.022580 0.000000
# 6 0.000000 0.000000 0.000000 0.000000 0.000000 0.151108
#
#
# Mechanical properties :
#
#
# Convention : Reuss Voigt Hill
#
# Bulk Modulus (GPa) = 31.18247 33.00932 32.09589
# Shear Modulus (GPa) = 17.18154 27.37623 22.27888
#
# Velocity S-wave (km/s) = 2.95668 3.73216 3.36682
# Velocity P-wave (km/s) = 5.24610 5.94702 5.60752
#
# Compressibility (1/GPa) = 0.03206930
#
# Stress axis : x y z
#
# Youngs Moduli (GPa) = 47.29444 95.91140 68.59782
#
# Poissons Ratio (x) = -0.01024 0.38006
# Poissons Ratio (y) = -0.00505 0.11015
# Poissons Ratio (z) = 0.26203 0.15401
#
# Static dielectric constant tensor:
#      x y z
#    x 1.726370 0.000000 0.000000 
#    y 0.000000 1.687170 0.000000 
#    z 0.000000 0.000000 1.706990 
# 
# From -- ./inp_files/1320.got.cif
#   From: 2010.05.17/outbox.cif.g08.bks.cpg/sg44_1_cif.got.tgz:1320.got - 2010.06.03 19:37:08.
