data_PCOD9375996
_publ_section_title
;
Structure prediction by ZEFSAII (Michael W. Deem and Ramdas Pophale) SiO2 
 PCOD9375996
Probable space group: I M M 2
;
_chemical_formula_sum "Si O2"
_cell_formula_units_Z 32
_cell_length_a 24.000000
_cell_length_b 9.000000
_cell_length_c 15.000000
_cell_angle_alpha 90.000000
_cell_angle_beta 90.000000
_cell_angle_gamma 90.000000
_cell_volume 3240.000000
_symmetry_space_group_name_H-M "I M M 2"
_symmetry_group_IT_number 44
_symmetry_cell_setting 'orthorhombic'
loop_
_space_group_symop_operation_xyz
x,y,z
-x,-y,z
-x,y,z
x,-y,z
1/2+x,1/2+y,1/2+z
1/2-x,1/2-y,1/2+z
1/2-x,1/2+y,1/2+z
1/2+x,1/2-y,1/2+z
loop_
_atom_site_type_symbol
_atom_site_label
_atom_site_fract_x
_atom_site_fract_y
_atom_site_fract_z
Si Si1 0.766428 0.671210 0.628400
Si Si2 0.628002 0.677116 0.442734
Si Si3 0.157256 0.672705 0.319511
Si Si4 0.937187 0.332973 0.464133
Si Si5 0.848182 0.324783 0.117778
Si Si6 0.729964 0.827620 0.342640
Si Si7 0.873709 0.826428 0.604067
Si Si8 0.438984 0.680395 0.275994
O O1 0.752765 0.500000 0.609071
O O2 0.715920 0.777580 0.603608
O O3 0.776566 0.686069 0.735027
O O4 0.821459 0.725509 0.579446
O O5 0.629828 0.500000 0.447030
O O6 0.619222 0.742738 0.540132
O O7 0.685034 0.734710 0.397447
O O8 0.580611 0.725476 0.373370
O O9 0.176098 0.500000 0.312631
O O10 0.105045 0.680661 0.383327
O O11 0.140895 0.721546 0.219680
O O12 0.207850 0.768483 0.357164
O O13 0.930139 0.500000 0.503423
O O14 0.922672 0.209353 0.536157
O O15 0.000000 0.320004 0.432819
O O16 0.855605 0.500000 0.109840
O O17 0.724220 0.000000 0.366543
O O18 0.895172 0.778147 0.700938
O O19 0.858903 0.000000 0.605543
O O20 0.500000 0.737081 0.253763
O O21 0.440395 0.500000 0.274426
#
# Coordination Sequence:
#
# PCOD9375996 Si02
#       8
#     8   8   8   8   8   8   8   8
#     4  10  20  35  55  82 116 152 189 229 281 341
#     4  11  21  35  57  83 115 154 192 233 285 340
#     4   9  20  39  60  80 109 149 191 236 289 345
#     4  10  22  40  60  83 112 149 194 241 288 342
#     4  10  21  37  57  82 114 149 191 240 289 341
#     4  10  20  34  55  83 115 147 185 232 279 336
#     4  11  21  35  57  85 117 152 190 233 283 340
#     4   9  19  36  57  81 112 152 195 233 276 337
#
# _framework density 9.8765429999999999
#
# number of rings (size 3 to 8) (size 9 to 14) (size 15 to 20)
#    0.000    2.000    1.250    2.250    1.750    2.750 
#    0.000    0.625    0.000    4.500    0.000    0.000 
#    0.000    0.000    0.000    0.000    0.000    0.000 
#
# Total GULP energy -178564.369574 kJ/mol
# GULP energy per Si atom -5580.136549 kJ/mol
# Density = 0.985406 g / cm^3
# Si number density = 9.876543 Si / 1000 Ang^3
#
#
#
# Elastic Constant Matrix: (Units=GPa)
#
#
# Indices 1 2 3 4 5 6 
#
# 1 40.4502 5.7347 5.5475 0.0000 0.0000 0.0000
# 2 5.7347 23.3375 7.6498 0.0000 0.0000 0.0000
# 3 5.5475 7.6498 32.6429 0.0000 0.0000 0.0000
# 4 0.0000 0.0000 0.0000 28.6660 0.0000 0.0000
# 5 0.0000 0.0000 0.0000 0.0000 16.2680 0.0000
# 6 0.0000 0.0000 0.0000 0.0000 0.0000 14.4784
#
#
#
# Elastic Compliance Matrix: (Units=1/GPa)
#
#
# Indices 1 2 3 4 5 6 
#
# 1 0.025910 -0.005333 -0.003154 0.000000 0.000000 0.000000
# 2 -0.005333 0.047513 -0.010228 0.000000 0.000000 0.000000
# 3 -0.003154 -0.010228 0.033567 0.000000 0.000000 0.000000
# 4 0.000000 0.000000 0.000000 0.034885 0.000000 0.000000
# 5 0.000000 0.000000 0.000000 0.000000 0.061470 0.000000
# 6 0.000000 0.000000 0.000000 0.000000 0.000000 0.069068
#
#
# Mechanical properties :
#
#
# Convention : Reuss Voigt Hill
#
# Bulk Modulus (GPa) = 14.37593 14.92161 14.64877
# Shear Modulus (GPa) = 15.01367 17.04908 16.03137
#
# Velocity S-wave (km/s) = 2.75992 2.94106 2.85193
# Velocity P-wave (km/s) = 4.17730 4.37076 4.27513
#
# Compressibility (1/GPa) = 0.06956072
#
# Stress axis : x y z
#
# Youngs Moduli (GPa) = 38.59467 21.04705 29.79080
#
# Poissons Ratio (x) = 0.11225 0.09395
# Poissons Ratio (y) = 0.20583 0.30470
# Poissons Ratio (z) = 0.12171 0.21527
#
# Static dielectric constant tensor:
#      x y z
#    x 1.693730 0.000000 0.000000 
#    y 0.000000 1.684180 0.000000 
#    z 0.000000 0.000000 1.721150 
# 
# From -- ./inp_files/16804.got.cif
#   From: 2010.05.17/outbox.ucp.g08.bks.cvg/sg44_9_cif.got.tgz:16804.got - 2010.06.11 16:32:36.
