data_PCOD9375549
_publ_section_title
;
Structure prediction by ZEFSAII (Michael W. Deem and Ramdas Pophale) SiO2 
 PCOD9375549
Probable space group: I M M 2
;
_chemical_formula_sum "Si O2"
_cell_formula_units_Z 34
_cell_length_a 7.873253
_cell_length_b 13.989157
_cell_length_c 12.421248
_cell_angle_alpha 90.000000
_cell_angle_beta 90.000000
_cell_angle_gamma 90.000000
_cell_volume 1368.078395
_symmetry_space_group_name_H-M "I M M 2"
_symmetry_group_IT_number 44
_symmetry_cell_setting 'orthorhombic'
loop_
_space_group_symop_operation_xyz
x,y,z
-x,-y,z
-x,y,z
x,-y,z
1/2+x,1/2+y,1/2+z
1/2-x,1/2-y,1/2+z
1/2-x,1/2+y,1/2+z
1/2+x,1/2-y,1/2+z
loop_
_atom_site_type_symbol
_atom_site_label
_atom_site_fract_x
_atom_site_fract_y
_atom_site_fract_z
Si Si1 0.811884 0.632808 0.828210
Si Si2 0.000000 0.000000 0.266086
Si Si3 0.701857 0.844983 0.792519
Si Si4 0.199829 0.175219 0.561292
Si Si5 0.700812 0.395950 0.525835
O O1 0.651429 0.581039 0.777270
O O2 0.792327 0.743198 0.799918
O O3 0.000000 0.601602 0.796295
O O4 0.791698 0.630998 0.957690
O O5 0.500000 0.836258 0.806588
O O6 0.740278 0.874770 0.670895
O O7 0.771394 0.898075 0.896998
O O8 0.231064 0.291486 0.561741
O O9 0.000000 0.160890 0.546593
O O10 0.500000 0.396411 0.550335
O O11 0.768624 0.500000 0.565307
#
# Coordination Sequence:
#
# PCOD9375549 Si02
#       5
#     8   2   8   8   8
#     4  11  22  41  64  90 125 165 203 255 312 371
#     4  12  22  44  60  94 126 158 210 252 312 366
#     4  11  21  39  63  89 122 164 208 252 312 374
#     4  11  21  39  63  89 122 164 208 252 312 374
#     4  10  21  39  61  90 122 158 204 259 308 365
#
# _framework density 24.852378000000002
#
# number of rings (size 3 to 8) (size 9 to 14) (size 15 to 20)
#    0.000    1.176    2.353    8.118    0.000    1.882 
#    4.235    0.000    0.000    0.000    0.000    0.000 
#    0.000    0.000    0.000    0.000    0.000    0.000 
#
# Total GULP energy -94876.622158 kJ/mol
# GULP energy per Si atom -5580.977774 kJ/mol
# Density = 2.479581 g / cm^3
# Si number density = 24.852378 Si / 1000 Ang^3
#
#
#
# Elastic Constant Matrix: (Units=GPa)
#
#
# Indices 1 2 3 4 5 6 
#
# 1 197.0315 28.8668 2.6513 0.0000 0.0000 0.0000
# 2 28.8668 104.0243 1.5883 0.0000 0.0000 0.0000
# 3 2.6513 1.5883 155.0623 0.0000 0.0000 0.0000
# 4 0.0000 0.0000 0.0000 0.8867 0.0000 0.0000
# 5 0.0000 0.0000 0.0000 0.0000 34.6291 0.0000
# 6 0.0000 0.0000 0.0000 0.0000 0.0000 23.6714
#
#
#
# Elastic Compliance Matrix: (Units=1/GPa)
#
#
# Indices 1 2 3 4 5 6 
#
# 1 0.005291 -0.001467 -0.000075 0.000000 0.000000 0.000000
# 2 -0.001467 0.010021 -0.000078 0.000000 0.000000 0.000000
# 3 -0.000075 -0.000078 0.006451 0.000000 0.000000 0.000000
# 4 0.000000 0.000000 0.000000 1.127837 0.000000 0.000000
# 5 0.000000 0.000000 0.000000 0.000000 0.028877 0.000000
# 6 0.000000 0.000000 0.000000 0.000000 0.000000 0.042245
#
#
# Mechanical properties :
#
#
# Convention : Reuss Voigt Hill
#
# Bulk Modulus (GPa) = 53.98549 58.03675 56.01112
# Shear Modulus (GPa) = 4.06458 40.03821 22.05140
#
# Velocity S-wave (km/s) = 1.28025 4.01813 2.98198
# Velocity P-wave (km/s) = 4.89439 6.70302 5.86879
#
# Compressibility (1/GPa) = 0.01852350
#
# Stress axis : x y z
#
# Youngs Moduli (GPa) = 188.98950 99.78575 155.01222
#
# Poissons Ratio (x) = 0.14640 0.01169
# Poissons Ratio (y) = 0.27728 0.01202
# Poissons Ratio (z) = 0.01426 0.00774
#
# Static dielectric constant tensor:
#      x y z
#    x 1.863690 0.000000 0.000000 
#    y 0.000000 1.970120 0.000000 
#    z 0.000000 0.000000 2.073690 
# 
# From -- ./inp_files/15882.got.cif
#   From: 2010.05.17/outbox.cif.g08.bks.cpg/sg44_8_cif.got.tgz:15882.got - 2010.06.03 19:37:08.
