data_PCOD9375561
_publ_section_title
;
Structure prediction by ZEFSAII (Michael W. Deem and Ramdas Pophale) SiO2 
 PCOD9375561
Probable space group: I M M 2
;
_chemical_formula_sum "Si O2"
_cell_formula_units_Z 56
_cell_length_a 14.729967
_cell_length_b 20.837717
_cell_length_c 9.142322
_cell_angle_alpha 90.000000
_cell_angle_beta 90.000000
_cell_angle_gamma 90.000000
_cell_volume 2806.134110
_symmetry_space_group_name_H-M "I M M 2"
_symmetry_group_IT_number 44
_symmetry_cell_setting 'orthorhombic'
loop_
_space_group_symop_operation_xyz
x,y,z
-x,-y,z
-x,y,z
x,-y,z
1/2+x,1/2+y,1/2+z
1/2-x,1/2-y,1/2+z
1/2-x,1/2+y,1/2+z
1/2+x,1/2-y,1/2+z
loop_
_atom_site_type_symbol
_atom_site_label
_atom_site_fract_x
_atom_site_fract_y
_atom_site_fract_z
Si Si1 0.603454 0.690094 0.671150
Si Si2 0.267739 0.572422 0.584215
Si Si3 0.401429 0.074915 0.300119
Si Si4 0.757808 0.138505 0.802946
Si Si5 0.393947 0.257744 0.276667
Si Si6 0.602694 0.228878 0.936205
Si Si7 0.663382 0.175860 0.516024
O O1 0.500000 0.674156 0.633902
O O2 0.667374 0.631704 0.626779
O O3 0.609704 0.705764 0.843311
O O4 0.624382 0.760716 0.600040
O O5 0.299331 0.500000 0.621407
O O6 0.175883 0.583838 0.677849
O O7 0.256368 0.577296 0.408113
O O8 0.500000 0.090919 0.234248
O O9 0.392115 0.116653 0.447524
O O10 0.398944 0.000000 0.338980
O O11 0.856321 0.171948 0.810563
O O12 0.680370 0.181587 0.881905
O O13 0.730920 0.143266 0.631871
O O14 0.500000 0.248321 0.318828
O O15 0.322471 0.211852 0.360524
O O16 0.386728 0.243181 0.106187
O O17 0.500000 0.203733 0.908978
#
# Coordination Sequence:
#
# PCOD9375561 Si02
#       7
#     8   8   8   8   8   8   8
#     4  10  21  39  62  93 127 155 201 260 308 366
#     4  11  25  41  61  87 120 169 216 252 309 372
#     4  10  23  43  64  87 119 160 205 253 307 372
#     4  11  23  36  58  86 124 159 201 251 310 349
#     4  11  21  35  57  90 123 159 197 243 305 371
#     4   9  21  37  58  90 124 154 192 248 314 373
#     4  11  22  35  63  93 120 157 204 249 306 369
#
# _framework density 19.956278999999999
#
# number of rings (size 3 to 8) (size 9 to 14) (size 15 to 20)
#    0.000    1.571    1.429    3.000    8.000    3.714 
#    0.000    0.000    0.000    1.714    0.000    0.000 
#    0.000    0.000    0.000    0.000    0.000    0.000 
#
# Total GULP energy -155868.553228 kJ/mol
# GULP energy per Si atom -5566.734044 kJ/mol
# Density = 1.991086 g / cm^3
# Si number density = 19.956279 Si / 1000 Ang^3
#
#
#
# Elastic Constant Matrix: (Units=GPa)
#
#
# Indices 1 2 3 4 5 6 
#
# 1 86.4638 46.5043 20.9400 0.0000 0.0000 0.0000
# 2 46.5043 101.2199 38.4142 0.0000 0.0000 0.0000
# 3 20.9400 38.4142 109.8135 0.0000 0.0000 0.0000
# 4 0.0000 0.0000 0.0000 25.9784 0.0000 0.0000
# 5 0.0000 0.0000 0.0000 0.0000 20.5405 0.0000
# 6 0.0000 0.0000 0.0000 0.0000 0.0000 17.4049
#
#
#
# Elastic Compliance Matrix: (Units=1/GPa)
#
#
# Indices 1 2 3 4 5 6 
#
# 1 0.015388 -0.006868 -0.000532 0.000000 0.000000 0.000000
# 2 -0.006868 0.014457 -0.003748 0.000000 0.000000 0.000000
# 3 -0.000532 -0.003748 0.010519 0.000000 0.000000 0.000000
# 4 0.000000 0.000000 0.000000 0.038493 0.000000 0.000000
# 5 0.000000 0.000000 0.000000 0.000000 0.048684 0.000000
# 6 0.000000 0.000000 0.000000 0.000000 0.000000 0.057455
#
#
# Mechanical properties :
#
#
# Convention : Reuss Voigt Hill
#
# Bulk Modulus (GPa) = 55.34311 56.57936 55.96123
# Shear Modulus (GPa) = 23.43946 25.56068 24.50007
#
# Velocity S-wave (km/s) = 3.43088 3.58276 3.50764
# Velocity P-wave (km/s) = 6.59446 6.74745 6.67139
#
# Compressibility (1/GPa) = 0.01806910
#
# Stress axis : x y z
#
# Youngs Moduli (GPa) = 64.98423 69.16940 95.06847
#
# Poissons Ratio (x) = 0.47507 0.05056
# Poissons Ratio (y) = 0.44632 0.35628
# Poissons Ratio (z) = 0.03456 0.25922
#
# Static dielectric constant tensor:
#      x y z
#    x 1.769320 0.000000 0.000000 
#    y 0.000000 1.735730 0.000000 
#    z 0.000000 0.000000 1.789000 
# 
# From -- ./inp_files/7372.got.cif
#   From: 2010.05.17/outbox.cif.g08.bks.cpg/sg44_4_cif.got.tgz:7372.got - 2010.06.03 19:37:08.
