data_PCOD9375084
_publ_section_title
;
Structure prediction by ZEFSAII (Michael W. Deem and Ramdas Pophale) SiO2 
 PCOD9375084
Probable space group: I M M 2
;
_chemical_formula_sum "Si O2"
_cell_formula_units_Z 56
_cell_length_a 7.554512
_cell_length_b 19.484513
_cell_length_c 16.874644
_cell_angle_alpha 90.000000
_cell_angle_beta 90.000000
_cell_angle_gamma 90.000000
_cell_volume 2483.879883
_symmetry_space_group_name_H-M "I M M 2"
_symmetry_group_IT_number 44
_symmetry_cell_setting 'orthorhombic'
loop_
_space_group_symop_operation_xyz
x,y,z
-x,-y,z
-x,y,z
x,-y,z
1/2+x,1/2+y,1/2+z
1/2-x,1/2-y,1/2+z
1/2-x,1/2+y,1/2+z
1/2+x,1/2-y,1/2+z
loop_
_atom_site_type_symbol
_atom_site_label
_atom_site_fract_x
_atom_site_fract_y
_atom_site_fract_z
Si Si1 0.784041 0.421368 0.131890
Si Si2 0.790985 0.294750 0.553377
Si Si3 0.216676 0.578336 0.456121
Si Si4 0.216804 0.348692 0.294025
Si Si5 0.207043 0.792438 0.232123
Si Si6 0.707463 0.577355 0.814636
Si Si7 0.288688 0.843062 0.474978
O O1 0.728671 0.500000 0.126624
O O2 0.728435 0.388111 0.214462
O O3 0.000000 0.419827 0.131316
O O4 0.723479 0.379735 0.055242
O O5 0.724148 0.368243 0.523162
O O6 0.716534 0.275342 0.639168
O O7 0.757699 0.236674 0.487204
O O8 0.000000 0.299597 0.564151
O O9 0.274953 0.500000 0.465553
O O10 0.272037 0.610995 0.372208
O O11 0.000000 0.577948 0.456525
O O12 0.280668 0.270500 0.283618
O O13 0.000000 0.347560 0.295140
O O14 0.284501 0.867013 0.252794
O O15 0.000000 0.795790 0.252950
O O16 0.500000 0.569392 0.796254
O O17 0.783293 0.500000 0.816678
O O18 0.720781 0.616274 0.898851
O O19 0.500000 0.848124 0.472163
#
# Coordination Sequence:
#
# PCOD9375084 Si02
#       7
#     8   8   8   8   8   8   8
#     4   9  16  26  46  78 109 137 175 224 272 324
#     4  11  22  36  56  84 116 150 191 239 287 338
#     4   9  18  32  52  80 111 142 179 227 282 336
#     4   9  15  28  51  77 105 137 178 226 273 328
#     4  10  20  37  58  81 111 150 194 233 280 346
#     4  10  22  39  59  85 118 154 193 243 300 353
#     4  11  21  36  57  83 116 152 192 237 286 350
#
# _framework density 22.545373000000001
#
# number of rings (size 3 to 8) (size 9 to 14) (size 15 to 20)
#    0.000    2.143    1.429    2.571    0.000    6.000 
#    0.000    0.000    0.000    1.286    0.000    0.000 
#    0.000    0.000    0.000    0.000    0.000    0.000 
#
# Total GULP energy -156438.664803 kJ/mol
# GULP energy per Si atom -5587.095172 kJ/mol
# Density = 2.249406 g / cm^3
# Si number density = 22.545373 Si / 1000 Ang^3
#
#
#
# Elastic Constant Matrix: (Units=GPa)
#
#
# Indices 1 2 3 4 5 6 
#
# 1 55.8376 0.7688 -12.5890 0.0000 0.0000 0.0000
# 2 0.7688 183.0734 16.5019 0.0000 0.0000 0.0000
# 3 -12.5890 16.5019 33.1847 0.0000 0.0000 0.0000
# 4 0.0000 0.0000 0.0000 28.6975 0.0000 0.0000
# 5 0.0000 0.0000 0.0000 0.0000 14.1483 0.0000
# 6 0.0000 0.0000 0.0000 0.0000 0.0000 4.0999
#
#
#
# Elastic Compliance Matrix: (Units=1/GPa)
#
#
# Indices 1 2 3 4 5 6 
#
# 1 0.019693 -0.000792 0.007864 0.000000 0.000000 0.000000
# 2 -0.000792 0.005750 -0.003160 0.000000 0.000000 0.000000
# 3 0.007864 -0.003160 0.034689 0.000000 0.000000 0.000000
# 4 0.000000 0.000000 0.000000 0.034846 0.000000 0.000000
# 5 0.000000 0.000000 0.000000 0.000000 0.070680 0.000000
# 6 0.000000 0.000000 0.000000 0.000000 0.000000 0.243906
#
#
# Mechanical properties :
#
#
# Convention : Reuss Voigt Hill
#
# Bulk Modulus (GPa) = 14.71483 31.27323 22.99403
# Shear Modulus (GPa) = 11.78156 27.21675 19.49915
#
# Velocity S-wave (km/s) = 2.28846 3.47825 2.94408
# Velocity P-wave (km/s) = 3.67745 5.48017 4.66669
#
# Compressibility (1/GPa) = 0.06795867
#
# Stress axis : x y z
#
# Youngs Moduli (GPa) = 50.77926 173.89983 28.82748
#
# Poissons Ratio (x) = 0.13766 -0.22671
# Poissons Ratio (y) = 0.04020 0.09109
# Poissons Ratio (z) = -0.39935 0.54950
#
# Static dielectric constant tensor:
#      x y z
#    x 1.849050 0.000000 0.000000 
#    y 0.000000 1.853170 0.000000 
#    z 0.000000 0.000000 1.805470 
# 
# From -- ./inp_files/16440.got.cif
#   From: 2010.05.17/outbox.cif.g08.bks.cpg/sg44_9_cif.got.tgz:16440.got - 2010.06.03 19:37:08.
