data_PCOD9375176
_publ_section_title
;
Structure prediction by ZEFSAII (Michael W. Deem and Ramdas Pophale) SiO2 
 PCOD9375176
Probable space group: I M M 2
;
_chemical_formula_sum "Si O2"
_cell_formula_units_Z 58
_cell_length_a 7.857355
_cell_length_b 20.258272
_cell_length_c 15.849458
_cell_angle_alpha 90.000000
_cell_angle_beta 90.000000
_cell_angle_gamma 90.000000
_cell_volume 2522.860218
_symmetry_space_group_name_H-M "I M M 2"
_symmetry_group_IT_number 44
_symmetry_cell_setting 'orthorhombic'
loop_
_space_group_symop_operation_xyz
x,y,z
-x,-y,z
-x,y,z
x,-y,z
1/2+x,1/2+y,1/2+z
1/2-x,1/2-y,1/2+z
1/2-x,1/2+y,1/2+z
1/2+x,1/2-y,1/2+z
loop_
_atom_site_type_symbol
_atom_site_label
_atom_site_fract_x
_atom_site_fract_y
_atom_site_fract_z
Si Si1 0.700216 0.251962 0.201590
Si Si2 0.806145 0.426487 0.446091
Si Si3 0.806400 0.900050 0.635389
Si Si4 0.796773 0.216893 0.887208
Si Si5 0.500000 0.000000 0.676761
Si Si6 0.189753 0.880071 0.119717
Si Si7 0.294230 0.845967 0.463668
Si Si8 0.296742 0.073150 0.299620
O O1 0.500000 0.233645 0.206916
O O2 0.713723 0.324790 0.165214
O O3 0.770527 0.258984 0.296553
O O4 0.781877 0.196342 0.143251
O O5 0.729838 0.500000 0.431301
O O6 0.733659 0.360106 0.404164
O O7 0.803359 0.410511 0.546128
O O8 0.000000 0.430199 0.416141
O O9 0.653014 0.943365 0.671120
O O10 0.786253 0.891952 0.534605
O O11 0.000000 0.921316 0.656912
O O12 0.737758 0.269156 0.958486
O O13 0.000000 0.225027 0.883531
O O14 0.213603 0.914830 0.209491
O O15 0.000000 0.889145 0.086588
O O16 0.500000 0.848977 0.475977
O O17 0.252935 0.875692 0.372192
O O18 0.500000 0.078023 0.286386
O O19 0.256750 0.000000 0.330464
#
# Coordination Sequence:
#
# PCOD9375176 Si02
#       8
#     8   8   8   8   2   8   8   8
#     4  10  22  44  68  96 129 169 221 272 326 399
#     4  11  25  44  64  91 129 174 221 271 333 400
#     4  11  25  43  69  98 131 179 226 274 342 399
#     4  10  21  41  69  98 132 170 214 271 333 397
#     4  12  26  48  68  94 140 176 222 292 324 406
#     4  12  24  38  64  95 129 169 217 275 332 391
#     4  10  20  38  65  96 131 174 219 268 333 398
#     4  10  21  37  61  90 129 176 214 262 332 398
#
# _framework density 22.989778999999999
#
# number of rings (size 3 to 8) (size 9 to 14) (size 15 to 20)
#    0.000    1.379    2.069    3.103    1.931    6.897 
#    1.241    0.000    0.000    0.000    0.000    0.000 
#    0.000    0.000    0.000    0.000    0.000    0.000 
#
# Total GULP energy -161785.790566 kJ/mol
# GULP energy per Si atom -5578.820364 kJ/mol
# Density = 2.293745 g / cm^3
# Si number density = 22.989779 Si / 1000 Ang^3
#
#
#
# Elastic Constant Matrix: (Units=GPa)
#
#
# Indices 1 2 3 4 5 6 
#
# 1 77.1849 19.4686 -18.4429 0.0000 0.0000 0.0000
# 2 19.4686 137.0828 -11.7983 0.0000 0.0000 0.0000
# 3 -18.4429 -11.7983 13.1229 0.0000 0.0000 0.0000
# 4 0.0000 0.0000 0.0000 1.0240 0.0000 0.0000
# 5 0.0000 0.0000 0.0000 0.0000 17.6815 0.0000
# 6 0.0000 0.0000 0.0000 0.0000 0.0000 31.1274
#
#
#
# Elastic Compliance Matrix: (Units=1/GPa)
#
#
# Indices 1 2 3 4 5 6 
#
# 1 0.019532 -0.000446 0.027049 -0.000001 0.000000 0.000000
# 2 -0.000446 0.007917 0.006491 0.000000 0.000000 0.000000
# 3 0.027049 0.006491 0.120053 -0.000004 0.000000 0.000000
# 4 -0.000001 0.000000 -0.000004 0.976569 0.000000 0.000000
# 5 0.000000 0.000000 0.000000 0.000000 0.056556 0.000000
# 6 0.000000 0.000000 0.000000 0.000000 0.000000 0.032126
#
#
# Mechanical properties :
#
#
# Convention : Reuss Voigt Hill
#
# Bulk Modulus (GPa) = 4.67970 22.87172 13.77571
# Shear Modulus (GPa) = 4.10579 25.84413 14.97496
#
# Velocity S-wave (km/s) = 1.33783 3.35648 2.55497
# Velocity P-wave (km/s) = 2.10389 4.99916 3.83523
#
# Compressibility (1/GPa) = 0.21368893
#
# Stress axis : x y z
#
# Youngs Moduli (GPa) = 51.19933 126.31280 8.32967
#
# Poissons Ratio (x) = 0.05632 -0.22531
# Poissons Ratio (y) = 0.02283 -0.05407
# Poissons Ratio (z) = -1.38487 -0.81991
#
# Static dielectric constant tensor:
#      x y z
#    x 1.864850 0.000000 0.000000 
#    y 0.000000 1.863780 0.000000 
#    z 0.000000 0.000000 1.878070 
# 
# From -- ./inp_files/20593.got.cif
#   From: 2010.05.17/outbox.cif.g08.bks.cpg/sg44_11_cif.got.tgz:20593.got - 2010.06.03 19:37:08.
