data_PCOD9375583
_publ_section_title
;
Structure prediction by ZEFSAII (Michael W. Deem and Ramdas Pophale) SiO2 
 PCOD9375583
Probable space group: I M M 2
;
_chemical_formula_sum "Si O2"
_cell_formula_units_Z 56
_cell_length_a 18.608003
_cell_length_b 13.319089
_cell_length_c 11.982061
_cell_angle_alpha 90.000000
_cell_angle_beta 90.000000
_cell_angle_gamma 90.000000
_cell_volume 2969.653746
_symmetry_space_group_name_H-M "I M M 2"
_symmetry_group_IT_number 44
_symmetry_cell_setting 'orthorhombic'
loop_
_space_group_symop_operation_xyz
x,y,z
-x,-y,z
-x,y,z
x,-y,z
1/2+x,1/2+y,1/2+z
1/2-x,1/2-y,1/2+z
1/2-x,1/2+y,1/2+z
1/2+x,1/2-y,1/2+z
loop_
_atom_site_type_symbol
_atom_site_label
_atom_site_fract_x
_atom_site_fract_y
_atom_site_fract_z
Si Si1 0.920253 0.206112 0.420660
Si Si2 0.919531 0.756797 0.681968
Si Si3 0.414082 0.617662 0.401652
Si Si4 0.085259 0.382288 0.251437
Si Si5 0.176105 0.753392 0.080463
Si Si6 0.774207 0.109443 0.442123
Si Si7 0.712446 0.888538 0.203684
O O1 0.921619 0.205821 0.554869
O O2 0.906556 0.315427 0.364509
O O3 0.852610 0.136932 0.395118
O O4 0.000000 0.174118 0.381099
O O5 0.901984 0.840001 0.776015
O O6 0.859460 0.672559 0.682970
O O7 0.000000 0.718945 0.708911
O O8 0.500000 0.624182 0.423037
O O9 0.393475 0.500000 0.409986
O O10 0.371488 0.687943 0.488695
O O11 0.106517 0.500000 0.262456
O O12 0.129014 0.322519 0.156064
O O13 0.000000 0.380882 0.224877
O O14 0.217856 0.833547 0.155499
O O15 0.240444 0.691240 0.022872
O O16 0.722357 0.106400 0.336180
O O17 0.776867 0.000000 0.496561
O O18 0.707769 0.000000 0.156325
#
# Coordination Sequence:
#
# PCOD9375583 Si02
#       7
#     8   8   8   8   8   8   8
#     4  10  21  40  62  86 118 158 200 245 298 355
#     4  10  21  40  62  86 118 158 200 245 298 355
#     4  10  22  40  63  91 122 157 201 252 303 361
#     4  10  22  40  63  91 122 157 201 252 303 361
#     4  12  21  40  65  90 118 162 196 250 307 366
#     4  11  23  39  58  86 122 157 196 244 295 351
#     4  11  23  39  58  86 122 157 196 244 295 351
#
# _framework density 18.857417000000002
#
# number of rings (size 3 to 8) (size 9 to 14) (size 15 to 20)
#    0.000    1.429    4.286    1.286    0.000    1.714 
#    0.000    4.286    0.000    0.000    0.000    0.000 
#    0.000    0.000    0.000    0.000    0.000    0.000 
#
# Total GULP energy -156109.547350 kJ/mol
# GULP energy per Si atom -5575.340977 kJ/mol
# Density = 1.881450 g / cm^3
# Si number density = 18.857417 Si / 1000 Ang^3
#
#
#
# Elastic Constant Matrix: (Units=GPa)
#
#
# Indices 1 2 3 4 5 6 
#
# 1 64.6369 32.2337 11.3477 0.0000 0.0000 0.0000
# 2 32.2337 103.2484 25.7449 0.0000 0.0000 0.0000
# 3 11.3477 25.7449 71.7912 0.0000 0.0000 0.0000
# 4 0.0000 0.0000 0.0000 9.6657 0.0000 0.0000
# 5 0.0000 0.0000 0.0000 0.0000 10.2706 0.0000
# 6 0.0000 0.0000 0.0000 0.0000 0.0000 25.1908
#
#
#
# Elastic Compliance Matrix: (Units=1/GPa)
#
#
# Indices 1 2 3 4 5 6 
#
# 1 0.018380 -0.005506 -0.000931 0.000000 0.000000 0.000000
# 2 -0.005506 0.012286 -0.003536 0.000000 0.000000 0.000000
# 3 -0.000931 -0.003536 0.015344 0.000000 0.000000 0.000000
# 4 0.000000 0.000000 0.000000 0.103458 0.000000 0.000000
# 5 0.000000 0.000000 0.000000 0.000000 0.097365 0.000000
# 6 0.000000 0.000000 0.000000 0.000000 0.000000 0.039697
#
#
# Mechanical properties :
#
#
# Convention : Reuss Voigt Hill
#
# Bulk Modulus (GPa) = 38.36461 42.03658 40.20059
# Shear Modulus (GPa) = 15.86472 20.38211 18.12341
#
# Velocity S-wave (km/s) = 2.90366 3.29120 3.10349
# Velocity P-wave (km/s) = 5.62409 6.06489 5.84864
#
# Compressibility (1/GPa) = 0.02606569
#
# Stress axis : x y z
#
# Youngs Moduli (GPa) = 54.40605 81.39372 65.17094
#
# Poissons Ratio (x) = 0.44817 0.06066
# Poissons Ratio (y) = 0.29957 0.23041
# Poissons Ratio (z) = 0.05064 0.28777
#
# Static dielectric constant tensor:
#      x y z
#    x 1.652810 0.000000 0.000000 
#    y 0.000000 1.661230 0.000000 
#    z 0.000000 0.000000 1.651540 
# 
# From -- ./inp_files/13246.got.cif
#   From: 2010.05.17/outbox.cif.g08.bks.cpg/sg44_7_cif.got.tgz:13246.got - 2010.06.03 19:37:08.
