data_PCOD9375689
_publ_section_title
;
Structure prediction by ZEFSAII (Michael W. Deem and Ramdas Pophale) SiO2 
 PCOD9375689
Probable space group: I M M 2
;
_chemical_formula_sum "Si O2"
_cell_formula_units_Z 64
_cell_length_a 7.984191
_cell_length_b 31.816012
_cell_length_c 12.128379
_cell_angle_alpha 90.000000
_cell_angle_beta 90.000000
_cell_angle_gamma 90.000000
_cell_volume 3080.912890
_symmetry_space_group_name_H-M "I M M 2"
_symmetry_group_IT_number 44
_symmetry_cell_setting 'orthorhombic'
loop_
_space_group_symop_operation_xyz
x,y,z
-x,-y,z
-x,y,z
x,-y,z
1/2+x,1/2+y,1/2+z
1/2-x,1/2-y,1/2+z
1/2-x,1/2+y,1/2+z
1/2+x,1/2-y,1/2+z
loop_
_atom_site_type_symbol
_atom_site_label
_atom_site_fract_x
_atom_site_fract_y
_atom_site_fract_z
Si Si1 0.197179 0.294641 0.554600
Si Si2 0.304398 0.340217 0.337377
Si Si3 0.202684 0.200938 0.609022
Si Si4 0.704417 0.953435 0.601522
Si Si5 0.697061 0.370256 0.701888
Si Si6 0.697140 0.454641 0.587789
Si Si7 0.199616 0.375138 0.952711
Si Si8 0.306589 0.066187 0.848011
O O1 0.285054 0.312600 0.446218
O O2 0.259997 0.248355 0.586311
O O3 0.221386 0.328580 0.651387
O O4 0.000000 0.291545 0.530122
O O5 0.500000 0.351410 0.322954
O O6 0.245526 0.315384 0.229459
O O7 0.205293 0.383415 0.350265
O O8 0.263427 0.167344 0.519683
O O9 0.000000 0.201191 0.607360
O O10 0.500000 0.951526 0.603815
O O11 0.761013 0.914939 0.525225
O O12 0.759499 0.947746 0.728492
O O13 0.752684 0.000000 0.562113
O O14 0.500000 0.367418 0.674705
O O15 0.767424 0.412634 0.644394
O O16 0.720693 0.373560 0.832288
O O17 0.500000 0.455258 0.615228
O O18 0.769655 0.500000 0.621751
O O19 0.715047 0.450260 0.456228
O O20 0.000000 0.379354 0.939131
O O21 0.500000 0.052867 0.856202
#
# Coordination Sequence:
#
# PCOD9375689 Si02
#       8
#     8   8   8   8   8   8   8   8
#     4  11  24  42  64  93 122 157 204 251 300 361
#     4  11  22  39  63  91 125 162 197 247 305 360
#     4  10  24  43  63  90 125 160 199 248 303 362
#     4   9  19  36  58  88 123 156 195 246 302 353
#     4  11  24  42  62  87 122 163 201 248 307 360
#     4  10  22  40  61  87 121 160 202 249 303 363
#     4  11  23  40  63  89 120 160 206 253 299 354
#     4  11  20  35  61  92 124 159 199 248 299 357
#
# _framework density 20.773064999999999
#
# number of rings (size 3 to 8) (size 9 to 14) (size 15 to 20)
#    0.000    1.500    2.500    2.250    1.750    3.250 
#    0.000    0.000    0.000    3.375    0.000    0.000 
#    0.000    0.000    0.000    0.000    0.000    0.000 
#
# Total GULP energy -178867.783149 kJ/mol
# GULP energy per Si atom -5589.618223 kJ/mol
# Density = 2.072578 g / cm^3
# Si number density = 20.773065 Si / 1000 Ang^3
#
#
#
# Elastic Constant Matrix: (Units=GPa)
#
#
# Indices 1 2 3 4 5 6 
#
# 1 21.8622 0.6807 -11.4034 -0.0001 -0.0001 0.0000
# 2 0.6807 178.1954 52.8178 0.0009 0.0000 -0.0002
# 3 -11.4034 52.8178 106.0381 0.0012 0.0000 -0.0001
# 4 -0.0001 0.0009 0.0012 32.7890 0.0000 -0.0001
# 5 -0.0001 0.0000 0.0000 0.0000 27.6153 0.0001
# 6 0.0000 -0.0002 -0.0001 -0.0001 0.0001 -4.3980
#
#
#
# Elastic Compliance Matrix: (Units=1/GPa)
#
#
# Indices 1 2 3 4 5 6 
#
# 1 0.049093 -0.002056 0.006304 0.000000 0.000000 0.000000
# 2 -0.002056 0.006670 -0.003543 0.000000 0.000000 0.000000
# 3 0.006304 -0.003543 0.011873 0.000000 0.000000 0.000000
# 4 0.000000 0.000000 0.000000 0.030498 0.000000 0.000000
# 5 0.000000 0.000000 0.000000 0.000000 0.036212 0.000001
# 6 0.000000 0.000000 0.000000 0.000000 0.000001 -0.227375
#
#
# Mechanical properties :
#
#
# Convention : Reuss Voigt Hill
#
# Bulk Modulus (GPa) = 14.48332 43.36507 28.92420
# Shear Modulus (GPa) = -70.00623 28.80130 -20.60247
#
# Velocity S-wave (km/s) = -5.81151 3.72758 -3.15268
# Velocity P-wave (km/s) = 6.16800 6.28072 0.83760
#
# Compressibility (1/GPa) = 0.06904494
#
# Stress axis : x y z
#
# Youngs Moduli (GPa) = 20.36947 149.92613 84.22156
#
# Poissons Ratio (x) = 0.30824 -0.53090
# Poissons Ratio (y) = 0.04188 0.29843
# Poissons Ratio (z) = -0.12840 0.53125
#
# Static dielectric constant tensor:
#      x y z
#    x 1.765390 0.000000 0.000000 
#    y 0.000000 1.746690 0.000000 
#    z 0.000000 0.000000 1.700640 
# 
# From -- ./inp_files/11574.got.cif
#   From: 2010.05.17/outbox.cif.g08.bks.cpg/sg44_6_cif.got.tgz:11574.got - 2010.06.03 19:37:08.
