data_PCOD9375382
_publ_section_title
;
Structure prediction by ZEFSAII (Michael W. Deem and Ramdas Pophale) SiO2 
 PCOD9375382
Probable space group: I M M 2
;
_chemical_formula_sum "Si O2"
_cell_formula_units_Z 48
_cell_length_a 8.117922
_cell_length_b 9.660486
_cell_length_c 32.501481
_cell_angle_alpha 90.000000
_cell_angle_beta 90.000000
_cell_angle_gamma 90.000000
_cell_volume 2548.865979
_symmetry_space_group_name_H-M "I M M 2"
_symmetry_group_IT_number 44
_symmetry_cell_setting 'orthorhombic'
loop_
_space_group_symop_operation_xyz
x,y,z
-x,-y,z
-x,y,z
x,-y,z
1/2+x,1/2+y,1/2+z
1/2-x,1/2-y,1/2+z
1/2-x,1/2+y,1/2+z
1/2+x,1/2-y,1/2+z
loop_
_atom_site_type_symbol
_atom_site_label
_atom_site_fract_x
_atom_site_fract_y
_atom_site_fract_z
Si Si1 0.797913 0.839564 0.682850
Si Si2 0.303433 0.658853 0.850430
Si Si3 0.699056 0.341196 0.003806
Si Si4 0.803710 0.842863 0.927095
Si Si5 0.198914 0.341132 0.759868
Si Si6 0.190914 0.831473 0.593391
O O1 0.742905 0.749703 0.721516
O O2 0.738455 0.789720 0.637739
O O3 0.000000 0.835974 0.681635
O O4 0.751362 0.000000 0.688140
O O5 0.500000 0.653745 0.852575
O O6 0.240535 0.500000 0.855516
O O7 0.242614 0.757758 0.886397
O O8 0.252891 0.708085 0.804939
O O9 0.500000 0.346131 0.006668
O O10 0.754571 0.500000 0.996011
O O11 0.744337 0.240943 0.966941
O O12 0.763091 0.293966 0.048886
O O13 0.000000 0.849652 0.929074
O O14 0.737747 0.000000 0.926106
O O15 0.255460 0.500000 0.755623
O O16 0.000000 0.340462 0.759123
O O17 0.000000 0.785219 0.593282
O O18 0.189599 0.000000 0.593825
#
# Coordination Sequence:
#
# PCOD9375382 Si02
#       6
#     8   8   8   8   8   8
#     4   8  13  23  42  68  97 128 160 194 233 277
#     4  10  21  37  56  75  95 124 164 205 244 291
#     4   9  17  31  53  78 101 128 165 205 243 286
#     4  11  24  38  51  71 100 130 160 198 246 298
#     4   9  17  29  46  70  99 127 157 197 241 283
#     4   7  11  22  42  69  98 125 156 196 237 276
#
# _framework density 18.831904000000002
#
# number of rings (size 3 to 8) (size 9 to 14) (size 15 to 20)
#    0.000    3.000    0.000    3.500    0.000    5.333 
#    0.000    2.500    0.000    4.000    0.000    4.667 
#    0.000    0.000    0.000    0.000    0.000    0.000 
#
# Total GULP energy -133722.206462 kJ/mol
# GULP energy per Si atom -5571.758603 kJ/mol
# Density = 1.878904 g / cm^3
# Si number density = 18.831904 Si / 1000 Ang^3
#
#
#
# Elastic Constant Matrix: (Units=GPa)
#
#
# Indices 1 2 3 4 5 6 
#
# 1 14.4942 10.1521 15.1378 0.0000 0.0000 0.0000
# 2 10.1521 84.8393 106.9152 0.0000 0.0000 0.0000
# 3 15.1378 106.9152 234.6035 0.0000 0.0000 0.0000
# 4 0.0000 0.0000 0.0000 122.0586 0.0000 0.0000
# 5 0.0000 0.0000 0.0000 0.0000 19.4587 0.0000
# 6 0.0000 0.0000 0.0000 0.0000 0.0000 12.2793
#
#
#
# Elastic Compliance Matrix: (Units=1/GPa)
#
#
# Indices 1 2 3 4 5 6 
#
# 1 0.075618 -0.006812 -0.001775 0.000000 0.000000 0.000000
# 2 -0.006812 0.028303 -0.012459 0.000000 0.000000 0.000000
# 3 -0.001775 -0.012459 0.010055 0.000000 0.000000 0.000000
# 4 0.000000 0.000000 0.000000 0.008193 0.000000 0.000000
# 5 0.000000 0.000000 0.000000 0.000000 0.051391 0.000000
# 6 0.000000 0.000000 0.000000 0.000000 0.000000 0.081438
#
#
# Mechanical properties :
#
#
# Convention : Reuss Voigt Hill
#
# Bulk Modulus (GPa) = 13.91118 66.48302 40.19710
# Shear Modulus (GPa) = 15.57388 44.20812 29.89100
#
# Velocity S-wave (km/s) = 2.87887 4.85037 3.98836
# Velocity P-wave (km/s) = 4.29576 8.16995 6.52693
#
# Compressibility (1/GPa) = 0.07188464
#
# Stress axis : x y z
#
# Youngs Moduli (GPa) = 13.22431 35.33213 99.45439
#
# Poissons Ratio (x) = 0.24068 0.17652
# Poissons Ratio (y) = 0.09008 1.23909
# Poissons Ratio (z) = 0.02347 0.44020
#
# Static dielectric constant tensor:
#      x y z
#    x 1.681880 0.000000 0.000000 
#    y 0.000000 1.604910 0.000000 
#    z 0.000000 0.000000 1.673130 
# 
# From -- ./inp_files/26871.got.cif
#   From: 2010.05.17/outbox.cif.g08.bks.cpg/sg44_14_cif.got.tgz:26871.got - 2010.06.03 19:37:08.
