data_PCOD9375776
_publ_section_title
;
Structure prediction by ZEFSAII (Michael W. Deem and Ramdas Pophale) SiO2 
 PCOD9375776
Probable space group: I M M 2
;
_chemical_formula_sum "Si O2"
_cell_formula_units_Z 34
_cell_length_a 13.353823
_cell_length_b 26.694743
_cell_length_c 5.078630
_cell_angle_alpha 90.000000
_cell_angle_beta 90.000000
_cell_angle_gamma 90.000000
_cell_volume 1810.414142
_symmetry_space_group_name_H-M "I M M 2"
_symmetry_group_IT_number 44
_symmetry_cell_setting 'orthorhombic'
loop_
_space_group_symop_operation_xyz
x,y,z
-x,-y,z
-x,y,z
x,-y,z
1/2+x,1/2+y,1/2+z
1/2-x,1/2-y,1/2+z
1/2-x,1/2+y,1/2+z
1/2+x,1/2-y,1/2+z
loop_
_atom_site_type_symbol
_atom_site_label
_atom_site_fract_x
_atom_site_fract_y
_atom_site_fract_z
Si Si1 0.291316 0.054852 0.089630
Si Si2 0.000000 0.155342 0.654207
Si Si3 0.205870 0.725691 0.999971
Si Si4 0.500000 0.000000 0.115724
Si Si5 0.219903 0.885865 0.589754
Si Si6 0.500000 0.725916 0.653883
O O1 0.409873 0.042878 0.112869
O O2 0.248282 0.075330 0.361842
O O3 0.246222 0.000000 0.024590
O O4 0.264599 0.093437 0.861218
O O5 0.898636 0.123856 0.616133
O O6 0.000000 0.199727 0.437634
O O7 0.000000 0.180934 0.940562
O O8 0.278941 0.754186 0.204995
O O9 0.231065 0.667436 0.017158
O O10 0.097013 0.740758 0.101922
#
# Coordination Sequence:
#
# PCOD9375776 Si02
#       6
#     8   4   8   2   8   4
#     4  10  24  44  69  95 127 164 213 275 329 384
#     4  12  24  40  68  92 134 178 212 258 340 368
#     4  12  23  40  63  98 136 172 220 264 307 394
#     4   8  24  46  74  88 140 158 202 278 356 360
#     4  12  23  42  68  96 130 172 219 261 325 388
#     4  12  22  42  62  94 136 182 208 274 316 368
#
# _framework density 18.780234
#
# number of rings (size 3 to 8) (size 9 to 14) (size 15 to 20)
#    0.706    0.000    4.706    3.529    0.000    3.765 
#    0.000    3.529    0.000    0.000    0.000    0.000 
#    0.000    0.000    0.000    0.000    0.000    0.000 
#
# Total GULP energy -94678.324567 kJ/mol
# GULP energy per Si atom -5569.313210 kJ/mol
# Density = 1.873749 g / cm^3
# Si number density = 18.780234 Si / 1000 Ang^3
#
#
#
# Elastic Constant Matrix: (Units=GPa)
#
#
# Indices 1 2 3 4 5 6 
#
# 1 111.6966 44.3714 -1.4546 -0.0157 0.0153 0.0248
# 2 44.3714 65.9253 -5.4868 0.0077 0.0100 -0.0220
# 3 -1.4546 -5.4868 60.7938 -0.0088 0.0060 -0.0624
# 4 -0.0157 0.0077 -0.0088 17.2718 0.0060 -0.0223
# 5 0.0153 0.0100 0.0060 0.0060 3.1269 -0.0109
# 6 0.0248 -0.0220 -0.0624 -0.0223 -0.0109 29.2289
#
#
#
# Elastic Compliance Matrix: (Units=1/GPa)
#
#
# Indices 1 2 3 4 5 6 
#
# 1 0.012233 -0.008271 -0.000454 0.000015 -0.000033 -0.000018
# 2 -0.008271 0.020876 0.001686 -0.000016 -0.000029 0.000026
# 3 -0.000454 0.001686 0.016590 0.000007 -0.000035 0.000037
# 4 0.000015 -0.000016 0.000007 0.057898 -0.000111 0.000044
# 5 -0.000033 -0.000029 -0.000035 -0.000111 0.319802 0.000119
# 6 -0.000018 0.000026 0.000037 0.000044 0.000119 0.034213
#
#
# Mechanical properties :
#
#
# Convention : Reuss Voigt Hill
#
# Bulk Modulus (GPa) = 28.07275 34.80844 31.44059
# Shear Modulus (GPa) = 10.25510 23.32459 16.78984
#
# Velocity S-wave (km/s) = 2.33932 3.52799 2.99326
# Velocity P-wave (km/s) = 4.71986 5.93047 5.35946
#
# Compressibility (1/GPa) = 0.03562174
#
# Stress axis : x y z
#
# Youngs Moduli (GPa) = 81.74903 47.90224 60.27580
#
# Poissons Ratio (x) = 0.39620 0.02735
# Poissons Ratio (y) = 0.67614 -0.10164
# Poissons Ratio (z) = 0.03710 -0.08077
#
# Static dielectric constant tensor:
#      x y z
#    x 1.683650 0.000000 0.000000 
#    y 0.000000 1.622480 -0.000010 
#    z 0.000000 -0.000010 1.672640 
# 
# From -- ./inp_files/1014.got.cif
#   From: 2010.05.17/outbox.cif.g08.bks.cpg/sg44_1_cif.got.tgz:1014.got - 2010.06.03 19:37:08.
