data_PCOD9375104
_publ_section_title
;
Structure prediction by ZEFSAII (Michael W. Deem and Ramdas Pophale) SiO2 
 PCOD9375104
Probable space group: I M M 2
;
_chemical_formula_sum "Si O2"
_cell_formula_units_Z 64
_cell_length_a 13.539111
_cell_length_b 25.885369
_cell_length_c 9.462046
_cell_angle_alpha 90.000000
_cell_angle_beta 90.000000
_cell_angle_gamma 90.000000
_cell_volume 3316.114855
_symmetry_space_group_name_H-M "I M M 2"
_symmetry_group_IT_number 44
_symmetry_cell_setting 'orthorhombic'
loop_
_space_group_symop_operation_xyz
x,y,z
-x,-y,z
-x,y,z
x,-y,z
1/2+x,1/2+y,1/2+z
1/2-x,1/2-y,1/2+z
1/2-x,1/2+y,1/2+z
1/2+x,1/2-y,1/2+z
loop_
_atom_site_type_symbol
_atom_site_label
_atom_site_fract_x
_atom_site_fract_y
_atom_site_fract_z
Si Si1 0.382927 0.819599 0.219600
Si Si2 0.812151 0.137748 0.139097
Si Si3 0.385943 0.439686 0.401539
Si Si4 0.242161 0.442818 0.137084
Si Si5 0.616961 0.608424 0.950681
Si Si6 0.617985 0.845039 0.548955
Si Si7 0.880655 0.220879 0.541571
Si Si8 0.380752 0.252979 0.725435
O O1 0.500000 0.828256 0.192800
O O2 0.306861 0.857057 0.138249
O O3 0.363492 0.829568 0.385409
O O4 0.357838 0.761373 0.166093
O O5 0.848753 0.118276 0.291662
O O6 0.851423 0.196530 0.136510
O O7 0.857379 0.100587 0.022623
O O8 0.500000 0.430703 0.354678
O O9 0.380753 0.500000 0.448156
O O10 0.305982 0.433149 0.277880
O O11 0.198211 0.500000 0.144367
O O12 0.324338 0.438814 0.014901
O O13 0.164845 0.398624 0.097990
O O14 0.500000 0.602237 0.955911
O O15 0.645470 0.660191 0.040915
O O16 0.500000 0.848495 0.562963
O O17 0.653890 0.798488 0.648318
O O18 0.846134 0.241959 0.388071
O O19 0.000000 0.220434 0.536410
O O20 0.500000 0.251972 0.730040
#
# Coordination Sequence:
#
# PCOD9375104 Si02
#       8
#     8   8   8   8   8   8   8   8
#     4  10  21  36  55  87 126 161 197 242 290 344
#     4  11  21  36  62  90 124 160 197 241 294 362
#     4  10  23  43  64  90 124 156 194 250 309 364
#     4  11  24  41  60  85 114 153 206 256 308 358
#     4  10  20  37  60  87 119 153 197 244 296 365
#     4  10  22  41  60  85 121 159 204 251 297 353
#     4   8  17  33  53  83 120 154 186 230 291 355
#     4   9  19  34  57  88 122 156 195 243 295 357
#
# _framework density 19.299693000000001
#
# number of rings (size 3 to 8) (size 9 to 14) (size 15 to 20)
#    0.000    2.125    1.250    2.250    3.500    2.500 
#    0.000    2.500    0.000    1.125    0.000    0.000 
#    0.000    0.000    0.000    0.000    0.000    0.000 
#
# Total GULP energy -178567.304698 kJ/mol
# GULP energy per Si atom -5580.228272 kJ/mol
# Density = 1.925577 g / cm^3
# Si number density = 19.299693 Si / 1000 Ang^3
#
#
#
# Elastic Constant Matrix: (Units=GPa)
#
#
# Indices 1 2 3 4 5 6 
#
# 1 65.3308 27.5918 17.9242 0.0000 0.0001 -0.0001
# 2 27.5918 118.6484 73.7561 0.0003 0.0000 0.0045
# 3 17.9242 73.7561 55.4884 -0.0016 0.0008 0.0050
# 4 0.0000 0.0003 -0.0016 28.8521 0.0002 0.0040
# 5 0.0001 0.0000 0.0008 0.0002 26.2743 0.0000
# 6 -0.0001 0.0045 0.0050 0.0040 0.0000 -28.1706
#
#
#
# Elastic Compliance Matrix: (Units=1/GPa)
#
#
# Indices 1 2 3 4 5 6 
#
# 1 0.016992 -0.003105 -0.001361 0.000000 0.000000 -0.000001
# 2 -0.003105 0.049086 -0.064243 -0.000004 0.000002 -0.000003
# 3 -0.001361 -0.064243 0.103854 0.000007 -0.000003 0.000008
# 4 0.000000 -0.000004 0.000007 0.034660 0.000000 0.000005
# 5 0.000000 0.000002 -0.000003 0.000000 0.038060 0.000000
# 6 -0.000001 -0.000003 0.000008 0.000005 0.000000 -0.035498
#
#
# Mechanical properties :
#
#
# Convention : Reuss Voigt Hill
#
# Bulk Modulus (GPa) = 30.75670 53.11242 41.93456
# Shear Modulus (GPa) = 14.06823 13.40418 13.73620
#
# Velocity S-wave (km/s) = 2.70281 2.63825 2.67072
# Velocity P-wave (km/s) = 5.07062 6.07125 5.59336
#
# Compressibility (1/GPa) = 0.03251324
#
# Stress axis : x y z
#
# Youngs Moduli (GPa) = 58.85246 20.37233 9.62886
#
# Poissons Ratio (x) = 0.06326 0.01311
# Poissons Ratio (y) = 0.18275 0.61859
# Poissons Ratio (z) = 0.08011 1.30878
#
# Static dielectric constant tensor:
#      x y z
#    x 1.725640 0.000000 0.000000 
#    y 0.000000 1.696450 0.000000 
#    z 0.000000 0.000000 1.674200 
# 
# From -- ./inp_files/7534.got.cif
#   From: 2010.05.17/outbox.cif.g08.bks.cpg/sg44_4_cif.got.tgz:7534.got - 2010.06.03 19:37:08.
