data_PCOD9375339
_publ_section_title
;
Structure prediction by ZEFSAII (Michael W. Deem and Ramdas Pophale) SiO2 
 PCOD9375339
Probable space group: I M M 2
;
_chemical_formula_sum "Si O2"
_cell_formula_units_Z 34
_cell_length_a 7.899818
_cell_length_b 7.553793
_cell_length_c 28.337937
_cell_angle_alpha 90.000000
_cell_angle_beta 90.000000
_cell_angle_gamma 90.000000
_cell_volume 1691.026431
_symmetry_space_group_name_H-M "I M M 2"
_symmetry_group_IT_number 44
_symmetry_cell_setting 'orthorhombic'
loop_
_space_group_symop_operation_xyz
x,y,z
-x,-y,z
-x,y,z
x,-y,z
1/2+x,1/2+y,1/2+z
1/2-x,1/2-y,1/2+z
1/2-x,1/2+y,1/2+z
1/2+x,1/2-y,1/2+z
loop_
_atom_site_type_symbol
_atom_site_label
_atom_site_fract_x
_atom_site_fract_y
_atom_site_fract_z
Si Si1 0.181496 0.289713 0.243860
Si Si2 0.705871 0.202109 0.449318
Si Si3 0.000000 0.216266 0.681829
Si Si4 0.000000 0.500000 0.600911
Si Si5 0.295476 0.500000 0.525171
Si Si6 0.306413 0.213194 0.346737
O O1 0.177608 0.500000 0.236715
O O2 0.337828 0.227406 0.212839
O O3 0.209817 0.260718 0.299425
O O4 0.000000 0.214279 0.229789
O O5 0.500000 0.198084 0.445502
O O6 0.744553 0.330663 0.492209
O O7 0.763696 0.269833 0.397734
O O8 0.763566 0.000000 0.456756
O O9 0.000000 0.325484 0.633731
O O10 0.000000 0.000000 0.675865
O O11 0.169622 0.500000 0.569145
O O12 0.500000 0.500000 0.535412
O O13 0.500000 0.278348 0.341360
O O14 0.311998 0.000000 0.349548
#
# Coordination Sequence:
#
# PCOD9375339 Si02
#       6
#     8   8   4   2   4   8
#     4  10  21  36  56  86 120 159 201 245 300 370
#     4   8  16  33  57  87 124 164 199 241 297 367
#     4  10  24  46  64  84 122 160 202 260 318 359
#     4  12  28  44  68  96 112 156 224 268 308 358
#     4  10  22  42  64  90 120 156 208 258 310 359
#     4   9  17  30  53  85 122 163 201 234 292 364
#
# _framework density 20.106131999999999
#
# number of rings (size 3 to 8) (size 9 to 14) (size 15 to 20)
#    0.000    2.588    1.176    1.412    3.294    2.353 
#    2.118    0.000    0.000    0.000    0.000    0.000 
#    0.000    0.000    0.000    0.000    0.000    0.000 
#
# Total GULP energy -94848.785637 kJ/mol
# GULP energy per Si atom -5579.340332 kJ/mol
# Density = 2.006037 g / cm^3
# Si number density = 20.106132 Si / 1000 Ang^3
#
#
#
# Elastic Constant Matrix: (Units=GPa)
#
#
# Indices 1 2 3 4 5 6 
#
# 1 124.6993 32.7188 84.0140 0.0000 0.0000 0.0000
# 2 32.7188 78.8260 46.6289 0.0000 0.0000 0.0000
# 3 84.0140 46.6289 153.1027 0.0000 0.0000 0.0000
# 4 0.0000 0.0000 0.0000 40.0987 0.0000 0.0000
# 5 0.0000 0.0000 0.0000 0.0000 -37.8623 0.0000
# 6 0.0000 0.0000 0.0000 0.0000 0.0000 -14.8238
#
#
#
# Elastic Compliance Matrix: (Units=1/GPa)
#
#
# Indices 1 2 3 4 5 6 
#
# 1 0.012852 -0.001418 -0.006620 0.000000 0.000000 0.000000
# 2 -0.001418 0.015630 -0.003982 0.000000 0.000000 0.000000
# 3 -0.006620 -0.003982 0.011377 0.000000 0.000000 0.000000
# 4 0.000000 0.000000 0.000000 0.024938 0.000000 0.000000
# 5 0.000000 0.000000 0.000000 0.000000 -0.026412 0.000000
# 6 0.000000 0.000000 0.000000 0.000000 0.000000 -0.067459
#
#
# Mechanical properties :
#
#
# Convention : Reuss Voigt Hill
#
# Bulk Modulus (GPa) = 63.21935 75.92793 69.57364
# Shear Modulus (GPa) = 20676.24547 10.36693 10343.30620
#
# Velocity S-wave (km/s) = 101.51786 2.27317 71.80196
# Velocity P-wave (km/s) = 117.35706 6.68844 83.11864
#
# Compressibility (1/GPa) = 0.01581794
#
# Stress axis : x y z
#
# Youngs Moduli (GPa) = 77.81015 63.97766 87.89457
#
# Poissons Ratio (x) = 0.09073 0.58190
# Poissons Ratio (y) = 0.11035 0.35001
# Poissons Ratio (z) = 0.51513 0.25477
#
# Static dielectric constant tensor:
#      x y z
#    x 1.753410 0.000000 0.000000 
#    y 0.000000 1.720900 0.000000 
#    z 0.000000 0.000000 1.680620 
# 
# From -- ./inp_files/22573.got.cif
#   From: 2010.05.17/outbox.cif.g08.bks.cpg/sg44_12_cif.got.tgz:22573.got - 2010.06.03 19:37:08.
