data_PCOD9375422
_publ_section_title
;
Structure prediction by ZEFSAII (Michael W. Deem and Ramdas Pophale) SiO2 
 PCOD9375422
Probable space group: I M M 2
;
_chemical_formula_sum "Si O2"
_cell_formula_units_Z 48
_cell_length_a 7.928454
_cell_length_b 23.003814
_cell_length_c 12.132818
_cell_angle_alpha 90.000000
_cell_angle_beta 90.000000
_cell_angle_gamma 90.000000
_cell_volume 2212.840142
_symmetry_space_group_name_H-M "I M M 2"
_symmetry_group_IT_number 44
_symmetry_cell_setting 'orthorhombic'
loop_
_space_group_symop_operation_xyz
x,y,z
-x,-y,z
-x,y,z
x,-y,z
1/2+x,1/2+y,1/2+z
1/2-x,1/2-y,1/2+z
1/2-x,1/2+y,1/2+z
1/2+x,1/2-y,1/2+z
loop_
_atom_site_type_symbol
_atom_site_label
_atom_site_fract_x
_atom_site_fract_y
_atom_site_fract_z
Si Si1 0.687907 0.347387 0.264920
Si Si2 0.203351 0.565702 0.455252
Si Si3 0.803856 0.634867 0.657840
Si Si4 0.801398 0.742715 0.088311
Si Si5 0.701845 0.845084 0.399333
Si Si6 0.199022 0.432593 0.085278
O O1 0.500000 0.326500 0.289689
O O2 0.754565 0.382564 0.370125
O O3 0.779645 0.294539 0.201502
O O4 0.692687 0.397058 0.171511
O O5 0.262121 0.500000 0.425559
O O6 0.267148 0.586352 0.575356
O O7 0.000000 0.563187 0.458495
O O8 0.792742 0.696717 0.597243
O O9 0.725605 0.647162 0.777764
O O10 0.000000 0.619100 0.676053
O O11 0.000000 0.753510 0.073845
O O12 0.737698 0.704690 0.984084
O O13 0.500000 0.834153 0.388939
O O14 0.723330 0.904797 0.466000
O O15 0.234126 0.500000 0.088368
O O16 0.000000 0.423189 0.114658
#
# Coordination Sequence:
#
# PCOD9375422 Si02
#       6
#     8   8   8   8   8   8
#     4  11  22  36  57  84 114 150 195 244 289 338
#     4  10  22  39  58  84 121 161 198 238 289 349
#     4  10  21  37  58  85 115 151 192 236 284 344
#     4  10  21  38  59  84 114 148 188 238 298 353
#     4   8  17  34  54  79 110 141 181 229 279 340
#     4   9  17  32  56  83 111 145 184 229 284 340
#
# _framework density 21.691580999999999
#
# number of rings (size 3 to 8) (size 9 to 14) (size 15 to 20)
#    0.000    2.333    0.000    3.500    2.333    4.000 
#    0.000    6.667    0.000    0.000    0.000    4.667 
#    0.000    0.000    0.000    0.000    0.000    0.000 
#
# Total GULP energy -133873.161264 kJ/mol
# GULP energy per Si atom -5578.048386 kJ/mol
# Density = 2.164221 g / cm^3
# Si number density = 21.691581 Si / 1000 Ang^3
#
#
#
# Elastic Constant Matrix: (Units=GPa)
#
#
# Indices 1 2 3 4 5 6 
#
# 1 23.3864 -4.4738 3.8238 0.0000 0.0000 0.0000
# 2 -4.4738 38.9470 5.8028 0.0000 0.0001 0.0000
# 3 3.8238 5.8028 107.2259 0.0000 0.0001 0.0000
# 4 0.0000 0.0000 0.0000 13.4793 0.0000 0.0000
# 5 0.0000 0.0001 0.0001 0.0000 169.6550 0.0000
# 6 0.0000 0.0000 0.0000 0.0000 0.0000 16.7648
#
#
#
# Elastic Compliance Matrix: (Units=1/GPa)
#
#
# Indices 1 2 3 4 5 6 
#
# 1 0.044086 0.005341 -0.001861 0.000000 0.000000 0.000000
# 2 0.005341 0.026532 -0.001626 0.000000 0.000000 0.000000
# 3 -0.001861 -0.001626 0.009480 0.000000 0.000000 0.000000
# 4 0.000000 0.000000 0.000000 0.074188 0.000000 0.000000
# 5 0.000000 0.000000 0.000000 0.000000 0.005894 0.000000
# 6 0.000000 0.000000 0.000000 0.000000 0.000000 0.059649
#
#
# Mechanical properties :
#
#
# Convention : Reuss Voigt Hill
#
# Bulk Modulus (GPa) = 11.93230 19.98498 15.95864
# Shear Modulus (GPa) = 20.48701 50.94025 35.71363
#
# Velocity S-wave (km/s) = 3.07655 4.85127 4.06202
# Velocity P-wave (km/s) = 4.25830 6.37284 5.41969
#
# Compressibility (1/GPa) = 0.08380616
#
# Stress axis : x y z
#
# Youngs Moduli (GPa) = 22.68292 37.69060 105.47980
#
# Poissons Ratio (x) = -0.20132 0.19632
# Poissons Ratio (y) = -0.12116 0.17154
# Poissons Ratio (z) = 0.04222 0.06130
#
# Static dielectric constant tensor:
#      x y z
#    x 1.573150 0.000000 0.000000 
#    y 0.000000 1.769410 0.000000 
#    z 0.000000 0.000000 1.829150 
# 
# From -- ./inp_files/11141.got.cif
#   From: 2010.05.17/outbox.cif.g08.bks.cpg/sg44_6_cif.got.tgz:11141.got - 2010.06.03 19:37:08.
