data_PCOD9375079
_publ_section_title
;
Structure prediction by ZEFSAII (Michael W. Deem and Ramdas Pophale) SiO2 
 PCOD9375079
Probable space group: I M M 2
;
_chemical_formula_sum "Si O2"
_cell_formula_units_Z 40
_cell_length_a 16.893483
_cell_length_b 13.240306
_cell_length_c 9.075835
_cell_angle_alpha 90.000000
_cell_angle_beta 90.000000
_cell_angle_gamma 90.000000
_cell_volume 2030.036344
_symmetry_space_group_name_H-M "I M M 2"
_symmetry_group_IT_number 44
_symmetry_cell_setting 'orthorhombic'
loop_
_space_group_symop_operation_xyz
x,y,z
-x,-y,z
-x,y,z
x,-y,z
1/2+x,1/2+y,1/2+z
1/2-x,1/2-y,1/2+z
1/2-x,1/2+y,1/2+z
1/2+x,1/2-y,1/2+z
loop_
_atom_site_type_symbol
_atom_site_label
_atom_site_fract_x
_atom_site_fract_y
_atom_site_fract_z
Si Si1 0.408385 0.698632 0.476080
Si Si2 0.341894 0.884212 0.314632
Si Si3 0.803617 0.750000 0.246466
Si Si4 0.408385 0.198632 0.016853
Si Si5 0.341894 0.615788 0.178301
O O1 0.500000 0.675620 0.500603
O O2 0.397787 0.812471 0.412164
O O3 0.357073 0.697044 0.623611
O O4 0.372273 0.629371 0.346721
O O5 0.255500 0.832294 0.317701
O O6 0.341506 0.000000 0.358317
O O7 0.372272 0.870629 0.146212
O O8 0.857073 0.697044 0.369321
O O9 0.744500 0.667706 0.175233
O O10 0.500000 0.175619 0.992332
O O11 0.397787 0.312471 0.080768
O O12 0.341507 0.500000 0.134616
#
# Coordination Sequence:
#
# PCOD9375079 Si02
#       5
#     8   8   8   8   8
#     4  10  21  36  55  80 108 138 174 218 265 310
#     4  10  20  37  58  77 103 142 182 214 253 314
#     4  10  21  36  55  80 108 138 174 218 265 310
#     4  10  21  36  55  80 108 138 174 218 265 310
#     4  10  20  37  58  77 103 142 182 214 253 314
#
# _framework density 19.704080999999999
#
# number of rings (size 3 to 8) (size 9 to 14) (size 15 to 20)
#    0.000    2.400    0.000    7.800    0.000    9.600 
#    0.000    0.000    0.000    7.200    0.000    0.000 
#    0.000    0.000    0.000    0.000    0.000    0.000 
#
# Total GULP energy -111686.477346 kJ/mol
# GULP energy per Si atom -5584.323867 kJ/mol
# Density = 1.965923 g / cm^3
# Si number density = 19.704081 Si / 1000 Ang^3
#
#
#
# Elastic Constant Matrix: (Units=GPa)
#
#
# Indices 1 2 3 4 5 6 
#
# 1 122.7181 -25.5849 23.5216 0.0000 0.0000 0.0000
# 2 -25.5849 67.5086 -20.2172 0.0000 0.0000 0.0000
# 3 23.5216 -20.2172 35.4290 0.0000 0.0000 0.0000
# 4 0.0000 0.0000 0.0000 5.7680 0.0000 0.0000
# 5 0.0000 0.0000 0.0000 0.0000 24.9755 0.0000
# 6 0.0000 0.0000 0.0000 0.0000 0.0000 -0.8424
#
#
#
# Elastic Compliance Matrix: (Units=1/GPa)
#
#
# Indices 1 2 3 4 5 6 
#
# 1 0.009573 0.002080 -0.005169 0.000000 0.000000 0.000000
# 2 0.002080 0.018318 0.009072 0.000000 0.000000 0.000000
# 3 -0.005169 0.009072 0.036834 0.000000 0.000000 0.000000
# 4 0.000000 0.000000 0.000000 0.173369 0.000000 0.000000
# 5 0.000000 0.000000 0.000000 0.000000 0.040039 0.000000
# 6 0.000000 0.000000 0.000000 0.000000 0.000000 -1.187021
#
#
# Mechanical properties :
#
#
# Convention : Reuss Voigt Hill
#
# Bulk Modulus (GPa) = 13.03914 20.12165 16.58039
# Shear Modulus (GPa) = -5.58478 22.50929 8.46225
#
# Velocity S-wave (km/s) = -1.68537 3.38356 2.07461
# Velocity P-wave (km/s) = 1.68658 5.04962 3.76452
#
# Compressibility (1/GPa) = 0.07669218
#
# Stress axis : x y z
#
# Youngs Moduli (GPa) = 104.45897 54.59071 27.14896
#
# Poissons Ratio (x) = -0.11356 0.14032
# Poissons Ratio (y) = -0.21730 -0.24629
# Poissons Ratio (z) = 0.53991 -0.49525
#
# Static dielectric constant tensor:
#      x y z
#    x 1.678750 0.000000 0.000000 
#    y 0.000000 1.673000 0.000000 
#    z 0.000000 0.000000 1.728890 
# 
# From -- ./inp_files/6976.got.cif
#   From: 2010.05.17/outbox.cif.g08.bks.cpg/sg44_4_cif.got.tgz:6976.got - 2010.06.03 19:37:08.
