data_PCOD9375806
_publ_section_title
;
Structure prediction by ZEFSAII (Michael W. Deem and Ramdas Pophale) SiO2 
 PCOD9375806
Probable space group: I M M 2
;
_chemical_formula_sum "Si O2"
_cell_formula_units_Z 34
_cell_length_a 21.677326
_cell_length_b 12.730607
_cell_length_c 4.794539
_cell_angle_alpha 90.000000
_cell_angle_beta 90.000000
_cell_angle_gamma 90.000000
_cell_volume 1323.127439
_symmetry_space_group_name_H-M "I M M 2"
_symmetry_group_IT_number 44
_symmetry_cell_setting 'orthorhombic'
loop_
_space_group_symop_operation_xyz
x,y,z
-x,-y,z
-x,y,z
x,-y,z
1/2+x,1/2+y,1/2+z
1/2-x,1/2-y,1/2+z
1/2-x,1/2+y,1/2+z
1/2+x,1/2-y,1/2+z
loop_
_atom_site_type_symbol
_atom_site_label
_atom_site_fract_x
_atom_site_fract_y
_atom_site_fract_z
Si Si1 0.690459 0.610279 0.628640
Si Si2 0.609635 0.884586 0.274156
Si Si3 0.808206 0.340833 0.277481
Si Si4 0.064841 0.153334 0.817721
Si Si5 0.500000 0.500000 0.956353
O O1 0.696022 0.500000 0.782121
O O2 0.745288 0.616946 0.402250
O O3 0.694255 0.715019 0.810214
O O4 0.626009 0.616126 0.465697
O O5 0.670817 0.868158 0.465886
O O6 0.569519 0.779405 0.308250
O O7 0.582910 0.000000 0.334130
O O8 0.635180 0.881641 0.961928
O O9 0.000000 0.119188 0.967729
O O10 0.053530 0.093002 0.527302
#
# Coordination Sequence:
#
# PCOD9375806 Si02
#       5
#     8   8   8   8   2
#     4  11  20  40  64  94 130 171 213 265 323 386
#     4  11  23  44  66  97 133 168 211 266 322 386
#     4  11  25  40  66 101 129 166 215 262 326 381
#     4   9  19  37  65  92 127 170 216 264 318 370
#     4   8  16  40  58  98 124 170 216 280 294 386
#
# _framework density 25.696691000000001
#
# number of rings (size 3 to 8) (size 9 to 14) (size 15 to 20)
#    0.706    0.941    1.176    4.941    0.000    0.471 
#    2.118   14.118    0.000   11.294    0.000    0.000 
#    0.000    0.000    0.000    0.000    0.000    0.000 
#
# Total GULP energy -94828.731440 kJ/mol
# GULP energy per Si atom -5578.160673 kJ/mol
# Density = 2.563820 g / cm^3
# Si number density = 25.696691 Si / 1000 Ang^3
#
#
#
# Elastic Constant Matrix: (Units=GPa)
#
#
# Indices 1 2 3 4 5 6 
#
# 1 122.6570 13.2878 -10.2509 0.0000 0.0000 0.0000
# 2 13.2878 260.4193 -10.0681 0.0000 0.0000 0.0000
# 3 -10.2509 -10.0681 48.3172 0.0000 0.0000 0.0000
# 4 0.0000 0.0000 0.0000 135.2508 0.0000 0.0000
# 5 0.0000 0.0000 0.0000 0.0000 26.1905 0.0000
# 6 0.0000 0.0000 0.0000 0.0000 0.0000 11.6057
#
#
#
# Elastic Compliance Matrix: (Units=1/GPa)
#
#
# Indices 1 2 3 4 5 6 
#
# 1 0.008333 -0.000360 0.001693 0.000000 0.000000 0.000000
# 2 -0.000360 0.003887 0.000734 0.000000 0.000000 0.000000
# 3 0.001693 0.000734 0.021209 0.000000 0.000000 0.000000
# 4 0.000000 0.000000 0.000000 0.007394 0.000000 0.000000
# 5 0.000000 0.000000 0.000000 0.000000 0.038182 0.000000
# 6 0.000000 0.000000 0.000000 0.000000 0.000000 0.086165
#
#
# Mechanical properties :
#
#
# Convention : Reuss Voigt Hill
#
# Bulk Modulus (GPa) = 26.62249 46.37011 36.49630
# Shear Modulus (GPa) = 28.80914 63.83770 46.32342
#
# Velocity S-wave (km/s) = 3.35195 4.98966 4.25043
# Velocity P-wave (km/s) = 5.03622 7.16100 6.19045
#
# Compressibility (1/GPa) = 0.03756223
#
# Stress axis : x y z
#
# Youngs Moduli (GPa) = 120.00078 257.28917 47.15066
#
# Poissons Ratio (x) = 0.09256 -0.07983
# Poissons Ratio (y) = 0.04317 -0.03459
# Poissons Ratio (z) = -0.20316 -0.18874
#
# Static dielectric constant tensor:
#      x y z
#    x 1.983820 0.000000 0.000000 
#    y 0.000000 1.840400 0.000000 
#    z 0.000000 0.000000 2.060370 
# 
# From -- ./inp_files/2703.got.cif
#   From: 2010.05.17/outbox.cif.g08.bks.cpg/sg44_2_cif.got.tgz:2703.got - 2010.06.03 19:37:08.
