data_PCOD9375816
_publ_section_title
;
Structure prediction by ZEFSAII (Michael W. Deem and Ramdas Pophale) SiO2 
 PCOD9375816
Probable space group: I M M 2
;
_chemical_formula_sum "Si O2"
_cell_formula_units_Z 56
_cell_length_a 14.885870
_cell_length_b 8.324170
_cell_length_c 23.073426
_cell_angle_alpha 90.000000
_cell_angle_beta 90.000000
_cell_angle_gamma 90.000000
_cell_volume 2859.086187
_symmetry_space_group_name_H-M "I M M 2"
_symmetry_group_IT_number 44
_symmetry_cell_setting 'orthorhombic'
loop_
_space_group_symop_operation_xyz
x,y,z
-x,-y,z
-x,y,z
x,-y,z
1/2+x,1/2+y,1/2+z
1/2-x,1/2-y,1/2+z
1/2-x,1/2+y,1/2+z
1/2+x,1/2-y,1/2+z
loop_
_atom_site_type_symbol
_atom_site_label
_atom_site_fract_x
_atom_site_fract_y
_atom_site_fract_z
Si Si1 0.285066 0.808065 0.573400
Si Si2 0.898357 0.306129 0.535062
Si Si3 0.897277 0.304652 0.964248
Si Si4 0.897178 0.807935 0.183481
Si Si5 0.102723 0.304652 0.402716
Si Si6 0.601643 0.193871 0.331902
Si Si7 0.714934 0.808065 0.793563
O O1 0.181834 0.754443 0.574807
O O2 0.329546 0.746228 0.513311
O O3 0.343730 0.748364 0.626886
O O4 0.288498 0.000000 0.572626
O O5 0.897467 0.500000 0.535006
O O6 0.880041 0.250859 0.468601
O O7 0.000000 0.255277 0.550335
O O8 0.893678 0.500000 0.963420
O O9 0.880042 0.250859 0.898363
O O10 0.000000 0.260566 0.979330
O O11 0.843730 0.751640 0.240077
O O12 0.000000 0.746738 0.183482
O O13 0.899901 0.000000 0.183480
O O14 0.106322 0.500000 0.403543
O O15 0.170454 0.246229 0.353652
O O16 0.000000 0.260565 0.387634
O O17 0.500000 0.244722 0.316629
O O18 0.681834 0.254446 0.292157
O O19 0.602534 0.000000 0.331957
O O20 0.711499 0.000000 0.794335
#
# Coordination Sequence:
#
# PCOD9375816 Si02
#       7
#     8   8   8   8   8   8   8
#     4  11  21  34  56  83 111 143 180 226 274 318
#     4   9  18  34  55  79 111 149 184 219 263 319
#     4   8  15  29  51  80 112 145 179 216 264 321
#     4  11  25  43  60  79 106 141 181 222 264 319
#     4   8  15  29  51  80 112 145 179 216 264 321
#     4   9  18  34  55  79 111 149 184 219 263 319
#     4  11  21  34  56  83 111 143 180 226 274 318
#
# _framework density 19.586677999999999
#
# number of rings (size 3 to 8) (size 9 to 14) (size 15 to 20)
#    0.000    2.429    0.000    4.714    0.000    2.857 
#    0.000    2.143    0.000    7.714    0.000    0.000 
#    0.000    0.000    0.000    0.000    0.000    0.000 
#
# Total GULP energy -156289.048465 kJ/mol
# GULP energy per Si atom -5581.751731 kJ/mol
# Density = 1.954210 g / cm^3
# Si number density = 19.586678 Si / 1000 Ang^3
#
#
#
# Elastic Constant Matrix: (Units=GPa)
#
#
# Indices 1 2 3 4 5 6 
#
# 1 186.2281 27.2350 87.8863 0.0000 0.0000 0.0000
# 2 27.2350 24.6326 16.9437 0.0000 0.0000 0.0000
# 3 87.8863 16.9437 62.4709 0.0000 0.0000 0.0000
# 4 0.0000 0.0000 0.0000 1.8676 0.0000 0.0000
# 5 0.0000 0.0000 0.0000 0.0000 23.9232 0.0000
# 6 0.0000 0.0000 0.0000 0.0000 0.0000 19.6285
#
#
#
# Elastic Compliance Matrix: (Units=1/GPa)
#
#
# Indices 1 2 3 4 5 6 
#
# 1 0.016126 -0.002735 -0.021945 0.000000 0.000000 0.000000
# 2 -0.002735 0.050371 -0.009814 0.000000 0.000000 0.000000
# 3 -0.021945 -0.009814 0.049543 0.000000 0.000000 0.000000
# 4 0.000000 0.000000 0.000000 0.535446 0.000000 0.000000
# 5 0.000000 0.000000 0.000000 0.000000 0.041800 0.000000
# 6 0.000000 0.000000 0.000000 0.000000 0.000000 0.050946
#
#
# Mechanical properties :
#
#
# Convention : Reuss Voigt Hill
#
# Bulk Modulus (GPa) = 21.25346 59.71797 40.48571
# Shear Modulus (GPa) = 6.03204 18.50164 12.26684
#
# Velocity S-wave (km/s) = 1.75680 3.07677 2.50528
# Velocity P-wave (km/s) = 3.87165 6.57094 5.39291
#
# Compressibility (1/GPa) = 0.04705116
#
# Stress axis : x y z
#
# Youngs Moduli (GPa) = 62.01032 19.85259 20.18454
#
# Poissons Ratio (x) = 0.05429 0.44296
# Poissons Ratio (y) = 0.16959 0.19810
# Poissons Ratio (z) = 1.36084 0.19484
#
# Static dielectric constant tensor:
#      x y z
#    x 1.689720 0.000000 0.000000 
#    y 0.000000 1.673600 0.000000 
#    z 0.000000 0.000000 1.674960 
# 
# From -- ./inp_files/23063.got.cif
#   From: 2010.05.17/outbox.cif.g08.bks.cpg/sg44_12_cif.got.tgz:23063.got - 2010.06.03 19:37:08.
