data_PCOD9375660
_publ_section_title
;
Structure prediction by ZEFSAII (Michael W. Deem and Ramdas Pophale) SiO2 
 PCOD9375660
Probable space group: I M M 2
;
_chemical_formula_sum "Si O2"
_cell_formula_units_Z 58
_cell_length_a 9.684257
_cell_length_b 23.943686
_cell_length_c 13.319593
_cell_angle_alpha 90.000000
_cell_angle_beta 90.000000
_cell_angle_gamma 90.000000
_cell_volume 3088.504719
_symmetry_space_group_name_H-M "I M M 2"
_symmetry_group_IT_number 44
_symmetry_cell_setting 'orthorhombic'
loop_
_space_group_symop_operation_xyz
x,y,z
-x,-y,z
-x,y,z
x,-y,z
1/2+x,1/2+y,1/2+z
1/2-x,1/2-y,1/2+z
1/2-x,1/2+y,1/2+z
1/2+x,1/2-y,1/2+z
loop_
_atom_site_type_symbol
_atom_site_label
_atom_site_fract_x
_atom_site_fract_y
_atom_site_fract_z
Si Si1 0.835097 0.374630 0.095440
Si Si2 0.339684 0.275307 0.008118
Si Si3 0.653136 0.671867 0.797192
Si Si4 0.161833 0.065332 0.001647
Si Si5 0.000000 0.500000 0.815621
Si Si6 0.255939 0.439074 0.895989
Si Si7 0.338306 0.841900 0.109420
Si Si8 0.660412 0.433631 0.263335
O O1 0.764464 0.399163 0.194945
O O2 0.000000 0.370356 0.103985
O O3 0.763796 0.315942 0.067036
O O4 0.797076 0.416423 0.003350
O O5 0.500000 0.290575 0.031810
O O6 0.320981 0.286977 0.890202
O O7 0.320412 0.211161 0.036317
O O8 0.500000 0.682206 0.755371
O O9 0.658344 0.609809 0.845140
O O10 0.769035 0.675336 0.713795
O O11 0.181243 0.075226 0.882396
O O12 0.000000 0.075293 0.024355
O O13 0.190514 0.000000 0.021285
O O14 0.257940 0.105198 0.065649
O O15 0.122147 0.452355 0.827938
O O16 0.324655 0.500000 0.909001
O O17 0.500000 0.853632 0.119823
O O18 0.500000 0.419835 0.239800
O O19 0.678313 0.500000 0.244910
#
# Coordination Sequence:
#
# PCOD9375660 Si02
#       8
#     8   8   8   8   2   8   8   8
#     4  11  19  31  54  85 115 151 191 236 282 330
#     4   9  22  42  57  79 113 148 186 232 275 328
#     4  10  22  39  60  82 112 147 186 229 275 331
#     4   9  20  41  62  82 112 147 186 230 274 328
#     4   8  16  32  50  76 120 150 186 232 282 324
#     4   9  18  32  52  77 118 151 186 230 279 327
#     4  11  24  40  63  87 112 142 183 229 279 331
#     4   9  19  34  54  80 114 156 194 230 277 332
#
# _framework density 18.779313999999999
#
# number of rings (size 3 to 8) (size 9 to 14) (size 15 to 20)
#    0.414    1.931    0.690    2.069    0.966    5.793 
#    0.000    4.138    0.000    0.000    0.000    0.000 
#    0.000    0.000    0.000    0.000    0.000    0.000 
#
# Total GULP energy -161533.134478 kJ/mol
# GULP energy per Si atom -5570.108085 kJ/mol
# Density = 1.873657 g / cm^3
# Si number density = 18.779314 Si / 1000 Ang^3
#
#
#
# Elastic Constant Matrix: (Units=GPa)
#
#
# Indices 1 2 3 4 5 6 
#
# 1 117.7202 59.4418 63.6282 0.0000 0.0000 0.0000
# 2 59.4418 71.8479 47.7611 0.0000 0.0000 0.0000
# 3 63.6282 47.7611 58.6304 0.0000 0.0000 0.0000
# 4 0.0000 0.0000 0.0000 15.0386 0.0000 0.0000
# 5 0.0000 0.0000 0.0000 0.0000 14.1177 0.0000
# 6 0.0000 0.0000 0.0000 0.0000 0.0000 28.8213
#
#
#
# Elastic Compliance Matrix: (Units=1/GPa)
#
#
# Indices 1 2 3 4 5 6 
#
# 1 0.021317 -0.004924 -0.019123 0.000000 0.000000 0.000000
# 2 -0.004924 0.031495 -0.020312 0.000000 0.000000 0.000000
# 3 -0.019123 -0.020312 0.054356 0.000000 0.000000 0.000000
# 4 0.000000 0.000000 0.000000 0.066496 0.000000 0.000000
# 5 0.000000 0.000000 0.000000 0.000000 0.070833 0.000000
# 6 0.000000 0.000000 0.000000 0.000000 0.000000 0.034697
#
#
# Mechanical properties :
#
#
# Convention : Reuss Voigt Hill
#
# Bulk Modulus (GPa) = 54.20363 65.54010 59.87186
# Shear Modulus (GPa) = 13.36677 16.75331 15.06004
#
# Velocity S-wave (km/s) = 2.67082 2.99007 2.83494
# Velocity P-wave (km/s) = 6.19977 6.84811 6.53199
#
# Compressibility (1/GPa) = 0.01844895
#
# Stress axis : x y z
#
# Youngs Moduli (GPa) = 46.91031 31.75122 18.39736
#
# Poissons Ratio (x) = 0.15635 0.35181
# Poissons Ratio (y) = 0.23100 0.37369
# Poissons Ratio (z) = 0.89707 0.64493
#
# Static dielectric constant tensor:
#      x y z
#    x 1.626190 0.000000 0.000000 
#    y 0.000000 1.647140 0.000000 
#    z 0.000000 0.000000 1.648150 
# 
# From -- ./inp_files/16727.got.cif
#   From: 2010.05.17/outbox.cif.g08.bks.cpg/sg44_9_cif.got.tgz:16727.got - 2010.06.03 19:37:08.
