data_PCOD9375509
_publ_section_title
;
Structure prediction by ZEFSAII (Michael W. Deem and Ramdas Pophale) SiO2 
 PCOD9375509
Probable space group: I M M 2
;
_chemical_formula_sum "Si O2"
_cell_formula_units_Z 48
_cell_length_a 8.832518
_cell_length_b 30.790023
_cell_length_c 9.320838
_cell_angle_alpha 90.000000
_cell_angle_beta 90.000000
_cell_angle_gamma 90.000000
_cell_volume 2534.833887
_symmetry_space_group_name_H-M "I M M 2"
_symmetry_group_IT_number 44
_symmetry_cell_setting 'orthorhombic'
loop_
_space_group_symop_operation_xyz
x,y,z
-x,-y,z
-x,y,z
x,-y,z
1/2+x,1/2+y,1/2+z
1/2-x,1/2-y,1/2+z
1/2-x,1/2+y,1/2+z
1/2+x,1/2-y,1/2+z
loop_
_atom_site_type_symbol
_atom_site_label
_atom_site_fract_x
_atom_site_fract_y
_atom_site_fract_z
Si Si1 0.819057 0.625282 0.594230
Si Si2 0.319105 0.793931 0.606752
Si Si3 0.180862 0.949287 0.285189
Si Si4 0.318769 0.787444 0.271129
Si Si5 0.679856 0.051140 0.597829
Si Si6 0.680384 0.626401 0.280175
O O1 0.748968 0.582815 0.667929
O O2 0.785906 0.666909 0.694018
O O3 0.749839 0.632344 0.437686
O O4 0.000000 0.620743 0.583717
O O5 0.500000 0.799453 0.617119
O O6 0.279136 0.789619 0.438983
O O7 0.267397 0.751127 0.691327
O O8 0.239011 0.835119 0.678190
O O9 0.254724 0.939322 0.439678
O O10 0.000000 0.943976 0.294393
O O11 0.212956 0.000000 0.252933
O O12 0.500000 0.779647 0.260412
O O13 0.500000 0.059400 0.598836
O O14 0.760983 0.081489 0.712424
O O15 0.705118 0.000000 0.625930
O O16 0.500000 0.626918 0.287719
#
# Coordination Sequence:
#
# PCOD9375509 Si02
#       6
#     8   8   8   8   8   8
#     4  11  23  40  62  87 120 160 202 247 296 354
#     4  11  23  40  63  89 119 154 195 242 293 355
#     4  10  21  38  61  90 123 158 198 245 297 352
#     4  10  23  41  61  88 119 153 195 242 293 350
#     4  10  21  39  63  89 118 155 200 247 297 356
#     4  12  25  40  60  87 121 157 198 249 302 356
#
# _framework density 18.936153000000001
#
# number of rings (size 3 to 8) (size 9 to 14) (size 15 to 20)
#    0.000    1.333    0.000    5.500    0.000    9.333 
#    0.000    0.000    0.000    0.000    0.000    0.000 
#    0.000    0.000    0.000    0.000    0.000    0.000 
#
# Total GULP energy -134268.613696 kJ/mol
# GULP energy per Si atom -5594.525571 kJ/mol
# Density = 1.889305 g / cm^3
# Si number density = 18.936153 Si / 1000 Ang^3
#
#
#
# Elastic Constant Matrix: (Units=GPa)
#
#
# Indices 1 2 3 4 5 6 
#
# 1 88.1309 58.8454 69.4377 -0.0002 -0.0001 -0.0001
# 2 58.8454 78.8473 70.4543 0.0001 -0.0001 -0.0001
# 3 69.4377 70.4543 157.9820 -0.0010 -0.0002 -0.0002
# 4 -0.0002 0.0001 -0.0010 38.1922 0.0000 -0.0001
# 5 -0.0001 -0.0001 -0.0002 0.0000 35.0080 0.0000
# 6 -0.0001 -0.0001 -0.0002 -0.0001 0.0000 34.6853
#
#
#
# Elastic Compliance Matrix: (Units=1/GPa)
#
#
# Indices 1 2 3 4 5 6 
#
# 1 0.024258 -0.014259 -0.004303 0.000000 0.000000 0.000000
# 2 -0.014259 0.029467 -0.006874 0.000000 0.000000 0.000000
# 3 -0.004303 -0.006874 0.011287 0.000000 0.000000 0.000000
# 4 0.000000 0.000000 0.000000 0.026183 0.000000 0.000000
# 5 0.000000 0.000000 0.000000 0.000000 0.028565 0.000000
# 6 0.000000 0.000000 0.000000 0.000000 0.000000 0.028831
#
#
# Mechanical properties :
#
#
# Convention : Reuss Voigt Hill
#
# Bulk Modulus (GPa) = 70.72477 80.27057 75.49767
# Shear Modulus (GPa) = 24.48868 29.99194 27.24031
#
# Velocity S-wave (km/s) = 3.60004 3.98407 3.79692
# Velocity P-wave (km/s) = 7.39666 7.97784 7.69274
#
# Compressibility (1/GPa) = 0.01413932
#
# Stress axis : x y z
#
# Youngs Moduli (GPa) = 41.22331 33.93632 88.60095
#
# Poissons Ratio (x) = 0.48391 0.38125
# Poissons Ratio (y) = 0.58782 0.60902
# Poissons Ratio (z) = 0.17738 0.23327
#
# Static dielectric constant tensor:
#      x y z
#    x 1.631020 0.000000 0.000000 
#    y 0.000000 1.635760 0.000000 
#    z 0.000000 0.000000 1.620410 
# 
# From -- ./inp_files/4937.got.cif
#   From: 2010.05.17/outbox.cif.g08.bks.cpg/sg44_3_cif.got.tgz:4937.got - 2010.06.03 19:37:08.
