data_PCOD9375250
_publ_section_title
;
Structure prediction by ZEFSAII (Michael W. Deem and Ramdas Pophale) SiO2 
 PCOD9375250
Probable space group: I M M 2
;
_chemical_formula_sum "Si O2"
_cell_formula_units_Z 64
_cell_length_a 8.746895
_cell_length_b 29.041168
_cell_length_c 12.971579
_cell_angle_alpha 90.000000
_cell_angle_beta 90.000000
_cell_angle_gamma 90.000000
_cell_volume 3295.041109
_symmetry_space_group_name_H-M "I M M 2"
_symmetry_group_IT_number 44
_symmetry_cell_setting 'orthorhombic'
loop_
_space_group_symop_operation_xyz
x,y,z
-x,-y,z
-x,y,z
x,-y,z
1/2+x,1/2+y,1/2+z
1/2-x,1/2-y,1/2+z
1/2-x,1/2+y,1/2+z
1/2+x,1/2-y,1/2+z
loop_
_atom_site_type_symbol
_atom_site_label
_atom_site_fract_x
_atom_site_fract_y
_atom_site_fract_z
Si Si1 0.684692 0.405143 0.015680
Si Si2 0.674540 0.679318 0.748739
Si Si3 0.184055 0.619632 0.413623
Si Si4 0.185091 0.946488 0.737139
Si Si5 0.315281 0.295216 0.518984
Si Si6 0.817165 0.548934 0.583521
Si Si7 0.673929 0.570684 0.795727
Si Si8 0.680832 0.806426 0.460927
O O1 0.500000 0.404005 0.009887
O O2 0.727851 0.429951 0.121601
O O3 0.736122 0.432066 0.912038
O O4 0.741862 0.352488 0.006144
O O5 0.500000 0.697264 0.757868
O O6 0.730048 0.688282 0.633423
O O7 0.668476 0.624990 0.770438
O O8 0.778272 0.698090 0.840166
O O9 0.245144 0.590080 0.317388
O O10 0.245551 0.671037 0.432795
O O11 0.239271 0.590850 0.514357
O O12 0.000000 0.620627 0.409867
O O13 0.000000 0.944789 0.744729
O O14 0.231705 0.000000 0.754523
O O15 0.500000 0.298063 0.511351
O O16 0.269387 0.241956 0.509411
O O17 0.763752 0.500000 0.538697
O O18 0.768414 0.550768 0.701805
O O19 0.000000 0.550310 0.578722
O O20 0.500000 0.553137 0.792797
O O21 0.500000 0.811594 0.474249
#
# Coordination Sequence:
#
# PCOD9375250 Si02
#       8
#     8   8   8   8   8   8   8   8
#     4   9  20  39  60  83 115 152 194 243 293 346
#     4   9  18  35  56  76 109 149 184 232 287 341
#     4  11  23  38  58  84 116 153 195 246 299 352
#     4  10  22  41  64  87 117 161 207 251 299 356
#     4  10  21  38  58  82 114 153 199 245 292 353
#     4  10  21  35  51  77 113 145 175 222 283 340
#     4   9  17  32  56  81 104 139 182 227 278 332
#     4  10  21  35  56  87 118 151 193 243 298 356
#
# _framework density 19.423126
#
# number of rings (size 3 to 8) (size 9 to 14) (size 15 to 20)
#    0.000    2.250    1.250    1.875    0.000    7.000 
#    0.000    3.750    0.000    0.000    0.000    0.000 
#    0.000    0.000    0.000    0.000    0.000    0.000 
#
# Total GULP energy -178446.878368 kJ/mol
# GULP energy per Si atom -5576.464949 kJ/mol
# Density = 1.937892 g / cm^3
# Si number density = 19.423126 Si / 1000 Ang^3
#
#
#
# Elastic Constant Matrix: (Units=GPa)
#
#
# Indices 1 2 3 4 5 6 
#
# 1 7.8510 7.4171 4.7973 0.0000 0.0000 0.0000
# 2 7.4171 59.0286 19.3853 0.0000 0.0000 0.0000
# 3 4.7973 19.3853 92.8690 0.0004 -0.0001 0.0002
# 4 0.0000 0.0000 0.0004 19.1627 0.0000 0.0000
# 5 0.0000 0.0000 -0.0001 0.0000 22.9061 0.0001
# 6 0.0000 0.0000 0.0002 0.0000 0.0001 8.3040
#
#
#
# Elastic Compliance Matrix: (Units=1/GPa)
#
#
# Indices 1 2 3 4 5 6 
#
# 1 0.145888 -0.017023 -0.003983 0.000000 0.000000 0.000000
# 2 -0.017023 0.020174 -0.003332 0.000000 0.000000 0.000000
# 3 -0.003983 -0.003332 0.011669 0.000000 0.000000 0.000000
# 4 0.000000 0.000000 0.000000 0.052185 0.000000 0.000000
# 5 0.000000 0.000000 0.000000 0.000000 0.043656 0.000000
# 6 0.000000 0.000000 0.000000 0.000000 0.000000 0.120423
#
#
# Mechanical properties :
#
#
# Convention : Reuss Voigt Hill
#
# Bulk Modulus (GPa) = 7.74857 24.77199 16.26028
# Shear Modulus (GPa) = 10.29463 18.61783 14.45623
#
# Velocity S-wave (km/s) = 2.30471 3.09939 2.73111
# Velocity P-wave (km/s) = 3.32871 5.05864 4.28194
#
# Compressibility (1/GPa) = 0.12905606
#
# Stress axis : x y z
#
# Youngs Moduli (GPa) = 6.85456 49.56847 85.69678
#
# Poissons Ratio (x) = 0.84382 0.34130
# Poissons Ratio (y) = 0.11669 0.28552
# Poissons Ratio (z) = 0.02730 0.16515
#
# Static dielectric constant tensor:
#      x y z
#    x 1.665220 0.000000 0.000000 
#    y 0.000000 1.695320 0.000000 
#    z 0.000000 0.000000 1.683160 
# 
# From -- ./inp_files/11560.got.cif
#   From: 2010.05.17/outbox.cif.g08.bks.cpg/sg44_6_cif.got.tgz:11560.got - 2010.06.03 19:37:08.
