data_PCOD9375709
_publ_section_title
;
Structure prediction by ZEFSAII (Michael W. Deem and Ramdas Pophale) SiO2 
 PCOD9375709
Probable space group: I M M 2
;
_chemical_formula_sum "Si O2"
_cell_formula_units_Z 64
_cell_length_a 15.985283
_cell_length_b 20.491972
_cell_length_c 8.301401
_cell_angle_alpha 90.000000
_cell_angle_beta 90.000000
_cell_angle_gamma 90.000000
_cell_volume 2719.289690
_symmetry_space_group_name_H-M "I M M 2"
_symmetry_group_IT_number 44
_symmetry_cell_setting 'orthorhombic'
loop_
_space_group_symop_operation_xyz
x,y,z
-x,-y,z
-x,y,z
x,-y,z
1/2+x,1/2+y,1/2+z
1/2-x,1/2-y,1/2+z
1/2-x,1/2+y,1/2+z
1/2+x,1/2-y,1/2+z
loop_
_atom_site_type_symbol
_atom_site_label
_atom_site_fract_x
_atom_site_fract_y
_atom_site_fract_z
Si Si1 0.096284 0.577454 0.016790
Si Si2 0.588815 0.424143 0.119600
Si Si3 0.230891 0.430296 0.593045
Si Si4 0.647495 0.259096 0.752918
Si Si5 0.331383 0.795811 0.386093
Si Si6 0.089465 0.902611 0.243012
Si Si7 0.242170 0.428301 0.219811
Si Si8 0.594227 0.817110 0.071914
O O1 0.095609 0.500000 0.979101
O O2 0.146367 0.588458 0.183725
O O3 0.000000 0.599062 0.020521
O O4 0.150832 0.626173 0.908041
O O5 0.500000 0.394968 0.175666
O O6 0.589742 0.500000 0.178385
O O7 0.676858 0.389532 0.159960
O O8 0.587077 0.424849 0.927444
O O9 0.192436 0.500000 0.642151
O O10 0.320476 0.423423 0.677127
O O11 0.254572 0.433406 0.406262
O O12 0.165442 0.371729 0.590251
O O13 0.655090 0.231438 0.568830
O O14 0.739396 0.277773 0.822658
O O15 0.594585 0.324686 0.738712
O O16 0.891490 0.282870 0.399364
O O17 0.391228 0.774953 0.236666
O O18 0.000000 0.923380 0.167340
O O19 0.248729 0.500000 0.139071
O O20 0.500000 0.843465 0.077672
#
# Coordination Sequence:
#
# PCOD9375709 Si02
#       8
#     8   8   8   8   8   8   8   8
#     4  10  22  40  67 106 146 186 235 289 353 431
#     4   9  18  35  60  90 126 174 232 290 351 420
#     4  11  24  43  67 102 143 185 233 295 370 436
#     4  12  25  48  75 105 144 193 245 301 360 429
#     4  12  24  46  77 104 144 195 242 296 364 434
#     4  11  23  41  65  97 135 186 241 291 357 425
#     4   9  19  35  59  90 129 176 223 277 347 418
#     4  12  28  49  74 109 147 191 244 301 362 434
#
# _framework density 23.535557000000001
#
# number of rings (size 3 to 8) (size 9 to 14) (size 15 to 20)
#    0.000    1.250    2.500    2.625    0.000    5.500 
#    2.250    2.500    0.000    0.000    0.000    0.000 
#    0.000    0.000    0.000    0.000    0.000    0.000 
#
# Total GULP energy -178311.734631 kJ/mol
# GULP energy per Si atom -5572.241707 kJ/mol
# Density = 2.348199 g / cm^3
# Si number density = 23.535557 Si / 1000 Ang^3
#
#
#
# Elastic Constant Matrix: (Units=GPa)
#
#
# Indices 1 2 3 4 5 6 
#
# 1 167.9240 24.5691 35.1010 0.0000 0.0000 0.0000
# 2 24.5691 86.0579 26.2158 0.0000 0.0000 0.0000
# 3 35.1010 26.2158 122.3531 0.0000 0.0000 0.0000
# 4 0.0000 0.0000 0.0000 23.4067 0.0000 0.0000
# 5 0.0000 0.0000 0.0000 0.0000 7.5903 0.0000
# 6 0.0000 0.0000 0.0000 0.0000 0.0000 -185.0311
#
#
#
# Elastic Compliance Matrix: (Units=1/GPa)
#
#
# Indices 1 2 3 4 5 6 
#
# 1 0.006483 -0.001374 -0.001566 0.000000 0.000000 0.000000
# 2 -0.001374 0.012723 -0.002332 0.000000 0.000000 0.000000
# 3 -0.001566 -0.002332 0.009122 0.000000 0.000000 0.000000
# 4 0.000000 0.000000 0.000000 0.042723 0.000000 0.000000
# 5 0.000000 0.000000 0.000000 0.000000 0.131747 0.000000
# 6 0.000000 0.000000 0.000000 0.000000 0.000000 -0.005404
#
#
# Mechanical properties :
#
#
# Convention : Reuss Voigt Hill
#
# Bulk Modulus (GPa) = 56.22704 60.90075 58.56389
# Shear Modulus (GPa) = 23.37928 -11.44355 5.96787
#
# Velocity S-wave (km/s) = 3.15518 -2.20744 1.59411
# Velocity P-wave (km/s) = 6.10046 4.40853 5.32216
#
# Compressibility (1/GPa) = 0.01778504
#
# Stress axis : x y z
#
# Youngs Moduli (GPa) = 154.24099 78.59965 109.62721
#
# Poissons Ratio (x) = 0.10800 0.17163
# Poissons Ratio (y) = 0.21193 0.25563
# Poissons Ratio (z) = 0.24147 0.18328
#
# Static dielectric constant tensor:
#      x y z
#    x 1.856260 0.000000 0.000000 
#    y 0.000000 2.012570 0.000000 
#    z 0.000000 0.000000 1.917080 
# 
# From -- ./inp_files/7562.got.cif
#   From: 2010.05.17/outbox.cif.g08.bks.cpg/sg44_4_cif.got.tgz:7562.got - 2010.06.03 19:37:08.
