data_PCOD9375138
_publ_section_title
;
Structure prediction by ZEFSAII (Michael W. Deem and Ramdas Pophale) SiO2 
 PCOD9375138
Probable space group: I M M 2
;
_chemical_formula_sum "Si O2"
_cell_formula_units_Z 48
_cell_length_a 27.885879
_cell_length_b 8.879800
_cell_length_c 9.915304
_cell_angle_alpha 90.000000
_cell_angle_beta 90.000000
_cell_angle_gamma 90.000000
_cell_volume 2455.237773
_symmetry_space_group_name_H-M "I M M 2"
_symmetry_group_IT_number 44
_symmetry_cell_setting 'orthorhombic'
loop_
_space_group_symop_operation_xyz
x,y,z
-x,-y,z
-x,y,z
x,-y,z
1/2+x,1/2+y,1/2+z
1/2-x,1/2-y,1/2+z
1/2-x,1/2+y,1/2+z
1/2+x,1/2-y,1/2+z
loop_
_atom_site_type_symbol
_atom_site_label
_atom_site_fract_x
_atom_site_fract_y
_atom_site_fract_z
Si Si1 0.597778 0.676492 0.516770
Si Si2 0.377015 0.176585 0.003150
Si Si3 0.717702 0.319690 0.887759
Si Si4 0.444695 0.681849 0.228296
Si Si5 0.445082 0.673620 0.801531
Si Si6 0.801399 0.679878 0.094361
O O1 0.611130 0.500000 0.504223
O O2 0.572234 0.722176 0.378861
O O3 0.561571 0.687724 0.641950
O O4 0.645645 0.765889 0.553991
O O5 0.407459 0.244899 0.125572
O O6 0.369073 0.000000 0.021098
O O7 0.327173 0.259300 0.974146
O O8 0.409967 0.211872 0.873737
O O9 0.714883 0.500000 0.876554
O O10 0.714264 0.251665 0.737362
O O11 0.765168 0.279472 0.972729
O O12 0.500000 0.727735 0.204371
O O13 0.442963 0.500000 0.214914
O O14 0.500000 0.696633 0.841582
O O15 0.431798 0.500000 0.838112
O O16 0.800669 0.500000 0.110281
#
# Coordination Sequence:
#
# PCOD9375138 Si02
#       6
#     8   8   8   8   8   8
#     4  10  21  39  65  93 125 164 207 255 308 369
#     4  12  25  40  61  91 127 165 211 261 313 366
#     4  11  25  45  67  93 126 165 208 253 312 380
#     4  10  22  41  64  92 127 170 216 257 307 375
#     4  10  20  37  63  92 122 161 206 253 309 374
#     4  11  25  43  66  97 127 160 206 258 314 374
#
# _framework density 19.550042000000001
#
# number of rings (size 3 to 8) (size 9 to 14) (size 15 to 20)
#    0.000    1.333    1.667    3.500    2.333    8.000 
#    0.000    0.000    0.000    3.000    0.000    0.000 
#    0.000    0.000    0.000    0.000    0.000    0.000 
#
# Total GULP energy -134161.824357 kJ/mol
# GULP energy per Si atom -5590.076015 kJ/mol
# Density = 1.950555 g / cm^3
# Si number density = 19.550042 Si / 1000 Ang^3
#
#
#
# Elastic Constant Matrix: (Units=GPa)
#
#
# Indices 1 2 3 4 5 6 
#
# 1 70.4318 17.1529 -0.2952 0.0000 0.0000 0.0000
# 2 17.1529 35.1092 13.4663 0.0000 0.0000 0.0000
# 3 -0.2952 13.4663 73.4915 0.0000 0.0000 0.0000
# 4 0.0000 0.0000 0.0000 20.0729 0.0000 0.0000
# 5 0.0000 0.0000 0.0000 0.0000 37.4933 0.0000
# 6 0.0000 0.0000 0.0000 0.0000 0.0000 21.3130
#
#
#
# Elastic Compliance Matrix: (Units=1/GPa)
#
#
# Indices 1 2 3 4 5 6 
#
# 1 0.016297 -0.008591 0.001640 0.000000 0.000000 0.000000
# 2 -0.008591 0.035164 -0.006478 0.000000 0.000000 0.000000
# 3 0.001640 -0.006478 0.014801 0.000000 0.000000 0.000000
# 4 0.000000 0.000000 0.000000 0.049818 0.000000 0.000000
# 5 0.000000 0.000000 0.000000 0.000000 0.026671 0.000000
# 6 0.000000 0.000000 0.000000 0.000000 0.000000 0.046920
#
#
# Mechanical properties :
#
#
# Convention : Reuss Voigt Hill
#
# Bulk Modulus (GPa) = 25.37835 26.63117 26.00476
# Shear Modulus (GPa) = 21.77083 25.68974 23.73028
#
# Velocity S-wave (km/s) = 3.34068 3.62892 3.48778
# Velocity P-wave (km/s) = 5.28106 5.58662 5.43599
#
# Compressibility (1/GPa) = 0.03940366
#
# Stress axis : x y z
#
# Youngs Moduli (GPa) = 61.36005 28.43783 67.56488
#
# Poissons Ratio (x) = 0.24431 -0.11078
# Poissons Ratio (y) = 0.52715 0.43768
# Poissons Ratio (z) = -0.10061 0.18422
#
# Static dielectric constant tensor:
#      x y z
#    x 1.634670 0.000000 0.000000 
#    y 0.000000 1.665980 0.000000 
#    z 0.000000 0.000000 1.687270 
# 
# From -- ./inp_files/4938.got.cif
#   From: 2010.05.17/outbox.cif.g08.bks.cpg/sg44_3_cif.got.tgz:4938.got - 2010.06.03 19:37:08.
