data_PCOD9375896
_publ_section_title
;
Structure prediction by ZEFSAII (Michael W. Deem and Ramdas Pophale) SiO2 
 PCOD9375896
Probable space group: I M M 2
;
_chemical_formula_sum "Si O2"
_cell_formula_units_Z 56
_cell_length_a 10.142838
_cell_length_b 7.386214
_cell_length_c 37.701470
_cell_angle_alpha 90.000000
_cell_angle_beta 90.000000
_cell_angle_gamma 90.000000
_cell_volume 2824.487514
_symmetry_space_group_name_H-M "I M M 2"
_symmetry_group_IT_number 44
_symmetry_cell_setting 'orthorhombic'
loop_
_space_group_symop_operation_xyz
x,y,z
-x,-y,z
-x,y,z
x,-y,z
1/2+x,1/2+y,1/2+z
1/2-x,1/2-y,1/2+z
1/2-x,1/2+y,1/2+z
1/2+x,1/2-y,1/2+z
loop_
_atom_site_type_symbol
_atom_site_label
_atom_site_fract_x
_atom_site_fract_y
_atom_site_fract_z
Si Si1 0.652589 0.278181 0.568720
Si Si2 0.847411 0.778181 0.223983
Si Si3 0.652119 0.220572 0.006963
Si Si4 0.152119 0.720572 0.785740
Si Si5 0.339781 0.290344 0.646352
Si Si6 0.648018 0.216027 0.927572
Si Si7 0.648018 0.216027 0.365131
O O1 0.500000 0.225417 0.563120
O O2 0.653429 0.500000 0.569611
O O3 0.747780 0.218550 0.537237
O O4 0.697821 0.215024 0.607907
O O5 0.752220 0.718550 0.255466
O O6 0.802179 0.715024 0.184797
O O7 0.000000 0.725417 0.229584
O O8 0.846571 0.000000 0.223092
O O9 0.500000 0.272803 0.013500
O O10 0.655469 0.000000 0.007483
O O11 0.687842 0.280275 0.966964
O O12 0.155469 0.500000 0.785221
O O13 0.187842 0.780275 0.825739
O O14 0.000000 0.772803 0.779203
O O15 0.500000 0.288594 0.646352
O O16 0.296927 0.500000 0.646352
O O17 0.500000 0.284160 0.919687
O O18 0.750000 0.250000 0.896352
O O19 0.638800 0.000000 0.930575
O O20 0.500000 0.284160 0.373016
O O21 0.638800 0.000000 0.362128
#
# Coordination Sequence:
#
# PCOD9375896 Si02
#       7
#     8   8   8   8   8   8   8
#     4   8  12  18  29  44  62  88 123 157 187 224
#     4   8  12  18  29  44  62  88 123 157 187 224
#     4   8  14  24  35  48  70  97 123 156 197 235
#     4   8  14  24  35  48  70  97 123 156 197 235
#     4   7  10  16  25  39  61  87 116 153 190 219
#     4   9  18  31  45  62  84 109 138 173 211 249
#     4   9  18  31  45  62  84 109 138 173 211 249
#
# _framework density 19.826606999999999
#
# number of rings (size 3 to 8) (size 9 to 14) (size 15 to 20)
#    0.000    3.857    0.000    3.429    0.000    1.714 
#    0.000    3.571    0.000    4.286    0.000    0.000 
#    0.000    0.000    0.000    1.286    0.000   26.571 
#
# Total GULP energy -155946.248683 kJ/mol
# GULP energy per Si atom -5569.508882 kJ/mol
# Density = 1.978148 g / cm^3
# Si number density = 19.826607 Si / 1000 Ang^3
#
#
#
# Elastic Constant Matrix: (Units=GPa)
#
#
# Indices 1 2 3 4 5 6 
#
# 1 109.1812 3.5925 143.4893 0.0000 0.0000 0.0000
# 2 3.5925 66.0463 8.8037 0.0000 0.0000 0.0000
# 3 143.4893 8.8037 253.4248 0.0000 0.0000 0.0000
# 4 0.0000 0.0000 0.0000 2.2444 0.0000 0.0000
# 5 0.0000 0.0000 0.0000 0.0000 41.4090 0.0000
# 6 0.0000 0.0000 0.0000 0.0000 0.0000 -0.3431
#
#
#
# Elastic Compliance Matrix: (Units=1/GPa)
#
#
# Indices 1 2 3 4 5 6 
#
# 1 0.035832 0.000759 -0.020314 0.000000 0.000000 0.000000
# 2 0.000759 0.015227 -0.000959 0.000000 0.000000 0.000000
# 3 -0.020314 -0.000959 0.015481 0.000000 0.000000 0.000000
# 4 0.000000 0.000000 0.000000 0.445558 0.000000 -0.000001
# 5 0.000000 0.000000 0.000000 0.000000 0.024149 0.000000
# 6 0.000000 0.000000 0.000000 -0.000001 0.000000 -2.914729
#
#
# Mechanical properties :
#
#
# Convention : Reuss Voigt Hill
#
# Bulk Modulus (GPa) = 39.19700 82.26925 60.73313
# Shear Modulus (GPa) = -2.14689 26.84651 12.34981
#
# Velocity S-wave (km/s) = -1.04172 3.68375 2.49849
# Velocity P-wave (km/s) = 4.28555 7.72514 6.24675
#
# Compressibility (1/GPa) = 0.02551216
#
# Stress axis : x y z
#
# Youngs Moduli (GPa) = 27.90802 65.67110 64.59408
#
# Poissons Ratio (x) = -0.04983 1.31219
# Poissons Ratio (y) = -0.02118 0.06192
# Poissons Ratio (z) = 0.56694 0.06295
#
# Static dielectric constant tensor:
#      x y z
#    x 1.670220 0.000000 0.000000 
#    y 0.000000 1.991650 0.000000 
#    z 0.000000 0.000000 1.714100 
# 
# From -- ./inp_files/26413.got.cif
#   From: 2010.05.17/outbox.cif.g08.bks.cpg/sg44_14_cif.got.tgz:26413.got - 2010.06.03 19:37:08.
