data_PCOD9375803
_publ_section_title
;
Structure prediction by ZEFSAII (Michael W. Deem and Ramdas Pophale) SiO2 
 PCOD9375803
Probable space group: I M M 2
;
_chemical_formula_sum "Si O2"
_cell_formula_units_Z 48
_cell_length_a 18.845026
_cell_length_b 8.214319
_cell_length_c 15.361495
_cell_angle_alpha 90.000000
_cell_angle_beta 90.000000
_cell_angle_gamma 90.000000
_cell_volume 2377.944911
_symmetry_space_group_name_H-M "I M M 2"
_symmetry_group_IT_number 44
_symmetry_cell_setting 'orthorhombic'
loop_
_space_group_symop_operation_xyz
x,y,z
-x,-y,z
-x,y,z
x,-y,z
1/2+x,1/2+y,1/2+z
1/2-x,1/2-y,1/2+z
1/2-x,1/2+y,1/2+z
1/2+x,1/2-y,1/2+z
loop_
_atom_site_type_symbol
_atom_site_label
_atom_site_fract_x
_atom_site_fract_y
_atom_site_fract_z
Si Si1 0.728787 0.801547 0.659880
Si Si2 0.000000 0.313438 0.569831
Si Si3 0.396400 0.810326 0.397085
Si Si4 0.654726 0.306025 0.016407
Si Si5 0.000000 0.183827 0.757002
Si Si6 0.755087 0.306612 0.361031
Si Si7 0.923997 0.698502 0.092559
O O1 0.791132 0.747961 0.593532
O O2 0.738662 0.755358 0.760435
O O3 0.650347 0.744420 0.631804
O O4 0.729028 0.000000 0.656866
O O5 0.926508 0.234609 0.538046
O O6 0.000000 0.299557 0.674466
O O7 0.000000 0.500000 0.541943
O O8 0.432494 0.714022 0.318674
O O9 0.312642 0.786254 0.398625
O O10 0.423485 0.756216 0.491023
O O11 0.414187 0.000000 0.385642
O O12 0.662658 0.500000 0.010938
O O13 0.679741 0.231302 0.924709
O O14 0.000000 0.000000 0.723381
O O15 0.741709 0.500000 0.362646
O O16 0.922302 0.500000 0.096176
O O17 0.000000 0.750646 0.131457
#
# Coordination Sequence:
#
# PCOD9375803 Si02
#       7
#     8   4   8   8   4   8   8
#     4   9  19  36  59  87 119 161 209 253 303 368
#     4  12  26  44  64  91 122 157 212 265 313 373
#     4  11  20  35  60  88 118 158 209 256 308 374
#     4  11  22  42  67  89 124 169 210 256 316 378
#     4  12  24  38  58  91 130 163 198 253 327 391
#     4  11  22  37  59  91 125 161 210 263 313 370
#     4   9  16  31  57  86 114 150 200 252 299 357
#
# _framework density 20.185497999999999
#
# number of rings (size 3 to 8) (size 9 to 14) (size 15 to 20)
#    0.000    1.500    2.500    4.000    0.000    1.333 
#    1.500    2.500    0.000    0.000    0.000    0.000 
#    0.000    0.000    0.000    0.000    0.000    0.000 
#
# Total GULP energy -134032.325849 kJ/mol
# GULP energy per Si atom -5584.680244 kJ/mol
# Density = 2.013956 g / cm^3
# Si number density = 20.185498 Si / 1000 Ang^3
#
#
#
# Elastic Constant Matrix: (Units=GPa)
#
#
# Indices 1 2 3 4 5 6 
#
# 1 142.7079 2.5427 33.3475 0.0000 0.0000 0.0000
# 2 2.5427 31.9032 9.9716 0.0000 0.0000 0.0000
# 3 33.3475 9.9716 74.2892 0.0000 0.0000 0.0000
# 4 0.0000 0.0000 0.0000 20.4624 0.0000 0.0000
# 5 0.0000 0.0000 0.0000 0.0000 80.7629 0.0000
# 6 0.0000 0.0000 0.0000 0.0000 0.0000 22.5254
#
#
#
# Elastic Compliance Matrix: (Units=1/GPa)
#
#
# Indices 1 2 3 4 5 6 
#
# 1 0.007836 0.000496 -0.003584 0.000000 0.000000 0.000000
# 2 0.000496 0.032749 -0.004618 0.000000 0.000000 0.000000
# 3 -0.003584 -0.004618 0.015690 0.000000 0.000000 0.000000
# 4 0.000000 0.000000 0.000000 0.048870 0.000000 0.000000
# 5 0.000000 0.000000 0.000000 0.000000 0.012382 0.000000
# 6 0.000000 0.000000 0.000000 0.000000 0.000000 0.044394
#
#
# Mechanical properties :
#
#
# Convention : Reuss Voigt Hill
#
# Bulk Modulus (GPa) = 24.47309 37.84709 31.16009
# Shear Modulus (GPa) = 26.18428 38.28604 32.23516
#
# Velocity S-wave (km/s) = 3.60555 4.35985 4.00052
# Velocity P-wave (km/s) = 5.42989 6.64340 6.06706
#
# Compressibility (1/GPa) = 0.04086121
#
# Stress axis : x y z
#
# Youngs Moduli (GPa) = 127.61638 30.53549 63.73647
#
# Poissons Ratio (x) = -0.01514 0.22843
# Poissons Ratio (y) = -0.06326 0.29435
# Poissons Ratio (z) = 0.45738 0.14102
#
# Static dielectric constant tensor:
#      x y z
#    x 1.744940 0.000000 0.000000 
#    y 0.000000 1.696780 0.000000 
#    z 0.000000 0.000000 1.687350 
# 
# From -- ./inp_files/16120.got.cif
#   From: 2010.05.17/outbox.cif.g08.bks.cpg/sg44_9_cif.got.tgz:16120.got - 2010.06.03 19:37:08.
