data_PCOD9375134
_publ_section_title
;
Structure prediction by ZEFSAII (Michael W. Deem and Ramdas Pophale) SiO2 
 PCOD9375134
Probable space group: I M M 2
;
_chemical_formula_sum "Si O2"
_cell_formula_units_Z 48
_cell_length_a 8.646358
_cell_length_b 14.712911
_cell_length_c 20.746601
_cell_angle_alpha 90.000000
_cell_angle_beta 90.000000
_cell_angle_gamma 90.000000
_cell_volume 2639.239339
_symmetry_space_group_name_H-M "I M M 2"
_symmetry_group_IT_number 44
_symmetry_cell_setting 'orthorhombic'
loop_
_space_group_symop_operation_xyz
x,y,z
-x,-y,z
-x,y,z
x,-y,z
1/2+x,1/2+y,1/2+z
1/2-x,1/2-y,1/2+z
1/2-x,1/2+y,1/2+z
1/2+x,1/2-y,1/2+z
loop_
_atom_site_type_symbol
_atom_site_label
_atom_site_fract_x
_atom_site_fract_y
_atom_site_fract_z
Si Si1 0.815708 0.192148 0.028690
Si Si2 0.184604 0.000000 0.217493
Si Si3 0.684989 0.500000 0.335647
Si Si4 0.183754 0.500000 0.190716
Si Si5 0.185403 0.688774 0.389685
Si Si6 0.685059 0.699070 0.762756
Si Si7 0.683624 0.687348 0.143970
Si Si8 0.816216 0.500000 0.574367
O O1 0.744003 0.259315 0.081604
O O2 0.000000 0.193510 0.033930
O O3 0.755268 0.090673 0.043906
O O4 0.761186 0.216213 0.956981
O O5 0.218619 0.092307 0.255838
O O6 0.274503 0.000000 0.150092
O O7 0.000000 0.000000 0.202663
O O8 0.500000 0.500000 0.340452
O O9 0.735645 0.500000 0.260864
O O10 0.752879 0.410054 0.368778
O O11 0.235847 0.409760 0.153547
O O12 0.000000 0.500000 0.200599
O O13 0.223354 0.757784 0.331646
O O14 0.000000 0.684984 0.396701
O O15 0.500000 0.711747 0.752628
O O16 0.771847 0.752656 0.706354
O O17 0.500000 0.675960 0.140767
O O18 0.000000 0.500000 0.565241
#
# Coordination Sequence:
#
# PCOD9375134 Si02
#       8
#     8   4   4   4   8   8   8   4
#     4  12  25  42  62  88 126 169 210 256 315 375
#     4  10  20  37  62  93 124 159 204 247 304 371
#     4  12  23  37  60  93 128 163 204 255 314 373
#     4  12  24  41  64  93 126 163 208 255 310 368
#     4  11  23  40  61  89 126 166 208 256 314 372
#     4  10  21  38  63  90 124 164 204 252 310 369
#     4  12  24  40  64  93 125 160 208 260 309 367
#     4  12  23  37  60  93 126 159 202 259 316 368
#
# _framework density 18.187056999999999
#
# number of rings (size 3 to 8) (size 9 to 14) (size 15 to 20)
#    0.000    0.667    3.333    6.250    0.000    0.667 
#    0.000    0.833    0.000    2.000    0.000    0.000 
#    0.000    0.000    0.000    0.000    0.000    0.000 
#
# Total GULP energy -134300.256573 kJ/mol
# GULP energy per Si atom -5595.844024 kJ/mol
# Density = 1.814566 g / cm^3
# Si number density = 18.187057 Si / 1000 Ang^3
#
#
#
# Elastic Constant Matrix: (Units=GPa)
#
#
# Indices 1 2 3 4 5 6 
#
# 1 75.8983 24.8721 22.2241 0.0000 0.0000 0.0000
# 2 24.8721 101.6786 32.8262 0.0000 0.0000 0.0000
# 3 22.2241 32.8262 107.8481 0.0000 0.0000 0.0000
# 4 0.0000 0.0000 0.0000 -33.5963 0.0000 0.0000
# 5 0.0000 0.0000 0.0000 0.0000 34.2176 0.0000
# 6 0.0000 0.0000 0.0000 0.0000 0.0000 27.8256
#
#
#
# Elastic Compliance Matrix: (Units=1/GPa)
#
#
# Indices 1 2 3 4 5 6 
#
# 1 0.014762 -0.002915 -0.002155 0.000000 0.000000 0.000000
# 2 -0.002915 0.011482 -0.002894 0.000000 0.000000 0.000000
# 3 -0.002155 -0.002894 0.010597 0.000000 0.000000 0.000000
# 4 0.000000 0.000000 0.000000 -0.029765 0.000000 0.000000
# 5 0.000000 0.000000 0.000000 0.000000 0.029225 0.000000
# 6 0.000000 0.000000 0.000000 0.000000 0.000000 0.035938
#
#
# Mechanical properties :
#
#
# Convention : Reuss Voigt Hill
#
# Bulk Modulus (GPa) = 47.81677 49.47441 48.64559
# Shear Modulus (GPa) = 52.55503 19.38956 35.97229
#
# Velocity S-wave (km/s) = 5.38142 3.26869 4.45219
# Velocity P-wave (km/s) = 8.05988 6.44266 7.29622
#
# Compressibility (1/GPa) = 0.02091316
#
# Stress axis : x y z
#
# Youngs Moduli (GPa) = 67.74243 87.08972 94.36445
#
# Poissons Ratio (x) = 0.25390 0.20332
# Poissons Ratio (y) = 0.19749 0.27311
# Poissons Ratio (z) = 0.14596 0.25205
#
# Static dielectric constant tensor:
#      x y z
#    x 1.610090 0.000000 0.000000 
#    y 0.000000 1.607870 0.000000 
#    z 0.000000 0.000000 1.600930 
# 
# From -- ./inp_files/20397.got.cif
#   From: 2010.05.17/outbox.cif.g08.bks.cpg/sg44_11_cif.got.tgz:20397.got - 2010.06.03 19:37:08.
