data_PCOD9375699
_publ_section_title
;
Structure prediction by ZEFSAII (Michael W. Deem and Ramdas Pophale) SiO2 
 PCOD9375699
Probable space group: I M M 2
;
_chemical_formula_sum "Si O2"
_cell_formula_units_Z 34
_cell_length_a 7.555945
_cell_length_b 18.917470
_cell_length_c 9.624911
_cell_angle_alpha 90.000000
_cell_angle_beta 90.000000
_cell_angle_gamma 90.000000
_cell_volume 1375.778646
_symmetry_space_group_name_H-M "I M M 2"
_symmetry_group_IT_number 44
_symmetry_cell_setting 'orthorhombic'
loop_
_space_group_symop_operation_xyz
x,y,z
-x,-y,z
-x,y,z
x,-y,z
1/2+x,1/2+y,1/2+z
1/2-x,1/2-y,1/2+z
1/2-x,1/2+y,1/2+z
1/2+x,1/2-y,1/2+z
loop_
_atom_site_type_symbol
_atom_site_label
_atom_site_fract_x
_atom_site_fract_y
_atom_site_fract_z
Si Si1 0.292028 0.078806 0.156690
Si Si2 0.212928 0.128835 0.461603
Si Si3 0.500000 0.500000 0.371048
Si Si4 0.709583 0.788070 0.977426
Si Si5 0.299021 0.898122 0.765960
O O1 0.500000 0.074692 0.121109
O O2 0.276724 0.092843 0.320901
O O3 0.211634 0.000000 0.127197
O O4 0.221906 0.149950 0.080301
O O5 0.282393 0.209196 0.478333
O O6 0.267060 0.091312 0.603742
O O7 0.000000 0.129665 0.454623
O O8 0.654681 0.440318 0.349751
O O9 0.500000 0.781622 0.010121
O O10 0.724298 0.818062 0.820580
O O11 0.500000 0.917715 0.799991
#
# Coordination Sequence:
#
# PCOD9375699 Si02
#       5
#     8   8   2   8   8
#     4  10  22  40  63  92 127 171 219 272 336 393
#     4  11  22  41  64  98 135 173 225 277 327 403
#     4  12  26  44  64 104 136 168 232 274 332 402
#     4   9  21  42  68  94 130 175 225 278 332 399
#     4  11  24  44  69  97 134 179 222 275 337 398
#
# _framework density 24.713277000000001
#
# number of rings (size 3 to 8) (size 9 to 14) (size 15 to 20)
#    0.000    1.647    1.176    2.471    3.294    0.471 
#    6.353    0.000    0.000    0.000    0.000    0.000 
#    0.000    0.000    0.000    0.000    0.000    0.000 
#
# Total GULP energy -94800.165739 kJ/mol
# GULP energy per Si atom -5576.480338 kJ/mol
# Density = 2.465703 g / cm^3
# Si number density = 24.713277 Si / 1000 Ang^3
#
#
#
# Elastic Constant Matrix: (Units=GPa)
#
#
# Indices 1 2 3 4 5 6 
#
# 1 92.8847 7.3835 -29.6426 -0.0001 -0.0001 0.0000
# 2 7.3835 126.7371 24.4684 -0.0002 -0.0001 0.0000
# 3 -29.6426 24.4684 140.9272 -0.0006 -0.0003 0.0000
# 4 -0.0001 -0.0002 -0.0006 17.3801 -0.0001 0.0000
# 5 -0.0001 -0.0001 -0.0003 -0.0001 -15.4257 0.0000
# 6 0.0000 0.0000 0.0000 0.0000 0.0000 23.4100
#
#
#
# Elastic Compliance Matrix: (Units=1/GPa)
#
#
# Indices 1 2 3 4 5 6 
#
# 1 0.011714 -0.001198 0.002672 0.000000 0.000000 0.000000
# 2 -0.001198 0.008287 -0.001691 0.000000 0.000000 0.000000
# 3 0.002672 -0.001691 0.007951 0.000000 0.000000 0.000000
# 4 0.000000 0.000000 0.000000 0.057537 0.000000 0.000000
# 5 0.000000 0.000000 0.000000 0.000000 -0.064827 0.000000
# 6 0.000000 0.000000 0.000000 0.000000 0.000000 0.042717
#
#
# Mechanical properties :
#
#
# Convention : Reuss Voigt Hill
#
# Bulk Modulus (GPa) = 36.34014 40.55197 38.44605
# Shear Modulus (GPa) = 68.50648 28.96221 48.73434
#
# Velocity S-wave (km/s) = 5.27074 3.42706 4.44553
# Velocity P-wave (km/s) = 7.19566 5.66606 6.47618
#
# Compressibility (1/GPa) = 0.02751778
#
# Stress axis : x y z
#
# Youngs Moduli (GPa) = 85.36793 120.67688 125.76322
#
# Poissons Ratio (x) = 0.14461 -0.33604
# Poissons Ratio (y) = 0.10230 0.21264
# Poissons Ratio (z) = -0.22810 0.20404
#
# Static dielectric constant tensor:
#      x y z
#    x 1.974440 0.000000 0.000000 
#    y 0.000000 2.037080 0.000000 
#    z 0.000000 0.000000 1.956370 
# 
# From -- ./inp_files/4286.got.cif
#   From: 2010.05.17/outbox.cif.g08.bks.cpg/sg44_3_cif.got.tgz:4286.got - 2010.06.03 19:37:08.
