data_PCOD9375721
_publ_section_title
;
Structure prediction by ZEFSAII (Michael W. Deem and Ramdas Pophale) SiO2 
 PCOD9375721
Probable space group: I M M 2
;
_chemical_formula_sum "Si O2"
_cell_formula_units_Z 56
_cell_length_a 16.380773
_cell_length_b 19.655783
_cell_length_c 9.098497
_cell_angle_alpha 90.000000
_cell_angle_beta 90.000000
_cell_angle_gamma 90.000000
_cell_volume 2929.506036
_symmetry_space_group_name_H-M "I M M 2"
_symmetry_group_IT_number 44
_symmetry_cell_setting 'orthorhombic'
loop_
_space_group_symop_operation_xyz
x,y,z
-x,-y,z
-x,y,z
x,-y,z
1/2+x,1/2+y,1/2+z
1/2-x,1/2-y,1/2+z
1/2-x,1/2+y,1/2+z
1/2+x,1/2-y,1/2+z
loop_
_atom_site_type_symbol
_atom_site_label
_atom_site_fract_x
_atom_site_fract_y
_atom_site_fract_z
Si Si1 0.826705 0.922019 0.250000
Si Si2 0.343921 0.847511 0.222623
Si Si3 0.500000 0.919096 0.719740
Si Si4 0.681726 0.309907 0.244734
Si Si5 0.000000 0.418798 0.868190
Si Si6 0.861386 0.330534 0.370461
Si Si7 0.591476 0.683195 0.948209
Si Si8 0.403881 0.575591 0.429478
O O1 0.739207 0.886153 0.262241
O O2 0.891835 0.879252 0.341780
O O3 0.822488 0.000000 0.298930
O O4 0.854386 0.920672 0.080838
O O5 0.336953 0.769335 0.276183
O O6 0.420789 0.884462 0.295231
O O7 0.352772 0.846623 0.044645
O O8 0.500000 0.907884 0.544041
O O9 0.421286 0.883694 0.793047
O O10 0.500000 0.000000 0.746633
O O11 0.773618 0.327254 0.292278
O O12 0.624351 0.362638 0.329304
O O13 0.660216 0.318248 0.073688
O O14 0.000000 0.500000 0.841360
O O15 0.898665 0.254600 0.363952
O O16 0.500000 0.680898 0.012321
O O17 0.500000 0.580165 0.460374
O O18 0.388459 0.500000 0.363611
#
# Coordination Sequence:
#
# PCOD9375721 Si02
#       8
#     8   8   4   8   4   8   8   8
#     4  11  23  41  65  94 127 170 215 263 323 387
#     4  11  24  42  68  98 130 172 218 267 329 393
#     4  11  27  45  69  99 132 175 218 269 331 396
#     4  11  24  41  68  98 127 169 220 264 322 389
#     4  11  27  45  65  99 136 171 218 275 331 394
#     4  11  23  44  67  96 133 172 218 265 326 393
#     4  11  24  42  64  96 134 171 216 269 325 385
#     4  10  22  41  64  94 128 164 210 263 318 380
#
# _framework density 19.115849999999998
#
# number of rings (size 3 to 8) (size 9 to 14) (size 15 to 20)
#    0.000    1.143    3.571    1.714    6.000    4.857 
#    0.000    0.000    0.000    0.000    0.000    0.000 
#    0.000    0.000    0.000    0.000    0.000    0.000 
#
# Total GULP energy -156470.091177 kJ/mol
# GULP energy per Si atom -5588.217542 kJ/mol
# Density = 1.907234 g / cm^3
# Si number density = 19.115850 Si / 1000 Ang^3
#
#
#
# Elastic Constant Matrix: (Units=GPa)
#
#
# Indices 1 2 3 4 5 6 
#
# 1 135.6320 61.5655 40.3472 0.0000 0.0000 0.0000
# 2 61.5655 156.6097 59.5799 0.0000 0.0000 0.0000
# 3 40.3472 59.5799 62.2885 0.0000 0.0000 0.0000
# 4 0.0000 0.0000 0.0000 35.5837 0.0000 0.0000
# 5 0.0000 0.0000 0.0000 0.0000 31.6148 0.0000
# 6 0.0000 0.0000 0.0000 0.0000 0.0000 33.5140
#
#
#
# Elastic Compliance Matrix: (Units=1/GPa)
#
#
# Indices 1 2 3 4 5 6 
#
# 1 0.009597 -0.002213 -0.004100 0.000000 0.000000 0.000000
# 2 -0.002213 0.010548 -0.008656 0.000000 0.000000 0.000000
# 3 -0.004100 -0.008656 0.026990 0.000000 0.000000 0.000000
# 4 0.000000 0.000000 0.000000 0.028103 0.000000 0.000000
# 5 0.000000 0.000000 0.000000 0.000000 0.031631 0.000000
# 6 0.000000 0.000000 0.000000 0.000000 0.000000 0.029838
#
#
# Mechanical properties :
#
#
# Convention : Reuss Voigt Hill
#
# Bulk Modulus (GPa) = 58.14870 75.27950 66.71410
# Shear Modulus (GPa) = 29.00621 33.01168 31.00894
#
# Velocity S-wave (km/s) = 3.89960 4.16014 4.03197
# Velocity P-wave (km/s) = 7.12467 7.90834 7.52671
#
# Compressibility (1/GPa) = 0.01719729
#
# Stress axis : x y z
#
# Youngs Moduli (GPa) = 104.19963 94.80090 37.05129
#
# Poissons Ratio (x) = 0.20980 0.15189
# Poissons Ratio (y) = 0.23060 0.32072
# Poissons Ratio (z) = 0.42717 0.82062
#
# Static dielectric constant tensor:
#      x y z
#    x 1.642980 0.000000 0.000000 
#    y 0.000000 1.653070 0.000000 
#    z 0.000000 0.000000 1.647340 
# 
# From -- ./inp_files/7430.got.cif
#   From: 2010.05.17/outbox.cif.g08.bks.cpg/sg44_4_cif.got.tgz:7430.got - 2010.06.03 19:37:08.
