data_PCOD9375091
_publ_section_title
;
Structure prediction by ZEFSAII (Michael W. Deem and Ramdas Pophale) SiO2 
 PCOD9375091
Probable space group: I M M 2
;
_chemical_formula_sum "Si O2"
_cell_formula_units_Z 58
_cell_length_a 25.609330
_cell_length_b 15.854051
_cell_length_c 7.252782
_cell_angle_alpha 90.000000
_cell_angle_beta 90.000000
_cell_angle_gamma 90.000000
_cell_volume 2944.713798
_symmetry_space_group_name_H-M "I M M 2"
_symmetry_group_IT_number 44
_symmetry_cell_setting 'orthorhombic'
loop_
_space_group_symop_operation_xyz
x,y,z
-x,-y,z
-x,y,z
x,-y,z
1/2+x,1/2+y,1/2+z
1/2-x,1/2-y,1/2+z
1/2-x,1/2+y,1/2+z
1/2+x,1/2-y,1/2+z
loop_
_atom_site_type_symbol
_atom_site_label
_atom_site_fract_x
_atom_site_fract_y
_atom_site_fract_z
Si Si1 0.588730 0.852884 0.076230
Si Si2 0.500000 0.000000 0.070375
Si Si3 0.059435 0.158008 0.502037
Si Si4 0.139618 0.847321 0.193565
Si Si5 0.833515 0.599874 0.873430
Si Si6 0.060249 0.902004 0.915762
Si Si7 0.821560 0.337692 0.286379
Si Si8 0.251102 0.404098 0.571087
O O1 0.567580 0.758986 0.031560
O O2 0.617855 0.854325 0.274510
O O3 0.545402 0.925076 0.071042
O O4 0.633548 0.872337 0.923851
O O5 0.103253 0.124162 0.362840
O O6 0.065155 0.113837 0.698861
O O7 0.000000 0.143836 0.435429
O O8 0.164631 0.759155 0.252666
O O9 0.188653 0.900379 0.124646
O O10 0.099142 0.842237 0.025643
O O11 0.843073 0.500000 0.855960
O O12 0.782996 0.621337 0.749342
O O13 0.823905 0.620504 0.086107
O O14 0.000000 0.885380 0.965228
O O15 0.072016 0.000000 0.959069
O O16 0.767507 0.349396 0.396765
O O17 0.236839 0.500000 0.523047
#
# Coordination Sequence:
#
# PCOD9375091 Si02
#       8
#     8   2   8   8   8   8   8   8
#     4  10  21  38  59  89 125 164 204 255 307 366
#     4  12  20  36  66  92 130 166 208 264 308 364
#     4  10  21  40  62  88 126 166 203 253 317 373
#     4  11  23  39  63  91 121 160 209 260 308 377
#     4  10  20  37  59  82 116 159 203 250 308 365
#     4  10  22  40  64  93 127 165 205 256 315 374
#     4  10  23  39  62  84 120 164 204 255 317 369
#     4  10  23  40  59  86 121 157 203 264 313 364
#
# _framework density 19.696311999999999
#
# number of rings (size 3 to 8) (size 9 to 14) (size 15 to 20)
#    0.000    1.793    1.379    2.069    3.862    2.207 
#    0.000    4.138    0.000    0.000    0.000    0.000 
#    0.000    0.000    0.000    0.000    0.000    0.000 
#
# Total GULP energy -161599.366542 kJ/mol
# GULP energy per Si atom -5572.391950 kJ/mol
# Density = 1.965148 g / cm^3
# Si number density = 19.696312 Si / 1000 Ang^3
#
#
#
# Elastic Constant Matrix: (Units=GPa)
#
#
# Indices 1 2 3 4 5 6 
#
# 1 107.3508 21.6162 48.7819 0.0000 0.0000 0.0000
# 2 21.6162 44.0880 16.8119 0.0000 0.0000 0.0000
# 3 48.7819 16.8119 116.2816 0.0000 0.0000 0.0000
# 4 0.0000 0.0000 0.0000 7.0102 0.0000 0.0000
# 5 0.0000 0.0000 0.0000 0.0000 28.4126 0.0000
# 6 0.0000 0.0000 0.0000 0.0000 0.0000 -37.0761
#
#
#
# Elastic Compliance Matrix: (Units=1/GPa)
#
#
# Indices 1 2 3 4 5 6 
#
# 1 0.012226 -0.004274 -0.004511 0.000000 0.000000 0.000000
# 2 -0.004274 0.025500 -0.001894 0.000000 0.000000 0.000000
# 3 -0.004511 -0.001894 0.010766 0.000000 0.000000 0.000000
# 4 0.000000 0.000000 0.000000 0.142650 0.000000 0.000000
# 5 0.000000 0.000000 0.000000 0.000000 0.035196 0.000000
# 6 0.000000 0.000000 0.000000 0.000000 0.000000 -0.026972
#
#
# Mechanical properties :
#
#
# Convention : Reuss Voigt Hill
#
# Bulk Modulus (GPa) = 36.85422 49.12671 42.99047
# Shear Modulus (GPa) = 21.76115 11.70337 16.73226
#
# Velocity S-wave (km/s) = 3.32751 2.44025 2.91780
# Velocity P-wave (km/s) = 5.78921 5.73899 5.76415
#
# Compressibility (1/GPa) = 0.02713393
#
# Stress axis : x y z
#
# Youngs Moduli (GPa) = 81.79469 39.21629 92.88498
#
# Poissons Ratio (x) = 0.16761 0.41900
# Poissons Ratio (y) = 0.34960 0.17589
# Poissons Ratio (z) = 0.36897 0.07426
#
# Static dielectric constant tensor:
#      x y z
#    x 1.694940 0.000000 0.000000 
#    y 0.000000 1.735100 0.000000 
#    z 0.000000 0.000000 1.685890 
# 
# From -- ./inp_files/2113.got.cif
#   From: 2010.05.17/outbox.cif.g08.bks.cpg/sg44_2_cif.got.tgz:2113.got - 2010.06.03 19:37:08.
