data_PCOD9375230
_publ_section_title
;
Structure prediction by ZEFSAII (Michael W. Deem and Ramdas Pophale) SiO2 
 PCOD9375230
Probable space group: I M M 2
;
_chemical_formula_sum "Si O2"
_cell_formula_units_Z 64
_cell_length_a 16.089114
_cell_length_b 18.861144
_cell_length_c 11.969337
_cell_angle_alpha 90.000000
_cell_angle_beta 90.000000
_cell_angle_gamma 90.000000
_cell_volume 3632.204186
_symmetry_space_group_name_H-M "I M M 2"
_symmetry_group_IT_number 44
_symmetry_cell_setting 'orthorhombic'
loop_
_space_group_symop_operation_xyz
x,y,z
-x,-y,z
-x,y,z
x,-y,z
1/2+x,1/2+y,1/2+z
1/2-x,1/2-y,1/2+z
1/2-x,1/2+y,1/2+z
1/2+x,1/2-y,1/2+z
loop_
_atom_site_type_symbol
_atom_site_label
_atom_site_fract_x
_atom_site_fract_y
_atom_site_fract_z
Si Si1 0.597535 0.710732 0.390760
Si Si2 0.797936 0.582217 0.110599
Si Si3 0.702063 0.917782 0.170924
Si Si4 0.826976 0.805033 0.131261
Si Si5 0.095474 0.685453 0.261950
Si Si6 0.595474 0.814548 0.019572
Si Si7 0.402339 0.117582 0.390762
Si Si8 0.673026 0.305032 0.150258
O O1 0.500000 0.690728 0.390756
O O2 0.642811 0.686208 0.504101
O O3 0.601241 0.796687 0.390764
O O4 0.642815 0.686212 0.277420
O O5 0.788334 0.500000 0.137169
O O6 0.847471 0.626133 0.204953
O O7 0.709672 0.622671 0.100270
O O8 0.853368 0.591018 0.999368
O O9 0.790327 0.877329 0.181252
O O10 0.652529 0.873868 0.076569
O O11 0.646631 0.908980 0.282155
O O12 0.711665 0.000000 0.144356
O O13 0.895230 0.760868 0.199484
O O14 0.750001 0.750000 0.140756
O O15 0.119057 0.694715 0.390761
O O16 0.000000 0.662447 0.253851
O O17 0.500000 0.837554 0.027670
O O18 0.604769 0.739133 0.082037
O O19 0.500000 0.097273 0.390762
#
# Coordination Sequence:
#
# PCOD9375230 Si02
#       8
#     8   8   8   8   8   8   8   8
#     4  11  20  37  63  87 107 144 195 244 282 319
#     4  11  24  36  54  83 118 152 181 223 282 337
#     4  11  24  36  54  83 118 152 181 223 282 337
#     4  10  21  34  59  80 113 144 188 232 275 326
#     4  10  21  36  57  82 108 144 186 227 274 329
#     4  10  21  36  57  82 108 144 186 227 274 329
#     4  11  21  36  59  87 116 147 187 230 277 339
#     4  10  21  34  59  80 113 144 188 232 275 326
#
# _framework density 17.620155
#
# number of rings (size 3 to 8) (size 9 to 14) (size 15 to 20)
#    0.000    1.500    5.000    1.875    8.750    3.000 
#    0.000    1.250    0.000    3.750    0.000    1.750 
#    0.000    0.000    0.000    0.000    0.000    0.000 
#
# Total GULP energy -178485.647690 kJ/mol
# GULP energy per Si atom -5577.676490 kJ/mol
# Density = 1.758005 g / cm^3
# Si number density = 17.620155 Si / 1000 Ang^3
#
#
#
# Elastic Constant Matrix: (Units=GPa)
#
#
# Indices 1 2 3 4 5 6 
#
# 1 59.3053 30.8218 23.0429 0.0000 0.0000 0.0000
# 2 30.8218 118.6054 31.2653 0.0000 0.0000 0.0000
# 3 23.0429 31.2653 93.3453 0.0000 0.0000 0.0000
# 4 0.0000 0.0000 0.0000 -2.1106 0.0000 0.0000
# 5 0.0000 0.0000 0.0000 0.0000 32.5661 0.0000
# 6 0.0000 0.0000 0.0000 0.0000 0.0000 16.9928
#
#
#
# Elastic Compliance Matrix: (Units=1/GPa)
#
#
# Indices 1 2 3 4 5 6 
#
# 1 0.020542 -0.004389 -0.003601 0.000000 0.000000 0.000000
# 2 -0.004389 0.010186 -0.002328 0.000000 0.000000 0.000000
# 3 -0.003601 -0.002328 0.012382 0.000000 0.000000 0.000000
# 4 0.000000 0.000000 0.000000 -0.473795 0.000000 0.000000
# 5 0.000000 0.000000 0.000000 0.000000 0.030707 0.000000
# 6 0.000000 0.000000 0.000000 0.000000 0.000000 0.058848
#
#
# Mechanical properties :
#
#
# Convention : Reuss Voigt Hill
#
# Bulk Modulus (GPa) = 44.49743 49.05735 46.77739
# Shear Modulus (GPa) = -15.97428 21.89804 2.96188
#
# Velocity S-wave (km/s) = -3.01423 3.52914 1.29793
# Velocity P-wave (km/s) = 3.63241 6.67147 5.37135
#
# Compressibility (1/GPa) = 0.02247321
#
# Stress axis : x y z
#
# Youngs Moduli (GPa) = 48.68063 98.17785 80.76498
#
# Poissons Ratio (x) = 0.43090 0.29082
# Poissons Ratio (y) = 0.21366 0.18803
# Poissons Ratio (z) = 0.17529 0.22857
#
# Static dielectric constant tensor:
#      x y z
#    x 1.927780 0.000000 0.000000 
#    y 0.000000 1.592520 0.000000 
#    z 0.000000 0.000000 1.614480 
# 
# From -- ./inp_files/14067.got.cif
#   From: 2010.05.17/outbox.cif.g08.bks.cpg/sg44_8_cif.got.tgz:14067.got - 2010.06.03 19:37:08.
