data_PCOD9375576
_publ_section_title
;
Structure prediction by ZEFSAII (Michael W. Deem and Ramdas Pophale) SiO2 
 PCOD9375576
Probable space group: I M M 2
;
_chemical_formula_sum "Si O2"
_cell_formula_units_Z 26
_cell_length_a 10.462546
_cell_length_b 7.325155
_cell_length_c 15.345183
_cell_angle_alpha 90.000000
_cell_angle_beta 90.000000
_cell_angle_gamma 90.000000
_cell_volume 1176.051313
_symmetry_space_group_name_H-M "I M M 2"
_symmetry_group_IT_number 44
_symmetry_cell_setting 'orthorhombic'
loop_
_space_group_symop_operation_xyz
x,y,z
-x,-y,z
-x,y,z
x,-y,z
1/2+x,1/2+y,1/2+z
1/2-x,1/2-y,1/2+z
1/2-x,1/2+y,1/2+z
1/2+x,1/2-y,1/2+z
loop_
_atom_site_type_symbol
_atom_site_label
_atom_site_fract_x
_atom_site_fract_y
_atom_site_fract_z
Si Si1 0.500000 0.500000 0.132841
Si Si2 0.144473 0.221812 0.932270
Si Si3 0.357518 0.779168 0.795383
Si Si4 0.230481 0.289891 0.615126
O O1 0.612068 0.658487 0.132115
O O2 0.194182 0.269031 0.028224
O O3 0.000000 0.284712 0.915893
O O4 0.141233 0.000000 0.927803
O O5 0.247550 0.283747 0.861322
O O6 0.500000 0.720409 0.821492
O O7 0.323015 0.718894 0.698365
O O8 0.356114 0.000000 0.796360
O O9 0.189288 0.500000 0.601997
#
# Coordination Sequence:
#
# PCOD9375576 Si02
#       4
#     2   8   8   8
#     4  12  26  44  70  98 140 174 228 288 340 402
#     4   9  20  39  67  98 137 180 224 275 338 398
#     4  10  21  39  66 100 139 182 225 276 338 399
#     4  11  24  44  69  99 134 182 227 278 338 404
#
# _framework density 22.107880999999999
#
# number of rings (size 3 to 8) (size 9 to 14) (size 15 to 20)
#    0.000    1.846    1.538    1.385    4.308    1.846 
#    2.769    0.000    0.000    0.000    0.000    0.000 
#    0.000    0.000    0.000    0.000    0.000    0.000 
#
# Total GULP energy -72458.575987 kJ/mol
# GULP energy per Si atom -5573.736614 kJ/mol
# Density = 2.205756 g / cm^3
# Si number density = 22.107881 Si / 1000 Ang^3
#
#
#
# Elastic Constant Matrix: (Units=GPa)
#
#
# Indices 1 2 3 4 5 6 
#
# 1 182.4218 30.2735 55.3148 0.0000 0.0000 0.0000
# 2 30.2735 121.9566 -7.5263 0.0000 0.0000 0.0000
# 3 55.3148 -7.5263 135.8259 0.0000 0.0000 0.0000
# 4 0.0000 0.0000 0.0000 9.8858 0.0000 0.0000
# 5 0.0000 0.0000 0.0000 0.0000 -5.3355 0.0000
# 6 0.0000 0.0000 0.0000 0.0000 0.0000 75.7125
#
#
#
# Elastic Compliance Matrix: (Units=1/GPa)
#
#
# Indices 1 2 3 4 5 6 
#
# 1 0.006633 -0.001820 -0.002802 0.000000 0.000000 0.000000
# 2 -0.001820 0.008727 0.001225 0.000000 0.000000 0.000000
# 3 -0.002802 0.001225 0.008571 0.000000 0.000000 0.000000
# 4 0.000000 0.000000 0.000000 0.101155 0.000000 0.000000
# 5 0.000000 0.000000 0.000000 0.000000 -0.187425 0.000000
# 6 0.000000 0.000000 0.000000 0.000000 0.000000 0.013208
#
#
# Mechanical properties :
#
#
# Convention : Reuss Voigt Hill
#
# Bulk Modulus (GPa) = 58.35242 66.25871 62.30557
# Shear Modulus (GPa) = -136.52544 40.19539 -48.16503
#
# Velocity S-wave (km/s) = -7.86691 4.26860 -4.67265
# Velocity P-wave (km/s) = 7.48772 7.37091 0.93158
#
# Compressibility (1/GPa) = 0.01713725
#
# Stress axis : x y z
#
# Youngs Moduli (GPa) = 150.75010 114.58833 116.66630
#
# Poissons Ratio (x) = 0.20850 0.32693
# Poissons Ratio (y) = 0.27430 -0.14287
# Poissons Ratio (z) = 0.42245 -0.14032
#
# Static dielectric constant tensor:
#      x y z
#    x 1.764550 0.000000 0.000000 
#    y 0.000000 1.832920 0.000000 
#    z 0.000000 0.000000 1.773030 
# 
# From -- ./inp_files/19842.got.cif
#   From: 2010.05.17/outbox.cif.g08.bks.cpg/sg44_10_cif.got.tgz:19842.got - 2010.06.03 19:37:08.
