data_PCOD9375601
_publ_section_title
;
Structure prediction by ZEFSAII (Michael W. Deem and Ramdas Pophale) SiO2 
 PCOD9375601
Probable space group: I M M 2
;
_chemical_formula_sum "Si O2"
_cell_formula_units_Z 34
_cell_length_a 7.555676
_cell_length_b 23.481608
_cell_length_c 8.628667
_cell_angle_alpha 90.000000
_cell_angle_beta 90.000000
_cell_angle_gamma 90.000000
_cell_volume 1530.893112
_symmetry_space_group_name_H-M "I M M 2"
_symmetry_group_IT_number 44
_symmetry_cell_setting 'orthorhombic'
loop_
_space_group_symop_operation_xyz
x,y,z
-x,-y,z
-x,y,z
x,-y,z
1/2+x,1/2+y,1/2+z
1/2-x,1/2-y,1/2+z
1/2-x,1/2+y,1/2+z
1/2+x,1/2-y,1/2+z
loop_
_atom_site_type_symbol
_atom_site_label
_atom_site_fract_x
_atom_site_fract_y
_atom_site_fract_z
Si Si1 0.795129 0.321374 0.392030
Si Si2 0.715829 0.412064 0.885854
Si Si3 0.212944 0.792785 0.243689
Si Si4 0.790394 0.938718 0.738976
Si Si5 0.000000 0.500000 0.766615
O O1 0.713376 0.267981 0.299248
O O2 0.771922 0.308756 0.572207
O O3 0.737260 0.384225 0.345297
O O4 0.000000 0.320860 0.352693
O O5 0.500000 0.421081 0.865835
O O6 0.754597 0.345619 0.855791
O O7 0.841561 0.450460 0.778918
O O8 0.768479 0.427801 0.062252
O O9 0.000000 0.789713 0.241173
O O10 0.000000 0.943738 0.727447
O O11 0.718070 0.000000 0.794320
#
# Coordination Sequence:
#
# PCOD9375601 Si02
#       5
#     8   8   8   8   2
#     4  11  24  40  65  94 123 158 216 268 312 381
#     4  10  22  41  65  94 133 169 214 259 315 381
#     4  10  23  44  63  90 126 167 205 260 327 376
#     4  10  21  41  63  89 128 172 205 252 320 380
#     4  12  22  36  68 100 128 172 212 262 308 382
#
# _framework density 22.209257999999998
#
# number of rings (size 3 to 8) (size 9 to 14) (size 15 to 20)
#    0.000    1.647    1.176    2.471    3.294    4.235 
#    2.118    0.000    0.000    0.000    0.000    0.000 
#    0.000    0.000    0.000    0.000    0.000    0.000 
#
# Total GULP energy -94671.157136 kJ/mol
# GULP energy per Si atom -5568.891596 kJ/mol
# Density = 2.215871 g / cm^3
# Si number density = 22.209258 Si / 1000 Ang^3
#
#
#
# Elastic Constant Matrix: (Units=GPa)
#
#
# Indices 1 2 3 4 5 6 
#
# 1 69.4054 25.1758 -3.6067 0.0016 -0.0002 -0.0005
# 2 25.1758 225.3950 64.2777 0.0024 -0.0003 -0.0009
# 3 -3.6067 64.2777 46.3288 -0.0039 -0.0036 0.0033
# 4 0.0016 0.0024 -0.0039 10.7826 0.0000 -0.0013
# 5 -0.0002 -0.0003 -0.0036 0.0000 13.8566 0.0003
# 6 -0.0005 -0.0009 0.0033 -0.0013 0.0003 51.9617
#
#
#
# Elastic Compliance Matrix: (Units=1/GPa)
#
#
# Indices 1 2 3 4 5 6 
#
# 1 0.016016 -0.003548 0.006170 0.000001 0.000002 0.000000
# 2 -0.003548 0.008128 -0.011553 -0.000005 -0.000003 0.000001
# 3 0.006170 -0.011553 0.038094 0.000015 0.000010 -0.000003
# 4 0.000001 -0.000005 0.000015 0.092742 0.000000 0.000002
# 5 0.000002 -0.000003 0.000010 0.000000 0.072168 0.000000
# 6 0.000000 0.000001 -0.000003 0.000002 0.000000 0.019245
#
#
# Mechanical properties :
#
#
# Convention : Reuss Voigt Hill
#
# Bulk Modulus (GPa) = 22.53519 56.98029 39.75774
# Shear Modulus (GPa) = 17.91822 32.33900 25.12861
#
# Velocity S-wave (km/s) = 2.84349 3.82003 3.36735
# Velocity P-wave (km/s) = 4.57705 6.72076 5.74970
#
# Compressibility (1/GPa) = 0.04437504
#
# Stress axis : x y z
#
# Youngs Moduli (GPa) = 62.43793 123.03812 26.25112
#
# Poissons Ratio (x) = 0.43660 -0.16197
# Poissons Ratio (y) = 0.22156 0.30327
# Poissons Ratio (z) = -0.38525 1.42141
#
# Static dielectric constant tensor:
#      x y z
#    x 1.827020 0.000000 0.000000 
#    y 0.000000 1.858750 0.000000 
#    z 0.000000 0.000000 1.803540 
# 
# From -- ./inp_files/4277.got.cif
#   From: 2010.05.17/outbox.cif.g08.bks.cpg/sg44_3_cif.got.tgz:4277.got - 2010.06.03 19:37:08.
