data_PCOD9375191
_publ_section_title
;
Structure prediction by ZEFSAII (Michael W. Deem and Ramdas Pophale) SiO2 
 PCOD9375191
Probable space group: I M M 2
;
_chemical_formula_sum "Si O2"
_cell_formula_units_Z 34
_cell_length_a 10.710298
_cell_length_b 7.632893
_cell_length_c 19.949510
_cell_angle_alpha 90.000000
_cell_angle_beta 90.000000
_cell_angle_gamma 90.000000
_cell_volume 1630.883587
_symmetry_space_group_name_H-M "I M M 2"
_symmetry_group_IT_number 44
_symmetry_cell_setting 'orthorhombic'
loop_
_space_group_symop_operation_xyz
x,y,z
-x,-y,z
-x,y,z
x,-y,z
1/2+x,1/2+y,1/2+z
1/2-x,1/2-y,1/2+z
1/2-x,1/2+y,1/2+z
1/2+x,1/2-y,1/2+z
loop_
_atom_site_type_symbol
_atom_site_label
_atom_site_fract_x
_atom_site_fract_y
_atom_site_fract_z
Si Si1 0.359935 0.789065 0.883640
Si Si2 0.639268 0.712569 0.480518
Si Si3 0.294075 0.305362 0.103131
Si Si4 0.000000 0.500000 0.584861
Si Si5 0.641351 0.708653 0.727825
O O1 0.500000 0.725057 0.901343
O O2 0.335711 0.745252 0.806148
O O3 0.363515 0.000000 0.890268
O O4 0.248920 0.725330 0.930873
O O5 0.500000 0.768902 0.461255
O O6 0.640525 0.500000 0.480306
O O7 0.676591 0.775872 0.554051
O O8 0.344402 0.500000 0.092228
O O9 0.243114 0.288528 0.178700
O O10 0.391567 0.153621 0.086689
O O11 0.500000 0.771878 0.713415
O O12 0.643578 0.500000 0.717362
#
# Coordination Sequence:
#
# PCOD9375191 Si02
#       5
#     8   8   8   2   8
#     4   9  19  35  60  89 127 175 224 271 324 387
#     4  10  21  39  63  94 133 176 217 273 332 382
#     4  12  25  42  69  95 128 171 222 269 329 394
#     4  12  26  48  62  98 132 172 212 278 332 394
#     4  10  20  39  64  92 128 172 218 272 326 383
#
# _framework density 20.847595999999999
#
# number of rings (size 3 to 8) (size 9 to 14) (size 15 to 20)
#    0.000    1.647    2.353    1.765    1.647    5.647 
#    2.118    0.000    0.000    0.000    0.000    0.000 
#    0.000    0.000    0.000    0.000    0.000    0.000 
#
# Total GULP energy -94750.365554 kJ/mol
# GULP energy per Si atom -5573.550915 kJ/mol
# Density = 2.080015 g / cm^3
# Si number density = 20.847596 Si / 1000 Ang^3
#
#
#
# Elastic Constant Matrix: (Units=GPa)
#
#
# Indices 1 2 3 4 5 6 
#
# 1 135.0823 40.1200 57.0407 0.0000 0.0000 0.0000
# 2 40.1200 111.3126 5.2895 0.0000 0.0000 0.0000
# 3 57.0407 5.2895 65.2968 0.0000 0.0000 0.0000
# 4 0.0000 0.0000 0.0000 21.9457 0.0000 0.0000
# 5 0.0000 0.0000 0.0000 0.0000 -7.0727 0.0000
# 6 0.0000 0.0000 0.0000 0.0000 0.0000 -18.5790
#
#
#
# Elastic Compliance Matrix: (Units=1/GPa)
#
#
# Indices 1 2 3 4 5 6 
#
# 1 0.013534 -0.004333 -0.011472 0.000000 0.000000 0.000000
# 2 -0.004333 0.010406 0.002942 0.000000 0.000000 0.000000
# 3 -0.011472 0.002942 0.025098 0.000000 0.000000 0.000000
# 4 0.000000 0.000000 0.000000 0.045567 0.000000 0.000000
# 5 0.000000 0.000000 0.000000 0.000000 -0.141389 0.000000
# 6 0.000000 0.000000 0.000000 0.000000 0.000000 -0.053824
#
#
# Mechanical properties :
#
#
# Convention : Reuss Voigt Hill
#
# Bulk Modulus (GPa) = 42.89608 57.39910 50.14759
# Shear Modulus (GPa) = -74.50037 13.20823 -30.64607
#
# Velocity S-wave (km/s) = -5.98442 2.51980 -3.83822
# Velocity P-wave (km/s) = 5.20868 6.00486 2.11281
#
# Compressibility (1/GPa) = 0.02331215
#
# Stress axis : x y z
#
# Youngs Moduli (GPa) = 73.88875 96.10233 39.84452
#
# Poissons Ratio (x) = 0.41640 0.45708
# Poissons Ratio (y) = 0.32015 -0.11723
# Poissons Ratio (z) = 0.84763 -0.28274
#
# Static dielectric constant tensor:
#      x y z
#    x 1.739030 0.000000 0.000000 
#    y 0.000000 1.757690 0.000000 
#    z 0.000000 0.000000 1.726920 
# 
# From -- ./inp_files/22554.got.cif
#   From: 2010.05.17/outbox.cif.g08.bks.cpg/sg44_12_cif.got.tgz:22554.got - 2010.06.03 19:37:08.
