data_PCOD9375441
_publ_section_title
;
Structure prediction by ZEFSAII (Michael W. Deem and Ramdas Pophale) SiO2 
 PCOD9375441
Probable space group: I M M 2
;
_chemical_formula_sum "Si O2"
_cell_formula_units_Z 34
_cell_length_a 7.392804
_cell_length_b 10.169962
_cell_length_c 19.892241
_cell_angle_alpha 90.000000
_cell_angle_beta 90.000000
_cell_angle_gamma 90.000000
_cell_volume 1495.588905
_symmetry_space_group_name_H-M "I M M 2"
_symmetry_group_IT_number 44
_symmetry_cell_setting 'orthorhombic'
loop_
_space_group_symop_operation_xyz
x,y,z
-x,-y,z
-x,y,z
x,-y,z
1/2+x,1/2+y,1/2+z
1/2-x,1/2-y,1/2+z
1/2-x,1/2+y,1/2+z
1/2+x,1/2-y,1/2+z
loop_
_atom_site_type_symbol
_atom_site_label
_atom_site_fract_x
_atom_site_fract_y
_atom_site_fract_z
Si Si1 0.719185 0.848308 0.920920
Si Si2 0.207327 0.703660 0.267822
Si Si3 0.281896 0.857825 0.149817
Si Si4 0.278422 0.347535 0.039284
Si Si5 0.500000 0.500000 0.222732
O O1 0.500000 0.852222 0.925090
O O2 0.766438 0.803011 0.845459
O O3 0.780787 0.000000 0.931102
O O4 0.776804 0.739785 0.974954
O O5 0.220510 0.837950 0.226450
O O6 0.342973 0.611741 0.227740
O O7 0.000000 0.658571 0.266624
O O8 0.500000 0.857603 0.147434
O O9 0.217879 0.738517 0.102999
O O10 0.222579 0.000000 0.123355
O O11 0.500000 0.351518 0.040954
O O12 0.220265 0.500000 0.039104
#
# Coordination Sequence:
#
# PCOD9375441 Si02
#       5
#     8   8   8   8   2
#     4   9  17  32  54  84 118 157 204 254 307 371
#     4  11  23  38  65  95 126 166 214 260 314 374
#     4  10  21  37  59  89 126 170 214 264 319 374
#     4   9  18  31  55  86 120 162 214 261 312 377
#     4  12  22  40  62  98 128 168 204 262 312 386
#
# _framework density 22.733519999999999
#
# number of rings (size 3 to 8) (size 9 to 14) (size 15 to 20)
#    0.000    2.118    2.353    1.059    1.647    4.235 
#    0.000    2.353    2.588    0.000    0.000    0.000 
#    0.000    0.000    0.000    0.000    0.000    0.000 
#
# Total GULP energy -94661.925506 kJ/mol
# GULP energy per Si atom -5568.348559 kJ/mol
# Density = 2.268178 g / cm^3
# Si number density = 22.733520 Si / 1000 Ang^3
#
#
#
# Elastic Constant Matrix: (Units=GPa)
#
#
# Indices 1 2 3 4 5 6 
#
# 1 98.3324 12.1156 2.5149 0.0000 0.0000 0.0000
# 2 12.1156 213.3047 115.9698 0.0000 0.0000 0.0000
# 3 2.5149 115.9698 126.4325 0.0000 0.0000 0.0000
# 4 0.0000 0.0000 0.0000 4.4126 0.0000 0.0000
# 5 0.0000 0.0000 0.0000 0.0000 5.8521 0.0000
# 6 0.0000 0.0000 0.0000 0.0000 0.0000 26.5777
#
#
#
# Elastic Compliance Matrix: (Units=1/GPa)
#
#
# Indices 1 2 3 4 5 6 
#
# 1 0.010269 -0.000942 0.000660 0.000000 0.000000 0.000000
# 2 -0.000942 0.009438 -0.008638 0.000000 0.000000 0.000000
# 3 0.000660 -0.008638 0.015820 0.000000 0.000000 0.000000
# 4 0.000000 0.000000 0.000000 0.226623 0.000000 0.000000
# 5 0.000000 0.000000 0.000000 0.000000 0.170880 0.000000
# 6 0.000000 0.000000 0.000000 0.000000 0.000000 0.037626
#
#
# Mechanical properties :
#
#
# Convention : Reuss Voigt Hill
#
# Bulk Modulus (GPa) = 56.54345 77.69668 67.12006
# Shear Modulus (GPa) = 10.11345 27.86643 18.98994
#
# Velocity S-wave (km/s) = 2.11148 3.50492 2.89334
# Velocity P-wave (km/s) = 5.55614 7.11552 6.38363
#
# Compressibility (1/GPa) = 0.01768552
#
# Stress axis : x y z
#
# Youngs Moduli (GPa) = 97.38258 105.95281 63.21203
#
# Poissons Ratio (x) = 0.09980 -0.04170
# Poissons Ratio (y) = 0.09173 0.54605
# Poissons Ratio (z) = -0.06425 0.91526
#
# Static dielectric constant tensor:
#      x y z
#    x 1.860220 0.000000 0.000000 
#    y 0.000000 1.895810 0.000000 
#    z 0.000000 0.000000 1.869830 
# 
# From -- ./inp_files/22564.got.cif
#   From: 2010.05.17/outbox.cif.g08.bks.cpg/sg44_12_cif.got.tgz:22564.got - 2010.06.03 19:37:08.
