data_PCOD9375189
_publ_section_title
;
Structure prediction by ZEFSAII (Michael W. Deem and Ramdas Pophale) SiO2 
 PCOD9375189
Probable space group: I M M 2
;
_chemical_formula_sum "Si O2"
_cell_formula_units_Z 48
_cell_length_a 8.030013
_cell_length_b 28.166151
_cell_length_c 9.862913
_cell_angle_alpha 90.000000
_cell_angle_beta 90.000000
_cell_angle_gamma 90.000000
_cell_volume 2230.739995
_symmetry_space_group_name_H-M "I M M 2"
_symmetry_group_IT_number 44
_symmetry_cell_setting 'orthorhombic'
loop_
_space_group_symop_operation_xyz
x,y,z
-x,-y,z
-x,y,z
x,-y,z
1/2+x,1/2+y,1/2+z
1/2-x,1/2-y,1/2+z
1/2-x,1/2+y,1/2+z
1/2+x,1/2-y,1/2+z
loop_
_atom_site_type_symbol
_atom_site_label
_atom_site_fract_x
_atom_site_fract_y
_atom_site_fract_z
Si Si1 0.201874 0.776125 0.013360
Si Si2 0.196593 0.085414 0.380008
Si Si3 0.301088 0.372355 0.386396
Si Si4 0.296668 0.550755 0.593184
Si Si5 0.800379 0.692494 0.817366
Si Si6 0.193458 0.553265 0.169211
O O1 0.257380 0.786800 0.167697
O O2 0.000000 0.775405 0.016464
O O3 0.259979 0.819365 0.915254
O O4 0.255773 0.727975 0.938052
O O5 0.252240 0.056694 0.247972
O O6 0.224753 0.140649 0.343870
O O7 0.287214 0.067047 0.512680
O O8 0.000000 0.077548 0.400856
O O9 0.500000 0.369262 0.399036
O O10 0.233790 0.405584 0.506446
O O11 0.267835 0.402737 0.252693
O O12 0.500000 0.552189 0.589505
O O13 0.243478 0.500000 0.536866
O O14 0.000000 0.688275 0.824141
O O15 0.265846 0.500000 0.193168
O O16 0.000000 0.551278 0.205320
#
# Coordination Sequence:
#
# PCOD9375189 Si02
#       6
#     8   8   8   8   8   8
#     4  10  23  43  64  92 124 159 206 257 308 372
#     4  11  22  40  64  89 123 163 208 256 305 367
#     4  10  20  39  64  89 120 158 205 257 304 367
#     4   9  17  32  59  90 114 144 194 251 299 351
#     4  11  24  41  64  95 128 161 203 256 317 372
#     4  11  25  42  59  89 131 168 206 256 314 371
#
# _framework density 21.517524999999999
#
# number of rings (size 3 to 8) (size 9 to 14) (size 15 to 20)
#    0.000    1.667    1.667    2.500    2.333    4.667 
#    0.000    0.000    0.000    3.000    0.000    0.000 
#    0.000    0.000    0.000    0.000    0.000    0.000 
#
# Total GULP energy -134019.588287 kJ/mol
# GULP energy per Si atom -5584.149512 kJ/mol
# Density = 2.146855 g / cm^3
# Si number density = 21.517525 Si / 1000 Ang^3
#
#
#
# Elastic Constant Matrix: (Units=GPa)
#
#
# Indices 1 2 3 4 5 6 
#
# 1 19.6826 -3.6796 -11.2231 0.0000 -0.0001 -0.0001
# 2 -3.6796 80.2730 -6.4312 0.0000 0.0002 0.0007
# 3 -11.2231 -6.4312 60.9067 0.0002 0.0017 0.0030
# 4 0.0000 0.0000 0.0002 40.7840 -0.0002 -0.0009
# 5 -0.0001 0.0002 0.0017 -0.0002 17.1830 -0.0006
# 6 -0.0001 0.0007 0.0030 -0.0009 -0.0006 -58.9899
#
#
#
# Elastic Compliance Matrix: (Units=1/GPa)
#
#
# Indices 1 2 3 4 5 6 
#
# 1 0.057746 0.003529 0.011013 0.000000 -0.000001 0.000000
# 2 0.003529 0.012779 0.002000 0.000000 0.000000 0.000000
# 3 0.011013 0.002000 0.018659 0.000000 -0.000002 0.000001
# 4 0.000000 0.000000 0.000000 0.024519 0.000000 0.000000
# 5 -0.000001 0.000000 -0.000002 0.000000 0.058197 -0.000001
# 6 0.000000 0.000000 0.000001 0.000000 -0.000001 -0.016952
#
#
# Mechanical properties :
#
#
# Convention : Reuss Voigt Hill
#
# Bulk Modulus (GPa) = 8.17869 13.13275 10.65572
# Shear Modulus (GPa) = 30.74641 11.94181 21.34411
#
# Velocity S-wave (km/s) = 3.78418 2.35836 3.15293
# Velocity P-wave (km/s) = 4.78566 3.67863 4.26819
#
# Compressibility (1/GPa) = 0.12226891
#
# Stress axis : x y z
#
# Youngs Moduli (GPa) = 17.31729 78.25048 53.59319
#
# Poissons Ratio (x) = -0.27617 -0.59024
# Poissons Ratio (y) = -0.06112 -0.10717
# Poissons Ratio (z) = -0.19072 -0.15648
#
# Static dielectric constant tensor:
#      x y z
#    x 1.772170 0.000000 0.000000 
#    y 0.000000 1.743140 0.000000 
#    z 0.000000 0.000000 1.767090 
# 
# From -- ./inp_files/4902.got.cif
#   From: 2010.05.17/outbox.cif.g08.bks.cpg/sg44_3_cif.got.tgz:4902.got - 2010.06.03 19:37:08.
