data_PCOD9375010
_publ_section_title
;
Structure prediction by ZEFSAII (Michael W. Deem and Ramdas Pophale) SiO2 
 PCOD9375010
Probable space group: I M M 2
;
_chemical_formula_sum "Si O2"
_cell_formula_units_Z 58
_cell_length_a 17.940608
_cell_length_b 8.934030
_cell_length_c 18.404577
_cell_angle_alpha 90.000000
_cell_angle_beta 90.000000
_cell_angle_gamma 90.000000
_cell_volume 2949.921124
_symmetry_space_group_name_H-M "I M M 2"
_symmetry_group_IT_number 44
_symmetry_cell_setting 'orthorhombic'
loop_
_space_group_symop_operation_xyz
x,y,z
-x,-y,z
-x,y,z
x,-y,z
1/2+x,1/2+y,1/2+z
1/2-x,1/2-y,1/2+z
1/2-x,1/2+y,1/2+z
1/2+x,1/2-y,1/2+z
loop_
_atom_site_type_symbol
_atom_site_label
_atom_site_fract_x
_atom_site_fract_y
_atom_site_fract_z
Si Si1 0.913924 0.316411 0.847810
Si Si2 0.410256 0.329666 0.642387
Si Si3 0.908948 0.672893 0.290517
Si Si4 0.692972 0.820285 0.051439
Si Si5 0.843203 0.321059 0.002134
Si Si6 0.151065 0.334709 0.703638
Si Si7 0.589587 0.327622 0.940399
Si Si8 0.500000 0.000000 0.171362
O O1 0.914941 0.500000 0.841004
O O2 0.883704 0.278615 0.927101
O O3 0.861841 0.260998 0.781890
O O4 0.000000 0.269510 0.839449
O O5 0.500000 0.334493 0.646060
O O6 0.382412 0.500000 0.635165
O O7 0.383547 0.255872 0.717501
O O8 0.387941 0.234800 0.572425
O O9 0.885823 0.500000 0.291087
O O10 0.885344 0.756361 0.363911
O O11 0.000000 0.675104 0.289940
O O12 0.691780 0.763212 0.134921
O O13 0.694061 0.000000 0.053920
O O14 0.763308 0.755720 0.009139
O O15 0.621477 0.765686 0.007145
O O16 0.836365 0.500000 0.003226
O O17 0.186727 0.500000 0.716311
O O18 0.066909 0.373278 0.676224
O O19 0.500000 0.323858 0.941328
O O20 0.613948 0.500000 0.945204
#
# Coordination Sequence:
#
# PCOD9375010 Si02
#       8
#     8   8   8   8   8   8   8   2
#     4   9  15  31  58  88 112 137 185 246 302 350
#     4  10  20  36  59  84 113 149 191 239 289 346
#     4   9  17  32  55  84 112 139 181 232 281 333
#     4  11  23  37  56  80 117 156 196 238 294 357
#     4  11  23  37  55  81 119 156 192 239 294 358
#     4   8  15  29  55  85 112 134 179 243 298 347
#     4  10  21  36  57  84 114 149 190 239 291 347
#     4   8  12  28  56  92 114 124 176 260 298 348
#
# _framework density 19.661543000000002
#
# number of rings (size 3 to 8) (size 9 to 14) (size 15 to 20)
#    0.414    1.931    0.690    2.483    0.966    3.862 
#    2.483    0.000    0.000    2.483    0.000    1.931 
#    0.000    0.000    0.000    0.000    0.000    0.000 
#
# Total GULP energy -161437.832468 kJ/mol
# GULP energy per Si atom -5566.821809 kJ/mol
# Density = 1.961679 g / cm^3
# Si number density = 19.661543 Si / 1000 Ang^3
#
#
#
# Elastic Constant Matrix: (Units=GPa)
#
#
# Indices 1 2 3 4 5 6 
#
# 1 17.3106 13.8474 22.4923 0.0000 0.0000 0.0000
# 2 13.8474 73.6007 46.2505 0.0000 0.0000 0.0000
# 3 22.4923 46.2505 173.0002 0.0000 0.0000 0.0000
# 4 0.0000 0.0000 0.0000 23.4201 0.0000 0.0000
# 5 0.0000 0.0000 0.0000 0.0000 93.4049 0.0000
# 6 0.0000 0.0000 0.0000 0.0000 0.0000 23.5774
#
#
#
# Elastic Compliance Matrix: (Units=1/GPa)
#
#
# Indices 1 2 3 4 5 6 
#
# 1 0.074716 -0.009559 -0.007159 0.000000 0.000000 0.000000
# 2 -0.009559 0.017553 -0.003450 0.000000 0.000000 0.000000
# 3 -0.007159 -0.003450 0.007633 0.000000 0.000000 0.000000
# 4 0.000000 0.000000 0.000000 0.042698 0.000000 0.000000
# 5 0.000000 0.000000 0.000000 0.000000 0.010706 0.000000
# 6 0.000000 0.000000 0.000000 0.000000 0.000000 0.042414
#
#
# Mechanical properties :
#
#
# Convention : Reuss Voigt Hill
#
# Bulk Modulus (GPa) = 16.78763 47.67688 32.23226
# Shear Modulus (GPa) = 19.53807 40.16857 29.85332
#
# Velocity S-wave (km/s) = 3.15575 4.52486 3.90084
# Velocity P-wave (km/s) = 4.67282 7.18336 6.05953
#
# Compressibility (1/GPa) = 0.05956767
#
# Stress axis : x y z
#
# Youngs Moduli (GPa) = 13.38407 56.96974 131.00376
#
# Poissons Ratio (x) = 0.54456 0.93780
# Poissons Ratio (y) = 0.12794 0.45196
# Poissons Ratio (z) = 0.09581 0.19654
#
# Static dielectric constant tensor:
#      x y z
#    x 1.683940 0.000000 0.000000 
#    y 0.000000 1.675920 0.000000 
#    z 0.000000 0.000000 1.705270 
# 
# From -- ./inp_files/22145.got.cif
#   From: 2010.05.17/outbox.cif.g08.bks.cpg/sg44_12_cif.got.tgz:22145.got - 2010.06.03 19:37:08.
