data_PCOD9375704
_publ_section_title
;
Structure prediction by ZEFSAII (Michael W. Deem and Ramdas Pophale) SiO2 
 PCOD9375704
Probable space group: I M M 2
;
_chemical_formula_sum "Si O2"
_cell_formula_units_Z 40
_cell_length_a 15.692860
_cell_length_b 21.760063
_cell_length_c 5.174061
_cell_angle_alpha 90.000000
_cell_angle_beta 90.000000
_cell_angle_gamma 90.000000
_cell_volume 1766.826048
_symmetry_space_group_name_H-M "I M M 2"
_symmetry_group_IT_number 44
_symmetry_cell_setting 'orthorhombic'
loop_
_space_group_symop_operation_xyz
x,y,z
-x,-y,z
-x,y,z
x,-y,z
1/2+x,1/2+y,1/2+z
1/2-x,1/2-y,1/2+z
1/2-x,1/2+y,1/2+z
1/2+x,1/2-y,1/2+z
loop_
_atom_site_type_symbol
_atom_site_label
_atom_site_fract_x
_atom_site_fract_y
_atom_site_fract_z
Si Si1 0.405591 0.068996 0.802630
Si Si2 0.734640 0.569210 0.959982
Si Si3 0.185011 0.658420 0.632017
Si Si4 0.405024 0.329868 0.011077
Si Si5 0.841632 0.237020 0.998435
O O1 0.500000 0.072899 0.678832
O O2 0.323950 0.069942 0.614943
O O3 0.403017 0.000000 0.929339
O O4 0.393862 0.128582 0.985481
O O5 0.703909 0.500000 0.948680
O O6 0.758264 0.597945 0.683082
O O7 0.662111 0.615526 0.052215
O O8 0.166341 0.692519 0.904846
O O9 0.246923 0.706282 0.485876
O O10 0.500000 0.353227 0.968099
O O11 0.379647 0.286557 0.768102
O O12 0.398466 0.290452 0.269772
#
# Coordination Sequence:
#
# PCOD9375704 Si02
#       5
#     8   8   8   8   8
#     4  10  22  40  64  96 132 172 226 285 342 408
#     4  10  22  41  66  93 130 177 224 278 342 402
#     4  11  22  41  65  97 130 181 222 280 339 411
#     4  11  24  44  66 100 139 177 225 279 336 404
#     4  11  24  40  69  98 137 177 223 277 339 399
#
# _framework density 22.639465999999999
#
# number of rings (size 3 to 8) (size 9 to 14) (size 15 to 20)
#    0.000    1.400    2.000    3.600    2.800    2.800 
#    0.000    2.000    0.000    2.400    0.000    0.000 
#    0.000    0.000    0.000    0.000    0.000    0.000 
#
# Total GULP energy -111609.907179 kJ/mol
# GULP energy per Si atom -5580.495359 kJ/mol
# Density = 2.258794 g / cm^3
# Si number density = 22.639466 Si / 1000 Ang^3
#
#
#
# Elastic Constant Matrix: (Units=GPa)
#
#
# Indices 1 2 3 4 5 6 
#
# 1 145.6841 40.1956 24.5630 0.0000 0.0000 0.0000
# 2 40.1956 135.3035 44.1478 0.0000 0.0000 0.0000
# 3 24.5630 44.1478 89.2955 0.0000 0.0000 0.0000
# 4 0.0000 0.0000 0.0000 31.6230 0.0000 0.0000
# 5 0.0000 0.0000 0.0000 0.0000 17.1725 0.0000
# 6 0.0000 0.0000 0.0000 0.0000 0.0000 22.8796
#
#
#
# Elastic Compliance Matrix: (Units=1/GPa)
#
#
# Indices 1 2 3 4 5 6 
#
# 1 0.007576 -0.001873 -0.001158 0.000000 0.000000 0.000000
# 2 -0.001873 0.009275 -0.004071 0.000000 0.000000 0.000000
# 3 -0.001158 -0.004071 0.013530 0.000000 0.000000 0.000000
# 4 0.000000 0.000000 0.000000 0.031623 0.000000 0.000000
# 5 0.000000 0.000000 0.000000 0.000000 0.058233 0.000000
# 6 0.000000 0.000000 0.000000 0.000000 0.000000 0.043707
#
#
# Mechanical properties :
#
#
# Convention : Reuss Voigt Hill
#
# Bulk Modulus (GPa) = 61.81100 65.34400 63.57750
# Shear Modulus (GPa) = 27.24212 31.76014 29.50113
#
# Velocity S-wave (km/s) = 3.47263 3.74955 3.61374
# Velocity P-wave (km/s) = 6.59094 6.90442 6.74950
#
# Compressibility (1/GPa) = 0.01617835
#
# Stress axis : x y z
#
# Youngs Moduli (GPa) = 131.99307 107.81270 73.91072
#
# Poissons Ratio (x) = 0.20192 0.08559
# Poissons Ratio (y) = 0.24720 0.30086
# Poissons Ratio (z) = 0.15286 0.43886
#
# Static dielectric constant tensor:
#      x y z
#    x 1.851190 0.000000 0.000000 
#    y 0.000000 1.880340 0.000000 
#    z 0.000000 0.000000 1.920340 
# 
# From -- ./inp_files/1970.got.cif
#   From: 2010.05.17/outbox.cif.g08.bks.cpg/sg44_1_cif.got.tgz:1970.got - 2010.06.03 19:37:08.
