data_PCOD9375049
_publ_section_title
;
Structure prediction by ZEFSAII (Michael W. Deem and Ramdas Pophale) SiO2 
 PCOD9375049
Probable space group: I M M 2
;
_chemical_formula_sum "Si O2"
_cell_formula_units_Z 64
_cell_length_a 16.126548
_cell_length_b 14.757182
_cell_length_c 12.339917
_cell_angle_alpha 90.000000
_cell_angle_beta 90.000000
_cell_angle_gamma 90.000000
_cell_volume 2936.683111
_symmetry_space_group_name_H-M "I M M 2"
_symmetry_group_IT_number 44
_symmetry_cell_setting 'orthorhombic'
loop_
_space_group_symop_operation_xyz
x,y,z
-x,-y,z
-x,y,z
x,-y,z
1/2+x,1/2+y,1/2+z
1/2-x,1/2-y,1/2+z
1/2-x,1/2+y,1/2+z
1/2+x,1/2-y,1/2+z
loop_
_atom_site_type_symbol
_atom_site_label
_atom_site_fract_x
_atom_site_fract_y
_atom_site_fract_z
Si Si1 0.405939 0.846181 0.819250
Si Si2 0.273697 0.602948 0.250395
Si Si3 0.407087 0.896265 0.259761
Si Si4 0.905145 0.132645 0.305327
Si Si5 0.278664 0.602968 0.000019
Si Si6 0.332450 0.104519 0.044402
Si Si7 0.649568 0.749821 0.416216
Si Si8 0.863089 0.097695 0.060976
O O1 0.500000 0.881614 0.801236
O O2 0.327123 0.890023 0.758317
O O3 0.405244 0.740710 0.792588
O O4 0.381528 0.851928 0.946225
O O5 0.295330 0.500000 0.286004
O O6 0.312271 0.680902 0.326253
O O7 0.302503 0.613762 0.126097
O O8 0.500000 0.899861 0.216033
O O9 0.350160 0.859161 0.163566
O O10 0.403299 0.826453 0.356943
O O11 0.382665 0.000000 0.288591
O O12 0.850424 0.107094 0.409230
O O13 0.870691 0.099119 0.190369
O O14 0.000000 0.102972 0.318946
O O15 0.242399 0.500000 0.992672
O O16 0.219851 0.687960 0.972395
O O17 0.234140 0.104099 0.030028
O O18 0.360234 0.000000 0.046586
O O19 0.602460 0.686444 0.502353
O O20 0.895861 0.000000 0.023819
#
# Coordination Sequence:
#
# PCOD9375049 Si02
#       8
#     8   8   8   8   8   8   8   8
#     4  11  22  37  63  99 136 172 216 267 329 394
#     4  11  24  42  64  95 134 175 218 270 327 392
#     4  10  23  41  62  94 134 172 216 271 329 386
#     4  11  24  42  65  95 130 168 219 280 331 384
#     4  11  24  42  65  93 128 171 219 274 329 385
#     4  10  20  36  61  95 131 170 214 261 318 390
#     4  12  23  39  69  94 129 170 221 265 324 398
#     4  11  23  40  66  97 130 170 218 271 327 389
#
# _framework density 21.793295000000001
#
# number of rings (size 3 to 8) (size 9 to 14) (size 15 to 20)
#    0.000    1.125    2.500    3.375    3.500    4.000 
#    0.000    0.625    0.000    2.625    0.000    0.000 
#    0.000    0.000    0.000    0.000    0.000    0.000 
#
# Total GULP energy -178699.560594 kJ/mol
# GULP energy per Si atom -5584.361269 kJ/mol
# Density = 2.174369 g / cm^3
# Si number density = 21.793295 Si / 1000 Ang^3
#
#
#
# Elastic Constant Matrix: (Units=GPa)
#
#
# Indices 1 2 3 4 5 6 
#
# 1 51.6349 11.9194 25.5452 0.0000 0.0000 0.0000
# 2 11.9194 147.4232 51.3147 0.0000 0.0000 0.0000
# 3 25.5452 51.3147 128.6396 0.0000 0.0000 0.0000
# 4 0.0000 0.0000 0.0000 82.7535 0.0000 0.0000
# 5 0.0000 0.0000 0.0000 0.0000 12.6407 0.0000
# 6 0.0000 0.0000 0.0000 0.0000 0.0000 12.9009
#
#
#
# Elastic Compliance Matrix: (Units=1/GPa)
#
#
# Indices 1 2 3 4 5 6 
#
# 1 0.021488 -0.000293 -0.004150 0.000000 0.000000 0.000000
# 2 -0.000293 0.007881 -0.003086 0.000000 0.000000 0.000000
# 3 -0.004150 -0.003086 0.009829 0.000000 0.000000 0.000000
# 4 0.000000 0.000000 0.000000 0.012084 0.000000 0.000000
# 5 0.000000 0.000000 0.000000 0.000000 0.079110 0.000000
# 6 0.000000 0.000000 0.000000 0.000000 0.000000 0.077514
#
#
# Mechanical properties :
#
#
# Convention : Reuss Voigt Hill
#
# Bulk Modulus (GPa) = 41.42491 56.13957 48.78224
# Shear Modulus (GPa) = 21.64422 37.58691 29.61557
#
# Velocity S-wave (km/s) = 3.15486 4.15746 3.69037
# Velocity P-wave (km/s) = 5.68509 6.99013 6.37111
#
# Compressibility (1/GPa) = 0.02414006
#
# Stress axis : x y z
#
# Youngs Moduli (GPa) = 46.53857 126.88937 101.74329
#
# Poissons Ratio (x) = 0.03714 0.42226
# Poissons Ratio (y) = 0.01362 0.31394
# Poissons Ratio (z) = 0.19315 0.39153
#
# Static dielectric constant tensor:
#      x y z
#    x 1.800460 0.000000 0.000000 
#    y 0.000000 1.822970 0.000000 
#    z 0.000000 0.000000 1.825570 
# 
# From -- ./inp_files/13986.got.cif
#   From: 2010.05.17/outbox.cif.g08.bks.cpg/sg44_7_cif.got.tgz:13986.got - 2010.06.03 19:37:08.
