data_PCOD9375508
_publ_section_title
;
Structure prediction by ZEFSAII (Michael W. Deem and Ramdas Pophale) SiO2 
 PCOD9375508
Probable space group: I M M 2
;
_chemical_formula_sum "Si O2"
_cell_formula_units_Z 64
_cell_length_a 22.793966
_cell_length_b 13.504409
_cell_length_c 10.075584
_cell_angle_alpha 90.000000
_cell_angle_beta 90.000000
_cell_angle_gamma 90.000000
_cell_volume 3101.456590
_symmetry_space_group_name_H-M "I M M 2"
_symmetry_group_IT_number 44
_symmetry_cell_setting 'orthorhombic'
loop_
_space_group_symop_operation_xyz
x,y,z
-x,-y,z
-x,y,z
x,-y,z
1/2+x,1/2+y,1/2+z
1/2-x,1/2-y,1/2+z
1/2-x,1/2+y,1/2+z
1/2+x,1/2-y,1/2+z
loop_
_atom_site_type_symbol
_atom_site_label
_atom_site_fract_x
_atom_site_fract_y
_atom_site_fract_z
Si Si1 0.353468 0.797841 0.668520
Si Si2 0.258824 0.760232 0.880055
Si Si3 0.431633 0.244485 0.887403
Si Si4 0.344142 0.383273 0.503041
Si Si5 0.350319 0.382557 0.015089
Si Si6 0.341008 0.883265 0.373474
Si Si7 0.067485 0.118654 0.770247
Si Si8 0.930429 0.385824 0.644896
O O1 0.299436 0.810381 0.769430
O O2 0.410579 0.813837 0.757429
O O3 0.352771 0.681826 0.632250
O O4 0.349730 0.853589 0.528322
O O5 0.217125 0.843041 0.943743
O O6 0.213839 0.679714 0.820931
O O7 0.297072 0.693901 0.984330
O O8 0.500000 0.261436 0.886646
O O9 0.397700 0.347848 0.905709
O O10 0.415829 0.179311 0.016834
O O11 0.343132 0.500000 0.521288
O O12 0.397933 0.355441 0.404497
O O13 0.334734 0.500000 0.009035
O O14 0.385967 0.363560 0.151744
O O15 0.395737 0.858844 0.278323
O O16 0.330104 0.000000 0.366300
O O17 0.000000 0.157631 0.754416
O O18 0.061449 0.000000 0.772269
O O19 0.915889 0.500000 0.614870
O O20 0.000000 0.379449 0.667059
#
# Coordination Sequence:
#
# PCOD9375508 Si02
#       8
#     8   8   8   8   8   8   8   8
#     4  10  24  40  58  91 130 158 208 261 321 383
#     4  10  23  40  59  86 127 165 210 260 320 393
#     4  10  22  39  62  92 126 168 211 257 322 391
#     4  10  23  40  61  89 128 170 209 261 326 392
#     4  10  21  38  61  89 123 162 208 267 317 374
#     4  10  22  40  64  91 119 162 214 264 318 376
#     4   9  19  36  61  92 121 159 212 263 319 381
#     4   9  20  40  64  91 125 165 212 263 316 378
#
# _framework density 20.635466000000001
#
# number of rings (size 3 to 8) (size 9 to 14) (size 15 to 20)
#    0.000    2.250    0.000    0.750    7.000    7.250 
#    0.000    4.375    0.000    0.000    0.000    0.000 
#    0.000    0.000    0.000    0.000    0.000    0.000 
#
# Total GULP energy -178479.541368 kJ/mol
# GULP energy per Si atom -5577.485668 kJ/mol
# Density = 2.058850 g / cm^3
# Si number density = 20.635466 Si / 1000 Ang^3
#
#
#
# Elastic Constant Matrix: (Units=GPa)
#
#
# Indices 1 2 3 4 5 6 
#
# 1 76.4991 8.4963 22.5596 0.0000 0.0000 0.0000
# 2 8.4963 64.6038 -14.0221 0.0000 0.0000 0.0000
# 3 22.5596 -14.0221 58.1595 0.0000 0.0000 0.0000
# 4 0.0000 0.0000 0.0000 18.3083 0.0000 0.0000
# 5 0.0000 0.0000 0.0000 0.0000 27.2070 0.0000
# 6 0.0000 0.0000 0.0000 0.0000 0.0000 12.6185
#
#
#
# Elastic Compliance Matrix: (Units=1/GPa)
#
#
# Indices 1 2 3 4 5 6 
#
# 1 0.015486 -0.003525 -0.006857 0.000000 0.000000 0.000000
# 2 -0.003525 0.017136 0.005499 0.000000 0.000000 0.000000
# 3 -0.006857 0.005499 0.021179 0.000000 0.000000 0.000000
# 4 0.000000 0.000000 0.000000 0.054620 0.000000 0.000000
# 5 0.000000 0.000000 0.000000 0.000000 0.036755 0.000000
# 6 0.000000 0.000000 0.000000 0.000000 0.000000 0.079249
#
#
# Mechanical properties :
#
#
# Convention : Reuss Voigt Hill
#
# Bulk Modulus (GPa) = 22.70885 25.92556 24.31720
# Shear Modulus (GPa) = 20.09091 23.77533 21.93312
#
# Velocity S-wave (km/s) = 3.12366 3.39803 3.26373
# Velocity P-wave (km/s) = 4.90289 5.29021 5.10023
#
# Compressibility (1/GPa) = 0.04403569
#
# Stress axis : x y z
#
# Youngs Moduli (GPa) = 64.57647 58.35669 47.21566
#
# Poissons Ratio (x) = 0.20569 0.32374
# Poissons Ratio (y) = 0.22762 -0.25962
# Poissons Ratio (z) = 0.44277 -0.32088
#
# Static dielectric constant tensor:
#      x y z
#    x 1.763710 0.000000 0.000000 
#    y 0.000000 1.760410 0.000000 
#    z 0.000000 0.000000 1.747550 
# 
# From -- ./inp_files/9465.got.cif
#   From: 2010.05.17/outbox.cif.g08.bks.cpg/sg44_5_cif.got.tgz:9465.got - 2010.06.03 19:37:08.
