data_PCOD9375358
_publ_section_title
;
Structure prediction by ZEFSAII (Michael W. Deem and Ramdas Pophale) SiO2 
 PCOD9375358
Probable space group: I M M 2
;
_chemical_formula_sum "Si O2"
_cell_formula_units_Z 40
_cell_length_a 11.776397
_cell_length_b 7.583239
_cell_length_c 24.127171
_cell_angle_alpha 90.000000
_cell_angle_beta 90.000000
_cell_angle_gamma 90.000000
_cell_volume 2154.634374
_symmetry_space_group_name_H-M "I M M 2"
_symmetry_group_IT_number 44
_symmetry_cell_setting 'orthorhombic'
loop_
_space_group_symop_operation_xyz
x,y,z
-x,-y,z
-x,y,z
x,-y,z
1/2+x,1/2+y,1/2+z
1/2-x,1/2-y,1/2+z
1/2-x,1/2+y,1/2+z
1/2+x,1/2-y,1/2+z
loop_
_atom_site_type_symbol
_atom_site_label
_atom_site_fract_x
_atom_site_fract_y
_atom_site_fract_z
Si Si1 0.865753 0.000000 0.937521
Si Si2 0.713128 0.205036 0.649762
Si Si3 0.130353 0.287489 0.748573
Si Si4 0.000000 0.713198 0.223274
Si Si5 0.500000 0.213166 0.848888
Si Si6 0.638523 0.500000 0.568579
Si Si7 0.754283 0.704311 0.863619
O O1 0.814965 0.829481 0.907272
O O2 0.000000 0.000000 0.929602
O O3 0.842534 0.000000 0.002963
O O4 0.822128 0.222212 0.689628
O O5 0.611097 0.265664 0.690169
O O6 0.697925 0.331443 0.597428
O O7 0.697482 0.000000 0.634855
O O8 0.133119 0.500000 0.746239
O O9 0.208766 0.235225 0.801202
O O10 0.000000 0.231923 0.758088
O O11 0.000000 0.777805 0.285407
O O12 0.000000 0.500000 0.225699
O O13 0.380601 0.277508 0.872367
O O14 0.500000 0.000000 0.850578
O O15 0.500000 0.500000 0.577829
O O16 0.788127 0.500000 0.868880
#
# Coordination Sequence:
#
# PCOD9375358 Si02
#       7
#     4   8   8   4   4   4   8
#     4  11  26  45  65  89 123 172 218 261 312 374
#     4  11  21  36  60  91 123 157 200 250 307 368
#     4  10  21  36  58  91 130 167 200 246 313 381
#     4   9  18  30  54  94 126 152 186 240 309 370
#     4  11  19  35  63  96 129 163 202 251 324 378
#     4  11  24  42  64  90 122 164 211 258 309 361
#     4  11  23  40  63  94 128 163 209 262 315 379
#
# _framework density 18.564633000000001
#
# number of rings (size 3 to 8) (size 9 to 14) (size 15 to 20)
#    0.000    1.400    5.000    0.900    1.400    2.400 
#    1.800    2.000    4.400    0.000    0.000    0.000 
#    0.000    0.000    0.000    0.000    0.000    0.000 
#
# Total GULP energy -111677.510625 kJ/mol
# GULP energy per Si atom -5583.875531 kJ/mol
# Density = 1.852238 g / cm^3
# Si number density = 18.564633 Si / 1000 Ang^3
#
#
#
# Elastic Constant Matrix: (Units=GPa)
#
#
# Indices 1 2 3 4 5 6 
#
# 1 105.7889 27.3665 50.1960 0.0000 0.0000 0.0000
# 2 27.3665 115.0966 61.9645 0.0000 0.0000 0.0000
# 3 50.1960 61.9645 123.2324 0.0000 0.0000 0.0000
# 4 0.0000 0.0000 0.0000 26.1683 0.0000 0.0000
# 5 0.0000 0.0000 0.0000 0.0000 27.5698 0.0000
# 6 0.0000 0.0000 0.0000 0.0000 0.0000 17.4672
#
#
#
# Elastic Compliance Matrix: (Units=1/GPa)
#
#
# Indices 1 2 3 4 5 6 
#
# 1 0.011725 -0.000297 -0.004626 0.000000 0.000000 0.000000
# 2 -0.000297 0.011921 -0.005873 0.000000 0.000000 0.000000
# 3 -0.004626 -0.005873 0.012952 0.000000 0.000000 0.000000
# 4 0.000000 0.000000 0.000000 0.038214 0.000000 0.000000
# 5 0.000000 0.000000 0.000000 0.000000 0.036272 0.000000
# 6 0.000000 0.000000 0.000000 0.000000 0.000000 0.057250
#
#
# Mechanical properties :
#
#
# Convention : Reuss Voigt Hill
#
# Bulk Modulus (GPa) = 66.64534 69.24131 67.94333
# Shear Modulus (GPa) = 25.65038 27.88048 26.76543
#
# Velocity S-wave (km/s) = 3.72113 3.87952 3.80115
# Velocity P-wave (km/s) = 7.37831 7.57931 7.47948
#
# Compressibility (1/GPa) = 0.01500480
#
# Stress axis : x y z
#
# Youngs Moduli (GPa) = 85.28880 83.88628 77.20566
#
# Poissons Ratio (x) = 0.02492 0.35719
# Poissons Ratio (y) = 0.02534 0.45344
# Poissons Ratio (z) = 0.39459 0.49268
#
# Static dielectric constant tensor:
#      x y z
#    x 1.656030 0.000000 0.000000 
#    y 0.000000 1.677680 0.000000 
#    z 0.000000 0.000000 1.607360 
# 
# From -- ./inp_files/23624.got.cif
#   From: 2010.05.17/outbox.cif.g08.bks.cpg/sg44_12_cif.got.tgz:23624.got - 2010.06.03 19:37:08.
