data_PCOD9375766
_publ_section_title
;
Structure prediction by ZEFSAII (Michael W. Deem and Ramdas Pophale) SiO2 
 PCOD9375766
Probable space group: I M M 2
;
_chemical_formula_sum "Si O2"
_cell_formula_units_Z 32
_cell_length_a 7.822570
_cell_length_b 15.438036
_cell_length_c 14.118247
_cell_angle_alpha 90.000000
_cell_angle_beta 90.000000
_cell_angle_gamma 90.000000
_cell_volume 1704.991755
_symmetry_space_group_name_H-M "I M M 2"
_symmetry_group_IT_number 44
_symmetry_cell_setting 'orthorhombic'
loop_
_space_group_symop_operation_xyz
x,y,z
-x,-y,z
-x,y,z
x,-y,z
1/2+x,1/2+y,1/2+z
1/2-x,1/2-y,1/2+z
1/2-x,1/2+y,1/2+z
1/2+x,1/2-y,1/2+z
loop_
_atom_site_type_symbol
_atom_site_label
_atom_site_fract_x
_atom_site_fract_y
_atom_site_fract_z
Si Si1 0.500000 0.602037 0.431391
Si Si2 0.795240 0.500000 0.724200
Si Si3 0.000000 0.899252 0.727049
Si Si4 0.296177 0.851266 0.072540
Si Si5 0.298513 0.500000 0.945651
Si Si6 0.699109 0.149443 0.588927
O O1 0.500000 0.500000 0.424373
O O2 0.500000 0.646623 0.328704
O O3 0.327509 0.622613 0.487527
O O4 0.749704 0.414178 0.661886
O O5 0.728131 0.500000 0.832066
O O6 0.000000 0.500000 0.732193
O O7 0.829836 0.882126 0.668213
O O8 0.000000 0.000000 0.743791
O O9 0.500000 0.862468 0.056418
O O10 0.253533 0.749717 0.080743
O O11 0.500000 0.500000 0.965382
O O12 0.225361 0.586379 0.997573
O O13 0.500000 0.144429 0.614766
#
# Coordination Sequence:
#
# PCOD9375766 Si02
#       6
#     4   4   4   8   4   8
#     4  11  24  42  68  93 131 172 217 264 322 384
#     4  10  24  42  66  99 132 169 218 272 324 389
#     4  11  24  44  64  95 129 170 219 266 318 388
#     4  11  23  43  68  96 134 170 214 267 326 388
#     4  12  24  42  68  98 133 170 218 273 329 391
#     4  12  23  42  69  94 133 172 213 268 328 386
#
# _framework density 18.768419999999999
#
# number of rings (size 3 to 8) (size 9 to 14) (size 15 to 20)
#    0.000    0.750    6.250    1.125    1.750    3.000 
#    0.000    2.500    0.000    0.000    0.000    0.000 
#    0.000    0.000    0.000    0.000    0.000    0.000 
#
# Total GULP energy -89185.737167 kJ/mol
# GULP energy per Si atom -5574.108573 kJ/mol
# Density = 1.872570 g / cm^3
# Si number density = 18.768420 Si / 1000 Ang^3
#
#
#
# Elastic Constant Matrix: (Units=GPa)
#
#
# Indices 1 2 3 4 5 6 
#
# 1 160.4523 28.4773 70.0271 0.0000 0.0000 0.0000
# 2 28.4773 132.0734 55.4002 0.0000 0.0000 0.0000
# 3 70.0271 55.4002 153.1754 0.0000 0.0000 0.0000
# 4 0.0000 0.0000 0.0000 -1.5293 0.0000 0.0000
# 5 0.0000 0.0000 0.0000 0.0000 7.7399 0.0000
# 6 0.0000 0.0000 0.0000 0.0000 0.0000 32.7937
#
#
#
# Elastic Compliance Matrix: (Units=1/GPa)
#
#
# Indices 1 2 3 4 5 6 
#
# 1 0.007791 -0.000219 -0.003483 0.000000 0.000000 0.000000
# 2 -0.000219 0.008932 -0.003130 0.000000 0.000000 0.000000
# 3 -0.003483 -0.003130 0.009253 0.000000 0.000000 0.000000
# 4 0.000000 0.000000 0.000000 -0.653880 0.000000 0.000000
# 5 0.000000 0.000000 0.000000 0.000000 0.129200 0.000000
# 6 0.000000 0.000000 0.000000 0.000000 0.000000 0.030494
#
#
# Mechanical properties :
#
#
# Convention : Reuss Voigt Hill
#
# Bulk Modulus (GPa) = 81.22305 83.72337 82.47321
# Shear Modulus (GPa) = -11.10019 27.25397 8.07689
#
# Velocity S-wave (km/s) = -2.43457 3.81480 2.07673
# Velocity P-wave (km/s) = 5.95546 8.00682 7.05608
#
# Compressibility (1/GPa) = 0.01231178
#
# Stress axis : x y z
#
# Youngs Moduli (GPa) = 128.34953 111.95917 108.07543
#
# Poissons Ratio (x) = 0.02453 0.37639
# Poissons Ratio (y) = 0.02812 0.33831
# Poissons Ratio (z) = 0.44700 0.35047
#
# Static dielectric constant tensor:
#      x y z
#    x 1.603180 0.000000 0.000000 
#    y 0.000000 1.138130 0.000000 
#    z 0.000000 0.000000 1.863930 
# 
# From -- ./inp_files/10680.got.cif
#   From: 2010.05.17/outbox.cif.g08.bks.cpg/sg44_6_cif.got.tgz:10680.got - 2010.06.03 19:37:08.
