data_PCOD9375634
_publ_section_title
;
Structure prediction by ZEFSAII (Michael W. Deem and Ramdas Pophale) SiO2 
 PCOD9375634
Probable space group: I M M 2
;
_chemical_formula_sum "Si O2"
_cell_formula_units_Z 40
_cell_length_a 26.741711
_cell_length_b 8.758122
_cell_length_c 9.305763
_cell_angle_alpha 90.000000
_cell_angle_beta 90.000000
_cell_angle_gamma 90.000000
_cell_volume 2179.476393
_symmetry_space_group_name_H-M "I M M 2"
_symmetry_group_IT_number 44
_symmetry_cell_setting 'orthorhombic'
loop_
_space_group_symop_operation_xyz
x,y,z
-x,-y,z
-x,y,z
x,-y,z
1/2+x,1/2+y,1/2+z
1/2-x,1/2-y,1/2+z
1/2-x,1/2+y,1/2+z
1/2+x,1/2-y,1/2+z
loop_
_atom_site_type_symbol
_atom_site_label
_atom_site_fract_x
_atom_site_fract_y
_atom_site_fract_z
Si Si1 0.000000 0.675183 0.830271
Si Si2 0.792855 0.316246 0.677139
Si Si3 0.801787 0.682556 0.342475
Si Si4 0.000000 0.675546 0.180206
Si Si5 0.391791 0.185535 0.354197
Si Si6 0.894628 0.818220 0.173917
O O1 0.054394 0.741225 0.792812
O O2 0.000000 0.500000 0.778436
O O3 0.000000 0.674724 0.005041
O O4 0.786711 0.500000 0.688364
O O5 0.795131 0.276158 0.509480
O O6 0.746517 0.236915 0.754588
O O7 0.844738 0.275547 0.755784
O O8 0.806838 0.500000 0.332159
O O9 0.850823 0.758999 0.275834
O O10 0.051123 0.757618 0.223402
O O11 0.000000 0.500000 0.227813
O O12 0.385408 0.251785 0.513795
O O13 0.394629 0.000000 0.365952
O O14 0.894920 0.000000 0.167037
#
# Coordination Sequence:
#
# PCOD9375634 Si02
#       6
#     4   8   8   4   8   8
#     4   7  12  25  50  79 104 136 174 210 252 307
#     4  10  22  38  56  80 107 140 185 231 275 327
#     4  11  23  38  55  77 107 143 182 226 278 331
#     4   9  17  33  56  81 110 146 184 220 264 315
#     4   9  17  33  56  81 111 145 182 224 270 319
#     4  11  21  34  55  84 114 144 181 223 268 320
#
# _framework density 18.353031000000001
#
# number of rings (size 3 to 8) (size 9 to 14) (size 15 to 20)
#    0.000    2.200    0.000    5.100    0.000    5.600 
#    0.000    1.000    0.000    3.600    0.000    2.800 
#    0.000    0.000    0.000    0.000    0.000    0.000 
#
# Total GULP energy -111617.180232 kJ/mol
# GULP energy per Si atom -5580.859012 kJ/mol
# Density = 1.831126 g / cm^3
# Si number density = 18.353031 Si / 1000 Ang^3
#
#
#
# Elastic Constant Matrix: (Units=GPa)
#
#
# Indices 1 2 3 4 5 6 
#
# 1 200.6402 69.7482 88.1396 0.0000 0.0000 0.0000
# 2 69.7482 62.8797 49.9405 0.0000 0.0000 0.0000
# 3 88.1396 49.9405 98.1721 0.0000 0.0000 0.0000
# 4 0.0000 0.0000 0.0000 19.5851 0.0000 0.0000
# 5 0.0000 0.0000 0.0000 0.0000 31.2134 0.0000
# 6 0.0000 0.0000 0.0000 0.0000 0.0000 -50.7669
#
#
#
# Elastic Compliance Matrix: (Units=1/GPa)
#
#
# Indices 1 2 3 4 5 6 
#
# 1 0.009529 -0.006334 -0.005333 0.000000 0.000000 0.000000
# 2 -0.006334 0.030895 -0.010030 0.000000 0.000000 0.000000
# 3 -0.005333 -0.010030 0.020076 0.000000 0.000000 0.000000
# 4 0.000000 0.000000 0.000000 0.051059 0.000000 0.000000
# 5 0.000000 0.000000 0.000000 0.000000 0.032037 0.000000
# 6 0.000000 0.000000 0.000000 0.000000 0.000000 -0.019698
#
#
# Mechanical properties :
#
#
# Convention : Reuss Voigt Hill
#
# Bulk Modulus (GPa) = 58.45598 86.37207 72.41402
# Shear Modulus (GPa) = 28.90281 10.26391 19.58336
#
# Velocity S-wave (km/s) = 3.97271 2.36741 3.27010
# Velocity P-wave (km/s) = 7.27759 7.39165 7.33484
#
# Compressibility (1/GPa) = 0.01710689
#
# Stress axis : x y z
#
# Youngs Moduli (GPa) = 104.94819 32.36758 49.81070
#
# Poissons Ratio (x) = 0.20502 0.26562
# Poissons Ratio (y) = 0.66475 0.49959
# Poissons Ratio (z) = 0.55965 0.32464
#
# Static dielectric constant tensor:
#      x y z
#    x 1.642750 0.000000 0.000000 
#    y 0.000000 1.620770 0.000000 
#    z 0.000000 0.000000 1.601990 
# 
# From -- ./inp_files/9624.got.cif
#   From: 2010.05.17/outbox.cif.g08.bks.cpg/sg44_5_cif.got.tgz:9624.got - 2010.06.03 19:37:08.
