data_PCOD9375373
_publ_section_title
;
Structure prediction by ZEFSAII (Michael W. Deem and Ramdas Pophale) SiO2 
 PCOD9375373
Probable space group: I M M 2
;
_chemical_formula_sum "Si O2"
_cell_formula_units_Z 48
_cell_length_a 11.237377
_cell_length_b 32.778249
_cell_length_c 7.424299
_cell_angle_alpha 90.000000
_cell_angle_beta 90.000000
_cell_angle_gamma 90.000000
_cell_volume 2734.677738
_symmetry_space_group_name_H-M "I M M 2"
_symmetry_group_IT_number 44
_symmetry_cell_setting 'orthorhombic'
loop_
_space_group_symop_operation_xyz
x,y,z
-x,-y,z
-x,y,z
x,-y,z
1/2+x,1/2+y,1/2+z
1/2-x,1/2-y,1/2+z
1/2-x,1/2+y,1/2+z
1/2+x,1/2-y,1/2+z
loop_
_atom_site_type_symbol
_atom_site_label
_atom_site_fract_x
_atom_site_fract_y
_atom_site_fract_z
Si Si1 0.705320 0.306805 0.127420
Si Si2 0.130489 0.764321 0.988763
Si Si3 0.358182 0.045532 0.966421
Si Si4 0.638354 0.884181 0.701062
Si Si5 0.136815 0.395210 0.779225
Si Si6 0.368428 0.659712 0.757689
O O1 0.641960 0.285310 0.294444
O O2 0.790601 0.341954 0.207617
O O3 0.776913 0.271205 0.025511
O O4 0.632194 0.328246 0.968556
O O5 0.000000 0.745504 0.006657
O O6 0.142354 0.799832 0.136693
O O7 0.500000 0.043034 0.929391
O O8 0.312619 0.080634 0.831929
O O9 0.308573 0.000000 0.945256
O O10 0.346937 0.063299 0.167559
O O11 0.500000 0.876584 0.747774
O O12 0.642366 0.899389 0.494402
O O13 0.248139 0.366383 0.727191
O O14 0.000000 0.380326 0.737538
O O15 0.500000 0.641361 0.715389
#
# Coordination Sequence:
#
# PCOD9375373 Si02
#       6
#     8   8   8   8   8   8
#     4  11  20  36  52  74 103 142 184 226 269 316
#     4  11  22  35  51  74 104 140 184 228 271 318
#     4   9  17  30  50  79 110 136 169 216 269 323
#     4   9  18  31  49  73 103 137 174 216 266 317
#     4   9  18  33  53  78 104 137 176 215 264 321
#     4  10  21  37  54  77 106 140 181 225 272 320
#
# _framework density 17.552341999999999
#
# number of rings (size 3 to 8) (size 9 to 14) (size 15 to 20)
#    0.000    2.167    1.667    2.000    0.000    1.333 
#    0.000    4.167    0.000    0.500    0.000    0.000 
#    0.000    0.000    0.000    0.000    0.000    0.000 
#
# Total GULP energy -133659.183100 kJ/mol
# GULP energy per Si atom -5569.132629 kJ/mol
# Density = 1.751239 g / cm^3
# Si number density = 17.552342 Si / 1000 Ang^3
#
#
#
# Elastic Constant Matrix: (Units=GPa)
#
#
# Indices 1 2 3 4 5 6 
#
# 1 81.3078 30.6081 13.0670 -0.0008 0.0068 -0.0002
# 2 30.6081 69.6473 17.3988 -0.0009 0.0007 0.0004
# 3 13.0670 17.3988 42.9140 -0.0048 0.0458 0.0028
# 4 -0.0008 -0.0009 -0.0048 19.1546 -0.0086 0.0009
# 5 0.0068 0.0007 0.0458 -0.0086 46.8669 0.0039
# 6 -0.0002 0.0004 0.0028 0.0009 0.0039 21.6624
#
#
#
# Elastic Compliance Matrix: (Units=1/GPa)
#
#
# Indices 1 2 3 4 5 6 
#
# 1 0.014904 -0.006027 -0.002095 0.000000 0.000000 0.000000
# 2 -0.006027 0.018413 -0.005630 -0.000001 0.000006 0.000000
# 3 -0.002095 -0.005630 0.026223 0.000006 -0.000025 -0.000003
# 4 0.000000 -0.000001 0.000006 0.052207 0.000010 -0.000002
# 5 0.000000 0.000006 -0.000025 0.000010 0.021337 -0.000004
# 6 0.000000 0.000000 -0.000003 -0.000002 -0.000004 0.046163
#
#
# Mechanical properties :
#
#
# Convention : Reuss Voigt Hill
#
# Bulk Modulus (GPa) = 31.21400 35.11299 33.16350
# Shear Modulus (GPa) = 22.99591 26.38978 24.69284
#
# Velocity S-wave (km/s) = 3.62350 3.88169 3.75482
# Velocity P-wave (km/s) = 5.94377 6.33547 6.14274
#
# Compressibility (1/GPa) = 0.03203690
#
# Stress axis : x y z
#
# Youngs Moduli (GPa) = 67.09454 54.30898 38.13451
#
# Poissons Ratio (x) = 0.32731 0.07988
# Poissons Ratio (y) = 0.40436 0.21471
# Poissons Ratio (z) = 0.14055 0.30577
#
# Static dielectric constant tensor:
#      x y z
#    x 1.611170 0.000000 0.000010 
#    y 0.000000 1.576180 0.000000 
#    z 0.000010 0.000000 1.607350 
# 
# From -- ./inp_files/6118.got.cif
#   From: 2010.05.17/outbox.cif.g08.bks.cpg/sg44_4_cif.got.tgz:6118.got - 2010.06.03 19:37:08.
