data_PCOD9375514
_publ_section_title
;
Structure prediction by ZEFSAII (Michael W. Deem and Ramdas Pophale) SiO2 
 PCOD9375514
Probable space group: I M M 2
;
_chemical_formula_sum "Si O2"
_cell_formula_units_Z 64
_cell_length_a 15.582390
_cell_length_b 24.917837
_cell_length_c 8.443082
_cell_angle_alpha 90.000000
_cell_angle_beta 90.000000
_cell_angle_gamma 90.000000
_cell_volume 3278.275270
_symmetry_space_group_name_H-M "I M M 2"
_symmetry_group_IT_number 44
_symmetry_cell_setting 'orthorhombic'
loop_
_space_group_symop_operation_xyz
x,y,z
-x,-y,z
-x,y,z
x,-y,z
1/2+x,1/2+y,1/2+z
1/2-x,1/2-y,1/2+z
1/2-x,1/2+y,1/2+z
1/2+x,1/2-y,1/2+z
loop_
_atom_site_type_symbol
_atom_site_label
_atom_site_fract_x
_atom_site_fract_y
_atom_site_fract_z
Si Si1 0.404552 0.902772 0.584340
Si Si2 0.403368 0.356326 0.070716
Si Si3 0.228370 0.938662 0.441017
Si Si4 0.400318 0.936017 0.952608
Si Si5 0.303100 0.286990 0.854101
Si Si6 0.756806 0.120311 0.124725
Si Si7 0.404217 0.671211 0.427340
Si Si8 0.148363 0.718941 0.088566
O O1 0.500000 0.919309 0.532654
O O2 0.327402 0.926724 0.482255
O O3 0.393125 0.921556 0.766138
O O4 0.396436 0.838201 0.574466
O O5 0.500000 0.377856 0.064306
O O6 0.331319 0.401496 0.050037
O O7 0.385655 0.317394 0.922454
O O8 0.393346 0.326058 0.237939
O O9 0.214551 0.921990 0.258744
O O10 0.208670 0.000000 0.468424
O O11 0.500000 0.925622 0.998704
O O12 0.383939 0.000000 0.973248
O O13 0.330811 0.900794 0.047460
O O14 0.253990 0.324122 0.725229
O O15 0.238669 0.282578 0.998313
O O16 0.331706 0.232876 0.770439
O O17 0.830445 0.133116 0.997255
O O18 0.500000 0.649943 0.458947
O O19 0.397496 0.729597 0.509790
#
# Coordination Sequence:
#
# PCOD9375514 Si02
#       8
#     8   8   8   8   8   8   8   8
#     4  11  23  39  60  88 120 157 202 247 295 353
#     4  10  21  41  63  90 120 155 199 242 297 356
#     4  11  23  40  61  88 118 155 200 249 301 348
#     4  10  22  40  61  86 116 155 202 252 303 350
#     4  10  22  35  61  90 121 159 193 239 291 356
#     4  10  21  38  62  86 118 158 194 243 298 357
#     4  10  22  39  63  89 121 158 194 240 294 356
#     4  11  21  37  60  88 124 155 199 237 292 353
#
# _framework density 19.522459999999999
#
# number of rings (size 3 to 8) (size 9 to 14) (size 15 to 20)
#    0.000    1.625    2.500    2.625    3.500    6.500 
#    0.000    0.625    0.000    2.625    0.000    0.000 
#    0.000    0.000    0.000    0.000    0.000    0.000 
#
# Total GULP energy -178613.410182 kJ/mol
# GULP energy per Si atom -5581.669068 kJ/mol
# Density = 1.947803 g / cm^3
# Si number density = 19.522460 Si / 1000 Ang^3
#
#
#
# Elastic Constant Matrix: (Units=GPa)
#
#
# Indices 1 2 3 4 5 6 
#
# 1 95.6440 14.8046 23.5626 -0.0001 0.0000 0.0000
# 2 14.8046 43.7240 10.9204 0.0001 0.0000 0.0000
# 3 23.5626 10.9204 48.9378 0.0010 0.0001 0.0005
# 4 -0.0001 0.0001 0.0010 20.4218 0.0001 0.0002
# 5 0.0000 0.0000 0.0001 0.0001 28.4770 0.0001
# 6 0.0000 0.0000 0.0005 0.0002 0.0001 -2.4671
#
#
#
# Elastic Compliance Matrix: (Units=1/GPa)
#
#
# Indices 1 2 3 4 5 6 
#
# 1 0.012182 -0.002817 -0.005237 0.000000 0.000000 -0.000001
# 2 -0.002817 0.024872 -0.004194 0.000000 0.000000 0.000000
# 3 -0.005237 -0.004194 0.023891 -0.000001 0.000000 0.000005
# 4 0.000000 0.000000 -0.000001 0.048967 0.000000 0.000003
# 5 0.000000 0.000000 0.000000 0.000000 0.035116 0.000001
# 6 -0.000001 0.000000 0.000005 0.000003 0.000001 -0.405328
#
#
# Mechanical properties :
#
#
# Convention : Reuss Voigt Hill
#
# Bulk Modulus (GPa) = 27.43468 31.87568 29.65518
# Shear Modulus (GPa) = -22.35579 18.55422 -1.90078
#
# Velocity S-wave (km/s) = -3.38765 3.08621 -0.98780
# Velocity P-wave (km/s) = 1.10371 5.39098 3.73125
#
# Compressibility (1/GPa) = 0.03645022
#
# Stress axis : x y z
#
# Youngs Moduli (GPa) = 82.09161 40.20601 41.85626
#
# Poissons Ratio (x) = 0.11325 0.21919
# Poissons Ratio (y) = 0.23123 0.17554
# Poissons Ratio (z) = 0.42988 0.16862
#
# Static dielectric constant tensor:
#      x y z
#    x 1.690710 0.000000 0.000000 
#    y 0.000000 1.682970 0.000000 
#    z 0.000000 0.000000 1.694960 
# 
# From -- ./inp_files/7541.got.cif
#   From: 2010.05.17/outbox.cif.g08.bks.cpg/sg44_4_cif.got.tgz:7541.got - 2010.06.03 19:37:08.
