data_PCOD9375231
_publ_section_title
;
Structure prediction by ZEFSAII (Michael W. Deem and Ramdas Pophale) SiO2 
 PCOD9375231
Probable space group: I M M 2
;
_chemical_formula_sum "Si O2"
_cell_formula_units_Z 56
_cell_length_a 14.123185
_cell_length_b 13.359907
_cell_length_c 13.316418
_cell_angle_alpha 90.000000
_cell_angle_beta 90.000000
_cell_angle_gamma 90.000000
_cell_volume 2512.600848
_symmetry_space_group_name_H-M "I M M 2"
_symmetry_group_IT_number 44
_symmetry_cell_setting 'orthorhombic'
loop_
_space_group_symop_operation_xyz
x,y,z
-x,-y,z
-x,y,z
x,-y,z
1/2+x,1/2+y,1/2+z
1/2-x,1/2-y,1/2+z
1/2-x,1/2+y,1/2+z
1/2+x,1/2-y,1/2+z
loop_
_atom_site_type_symbol
_atom_site_label
_atom_site_fract_x
_atom_site_fract_y
_atom_site_fract_z
Si Si1 0.886176 0.390183 0.237180
Si Si2 0.811748 0.824955 0.281822
Si Si3 0.387491 0.179042 0.523759
Si Si4 0.891824 0.677065 0.798374
Si Si5 0.607860 0.380099 0.994282
Si Si6 0.111151 0.892056 0.080047
Si Si7 0.887364 0.112275 0.713694
O O1 0.864415 0.500000 0.278646
O O2 0.831511 0.294189 0.278172
O O3 0.861301 0.387784 0.118346
O O4 0.000000 0.374927 0.248372
O O5 0.705726 0.855568 0.247096
O O6 0.833316 0.854944 0.395735
O O7 0.880434 0.875074 0.200127
O O8 0.500000 0.192777 0.537339
O O9 0.379337 0.139563 0.411998
O O10 0.345486 0.290867 0.534115
O O11 0.881534 0.798505 0.793636
O O12 0.000000 0.653676 0.764407
O O13 0.500000 0.341466 0.980830
O O14 0.603570 0.500000 0.001342
O O15 0.646641 0.349106 0.103991
O O16 0.000000 0.895803 0.052824
O O17 0.152656 0.000000 0.052143
O O18 0.000000 0.101295 0.698242
O O19 0.851405 0.000000 0.737568
#
# Coordination Sequence:
#
# PCOD9375231 Si02
#       7
#     8   8   8   8   8   8   8
#     4   9  18  34  55  79 106 131 160 206 259 308
#     4  11  20  30  50  76 103 135 169 201 246 301
#     4   8  16  32  52  74 100 132 167 202 248 301
#     4  10  21  35  48  66  99 139 176 211 240 277
#     4   9  17  31  53  81 107 127 155 203 261 313
#     4   9  17  31  53  80 104 122 148 198 262 316
#     4   8  16  32  53  75  99 130 168 209 253 297
#
# _framework density 22.287662000000001
#
# number of rings (size 3 to 8) (size 9 to 14) (size 15 to 20)
#    0.000    2.857    0.000    3.429    0.000    4.571 
#    0.000    5.714    0.000    3.429    0.000    1.000 
#    0.000    9.143    0.000    0.000    0.000    0.000 
#
# Total GULP energy -155925.009150 kJ/mol
# GULP energy per Si atom -5568.750327 kJ/mol
# Density = 2.223693 g / cm^3
# Si number density = 22.287662 Si / 1000 Ang^3
#
#
#
# Elastic Constant Matrix: (Units=GPa)
#
#
# Indices 1 2 3 4 5 6 
#
# 1 113.6127 0.2574 -7.0925 0.0000 0.0000 0.0000
# 2 0.2574 48.1871 -5.5013 0.0000 0.0000 0.0000
# 3 -7.0925 -5.5013 43.5629 0.0000 0.0000 0.0000
# 4 0.0000 0.0000 0.0000 3.6903 0.0000 0.0000
# 5 0.0000 0.0000 0.0000 0.0000 1.0351 0.0000
# 6 0.0000 0.0000 0.0000 0.0000 0.0000 -5.3025
#
#
#
# Elastic Compliance Matrix: (Units=1/GPa)
#
#
# Indices 1 2 3 4 5 6 
#
# 1 0.008893 0.000120 0.001463 0.000000 0.000000 0.000000
# 2 0.000120 0.021058 0.002679 0.000000 0.000000 0.000000
# 3 0.001463 0.002679 0.023532 0.000000 0.000000 0.000000
# 4 0.000000 0.000000 0.000000 0.270983 0.000000 0.000000
# 5 0.000000 0.000000 0.000000 0.000000 0.966100 0.000000
# 6 0.000000 0.000000 0.000000 0.000000 0.000000 -0.188589
#
#
# Mechanical properties :
#
#
# Convention : Reuss Voigt Hill
#
# Bulk Modulus (GPa) = 16.12784 20.07666 18.10225
# Shear Modulus (GPa) = 4.48784 14.39783 9.44284
#
# Velocity S-wave (km/s) = 1.42055 2.54441 2.06058
# Velocity P-wave (km/s) = 3.15318 4.20233 3.71498
#
# Compressibility (1/GPa) = 0.06200459
#
# Stress axis : x y z
#
# Youngs Moduli (GPa) = 112.44942 47.48873 42.49571
#
# Poissons Ratio (x) = -0.00568 -0.06217
# Poissons Ratio (y) = -0.01344 -0.11383
# Poissons Ratio (z) = -0.16451 -0.12721
#
# Static dielectric constant tensor:
#      x y z
#    x 1.913950 0.000000 0.000000 
#    y 0.000000 1.841550 0.000000 
#    z 0.000000 0.000000 1.827290 
# 
# From -- ./inp_files/18501.got.cif
#   From: 2010.05.17/outbox.cif.g08.bks.cpg/sg44_10_cif.got.tgz:18501.got - 2010.06.03 19:37:08.
