data_PCOD9375913
_publ_section_title
;
Structure prediction by ZEFSAII (Michael W. Deem and Ramdas Pophale) SiO2 
 PCOD9375913
Probable space group: I M M 2
;
_chemical_formula_sum "Si O2"
_cell_formula_units_Z 64
_cell_length_a 17.258381
_cell_length_b 7.362851
_cell_length_c 23.012890
_cell_angle_alpha 90.000000
_cell_angle_beta 90.000000
_cell_angle_gamma 90.000000
_cell_volume 2924.268363
_symmetry_space_group_name_H-M "I M M 2"
_symmetry_group_IT_number 44
_symmetry_cell_setting 'orthorhombic'
loop_
_space_group_symop_operation_xyz
x,y,z
-x,-y,z
-x,y,z
x,-y,z
1/2+x,1/2+y,1/2+z
1/2-x,1/2-y,1/2+z
1/2-x,1/2+y,1/2+z
1/2+x,1/2-y,1/2+z
loop_
_atom_site_type_symbol
_atom_site_label
_atom_site_fract_x
_atom_site_fract_y
_atom_site_fract_z
Si Si1 0.916269 0.279119 0.913050
Si Si2 0.081179 0.288513 0.593736
Si Si3 0.787318 0.716597 0.997815
Si Si4 0.750052 0.216519 0.125706
Si Si5 0.087908 0.720354 0.778182
Si Si6 0.766192 0.778965 0.252011
Si Si7 0.617978 0.719685 0.963196
Si Si8 0.413217 0.278539 0.831317
O O1 0.912843 0.500000 0.912385
O O2 0.852682 0.209488 0.956460
O O3 0.908908 0.227928 0.846111
O O4 0.000000 0.224873 0.934621
O O5 0.081346 0.500000 0.611029
O O6 0.162525 0.209994 0.615473
O O7 0.080371 0.280117 0.523643
O O8 0.000000 0.208234 0.614873
O O9 0.785550 0.500000 0.991139
O O10 0.705670 0.781584 0.973450
O O11 0.794898 0.750353 0.066057
O O12 0.786716 0.276731 0.186079
O O13 0.742438 0.000000 0.130635
O O14 0.087107 0.500000 0.772363
O O15 0.174659 0.776834 0.757329
O O16 0.000000 0.777291 0.757483
O O17 0.835169 0.719967 0.296220
O O18 0.764904 0.000000 0.257525
O O19 0.612572 0.500000 0.963493
O O20 0.591341 0.777319 0.899355
O O21 0.500000 0.225761 0.809465
O O22 0.411430 0.500000 0.830387
#
# Coordination Sequence:
#
# PCOD9375913 Si02
#       8
#     8   8   8   8   8   8   8   8
#     4   8  13  22  38  62  88 107 127 164 213 256
#     4   9  17  28  41  59  85 113 136 162 202 250
#     4   9  16  27  44  63  83 109 138 168 205 247
#     4   9  18  30  42  58  82 111 142 173 202 237
#     4   8  13  21  36  60  85 104 126 163 210 253
#     4   9  16  26  39  55  79 110 139 168 203 241
#     4   9  16  26  43  66  87 106 133 170 208 247
#     4   9  16  25  39  60  83 106 134 169 207 244
#
# _framework density 21.885816999999999
#
# number of rings (size 3 to 8) (size 9 to 14) (size 15 to 20)
#    0.000    3.250    0.000    1.875    0.000    4.250 
#    0.000    3.125    0.000    1.875    0.000    0.875 
#    0.000    1.000    0.000    0.000    0.000    0.000 
#
# Total GULP energy -178216.280860 kJ/mol
# GULP energy per Si atom -5569.258777 kJ/mol
# Density = 2.183600 g / cm^3
# Si number density = 21.885817 Si / 1000 Ang^3
#
#
#
# Elastic Constant Matrix: (Units=GPa)
#
#
# Indices 1 2 3 4 5 6 
#
# 1 118.0622 -0.8330 60.7188 0.0000 0.0000 0.0000
# 2 -0.8330 76.8050 -5.9529 0.0000 0.0000 0.0000
# 3 60.7188 -5.9529 102.5287 0.0000 0.0000 0.0000
# 4 0.0000 0.0000 0.0000 8.6544 0.0000 0.0000
# 5 0.0000 0.0000 0.0000 0.0000 -25.7918 0.0000
# 6 0.0000 0.0000 0.0000 0.0000 0.0000 -7.4176
#
#
#
# Elastic Compliance Matrix: (Units=1/GPa)
#
#
# Indices 1 2 3 4 5 6 
#
# 1 0.012194 -0.000429 -0.007246 0.000000 0.000000 0.000000
# 2 -0.000429 0.013094 0.001015 0.000000 0.000000 0.000000
# 3 -0.007246 0.001015 0.014104 0.000000 0.000000 0.000000
# 4 0.000000 0.000000 0.000000 0.115549 0.000000 0.000000
# 5 0.000000 0.000000 0.000000 0.000000 -0.038772 0.000000
# 6 0.000000 0.000000 0.000000 0.000000 0.000000 -0.134814
#
#
# Mechanical properties :
#
#
# Convention : Reuss Voigt Hill
#
# Bulk Modulus (GPa) = 38.35952 45.02907 41.69429
# Shear Modulus (GPa) = 1485.51289 11.31986 748.41638
#
# Velocity S-wave (km/s) = 26.08121 2.27672 18.51233
# Velocity P-wave (km/s) = 30.40621 5.24695 21.81821
#
# Compressibility (1/GPa) = 0.02606915
#
# Stress axis : x y z
#
# Youngs Moduli (GPa) = 82.00891 76.37107 70.90394
#
# Poissons Ratio (x) = 0.03279 0.51379
# Poissons Ratio (y) = 0.03521 -0.07193
# Poissons Ratio (z) = 0.59426 -0.07748
#
# Static dielectric constant tensor:
#      x y z
#    x 1.855830 0.000000 0.000000 
#    y 0.000000 1.881990 0.000000 
#    z 0.000000 0.000000 1.782570 
# 
# From -- ./inp_files/23936.got.cif
#   From: 2010.05.17/outbox.cif.g08.bks.cpg/sg44_12_cif.got.tgz:23936.got - 2010.06.03 19:37:08.
