data_PCOD9375031
_publ_section_title
;
Structure prediction by ZEFSAII (Michael W. Deem and Ramdas Pophale) SiO2 
 PCOD9375031
Probable space group: I M M 2
;
_chemical_formula_sum "Si O2"
_cell_formula_units_Z 64
_cell_length_a 15.750306
_cell_length_b 8.907889
_cell_length_c 24.385141
_cell_angle_alpha 90.000000
_cell_angle_beta 90.000000
_cell_angle_gamma 90.000000
_cell_volume 3421.283505
_symmetry_space_group_name_H-M "I M M 2"
_symmetry_group_IT_number 44
_symmetry_cell_setting 'orthorhombic'
loop_
_space_group_symop_operation_xyz
x,y,z
-x,-y,z
-x,y,z
x,-y,z
1/2+x,1/2+y,1/2+z
1/2-x,1/2-y,1/2+z
1/2-x,1/2+y,1/2+z
1/2+x,1/2-y,1/2+z
loop_
_atom_site_type_symbol
_atom_site_label
_atom_site_fract_x
_atom_site_fract_y
_atom_site_fract_z
Si Si1 0.095649 0.180578 0.780610
Si Si2 0.751457 0.680932 0.203640
Si Si3 0.146787 0.676626 0.895721
Si Si4 0.251145 0.680133 0.076323
Si Si5 0.596343 0.320711 0.509899
Si Si6 0.096170 0.678885 0.507687
Si Si7 0.850928 0.823024 0.395200
Si Si8 0.596396 0.319013 0.772324
O O1 0.168009 0.227871 0.737765
O O2 0.112616 0.256566 0.839077
O O3 0.000000 0.215832 0.761932
O O4 0.101581 0.000000 0.787317
O O5 0.756017 0.500000 0.205815
O O6 0.746158 0.724723 0.140092
O O7 0.833861 0.747745 0.233031
O O8 0.126976 0.500000 0.899511
O O9 0.248999 0.693174 0.896231
O O10 0.109840 0.761849 0.948126
O O11 0.250123 0.500000 0.072296
O O12 0.167192 0.744598 0.047534
O O13 0.332925 0.741644 0.044354
O O14 0.500000 0.285343 0.527427
O O15 0.607375 0.500000 0.510877
O O16 0.106729 0.500000 0.511227
O O17 0.110261 0.731047 0.445126
O O18 0.000000 0.717869 0.524439
O O19 0.884236 0.776467 0.335458
O O20 0.870883 0.000000 0.402732
O O21 0.500000 0.276550 0.758153
O O22 0.603386 0.500000 0.769589
#
# Coordination Sequence:
#
# PCOD9375031 Si02
#       8
#     8   8   8   8   8   8   8   8
#     4  10  21  38  60  86 118 156 195 237 289 349
#     4  10  23  41  61  85 115 152 198 247 292 341
#     4  11  21  35  60  92 122 154 192 238 293 350
#     4  11  24  42  63  87 115 156 203 248 297 346
#     4  11  24  41  62  88 119 157 197 242 299 356
#     4  11  24  40  61  91 123 156 195 242 296 352
#     4  10  20  36  60  89 121 158 195 236 292 352
#     4  10  21  38  61  88 119 155 193 234 286 349
#
# _framework density 18.706430000000001
#
# number of rings (size 3 to 8) (size 9 to 14) (size 15 to 20)
#    0.000    1.500    2.500    2.250    0.000    7.500 
#    0.000    3.750    0.000    0.000    0.000    0.000 
#    0.000    0.000    0.000    0.000    0.000    0.000 
#
# Total GULP energy -178881.263789 kJ/mol
# GULP energy per Si atom -5590.039493 kJ/mol
# Density = 1.866385 g / cm^3
# Si number density = 18.706430 Si / 1000 Ang^3
#
#
#
# Elastic Constant Matrix: (Units=GPa)
#
#
# Indices 1 2 3 4 5 6 
#
# 1 164.3435 61.1245 88.2429 0.0000 0.0000 0.0000
# 2 61.1245 44.6417 46.1522 0.0000 0.0000 0.0000
# 3 88.2429 46.1522 147.2918 0.0000 0.0000 0.0000
# 4 0.0000 0.0000 0.0000 30.7148 0.0000 0.0000
# 5 0.0000 0.0000 0.0000 0.0000 -4.3662 0.0000
# 6 0.0000 0.0000 0.0000 0.0000 0.0000 -2.1541
#
#
#
# Elastic Compliance Matrix: (Units=1/GPa)
#
#
# Indices 1 2 3 4 5 6 
#
# 1 0.013450 -0.014918 -0.003384 0.000000 0.000000 0.000000
# 2 -0.014918 0.049680 -0.006629 0.000000 0.000000 0.000000
# 3 -0.003384 -0.006629 0.010894 0.000000 0.000000 0.000000
# 4 0.000000 0.000000 0.000000 0.032558 0.000000 0.000000
# 5 0.000000 0.000000 0.000000 0.000000 -0.229034 0.000000
# 6 0.000000 0.000000 0.000000 0.000000 0.000000 -0.464232
#
#
# Mechanical properties :
#
#
# Convention : Reuss Voigt Hill
#
# Bulk Modulus (GPa) = 41.38713 83.03513 62.21113
# Shear Modulus (GPa) = -9.45593 15.55607 3.05007
#
# Velocity S-wave (km/s) = -2.25075 2.88686 1.27829
# Velocity P-wave (km/s) = 3.92659 7.45633 5.95881
#
# Compressibility (1/GPa) = 0.02416210
#
# Stress axis : x y z
#
# Youngs Moduli (GPa) = 74.34871 20.12863 91.79734
#
# Poissons Ratio (x) = 0.30028 0.31060
# Poissons Ratio (y) = 1.10915 0.60855
# Poissons Ratio (z) = 0.25156 0.13344
#
# Static dielectric constant tensor:
#      x y z
#    x 1.644220 0.000000 0.000000 
#    y 0.000000 1.628100 0.000000 
#    z 0.000000 0.000000 1.609720 
# 
# From -- ./inp_files/25072.got.cif
#   From: 2010.05.17/outbox.cif.g08.bks.cpg/sg44_13_cif.got.tgz:25072.got - 2010.06.03 19:37:08.
