data_PCOD9375617
_publ_section_title
;
Structure prediction by ZEFSAII (Michael W. Deem and Ramdas Pophale) SiO2 
 PCOD9375617
Probable space group: I M M 2
;
_chemical_formula_sum "Si O2"
_cell_formula_units_Z 48
_cell_length_a 33.899191
_cell_length_b 13.763144
_cell_length_c 5.326176
_cell_angle_alpha 90.000000
_cell_angle_beta 90.000000
_cell_angle_gamma 90.000000
_cell_volume 2484.977730
_symmetry_space_group_name_H-M "I M M 2"
_symmetry_group_IT_number 44
_symmetry_cell_setting 'orthorhombic'
loop_
_space_group_symop_operation_xyz
x,y,z
-x,-y,z
-x,y,z
x,-y,z
1/2+x,1/2+y,1/2+z
1/2-x,1/2-y,1/2+z
1/2-x,1/2+y,1/2+z
1/2+x,1/2-y,1/2+z
loop_
_atom_site_type_symbol
_atom_site_label
_atom_site_fract_x
_atom_site_fract_y
_atom_site_fract_z
Si Si1 0.912925 0.615580 0.976730
Si Si2 0.954431 0.381491 0.474282
Si Si3 0.771603 0.336894 0.038643
Si Si4 0.815656 0.789123 0.355499
Si Si5 0.258071 0.500000 0.352947
Si Si6 0.812303 0.000000 0.352248
Si Si7 0.664951 0.108735 0.176226
O O1 0.920358 0.500000 0.989614
O O2 0.938632 0.653500 0.742872
O O3 0.867738 0.624995 0.893294
O O4 0.927107 0.653595 0.244990
O O5 0.952482 0.500000 0.482024
O O6 0.000000 0.355891 0.431807
O O7 0.800736 0.247087 0.085567
O O8 0.727489 0.302923 0.985319
O O9 0.768474 0.406381 0.282072
O O10 0.792666 0.392482 0.813285
O O11 0.834080 0.896125 0.344322
O O12 0.837372 0.700509 0.490810
O O13 0.281921 0.500000 0.613217
O O14 0.289038 0.500000 0.117988
O O15 0.656733 0.000000 0.068504
#
# Coordination Sequence:
#
# PCOD9375617 Si02
#       7
#     8   8   8   8   4   4   8
#     4   9  19  32  47  73 107 137 175 214 260 314
#     4   9  16  30  51  73 100 140 180 209 241 305
#     4  11  21  34  53  75 102 137 184 231 293 328
#     4  11  23  36  55  71 102 139 187 239 280 329
#     4  10  22  36  58  74  98 126 171 240 285 330
#     4  10  24  40  56  76  96 126 185 238 279 324
#     4  11  24  37  51  81 111 149 179 234 285 336
#
# _framework density 19.316068999999999
#
# number of rings (size 3 to 8) (size 9 to 14) (size 15 to 20)
#    0.000    1.833    2.500    1.500    8.167    2.000 
#    0.000    0.000    0.000    0.000    0.000    0.000 
#    0.000    0.000    0.000    4.500    0.000    2.083 
#
# Total GULP energy -133853.573744 kJ/mol
# GULP energy per Si atom -5577.232239 kJ/mol
# Density = 1.927211 g / cm^3
# Si number density = 19.316069 Si / 1000 Ang^3
#
#
#
# Elastic Constant Matrix: (Units=GPa)
#
#
# Indices 1 2 3 4 5 6 
#
# 1 51.2673 8.3762 21.2463 -0.0019 -0.0018 -0.0008
# 2 8.3762 107.3789 8.9518 -0.0004 -0.0006 -0.0004
# 3 21.2463 8.9518 80.0005 -0.0051 -0.0058 -0.0025
# 4 -0.0019 -0.0004 -0.0051 22.3920 -0.0014 -0.0006
# 5 -0.0018 -0.0006 -0.0058 -0.0014 29.4476 -0.0004
# 6 -0.0008 -0.0004 -0.0025 -0.0006 -0.0004 7.7620
#
#
#
# Elastic Compliance Matrix: (Units=1/GPa)
#
#
# Indices 1 2 3 4 5 6 
#
# 1 0.022082 -0.001245 -0.005725 0.000001 0.000000 0.000000
# 2 -0.001245 0.009471 -0.000729 0.000000 0.000000 0.000000
# 3 -0.005725 -0.000729 0.014102 0.000003 0.000002 0.000004
# 4 0.000001 0.000000 0.000003 0.044659 0.000002 0.000003
# 5 0.000000 0.000000 0.000002 0.000002 0.033959 0.000002
# 6 0.000000 0.000000 0.000004 0.000003 0.000002 0.128833
#
#
# Mechanical properties :
#
#
# Convention : Reuss Voigt Hill
#
# Bulk Modulus (GPa) = 33.05162 35.08836 34.06999
# Shear Modulus (GPa) = 17.94760 25.25847 21.60304
#
# Velocity S-wave (km/s) = 3.05151 3.62005 3.34787
# Velocity P-wave (km/s) = 5.43725 5.97309 5.71146
#
# Compressibility (1/GPa) = 0.03025570
#
# Stress axis : x y z
#
# Youngs Moduli (GPa) = 45.28655 105.58853 70.91227
#
# Poissons Ratio (x) = 0.13148 0.40597
# Poissons Ratio (y) = 0.05639 0.05170
# Poissons Ratio (z) = 0.25927 0.07698
#
# Static dielectric constant tensor:
#      x y z
#    x 1.687500 0.000000 0.000000 
#    y 0.000000 1.764980 0.000000 
#    z 0.000000 0.000000 1.771030 
# 
# From -- ./inp_files/3285.got.cif
#   From: 2010.05.17/outbox.cif.g08.bks.cpg/sg44_2_cif.got.tgz:3285.got - 2010.06.03 19:37:08.
