data_PCOD9375542
_publ_section_title
;
Structure prediction by ZEFSAII (Michael W. Deem and Ramdas Pophale) SiO2 
 PCOD9375542
Probable space group: I M M 2
;
_chemical_formula_sum "Si O2"
_cell_formula_units_Z 32
_cell_length_a 31.484738
_cell_length_b 8.400107
_cell_length_c 4.641223
_cell_angle_alpha 90.000000
_cell_angle_beta 90.000000
_cell_angle_gamma 90.000000
_cell_volume 1227.488233
_symmetry_space_group_name_H-M "I M M 2"
_symmetry_group_IT_number 44
_symmetry_cell_setting 'orthorhombic'
loop_
_space_group_symop_operation_xyz
x,y,z
-x,-y,z
-x,y,z
x,-y,z
1/2+x,1/2+y,1/2+z
1/2-x,1/2-y,1/2+z
1/2-x,1/2+y,1/2+z
1/2+x,1/2-y,1/2+z
loop_
_atom_site_type_symbol
_atom_site_label
_atom_site_fract_x
_atom_site_fract_y
_atom_site_fract_z
Si Si1 0.451494 0.316919 0.102890
Si Si2 0.832513 0.000000 0.733203
Si Si3 0.655099 0.000000 0.831993
Si Si4 0.779730 0.747619 0.072832
Si Si5 0.108116 0.000000 0.228155
Si Si6 0.906724 0.500000 0.835324
O O1 0.500000 0.280468 0.016022
O O2 0.454675 0.500000 0.235034
O O3 0.419805 0.351680 0.835758
O O4 0.432564 0.162198 0.263483
O O5 0.806416 0.144702 0.857097
O O6 0.876829 0.000000 0.904917
O O7 0.847709 0.000000 0.407732
O O8 0.685737 0.143191 0.740048
O O9 0.611123 0.000000 0.656670
O O10 0.637880 0.000000 0.155228
O O11 0.752467 0.825497 0.332670
#
# Coordination Sequence:
#
# PCOD9375542 Si02
#       6
#     8   4   4   8   4   4
#     4   9  21  43  69 100 137 179 226 275 336 404
#     4  12  22  39  63  86 119 166 207 258 327 375
#     4  12  26  43  67 102 133 174 229 278 333 411
#     4  12  24  41  62  91 127 170 215 269 330 392
#     4  10  21  39  60  92 121 162 215 262 312 385
#     4  12  23  45  68 100 141 176 225 280 338 397
#
# _framework density 26.069496000000001
#
# number of rings (size 3 to 8) (size 9 to 14) (size 15 to 20)
#    0.750    0.250    0.000    7.875    0.000    0.000 
#    0.000    7.500    0.000    0.000    0.000    0.000 
#    0.000    0.000    0.000    0.000    0.000    0.000 
#
# Total GULP energy -89412.839296 kJ/mol
# GULP energy per Si atom -5588.302456 kJ/mol
# Density = 2.601016 g / cm^3
# Si number density = 26.069496 Si / 1000 Ang^3
#
#
#
# Elastic Constant Matrix: (Units=GPa)
#
#
# Indices 1 2 3 4 5 6 
#
# 1 151.8886 46.1253 14.6823 0.0004 0.0003 -0.0001
# 2 46.1253 151.1535 11.2542 0.0023 0.0027 -0.0007
# 3 14.6823 11.2542 92.6264 0.0045 0.0042 -0.0010
# 4 0.0004 0.0023 0.0045 15.0773 0.0032 -0.0011
# 5 0.0003 0.0027 0.0042 0.0032 11.2746 -0.0005
# 6 -0.0001 -0.0007 -0.0010 -0.0011 -0.0005 -3.4019
#
#
#
# Elastic Compliance Matrix: (Units=1/GPa)
#
#
# Indices 1 2 3 4 5 6 
#
# 1 0.007330 -0.002170 -0.000898 0.000000 0.000001 0.000000
# 2 -0.002170 0.007319 -0.000545 -0.000001 -0.000001 -0.000001
# 3 -0.000898 -0.000545 0.011005 -0.000003 -0.000004 -0.000003
# 4 0.000000 -0.000001 -0.000003 0.066325 -0.000019 -0.000022
# 5 0.000001 -0.000001 -0.000004 -0.000019 0.088695 -0.000013
# 6 0.000000 -0.000001 -0.000003 -0.000022 -0.000013 -0.293953
#
#
# Mechanical properties :
#
#
# Convention : Reuss Voigt Hill
#
# Bulk Modulus (GPa) = 54.27038 59.97690 57.12364
# Shear Modulus (GPa) = -50.04429 26.16378 -11.94025
#
# Velocity S-wave (km/s) = -4.38613 3.17143 -2.14245
# Velocity P-wave (km/s) = 2.18818 6.03880 3.97989
#
# Compressibility (1/GPa) = 0.01842626
#
# Stress axis : x y z
#
# Youngs Moduli (GPa) = 136.43485 136.63990 90.87043
#
# Poissons Ratio (x) = 0.29648 0.08162
# Poissons Ratio (y) = 0.29603 0.04955
# Poissons Ratio (z) = 0.12254 0.07451
#
# Static dielectric constant tensor:
#      x y z
#    x 2.018250 0.000000 0.000000 
#    y 0.000000 2.260750 0.000000 
#    z 0.000000 0.000000 1.985170 
# 
# From -- ./inp_files/498.got.cif
#   From: 2010.05.17/outbox.cif.g08.bks.cpg/sg44_1_cif.got.tgz:498.got - 2010.06.03 19:37:08.
