data_PCOD9375112
_publ_section_title
;
Structure prediction by ZEFSAII (Michael W. Deem and Ramdas Pophale) SiO2 
 PCOD9375112
Probable space group: I M M 2
;
_chemical_formula_sum "Si O2"
_cell_formula_units_Z 48
_cell_length_a 7.741862
_cell_length_b 19.166095
_cell_length_c 14.982862
_cell_angle_alpha 90.000000
_cell_angle_beta 90.000000
_cell_angle_gamma 90.000000
_cell_volume 2223.175980
_symmetry_space_group_name_H-M "I M M 2"
_symmetry_group_IT_number 44
_symmetry_cell_setting 'orthorhombic'
loop_
_space_group_symop_operation_xyz
x,y,z
-x,-y,z
-x,y,z
x,-y,z
1/2+x,1/2+y,1/2+z
1/2-x,1/2-y,1/2+z
1/2-x,1/2+y,1/2+z
1/2+x,1/2-y,1/2+z
loop_
_atom_site_type_symbol
_atom_site_label
_atom_site_fract_x
_atom_site_fract_y
_atom_site_fract_z
Si Si1 0.711842 0.347888 0.573300
Si Si2 0.800497 0.500000 0.821153
Si Si3 0.199869 0.424923 0.167181
Si Si4 0.703207 0.606102 0.972125
Si Si5 0.297991 0.772977 0.707666
Si Si6 0.793744 0.757650 0.910096
Si Si7 0.302341 0.500000 0.622805
O O1 0.500000 0.349119 0.578842
O O2 0.771284 0.290003 0.646146
O O3 0.759420 0.320599 0.475057
O O4 0.775223 0.425966 0.592885
O O5 0.760703 0.566056 0.883414
O O6 0.696411 0.500000 0.730077
O O7 0.000000 0.500000 0.796023
O O8 0.276721 0.500000 0.195259
O O9 0.280186 0.350558 0.194896
O O10 0.000000 0.425007 0.197487
O O11 0.204457 0.422247 0.059809
O O12 0.500000 0.594832 0.983926
O O13 0.744175 0.687049 0.960907
O O14 0.500000 0.779177 0.681736
O O15 0.285225 0.756148 0.811937
O O16 0.000000 0.759883 0.899956
O O17 0.500000 0.500000 0.589392
#
# Coordination Sequence:
#
# PCOD9375112 Si02
#       7
#     8   4   8   8   8   8   4
#     4   9  19  37  61  84 116 157 198 246 302 358
#     4  12  24  38  58  89 124 157 190 245 312 370
#     4  10  20  37  61  85 118 161 197 238 299 362
#     4  12  23  36  58  89 120 154 197 249 301 358
#     4  10  20  38  60  86 118 157 203 250 302 362
#     4  11  22  39  60  87 118 161 206 248 300 359
#     4  10  20  38  62  87 116 157 204 245 292 356
#
# _framework density 21.590734999999999
#
# number of rings (size 3 to 8) (size 9 to 14) (size 15 to 20)
#    0.000    1.500    2.500    3.750    0.000    2.000 
#    1.500    1.667    0.000    0.000    0.000    0.000 
#    0.000    0.000    0.000    0.000    0.000    0.000 
#
# Total GULP energy -134047.931453 kJ/mol
# GULP energy per Si atom -5585.330477 kJ/mol
# Density = 2.154159 g / cm^3
# Si number density = 21.590735 Si / 1000 Ang^3
#
#
#
# Elastic Constant Matrix: (Units=GPa)
#
#
# Indices 1 2 3 4 5 6 
#
# 1 50.8115 3.1200 -13.0127 0.0000 0.0000 0.0000
# 2 3.1200 159.5594 13.4031 0.0000 0.0000 0.0000
# 3 -13.0127 13.4031 45.8458 0.0000 0.0000 0.0000
# 4 0.0000 0.0000 0.0000 38.2228 0.0000 0.0000
# 5 0.0000 0.0000 0.0000 0.0000 20.5465 0.0000
# 6 0.0000 0.0000 0.0000 0.0000 0.0000 -0.7996
#
#
#
# Elastic Compliance Matrix: (Units=1/GPa)
#
#
# Indices 1 2 3 4 5 6 
#
# 1 0.021363 -0.000950 0.006341 0.000000 0.000000 0.000000
# 2 -0.000950 0.006467 -0.002160 0.000000 0.000000 0.000000
# 3 0.006341 -0.002160 0.024244 0.000000 0.000000 0.000000
# 4 0.000000 0.000000 0.000000 0.026162 0.000000 0.000000
# 5 0.000000 0.000000 0.000000 0.000000 0.048670 0.000000
# 6 0.000000 0.000000 0.000000 0.000000 0.000000 -1.250632
#
#
# Mechanical properties :
#
#
# Convention : Reuss Voigt Hill
#
# Bulk Modulus (GPa) = 17.08376 29.24861 23.16619
# Shear Modulus (GPa) = -4.50177 28.44103 11.96963
#
# Velocity S-wave (km/s) = -1.44554 3.63337 2.35710
# Velocity P-wave (km/s) = 2.26796 5.58374 4.26156
#
# Compressibility (1/GPa) = 0.05853511
#
# Stress axis : x y z
#
# Youngs Moduli (GPa) = 46.81001 154.62338 41.24765
#
# Poissons Ratio (x) = 0.14696 -0.26157
# Poissons Ratio (y) = 0.04449 0.08912
# Poissons Ratio (z) = -0.29684 0.33406
#
# Static dielectric constant tensor:
#      x y z
#    x 1.786720 0.000000 0.000000 
#    y 0.000000 1.821860 0.000000 
#    z 0.000000 0.000000 1.730500 
# 
# From -- ./inp_files/16141.got.cif
#   From: 2010.05.17/outbox.cif.g08.bks.cpg/sg44_9_cif.got.tgz:16141.got - 2010.06.03 19:37:08.
