data_PCOD9375293
_publ_section_title
;
Structure prediction by ZEFSAII (Michael W. Deem and Ramdas Pophale) SiO2 
 PCOD9375293
Probable space group: I M M 2
;
_chemical_formula_sum "Si O2"
_cell_formula_units_Z 64
_cell_length_a 7.903177
_cell_length_b 15.160820
_cell_length_c 28.932885
_cell_angle_alpha 90.000000
_cell_angle_beta 90.000000
_cell_angle_gamma 90.000000
_cell_volume 3466.699046
_symmetry_space_group_name_H-M "I M M 2"
_symmetry_group_IT_number 44
_symmetry_cell_setting 'orthorhombic'
loop_
_space_group_symop_operation_xyz
x,y,z
-x,-y,z
-x,y,z
x,-y,z
1/2+x,1/2+y,1/2+z
1/2-x,1/2-y,1/2+z
1/2-x,1/2+y,1/2+z
1/2+x,1/2-y,1/2+z
loop_
_atom_site_type_symbol
_atom_site_label
_atom_site_fract_x
_atom_site_fract_y
_atom_site_fract_z
Si Si1 0.203285 0.900777 0.266120
Si Si2 0.705954 0.601286 0.870582
Si Si3 0.299473 0.719988 0.228614
Si Si4 0.797761 0.401391 0.417743
Si Si5 0.201496 0.599487 0.143378
Si Si6 0.704668 0.398681 0.312636
Si Si7 0.792078 0.221549 0.455778
Si Si8 0.202767 0.099862 0.538898
O O1 0.263846 0.878373 0.318373
O O2 0.249267 0.821880 0.232241
O O3 0.000000 0.904654 0.268183
O O4 0.263519 0.000000 0.254632
O O5 0.500000 0.604193 0.870259
O O6 0.753267 0.500000 0.881029
O O7 0.762493 0.667014 0.910414
O O8 0.500000 0.716014 0.232165
O O9 0.250661 0.668858 0.182341
O O10 0.229612 0.666816 0.273213
O O11 0.727626 0.500000 0.425421
O O12 0.765914 0.377222 0.364138
O O13 0.734222 0.322158 0.449684
O O14 0.000000 0.406066 0.423840
O O15 0.267876 0.500000 0.153831
O O16 0.260549 0.623599 0.091884
O O17 0.000000 0.594793 0.142421
O O18 0.500000 0.396233 0.313282
O O19 0.755490 0.500000 0.302331
O O20 0.734466 0.169676 0.501291
O O21 0.000000 0.222088 0.455961
O O22 0.000000 0.095937 0.533488
O O23 0.268576 0.000000 0.530916
#
# Coordination Sequence:
#
# PCOD9375293 Si02
#       8
#     8   8   8   8   8   8   8   8
#     4   9  18  32  49  70  99 134 168 202 238 276
#     4   8  13  22  39  65  94 122 154 191 229 271
#     4  11  21  32  50  73  97 127 163 202 242 287
#     4   9  17  28  43  65  93 125 160 195 228 267
#     4  10  21  36  53  73  97 123 152 192 244 299
#     4   9  18  31  45  65  96 130 161 195 238 286
#     4   9  15  24  42  67  93 120 152 191 232 275
#     4   9  17  30  49  71  93 118 150 189 235 286
#
# _framework density 18.461366999999999
#
# number of rings (size 3 to 8) (size 9 to 14) (size 15 to 20)
#    0.000    2.750    0.000    3.000    0.000    5.000 
#    0.000    1.875    0.000    1.500    0.000    3.500 
#    0.000    0.000    0.000    0.000    0.000    0.000 
#
# Total GULP energy -178477.541485 kJ/mol
# GULP energy per Si atom -5577.423171 kJ/mol
# Density = 1.841935 g / cm^3
# Si number density = 18.461367 Si / 1000 Ang^3
#
#
#
# Elastic Constant Matrix: (Units=GPa)
#
#
# Indices 1 2 3 4 5 6 
#
# 1 17.8499 8.1202 4.4775 0.0000 0.0000 0.0000
# 2 8.1202 145.9848 111.3834 0.0000 0.0000 0.0000
# 3 4.4775 111.3834 112.0720 0.0000 0.0000 0.0000
# 4 0.0000 0.0000 0.0000 33.0897 0.0000 0.0000
# 5 0.0000 0.0000 0.0000 0.0000 15.6469 0.0000
# 6 0.0000 0.0000 0.0000 0.0000 0.0000 10.0062
#
#
#
# Elastic Compliance Matrix: (Units=1/GPa)
#
#
# Indices 1 2 3 4 5 6 
#
# 1 0.057839 -0.006016 0.003668 0.000000 0.000000 0.000000
# 2 -0.006016 0.028966 -0.028547 0.000000 0.000000 0.000000
# 3 0.003668 -0.028547 0.037148 0.000000 0.000000 0.000000
# 4 0.000000 0.000000 0.000000 0.030221 0.000000 0.000000
# 5 0.000000 0.000000 0.000000 0.000000 0.063910 0.000000
# 6 0.000000 0.000000 0.000000 0.000000 0.000000 0.099938
#
#
# Mechanical properties :
#
#
# Convention : Reuss Voigt Hill
#
# Bulk Modulus (GPa) = 16.08673 58.20765 37.14719
# Shear Modulus (GPa) = 12.48331 21.87693 17.18012
#
# Velocity S-wave (km/s) = 2.60318 3.44613 3.05388
# Velocity P-wave (km/s) = 4.21521 6.88711 5.70966
#
# Compressibility (1/GPa) = 0.06216305
#
# Stress axis : x y z
#
# Youngs Moduli (GPa) = 17.28927 34.52345 26.91908
#
# Poissons Ratio (x) = 0.20770 -0.09875
# Poissons Ratio (y) = 0.10402 0.76847
# Poissons Ratio (z) = -0.06342 0.98556
#
# Static dielectric constant tensor:
#      x y z
#    x 1.671500 0.000000 0.000000 
#    y 0.000000 1.661450 0.000000 
#    z 0.000000 0.000000 1.622590 
# 
# From -- ./inp_files/27318.got.cif
#   From: 2010.05.17/outbox.cif.g08.bks.cpg/sg44_14_cif.got.tgz:27318.got - 2010.06.03 19:37:08.
