data_PCOD9375790
_publ_section_title
;
Structure prediction by ZEFSAII (Michael W. Deem and Ramdas Pophale) SiO2 
 PCOD9375790
Probable space group: I M M 2
;
_chemical_formula_sum "Si O2"
_cell_formula_units_Z 64
_cell_length_a 19.608305
_cell_length_b 7.403996
_cell_length_c 22.244384
_cell_angle_alpha 90.000000
_cell_angle_beta 90.000000
_cell_angle_gamma 90.000000
_cell_volume 3229.435482
_symmetry_space_group_name_H-M "I M M 2"
_symmetry_group_IT_number 44
_symmetry_cell_setting 'orthorhombic'
loop_
_space_group_symop_operation_xyz
x,y,z
-x,-y,z
-x,y,z
x,-y,z
1/2+x,1/2+y,1/2+z
1/2-x,1/2-y,1/2+z
1/2-x,1/2+y,1/2+z
1/2+x,1/2-y,1/2+z
loop_
_atom_site_type_symbol
_atom_site_label
_atom_site_fract_x
_atom_site_fract_y
_atom_site_fract_z
Si Si1 0.074804 0.279572 0.707450
Si Si2 0.223534 0.220646 0.290423
Si Si3 0.922824 0.721521 0.966121
Si Si4 0.869513 0.719201 0.836544
Si Si5 0.574496 0.718571 0.796807
Si Si6 0.575196 0.715882 0.655096
Si Si7 0.782506 0.712982 0.662869
Si Si8 0.815522 0.302754 0.061021
O O1 0.073993 0.500000 0.705828
O O2 0.090169 0.227383 0.776506
O O3 0.140489 0.217628 0.669858
O O4 0.000000 0.217874 0.688520
O O5 0.290600 0.274689 0.327658
O O6 0.150056 0.280981 0.315934
O O7 0.238376 0.278926 0.220882
O O8 0.221130 0.000000 0.290147
O O9 0.922907 0.500000 0.969534
O O10 0.904322 0.775560 0.898254
O O11 0.000000 0.779061 0.981812
O O12 0.861713 0.787010 0.009478
O O13 0.869522 0.500000 0.837072
O O14 0.500000 0.782828 0.819958
O O15 0.573300 0.500000 0.803149
O O16 0.575672 0.758469 0.725412
O O17 0.500000 0.757376 0.631575
O O18 0.587104 0.500000 0.650696
O O19 0.630824 0.810285 0.615650
O O20 0.785475 0.500000 0.673627
O O21 0.749924 0.734147 0.597280
O O22 0.796884 0.500000 0.037587
#
# Coordination Sequence:
#
# PCOD9375790 Si02
#       8
#     8   8   8   8   8   8   8   8
#     4   8  13  22  41  68  88 101 126 172 223 260
#     4   8  12  20  36  57  77  98 130 168 206 246
#     4   9  17  27  36  50  78 113 144 173 204 239
#     4   8  13  21  36  57  81 107 132 167 215 256
#     4   8  12  18  31  52  77 101 124 154 194 241
#     4   9  16  26  40  55  75 108 142 169 203 244
#     4   9  16  27  42  60  84 108 133 169 209 253
#     4  11  20  27  37  55  83 116 146 173 199 235
#
# _framework density 19.817703999999999
#
# number of rings (size 3 to 8) (size 9 to 14) (size 15 to 20)
#    0.000    3.250    1.250    3.375    0.000    2.250 
#    0.000    0.000    0.000    0.375    0.000    7.875 
#    0.000   11.000    0.000    0.000    0.500    0.500 
#
# Total GULP energy -178157.555418 kJ/mol
# GULP energy per Si atom -5567.423607 kJ/mol
# Density = 1.977260 g / cm^3
# Si number density = 19.817704 Si / 1000 Ang^3
#
#
#
# Elastic Constant Matrix: (Units=GPa)
#
#
# Indices 1 2 3 4 5 6 
#
# 1 166.2479 7.2194 39.5207 0.0000 0.0000 0.0000
# 2 7.2194 53.8081 -0.0309 0.0000 0.0000 0.0000
# 3 39.5207 -0.0309 61.4767 0.0000 0.0000 0.0000
# 4 0.0000 0.0000 0.0000 3.9943 0.0000 0.0000
# 5 0.0000 0.0000 0.0000 0.0000 25.1998 0.0000
# 6 0.0000 0.0000 0.0000 0.0000 0.0000 -28.4172
#
#
#
# Elastic Compliance Matrix: (Units=1/GPa)
#
#
# Indices 1 2 3 4 5 6 
#
# 1 0.007150 -0.000962 -0.004597 0.000000 0.000000 0.000000
# 2 -0.000962 0.018714 0.000628 0.000000 0.000000 0.000000
# 3 -0.004597 0.000628 0.019222 0.000000 0.000000 0.000000
# 4 0.000000 0.000000 0.000000 0.250360 0.000000 0.000000
# 5 0.000000 0.000000 0.000000 0.000000 0.039683 0.000000
# 6 0.000000 0.000000 0.000000 0.000000 0.000000 -0.035190
#
#
# Mechanical properties :
#
#
# Convention : Reuss Voigt Hill
#
# Bulk Modulus (GPa) = 28.39006 41.66124 35.02565
# Shear Modulus (GPa) = 15.55014 15.81026 15.68020
#
# Velocity S-wave (km/s) = 2.80422 2.82757 2.81592
# Velocity P-wave (km/s) = 4.98413 5.63277 5.31835
#
# Compressibility (1/GPa) = 0.03522360
#
# Stress axis : x y z
#
# Youngs Moduli (GPa) = 139.86782 53.43603 52.02477
#
# Poissons Ratio (x) = 0.05140 0.23914
# Poissons Ratio (y) = 0.13454 -0.03266
# Poissons Ratio (z) = 0.64292 -0.03354
#
# Static dielectric constant tensor:
#      x y z
#    x 1.767480 0.000000 0.000000 
#    y 0.000000 1.778890 0.000000 
#    z 0.000000 0.000000 1.669370 
# 
# From -- ./inp_files/24481.got.cif
#   From: 2010.05.17/outbox.cif.g08.bks.cpg/sg44_13_cif.got.tgz:24481.got - 2010.06.03 19:37:08.
