data_PCOD9375570
_publ_section_title
;
Structure prediction by ZEFSAII (Michael W. Deem and Ramdas Pophale) SiO2 
 PCOD9375570
Probable space group: I M M 2
;
_chemical_formula_sum "Si O2"
_cell_formula_units_Z 58
_cell_length_a 27.426638
_cell_length_b 17.286032
_cell_length_c 5.273977
_cell_angle_alpha 90.000000
_cell_angle_beta 90.000000
_cell_angle_gamma 90.000000
_cell_volume 2500.380588
_symmetry_space_group_name_H-M "I M M 2"
_symmetry_group_IT_number 44
_symmetry_cell_setting 'orthorhombic'
loop_
_space_group_symop_operation_xyz
x,y,z
-x,-y,z
-x,y,z
x,-y,z
1/2+x,1/2+y,1/2+z
1/2-x,1/2-y,1/2+z
1/2-x,1/2+y,1/2+z
1/2+x,1/2-y,1/2+z
loop_
_atom_site_type_symbol
_atom_site_label
_atom_site_fract_x
_atom_site_fract_y
_atom_site_fract_z
Si Si1 0.138112 0.907733 0.750000
Si Si2 0.313165 0.780439 0.765566
Si Si3 0.770488 0.140945 0.028452
Si Si4 0.925740 0.313272 0.304918
Si Si5 0.193273 0.418251 0.879078
Si Si6 0.080086 0.138076 0.252902
Si Si7 0.921220 0.410050 0.789983
Si Si8 0.500000 0.500000 0.774689
O O1 0.195401 0.890594 0.804227
O O2 0.116449 0.874976 0.490549
O O3 0.131857 0.000000 0.753628
O O4 0.106362 0.872192 0.980527
O O5 0.271797 0.797886 0.965443
O O6 0.307483 0.692779 0.686893
O O7 0.367653 0.800185 0.840985
O O8 0.301420 0.842319 0.546283
O O9 0.738120 0.081017 0.183978
O O10 0.942598 0.224505 0.274067
O O11 0.941331 0.361987 0.550839
O O12 0.932732 0.364136 0.050397
O O13 0.194319 0.500000 0.027595
O O14 0.138397 0.413306 0.767545
O O15 0.041881 0.068423 0.272895
O O16 0.937154 0.500000 0.796765
#
# Coordination Sequence:
#
# PCOD9375570 Si02
#       8
#     8   8   8   8   8   8   8   2
#     4  12  26  45  64  99 136 181 237 287 362 419
#     4  11  23  35  57  82 124 180 231 287 337 391
#     4  12  23  36  58  82 125 182 231 289 334 404
#     4  11  22  41  63  98 135 173 240 286 340 414
#     4  10  22  36  50  80 118 171 233 273 325 379
#     4  12  27  47  76 103 132 180 226 299 369 443
#     4  10  21  39  64  93 138 184 227 281 328 397
#     4  12  28  58  84 106 146 174 236 298 392 450
#
# _framework density 23.196470000000001
#
# number of rings (size 3 to 8) (size 9 to 14) (size 15 to 20)
#    0.000    0.828    5.517    1.655    5.793    2.759 
#    0.000    0.000    0.000    0.000    0.000    2.897 
#    0.000    0.000    0.000    0.000    0.000    0.000 
#
# Total GULP energy -161730.774496 kJ/mol
# GULP energy per Si atom -5576.923258 kJ/mol
# Density = 2.314367 g / cm^3
# Si number density = 23.196470 Si / 1000 Ang^3
#
#
#
# Elastic Constant Matrix: (Units=GPa)
#
#
# Indices 1 2 3 4 5 6 
#
# 1 101.7954 33.3264 35.7241 0.0000 0.0000 0.0000
# 2 33.3264 208.5522 54.7712 0.0000 0.0000 0.0000
# 3 35.7241 54.7712 103.0948 0.0000 0.0000 0.0000
# 4 0.0000 0.0000 0.0000 57.0078 0.0000 0.0000
# 5 0.0000 0.0000 0.0000 0.0000 -63.2010 0.0000
# 6 0.0000 0.0000 0.0000 0.0000 0.0000 -69.5262
#
#
#
# Elastic Compliance Matrix: (Units=1/GPa)
#
#
# Indices 1 2 3 4 5 6 
#
# 1 0.011329 -0.000906 -0.003444 0.000000 0.000000 0.000000
# 2 -0.000906 0.005645 -0.002685 0.000000 0.000000 0.000000
# 3 -0.003444 -0.002685 0.012320 0.000000 0.000000 0.000000
# 4 0.000000 0.000000 0.000000 0.017541 0.000000 0.000000
# 5 0.000000 0.000000 0.000000 0.000000 -0.015823 0.000000
# 6 0.000000 0.000000 0.000000 0.000000 0.000000 -0.014383
#
#
# Mechanical properties :
#
#
# Convention : Reuss Voigt Hill
#
# Bulk Modulus (GPa) = 65.68973 73.45397 69.57185
# Shear Modulus (GPa) = 139.76398 4.16418 71.96408
#
# Velocity S-wave (km/s) = 7.77065 1.34130 5.57594
# Velocity P-wave (km/s) = 10.43509 5.84239 8.45649
#
# Compressibility (1/GPa) = 0.01522308
#
# Stress axis : x y z
#
# Youngs Moduli (GPa) = 88.26930 177.15187 81.16955
#
# Poissons Ratio (x) = 0.16045 0.27959
# Poissons Ratio (y) = 0.07995 0.21795
# Poissons Ratio (z) = 0.30404 0.47567
#
# Static dielectric constant tensor:
#      x y z
#    x 1.922620 0.000000 0.000000 
#    y 0.000000 1.692190 0.000000 
#    z 0.000000 0.000000 1.927480 
# 
# From -- ./inp_files/3081.got.cif
#   From: 2010.05.17/outbox.cif.g08.bks.cpg/sg44_2_cif.got.tgz:3081.got - 2010.06.03 19:37:08.
