data_PCOD9375492
_publ_section_title
;
Structure prediction by ZEFSAII (Michael W. Deem and Ramdas Pophale) SiO2 
 PCOD9375492
Probable space group: I M M 2
;
_chemical_formula_sum "Si O2"
_cell_formula_units_Z 48
_cell_length_a 7.822431
_cell_length_b 8.904530
_cell_length_c 34.544546
_cell_angle_alpha 90.000000
_cell_angle_beta 90.000000
_cell_angle_gamma 90.000000
_cell_volume 2406.202822
_symmetry_space_group_name_H-M "I M M 2"
_symmetry_group_IT_number 44
_symmetry_cell_setting 'orthorhombic'
loop_
_space_group_symop_operation_xyz
x,y,z
-x,-y,z
-x,y,z
x,-y,z
1/2+x,1/2+y,1/2+z
1/2-x,1/2-y,1/2+z
1/2-x,1/2+y,1/2+z
1/2+x,1/2-y,1/2+z
loop_
_atom_site_type_symbol
_atom_site_label
_atom_site_fract_x
_atom_site_fract_y
_atom_site_fract_z
Si Si1 0.797941 0.820114 0.297130
Si Si2 0.000000 0.678633 0.933418
Si Si3 0.000000 0.179902 0.848472
Si Si4 0.205943 0.672148 0.215243
Si Si5 0.700137 0.171457 0.557270
Si Si6 0.693674 0.177139 0.980907
Si Si7 0.202006 0.328979 0.635232
O O1 0.668529 0.742900 0.326855
O O2 0.750227 0.761240 0.254269
O O3 0.000000 0.783891 0.303773
O O4 0.780035 0.000000 0.298917
O O5 0.000000 0.759708 0.892099
O O6 0.000000 0.500000 0.928741
O O7 0.833063 0.730619 0.957090
O O8 0.000000 0.000000 0.847450
O O9 0.267176 0.500000 0.217297
O O10 0.268828 0.752675 0.176604
O O11 0.000000 0.669412 0.213160
O O12 0.500000 0.171426 0.546927
O O13 0.792630 0.273328 0.525647
O O14 0.717871 0.235233 0.600339
O O15 0.763240 0.000000 0.555610
O O16 0.500000 0.204606 0.967301
O O17 0.730419 0.000000 0.977652
O O18 0.267784 0.500000 0.635630
O O19 0.000000 0.332982 0.627824
#
# Coordination Sequence:
#
# PCOD9375492 Si02
#       7
#     8   4   4   8   8   8   8
#     4  10  22  42  68  97 131 172 217 268 326 389
#     4  12  26  46  70 100 134 172 218 270 326 390
#     4  12  26  44  70 100 134 174 216 270 328 390
#     4  10  21  38  60  87 120 160 209 263 322 385
#     4  11  23  39  61  90 124 165 213 267 326 385
#     4  11  24  43  69  99 132 172 216 265 324 389
#     4  11  24  38  54  82 120 164 214 268 322 380
#
# _framework density 19.948442
#
# number of rings (size 3 to 8) (size 9 to 14) (size 15 to 20)
#    0.000    1.167    0.833    5.000    1.167   10.333 
#    0.000    0.000    0.000    0.000    0.000    0.000 
#    0.000    0.000    0.000    0.000    0.000    0.000 
#
# Total GULP energy -134257.767897 kJ/mol
# GULP energy per Si atom -5594.073662 kJ/mol
# Density = 1.990304 g / cm^3
# Si number density = 19.948442 Si / 1000 Ang^3
#
#
#
# Elastic Constant Matrix: (Units=GPa)
#
#
# Indices 1 2 3 4 5 6 
#
# 1 75.6950 48.2278 38.9003 0.0000 0.0000 0.0000
# 2 48.2278 130.9827 39.2672 0.0000 0.0000 0.0000
# 3 38.9003 39.2672 116.6331 0.0000 0.0000 0.0000
# 4 0.0000 0.0000 0.0000 41.3719 0.0000 0.0000
# 5 0.0000 0.0000 0.0000 0.0000 -31.8012 0.0000
# 6 0.0000 0.0000 0.0000 0.0000 0.0000 -418.7094
#
#
#
# Elastic Compliance Matrix: (Units=1/GPa)
#
#
# Indices 1 2 3 4 5 6 
#
# 1 0.019142 -0.005711 -0.004462 0.000000 0.000000 0.000000
# 2 -0.005711 0.010195 -0.001528 0.000000 0.000000 0.000000
# 3 -0.004462 -0.001528 0.010576 0.000000 0.000000 0.000000
# 4 0.000000 0.000000 0.000000 0.024171 0.000000 0.000000
# 5 0.000000 0.000000 0.000000 0.000000 -0.031445 0.000000
# 6 0.000000 0.000000 0.000000 0.000000 0.000000 -0.002388
#
#
# Mechanical properties :
#
#
# Convention : Reuss Voigt Hill
#
# Bulk Modulus (GPa) = 60.55680 64.01125 62.28403
# Shear Modulus (GPa) = 84.52178 -68.70002 7.91088
#
# Velocity S-wave (km/s) = 6.51629 -5.87482 1.99356
# Velocity P-wave (km/s) = 9.32945 3.72291 6.04891
#
# Compressibility (1/GPa) = 0.01651342
#
# Stress axis : x y z
#
# Youngs Moduli (GPa) = 52.24030 98.08488 94.54983
#
# Poissons Ratio (x) = 0.56012 0.42187
# Poissons Ratio (y) = 0.29832 0.14446
# Poissons Ratio (z) = 0.23309 0.14986
#
# Static dielectric constant tensor:
#      x y z
#    x 1.734020 0.000000 0.000000 
#    y 0.000000 1.681370 0.000000 
#    z 0.000000 0.000000 1.658910 
# 
# From -- ./inp_files/26958.got.cif
#   From: 2010.05.17/outbox.cif.g08.bks.cpg/sg44_14_cif.got.tgz:26958.got - 2010.06.03 19:37:08.
