data_PCOD9375836
_publ_section_title
;
Structure prediction by ZEFSAII (Michael W. Deem and Ramdas Pophale) SiO2 
 PCOD9375836
Probable space group: I M M 2
;
_chemical_formula_sum "Si O2"
_cell_formula_units_Z 64
_cell_length_a 8.856779
_cell_length_b 20.291620
_cell_length_c 20.780107
_cell_angle_alpha 90.000000
_cell_angle_beta 90.000000
_cell_angle_gamma 90.000000
_cell_volume 3734.567455
_symmetry_space_group_name_H-M "I M M 2"
_symmetry_group_IT_number 44
_symmetry_cell_setting 'orthorhombic'
loop_
_space_group_symop_operation_xyz
x,y,z
-x,-y,z
-x,y,z
x,-y,z
1/2+x,1/2+y,1/2+z
1/2-x,1/2-y,1/2+z
1/2-x,1/2+y,1/2+z
1/2+x,1/2-y,1/2+z
loop_
_atom_site_type_symbol
_atom_site_label
_atom_site_fract_x
_atom_site_fract_y
_atom_site_fract_z
Si Si1 0.818478 0.422779 0.612990
Si Si2 0.180772 0.825546 0.363495
Si Si3 0.318118 0.924563 0.260920
Si Si4 0.817384 0.179786 0.510721
Si Si5 0.817751 0.673093 0.371255
Si Si6 0.817986 0.924109 0.619143
Si Si7 0.679932 0.676330 0.510252
Si Si8 0.181733 0.423682 0.256691
O O1 0.785107 0.500000 0.600709
O O2 0.774581 0.408516 0.687148
O O3 0.738577 0.375044 0.562990
O O4 0.000000 0.414763 0.607849
O O5 0.254944 0.873664 0.312309
O O6 0.223150 0.840466 0.437670
O O7 0.220138 0.748616 0.353193
O O8 0.000000 0.831526 0.358259
O O9 0.500000 0.923591 0.262945
O O10 0.269435 0.000000 0.274454
O O11 0.771417 0.125418 0.562766
O O12 0.745271 0.250778 0.524271
O O13 0.000000 0.186908 0.512422
O O14 0.742666 0.657782 0.439606
O O15 0.771762 0.623377 0.314995
O O16 0.000000 0.669770 0.379102
O O17 0.752293 0.904410 0.688333
O O18 0.000000 0.922919 0.622465
O O19 0.771519 0.000000 0.606522
O O20 0.500000 0.678299 0.509347
O O21 0.223260 0.500000 0.269222
O O22 0.000000 0.420279 0.251556
#
# Coordination Sequence:
#
# PCOD9375836 Si02
#       8
#     8   8   8   8   8   8   8   8
#     4   9  19  37  57  74  99 138 175 204 245 306
#     4   9  18  32  51  74 100 131 167 211 254 293
#     4   9  19  35  53  74 100 130 166 207 250 301
#     4   9  19  36  54  73 102 139 174 204 245 307
#     4   9  19  36  53  71 101 138 173 205 244 302
#     4   9  18  33  53  76 102 133 170 212 253 294
#     4  11  22  34  52  79 106 130 165 215 260 295
#     4   9  18  33  53  76 102 133 168 205 247 298
#
# _framework density 17.137191999999999
#
# number of rings (size 3 to 8) (size 9 to 14) (size 15 to 20)
#    0.000    2.750    0.000    2.625    0.000    6.000 
#    0.000    6.250    0.000    1.500    0.000    0.000 
#    0.000    0.000    0.000    0.000    0.000    0.000 
#
# Total GULP energy -178459.673596 kJ/mol
# GULP energy per Si atom -5576.864800 kJ/mol
# Density = 1.709819 g / cm^3
# Si number density = 17.137192 Si / 1000 Ang^3
#
#
#
# Elastic Constant Matrix: (Units=GPa)
#
#
# Indices 1 2 3 4 5 6 
#
# 1 27.8110 44.5811 52.0748 0.0000 0.0000 0.0000
# 2 44.5811 117.2455 132.2743 0.0000 0.0000 0.0000
# 3 52.0748 132.2743 176.4581 0.0000 0.0000 0.0000
# 4 0.0000 0.0000 0.0000 42.8392 0.0000 0.0000
# 5 0.0000 0.0000 0.0000 0.0000 32.5424 0.0000
# 6 0.0000 0.0000 0.0000 0.0000 0.0000 24.5249
#
#
#
# Elastic Compliance Matrix: (Units=1/GPa)
#
#
# Indices 1 2 3 4 5 6 
#
# 1 0.093081 -0.028531 -0.006082 0.000000 0.000000 0.000000
# 2 -0.028531 0.064019 -0.039569 0.000000 0.000000 0.000000
# 3 -0.006082 -0.039569 0.037124 0.000000 0.000000 0.000000
# 4 0.000000 0.000000 0.000000 0.023343 0.000000 0.000000
# 5 0.000000 0.000000 0.000000 0.000000 0.030729 0.000000
# 6 0.000000 0.000000 0.000000 0.000000 0.000000 0.040775
#
#
# Mechanical properties :
#
#
# Convention : Reuss Voigt Hill
#
# Bulk Modulus (GPa) = 21.80629 86.59721 54.20175
# Shear Modulus (GPa) = 11.04432 26.15359 18.59896
#
# Velocity S-wave (km/s) = 2.54139 3.91081 3.29796
# Velocity P-wave (km/s) = 4.62209 8.42817 6.79697
#
# Compressibility (1/GPa) = 0.04585833
#
# Stress axis : x y z
#
# Youngs Moduli (GPa) = 10.74336 15.62034 26.93711
#
# Poissons Ratio (x) = 0.44566 0.16384
# Poissons Ratio (y) = 0.30652 1.06589
# Poissons Ratio (z) = 0.06534 0.61809
#
# Static dielectric constant tensor:
#      x y z
#    x 1.577680 0.000000 0.000000 
#    y 0.000000 1.566720 0.000000 
#    z 0.000000 0.000000 1.558590 
# 
# From -- ./inp_files/20782.got.cif
#   From: 2010.05.17/outbox.cif.g08.bks.cpg/sg44_11_cif.got.tgz:20782.got - 2010.06.03 19:37:08.
