data_PCOD9375466
_publ_section_title
;
Structure prediction by ZEFSAII (Michael W. Deem and Ramdas Pophale) SiO2 
 PCOD9375466
Probable space group: I M M 2
;
_chemical_formula_sum "Si O2"
_cell_formula_units_Z 64
_cell_length_a 7.817711
_cell_length_b 14.304493
_cell_length_c 25.135234
_cell_angle_alpha 90.000000
_cell_angle_beta 90.000000
_cell_angle_gamma 90.000000
_cell_volume 2810.832808
_symmetry_space_group_name_H-M "I M M 2"
_symmetry_group_IT_number 44
_symmetry_cell_setting 'orthorhombic'
loop_
_space_group_symop_operation_xyz
x,y,z
-x,-y,z
-x,y,z
x,-y,z
1/2+x,1/2+y,1/2+z
1/2-x,1/2-y,1/2+z
1/2-x,1/2+y,1/2+z
1/2+x,1/2-y,1/2+z
loop_
_atom_site_type_symbol
_atom_site_label
_atom_site_fract_x
_atom_site_fract_y
_atom_site_fract_z
Si Si1 0.299970 0.894689 0.081880
Si Si2 0.200199 0.109074 0.969407
Si Si3 0.698134 0.614334 0.024659
Si Si4 0.299461 0.895599 0.855179
Si Si5 0.789286 0.786255 0.304266
Si Si6 0.791807 0.892641 0.642561
Si Si7 0.708863 0.608977 0.910397
Si Si8 0.199029 0.204975 0.189014
O O1 0.500000 0.901845 0.071739
O O2 0.278000 0.840934 0.136827
O O3 0.226093 0.000000 0.087743
O O4 0.228874 0.848823 0.027786
O O5 0.286614 0.144107 0.915534
O O6 0.000000 0.109330 0.958607
O O7 0.259356 0.000000 0.974413
O O8 0.500000 0.646090 0.026033
O O9 0.694890 0.500000 0.022427
O O10 0.771140 0.634727 0.082889
O O11 0.773217 0.645496 0.967944
O O12 0.500000 0.903928 0.843771
O O13 0.229096 0.819656 0.814730
O O14 0.223527 0.000000 0.853793
O O15 0.734360 0.842229 0.356452
O O16 0.731868 0.822922 0.246942
O O17 0.000000 0.787201 0.303499
O O18 0.722149 0.816290 0.682760
O O19 0.000000 0.888858 0.642043
O O20 0.743246 0.000000 0.653340
O O21 0.500000 0.614790 0.912429
O O22 0.753497 0.500000 0.906990
O O23 0.000000 0.180834 0.187338
#
# Coordination Sequence:
#
# PCOD9375466 Si02
#       8
#     8   8   8   8   8   8   8   8
#     4  10  21  38  59  80 104 139 182 225 271 327
#     4   9  17  31  53  82 112 136 163 208 269 330
#     4   7  11  22  43  71  98 122 155 204 257 305
#     4   9  17  31  51  74 103 139 176 213 253 305
#     4   9  19  32  45  67  99 137 180 217 253 305
#     4   9  18  34  55  78 105 137 174 218 267 320
#     4   8  13  24  44  69  95 120 150 196 252 305
#     4  11  23  36  51  76 110 144 182 229 274 314
#
# _framework density 22.769051000000001
#
# number of rings (size 3 to 8) (size 9 to 14) (size 15 to 20)
#    0.000    3.000    0.000    2.625    0.000    4.500 
#    0.000    6.250    0.000    1.500    0.000    1.750 
#    0.000    2.000    0.000    0.000    0.000    0.000 
#
# Total GULP energy -178521.657687 kJ/mol
# GULP energy per Si atom -5578.801803 kJ/mol
# Density = 2.271723 g / cm^3
# Si number density = 22.769051 Si / 1000 Ang^3
#
#
#
# Elastic Constant Matrix: (Units=GPa)
#
#
# Indices 1 2 3 4 5 6 
#
# 1 32.8598 -5.6068 -4.5501 0.0000 0.0000 0.0000
# 2 -5.6068 39.4026 12.2816 0.0000 0.0000 0.0000
# 3 -4.5501 12.2816 91.2475 0.0000 0.0000 0.0000
# 4 0.0000 0.0000 0.0000 26.2742 0.0000 0.0000
# 5 0.0000 0.0000 0.0000 0.0000 10.7129 0.0000
# 6 0.0000 0.0000 0.0000 0.0000 0.0000 9.1609
#
#
#
# Elastic Compliance Matrix: (Units=1/GPa)
#
#
# Indices 1 2 3 4 5 6 
#
# 1 0.031277 0.004138 0.001003 0.000000 0.000000 0.000000
# 2 0.004138 0.027038 -0.003433 0.000000 0.000000 0.000000
# 3 0.001003 -0.003433 0.011471 0.000000 0.000000 0.000000
# 4 0.000000 0.000000 0.000000 0.038060 0.000000 0.000000
# 5 0.000000 0.000000 0.000000 0.000000 0.093346 0.000000
# 6 0.000000 0.000000 0.000000 0.000000 0.000000 0.109159
#
#
# Mechanical properties :
#
#
# Convention : Reuss Voigt Hill
#
# Bulk Modulus (GPa) = 13.66080 18.63992 16.15036
# Shear Modulus (GPa) = 15.09042 19.98861 17.53952
#
# Velocity S-wave (km/s) = 2.57721 2.96613 2.77848
# Velocity P-wave (km/s) = 3.85600 4.46484 4.17154
#
# Compressibility (1/GPa) = 0.07320216
#
# Stress axis : x y z
#
# Youngs Moduli (GPa) = 31.97217 36.98513 87.17440
#
# Poissons Ratio (x) = -0.15305 -0.08741
# Poissons Ratio (y) = -0.13230 0.29926
# Poissons Ratio (z) = -0.03206 0.12696
#
# Static dielectric constant tensor:
#      x y z
#    x 1.826610 0.000000 0.000000 
#    y 0.000000 1.894140 0.000000 
#    z 0.000000 0.000000 1.855400 
# 
# From -- ./inp_files/25109.got.cif
#   From: 2010.05.17/outbox.cif.g08.bks.cpg/sg44_13_cif.got.tgz:25109.got - 2010.06.03 19:37:08.
