data_PCOD9375280
_publ_section_title
;
Structure prediction by ZEFSAII (Michael W. Deem and Ramdas Pophale) SiO2 
 PCOD9375280
Probable space group: I M M 2
;
_chemical_formula_sum "Si O2"
_cell_formula_units_Z 48
_cell_length_a 26.737753
_cell_length_b 8.448523
_cell_length_c 8.997661
_cell_angle_alpha 90.000000
_cell_angle_beta 90.000000
_cell_angle_gamma 90.000000
_cell_volume 2032.522323
_symmetry_space_group_name_H-M "I M M 2"
_symmetry_group_IT_number 44
_symmetry_cell_setting 'orthorhombic'
loop_
_space_group_symop_operation_xyz
x,y,z
-x,-y,z
-x,y,z
x,-y,z
1/2+x,1/2+y,1/2+z
1/2-x,1/2-y,1/2+z
1/2-x,1/2+y,1/2+z
1/2+x,1/2-y,1/2+z
loop_
_atom_site_type_symbol
_atom_site_label
_atom_site_fract_x
_atom_site_fract_y
_atom_site_fract_z
Si Si1 0.603980 0.320678 0.730010
Si Si2 0.230456 0.682647 0.722102
Si Si3 0.560190 0.000000 0.215892
Si Si4 0.559035 0.000000 0.866128
Si Si5 0.317544 0.813914 0.532740
Si Si6 0.349034 0.330252 0.035714
Si Si7 0.940484 0.167510 0.746084
O O1 0.581039 0.500000 0.728760
O O2 0.634001 0.284961 0.580103
O O3 0.573843 0.161969 0.778960
O O4 0.645133 0.323827 0.861306
O O5 0.246092 0.500000 0.737136
O O6 0.275152 0.784564 0.656455
O O7 0.184537 0.696907 0.606739
O O8 0.207520 0.737613 0.878208
O O9 0.573494 0.159210 0.304301
O O10 0.500000 0.000000 0.207123
O O11 0.577654 0.000000 0.041095
O O12 0.500000 0.000000 0.878251
O O13 0.329411 0.000000 0.524096
O O14 0.325651 0.500000 0.078525
O O15 0.405241 0.335316 0.101309
O O16 0.000000 0.169997 0.711954
O O17 0.931549 0.000000 0.826298
#
# Coordination Sequence:
#
# PCOD9375280 Si02
#       7
#     8   8   4   4   8   8   8
#     4  11  23  39  64  95 130 172 217 268 324 387
#     4  11  25  40  63  93 126 168 213 266 325 394
#     4   9  16  26  46  75 112 157 198 239 302 358
#     4  11  22  36  60  95 134 175 218 269 329 380
#     4  11  24  44  64  91 127 165 215 265 325 392
#     4  10  21  35  56  90 125 164 213 262 319 378
#     4   9  17  29  47  76 115 153 198 254 303 358
#
# _framework density 23.615977000000001
#
# number of rings (size 3 to 8) (size 9 to 14) (size 15 to 20)
#    0.000    1.667    2.500    2.000    2.333    7.000 
#    0.000    0.000    0.000    1.000    0.000    2.333 
#    0.000    0.000    0.000    0.000    0.000    0.000 
#
# Total GULP energy -133851.690800 kJ/mol
# GULP energy per Si atom -5577.153783 kJ/mol
# Density = 2.356223 g / cm^3
# Si number density = 23.615977 Si / 1000 Ang^3
#
#
#
# Elastic Constant Matrix: (Units=GPa)
#
#
# Indices 1 2 3 4 5 6 
#
# 1 59.5420 28.6658 22.7493 0.0000 0.0000 0.0000
# 2 28.6658 197.0861 29.2894 0.0000 0.0000 0.0000
# 3 22.7493 29.2894 58.1583 0.0000 0.0000 0.0000
# 4 0.0000 0.0000 0.0000 23.7929 0.0000 0.0000
# 5 0.0000 0.0000 0.0000 0.0000 12.0563 0.0000
# 6 0.0000 0.0000 0.0000 0.0000 0.0000 28.5562
#
#
#
# Elastic Compliance Matrix: (Units=1/GPa)
#
#
# Indices 1 2 3 4 5 6 
#
# 1 0.020400 -0.001925 -0.007010 0.000000 0.000000 0.000000
# 2 -0.001925 0.005666 -0.002100 0.000000 0.000000 0.000000
# 3 -0.007010 -0.002100 0.020994 0.000000 0.000000 0.000000
# 4 0.000000 0.000000 0.000000 0.042029 0.000000 0.000000
# 5 0.000000 0.000000 0.000000 0.000000 0.082944 0.000000
# 6 0.000000 0.000000 0.000000 0.000000 0.000000 0.035019
#
#
# Mechanical properties :
#
#
# Convention : Reuss Voigt Hill
#
# Bulk Modulus (GPa) = 40.01789 52.91059 46.46424
# Shear Modulus (GPa) = 21.05666 28.48653 24.77160
#
# Velocity S-wave (km/s) = 2.98925 3.47686 3.24224
# Velocity P-wave (km/s) = 5.37552 6.21058 5.80808
#
# Compressibility (1/GPa) = 0.02498883
#
# Stress axis : x y z
#
# Youngs Moduli (GPa) = 49.01913 176.48784 47.63187
#
# Poissons Ratio (x) = 0.33981 0.33391
# Poissons Ratio (y) = 0.09438 0.10005
# Poissons Ratio (z) = 0.34363 0.37070
#
# Static dielectric constant tensor:
#      x y z
#    x 1.880680 0.000000 0.000000 
#    y 0.000000 1.975480 0.000000 
#    z 0.000000 0.000000 1.856500 
# 
# From -- ./inp_files/4961.got.cif
#   From: 2010.05.17/outbox.cif.g08.bks.cpg/sg44_3_cif.got.tgz:4961.got - 2010.06.03 19:37:08.
