data_PCOD9375047
_publ_section_title
;
Structure prediction by ZEFSAII (Michael W. Deem and Ramdas Pophale) SiO2 
 PCOD9375047
Probable space group: I M M 2
;
_chemical_formula_sum "Si O2"
_cell_formula_units_Z 32
_cell_length_a 8.856824
_cell_length_b 7.611673
_cell_length_c 24.488798
_cell_angle_alpha 90.000000
_cell_angle_beta 90.000000
_cell_angle_gamma 90.000000
_cell_volume 1650.918393
_symmetry_space_group_name_H-M "I M M 2"
_symmetry_group_IT_number 44
_symmetry_cell_setting 'orthorhombic'
loop_
_space_group_symop_operation_xyz
x,y,z
-x,-y,z
-x,y,z
x,-y,z
1/2+x,1/2+y,1/2+z
1/2-x,1/2-y,1/2+z
1/2-x,1/2+y,1/2+z
1/2+x,1/2-y,1/2+z
loop_
_atom_site_type_symbol
_atom_site_label
_atom_site_fract_x
_atom_site_fract_y
_atom_site_fract_z
Si Si1 0.180369 0.292090 0.039050
Si Si2 0.179025 0.000000 0.235734
Si Si3 0.823178 0.798930 0.808750
Si Si4 0.319685 0.000000 0.115913
Si Si5 0.324950 0.287629 0.922742
O O1 0.211985 0.500000 0.047490
O O2 0.000000 0.268164 0.039301
O O3 0.255803 0.170113 0.084326
O O4 0.246545 0.241149 0.979827
O O5 0.230259 0.831876 0.270793
O O6 0.261096 0.000000 0.177671
O O7 0.000000 0.000000 0.228152
O O8 0.761915 0.784430 0.870385
O O9 0.000000 0.750024 0.807780
O O10 0.808391 0.000000 0.790302
O O11 0.500000 0.000000 0.114297
O O12 0.500000 0.232505 0.922510
O O13 0.321075 0.500000 0.918502
#
# Coordination Sequence:
#
# PCOD9375047 Si02
#       5
#     8   4   8   4   8
#     4  10  22  41  65  94 129 168 211 262 318 376
#     4  12  26  46  68  92 126 168 215 268 319 378
#     4  11  24  41  64  94 128 168 212 261 319 380
#     4  12  26  44  68  94 126 170 215 264 317 382
#     4  10  20  36  61  94 132 169 208 259 318 377
#
# _framework density 19.383153
#
# number of rings (size 3 to 8) (size 9 to 14) (size 15 to 20)
#    0.000    1.250    1.250    4.500    1.750    5.500 
#    0.000    0.000    0.000    0.000    0.000    0.000 
#    0.000    0.000    0.000    0.000    0.000    0.000 
#
# Total GULP energy -89526.356038 kJ/mol
# GULP energy per Si atom -5595.397252 kJ/mol
# Density = 1.933904 g / cm^3
# Si number density = 19.383153 Si / 1000 Ang^3
#
#
#
# Elastic Constant Matrix: (Units=GPa)
#
#
# Indices 1 2 3 4 5 6 
#
# 1 123.5923 46.3657 37.0435 0.0000 0.0000 0.0000
# 2 46.3657 76.2455 47.0761 0.0000 0.0000 0.0000
# 3 37.0435 47.0761 123.0976 0.0000 0.0000 0.0000
# 4 0.0000 0.0000 0.0000 202.8970 0.0000 0.0000
# 5 0.0000 0.0000 0.0000 0.0000 41.9710 0.0000
# 6 0.0000 0.0000 0.0000 0.0000 0.0000 17.9138
#
#
#
# Elastic Compliance Matrix: (Units=1/GPa)
#
#
# Indices 1 2 3 4 5 6 
#
# 1 0.010566 -0.005841 -0.000946 0.000000 0.000000 0.000000
# 2 -0.005841 0.020399 -0.006043 0.000000 0.000000 0.000000
# 3 -0.000946 -0.006043 0.010719 0.000000 0.000000 0.000000
# 4 0.000000 0.000000 0.000000 0.004929 0.000000 0.000000
# 5 0.000000 0.000000 0.000000 0.000000 0.023826 0.000000
# 6 0.000000 0.000000 0.000000 0.000000 0.000000 0.055823
#
#
# Mechanical properties :
#
#
# Convention : Reuss Voigt Hill
#
# Bulk Modulus (GPa) = 62.40810 64.87844 63.64327
# Shear Modulus (GPa) = 31.79367 65.38636 48.59002
#
# Velocity S-wave (km/s) = 4.05442 5.81436 5.01224
# Velocity P-wave (km/s) = 7.36103 8.86679 8.14877
#
# Compressibility (1/GPa) = 0.01602356
#
# Stress axis : x y z
#
# Youngs Moduli (GPa) = 94.64355 49.02179 93.28906
#
# Poissons Ratio (x) = 0.28636 0.08822
# Poissons Ratio (y) = 0.55285 0.56378
# Poissons Ratio (z) = 0.08950 0.29626
#
# Static dielectric constant tensor:
#      x y z
#    x 1.645790 0.000000 0.000000 
#    y 0.000000 1.681470 0.000000 
#    z 0.000000 0.000000 1.625450 
# 
# From -- ./inp_files/24570.got.cif
#   From: 2010.05.17/outbox.cif.g08.bks.cpg/sg44_13_cif.got.tgz:24570.got - 2010.06.03 19:37:08.
