data_PCOD9375551
_publ_section_title
;
Structure prediction by ZEFSAII (Michael W. Deem and Ramdas Pophale) SiO2 
 PCOD9375551
Probable space group: I M M 2
;
_chemical_formula_sum "Si O2"
_cell_formula_units_Z 58
_cell_length_a 25.596169
_cell_length_b 13.032378
_cell_length_c 8.393314
_cell_angle_alpha 90.000000
_cell_angle_beta 90.000000
_cell_angle_gamma 90.000000
_cell_volume 2799.832869
_symmetry_space_group_name_H-M "I M M 2"
_symmetry_group_IT_number 44
_symmetry_cell_setting 'orthorhombic'
loop_
_space_group_symop_operation_xyz
x,y,z
-x,-y,z
-x,y,z
x,-y,z
1/2+x,1/2+y,1/2+z
1/2-x,1/2-y,1/2+z
1/2-x,1/2+y,1/2+z
1/2+x,1/2-y,1/2+z
loop_
_atom_site_type_symbol
_atom_site_label
_atom_site_fract_x
_atom_site_fract_y
_atom_site_fract_z
Si Si1 0.795753 0.120126 0.664390
Si Si2 0.442355 0.182099 0.246741
Si Si3 0.556877 0.611574 0.453366
Si Si4 0.852554 0.389664 0.960511
Si Si5 0.000000 0.000000 0.519607
Si Si6 0.247517 0.688345 0.827953
Si Si7 0.594986 0.668811 0.017914
Si Si8 0.646924 0.686024 0.671071
O O1 0.771259 0.194603 0.797718
O O2 0.771206 0.164427 0.501141
O O3 0.857904 0.132960 0.636064
O O4 0.784128 0.000000 0.685353
O O5 0.500000 0.138793 0.237255
O O6 0.444380 0.293193 0.335772
O O7 0.404651 0.117455 0.356824
O O8 0.421385 0.217757 0.076586
O O9 0.500000 0.616424 0.542815
O O10 0.556545 0.500000 0.372259
O O11 0.608647 0.620548 0.558549
O O12 0.846723 0.500000 0.039095
O O13 0.806145 0.373635 0.833171
O O14 0.851913 0.297960 0.088309
O O15 0.046506 0.909446 0.515847
O O16 0.292722 0.657204 0.703696
O O17 0.619510 0.679310 0.842608
#
# Coordination Sequence:
#
# PCOD9375551 Si02
#       8
#     8   8   8   8   2   8   8   8
#     4  11  23  42  65  95 132 174 216 272 326 392
#     4  10  21  39  61  92 125 160 209 269 311 375
#     4   9  20  34  56  87 130 169 207 251 317 389
#     4  11  23  44  68  87 119 174 221 267 323 379
#     4  12  24  36  68 106 134 180 192 250 354 416
#     4  11  22  40  65  92 128 165 219 271 323 386
#     4  11  23  37  63  97 134 162 209 256 330 400
#     4  10  24  39  59  91 129 165 211 268 316 387
#
# _framework density 20.715522
#
# number of rings (size 3 to 8) (size 9 to 14) (size 15 to 20)
#    0.000    1.517    4.138    0.414    2.897    1.379 
#    0.000    2.069    0.000    0.000    0.000    0.000 
#    0.000    0.000    0.000    0.000    0.000    0.000 
#
# Total GULP energy -161502.203463 kJ/mol
# GULP energy per Si atom -5569.041499 kJ/mol
# Density = 2.066837 g / cm^3
# Si number density = 20.715522 Si / 1000 Ang^3
#
#
#
# Elastic Constant Matrix: (Units=GPa)
#
#
# Indices 1 2 3 4 5 6 
#
# 1 138.9218 34.4800 13.5391 0.0000 0.0000 0.0000
# 2 34.4800 106.3327 11.1478 0.0000 0.0000 0.0000
# 3 13.5391 11.1478 34.3135 0.0000 0.0000 0.0000
# 4 0.0000 0.0000 0.0000 12.0415 0.0000 0.0000
# 5 0.0000 0.0000 0.0000 0.0000 16.9073 0.0000
# 6 0.0000 0.0000 0.0000 0.0000 0.0000 16.5013
#
#
#
# Elastic Compliance Matrix: (Units=1/GPa)
#
#
# Indices 1 2 3 4 5 6 
#
# 1 0.008015 -0.002347 -0.002400 0.000000 0.000000 0.000000
# 2 -0.002347 0.010424 -0.002460 0.000000 0.000000 0.000000
# 3 -0.002400 -0.002460 0.030889 0.000000 0.000000 0.000000
# 4 0.000000 0.000000 0.000000 0.083046 0.000000 0.000000
# 5 0.000000 0.000000 0.000000 0.000000 0.059146 0.000000
# 6 0.000000 0.000000 0.000000 0.000000 0.000000 0.060601
#
#
# Mechanical properties :
#
#
# Convention : Reuss Voigt Hill
#
# Bulk Modulus (GPa) = 28.64277 44.21131 36.42704
# Shear Modulus (GPa) = 17.97441 23.78343 20.87892
#
# Velocity S-wave (km/s) = 2.94883 3.39203 3.17817
# Velocity P-wave (km/s) = 5.04489 6.06050 5.57586
#
# Compressibility (1/GPa) = 0.03491282
#
# Stress axis : x y z
#
# Youngs Moduli (GPa) = 124.76955 95.93680 32.37380
#
# Poissons Ratio (x) = 0.22519 0.07769
# Poissons Ratio (y) = 0.29287 0.07965
# Poissons Ratio (z) = 0.29942 0.23603
#
# Static dielectric constant tensor:
#      x y z
#    x 1.812220 0.000000 0.000000 
#    y 0.000000 1.742960 0.000000 
#    z 0.000000 0.000000 1.772830 
# 
# From -- ./inp_files/9754.got.cif
#   From: 2010.05.17/outbox.cif.g08.bks.cpg/sg44_5_cif.got.tgz:9754.got - 2010.06.03 19:37:08.
