data_PCOD9375439
_publ_section_title
;
Structure prediction by ZEFSAII (Michael W. Deem and Ramdas Pophale) SiO2 
 PCOD9375439
Probable space group: I M M 2
;
_chemical_formula_sum "Si O2"
_cell_formula_units_Z 40
_cell_length_a 8.769262
_cell_length_b 12.510695
_cell_length_c 17.486957
_cell_angle_alpha 90.000000
_cell_angle_beta 90.000000
_cell_angle_gamma 90.000000
_cell_volume 1918.486398
_symmetry_space_group_name_H-M "I M M 2"
_symmetry_group_IT_number 44
_symmetry_cell_setting 'orthorhombic'
loop_
_space_group_symop_operation_xyz
x,y,z
-x,-y,z
-x,y,z
x,-y,z
1/2+x,1/2+y,1/2+z
1/2-x,1/2-y,1/2+z
1/2-x,1/2+y,1/2+z
1/2+x,1/2-y,1/2+z
loop_
_atom_site_type_symbol
_atom_site_label
_atom_site_fract_x
_atom_site_fract_y
_atom_site_fract_z
Si Si1 0.171554 0.121037 0.500000
Si Si2 0.681837 0.000000 0.227933
Si Si3 0.315102 0.500000 0.553427
Si Si4 0.673101 0.116527 0.656034
Si Si5 0.675944 0.315252 0.433463
Si Si6 0.677066 0.717371 0.788749
O O1 0.202889 0.119579 0.590018
O O2 0.298817 0.197580 0.467089
O O3 0.000000 0.160072 0.484016
O O4 0.184419 0.000000 0.471295
O O5 0.736630 0.105998 0.273669
O O6 0.500000 0.000000 0.222651
O O7 0.747698 0.000000 0.139741
O O8 0.500000 0.500000 0.562113
O O9 0.272012 0.601686 0.499473
O O10 0.500000 0.121300 0.623445
O O11 0.689974 0.215121 0.711395
O O12 0.684700 0.000000 0.695210
O O13 0.500000 0.340361 0.417767
O O14 0.764570 0.298988 0.354108
O O15 0.500000 0.692271 0.803293
#
# Coordination Sequence:
#
# PCOD9375439 Si02
#       6
#     8   4   4   8   8   8
#     4  10  21  37  59  88 121 158 201 251 307 366
#     4  12  26  44  68  96 129 172 223 270 318 388
#     4  10  24  46  68  94 131 174 217 268 326 384
#     4   9  19  37  61  89 120 157 199 246 305 371
#     4  11  24  41  63  91 126 166 210 260 317 379
#     4  11  24  41  64  92 128 166 207 263 320 377
#
# _framework density 20.849771
#
# number of rings (size 3 to 8) (size 9 to 14) (size 15 to 20)
#    0.000    1.600    0.000    3.900    2.800    9.200 
#    0.000    0.000    0.000    0.000    0.000    0.000 
#    0.000    0.000    0.000    0.000    0.000    0.000 
#
# Total GULP energy -111546.810825 kJ/mol
# GULP energy per Si atom -5577.340541 kJ/mol
# Density = 2.080232 g / cm^3
# Si number density = 20.849771 Si / 1000 Ang^3
#
#
#
# Elastic Constant Matrix: (Units=GPa)
#
#
# Indices 1 2 3 4 5 6 
#
# 1 54.7975 15.4729 12.4498 0.0000 0.0000 0.0000
# 2 15.4729 41.3425 1.6602 0.0000 0.0000 0.0000
# 3 12.4498 1.6602 59.6901 0.0000 0.0000 0.0000
# 4 0.0000 0.0000 0.0000 27.4488 0.0000 0.0000
# 5 0.0000 0.0000 0.0000 0.0000 32.0513 0.0000
# 6 0.0000 0.0000 0.0000 0.0000 0.0000 23.8862
#
#
#
# Elastic Compliance Matrix: (Units=1/GPa)
#
#
# Indices 1 2 3 4 5 6 
#
# 1 0.021432 -0.007850 -0.004252 0.000000 0.000000 0.000000
# 2 -0.007850 0.027091 0.000884 0.000000 0.000000 0.000000
# 3 -0.004252 0.000884 0.017615 0.000000 0.000000 0.000000
# 4 0.000000 0.000000 0.000000 0.036431 0.000000 0.000000
# 5 0.000000 0.000000 0.000000 0.000000 0.031200 0.000000
# 6 0.000000 0.000000 0.000000 0.000000 0.000000 0.041865
#
#
# Mechanical properties :
#
#
# Convention : Reuss Voigt Hill
#
# Bulk Modulus (GPa) = 22.88251 23.88843 23.38547
# Shear Modulus (GPa) = 23.51416 25.09375 24.30395
#
# Velocity S-wave (km/s) = 3.36190 3.47299 3.41789
# Velocity P-wave (km/s) = 5.10574 5.25019 5.17847
#
# Compressibility (1/GPa) = 0.04370150
#
# Stress axis : x y z
#
# Youngs Moduli (GPa) = 46.66001 36.91298 56.76843
#
# Poissons Ratio (x) = 0.28978 0.24136
# Poissons Ratio (y) = 0.36629 -0.05018
# Poissons Ratio (z) = 0.19839 -0.03263
#
# Static dielectric constant tensor:
#      x y z
#    x 1.728770 0.000000 0.000000 
#    y 0.000000 1.806220 0.000000 
#    z 0.000000 0.000000 1.804660 
# 
# From -- ./inp_files/20043.got.cif
#   From: 2010.05.17/outbox.cif.g08.bks.cpg/sg44_11_cif.got.tgz:20043.got - 2010.06.03 19:37:08.
