data_PCOD9375464
_publ_section_title
;
Structure prediction by ZEFSAII (Michael W. Deem and Ramdas Pophale) SiO2 
 PCOD9375464
Probable space group: I M M 2
;
_chemical_formula_sum "Si O2"
_cell_formula_units_Z 48
_cell_length_a 18.787582
_cell_length_b 8.681898
_cell_length_c 15.415465
_cell_angle_alpha 90.000000
_cell_angle_beta 90.000000
_cell_angle_gamma 90.000000
_cell_volume 2514.445332
_symmetry_space_group_name_H-M "I M M 2"
_symmetry_group_IT_number 44
_symmetry_cell_setting 'orthorhombic'
loop_
_space_group_symop_operation_xyz
x,y,z
-x,-y,z
-x,y,z
x,-y,z
1/2+x,1/2+y,1/2+z
1/2-x,1/2-y,1/2+z
1/2-x,1/2+y,1/2+z
1/2+x,1/2-y,1/2+z
loop_
_atom_site_type_symbol
_atom_site_label
_atom_site_fract_x
_atom_site_fract_y
_atom_site_fract_z
Si Si1 0.844718 0.688725 0.430070
Si Si2 0.394871 0.321040 0.326815
Si Si3 0.227754 0.183641 0.073905
Si Si4 0.000000 0.312816 0.491150
Si Si5 0.578276 0.816960 0.511551
Si Si6 0.500000 0.184710 0.192422
Si Si7 0.763967 0.320377 0.263078
O O1 0.843078 0.500000 0.430438
O O2 0.787674 0.738554 0.504220
O O3 0.925114 0.738861 0.450710
O O4 0.820479 0.738046 0.333949
O O5 0.414272 0.500000 0.339345
O O6 0.418161 0.224930 0.409961
O O7 0.432716 0.253932 0.242350
O O8 0.310783 0.313419 0.313400
O O9 0.242963 0.234444 0.172181
O O10 0.227835 0.000000 0.068227
O O11 0.148667 0.242337 0.051516
O O12 0.000000 0.500000 0.486025
O O13 0.000000 0.271636 0.592318
O O14 0.500000 0.764879 0.544286
O O15 0.582316 0.000000 0.523176
O O16 0.500000 0.000000 0.199139
O O17 0.779474 0.500000 0.243599
#
# Coordination Sequence:
#
# PCOD9375464 Si02
#       7
#     8   8   8   4   8   4   8
#     4   9  18  36  58  82 116 156 196 241 291 348
#     4  11  21  35  57  84 119 158 194 240 302 362
#     4  11  22  39  62  88 119 158 201 246 301 362
#     4   9  18  33  57  84 113 152 197 243 288 340
#     4  11  23  39  60  87 118 152 197 250 303 361
#     4  11  21  33  53  88 121 148 195 251 300 362
#     4  10  21  38  58  85 118 154 202 249 296 354
#
# _framework density 19.089697999999999
#
# number of rings (size 3 to 8) (size 9 to 14) (size 15 to 20)
#    0.000    1.667    2.500    2.750    0.000    3.667 
#    1.500    0.000    0.000    2.000    0.000    0.000 
#    0.000    0.000    0.000    0.000    0.000    0.000 
#
# Total GULP energy -133965.521166 kJ/mol
# GULP energy per Si atom -5581.896715 kJ/mol
# Density = 1.904625 g / cm^3
# Si number density = 19.089698 Si / 1000 Ang^3
#
#
#
# Elastic Constant Matrix: (Units=GPa)
#
#
# Indices 1 2 3 4 5 6 
#
# 1 117.0289 14.8244 28.0342 0.0000 0.0000 0.0000
# 2 14.8244 27.2686 5.5532 0.0000 0.0000 0.0000
# 3 28.0342 5.5532 59.5069 0.0000 0.0000 0.0000
# 4 0.0000 0.0000 0.0000 28.3087 0.0000 0.0000
# 5 0.0000 0.0000 0.0000 0.0000 20.0185 0.0000
# 6 0.0000 0.0000 0.0000 0.0000 0.0000 13.4596
#
#
#
# Elastic Compliance Matrix: (Units=1/GPa)
#
#
# Indices 1 2 3 4 5 6 
#
# 1 0.010178 -0.004645 -0.004362 0.000000 0.000000 0.000000
# 2 -0.004645 0.039503 -0.001498 0.000000 0.000000 0.000000
# 3 -0.004362 -0.001498 0.018999 0.000000 0.000000 0.000000
# 4 0.000000 0.000000 0.000000 0.035325 0.000000 0.000000
# 5 0.000000 0.000000 0.000000 0.000000 0.049954 0.000000
# 6 0.000000 0.000000 0.000000 0.000000 0.000000 0.074297
#
#
# Mechanical properties :
#
#
# Convention : Reuss Voigt Hill
#
# Bulk Modulus (GPa) = 20.97722 33.40310 27.19016
# Shear Modulus (GPa) = 18.85692 22.71686 20.78689
#
# Velocity S-wave (km/s) = 3.14635 3.45339 3.30344
# Velocity P-wave (km/s) = 4.92057 5.78249 5.36885
#
# Compressibility (1/GPa) = 0.04767075
#
# Stress axis : x y z
#
# Youngs Moduli (GPa) = 98.25016 25.31483 52.63342
#
# Poissons Ratio (x) = 0.11759 0.22956
# Poissons Ratio (y) = 0.45638 0.07885
# Poissons Ratio (z) = 0.42852 0.03792
#
# Static dielectric constant tensor:
#      x y z
#    x 1.702940 0.000000 0.000000 
#    y 0.000000 1.654230 0.000000 
#    z 0.000000 0.000000 1.647240 
# 
# From -- ./inp_files/16148.got.cif
#   From: 2010.05.17/outbox.cif.g08.bks.cpg/sg44_9_cif.got.tgz:16148.got - 2010.06.03 19:37:08.
