data_PCOD9375629
_publ_section_title
;
Structure prediction by ZEFSAII (Michael W. Deem and Ramdas Pophale) SiO2 
 PCOD9375629
Probable space group: I M M 2
;
_chemical_formula_sum "Si O2"
_cell_formula_units_Z 64
_cell_length_a 20.029384
_cell_length_b 8.918079
_cell_length_c 21.034888
_cell_angle_alpha 90.000000
_cell_angle_beta 90.000000
_cell_angle_gamma 90.000000
_cell_volume 3757.328027
_symmetry_space_group_name_H-M "I M M 2"
_symmetry_group_IT_number 44
_symmetry_cell_setting 'orthorhombic'
loop_
_space_group_symop_operation_xyz
x,y,z
-x,-y,z
-x,y,z
x,-y,z
1/2+x,1/2+y,1/2+z
1/2-x,1/2-y,1/2+z
1/2-x,1/2+y,1/2+z
1/2+x,1/2-y,1/2+z
loop_
_atom_site_type_symbol
_atom_site_label
_atom_site_fract_x
_atom_site_fract_y
_atom_site_fract_z
Si Si1 0.785486 0.179630 0.832910
Si Si2 0.425911 0.180717 0.524822
Si Si3 0.709100 0.321328 0.952490
Si Si4 0.076158 0.678438 0.257551
Si Si5 0.710433 0.677813 0.713605
Si Si6 0.074256 0.820186 0.885025
Si Si7 0.076294 0.678281 0.409791
Si Si8 0.786319 0.680200 0.082245
O O1 0.748722 0.238540 0.896144
O O2 0.751830 0.252237 0.771692
O O3 0.863544 0.219670 0.840773
O O4 0.778336 0.000000 0.829526
O O5 0.500000 0.225602 0.547986
O O6 0.417568 0.244086 0.453770
O O7 0.362560 0.226980 0.566204
O O8 0.424381 0.000000 0.521458
O O9 0.714776 0.500000 0.943163
O O10 0.632710 0.269455 0.946162
O O11 0.741851 0.284664 0.020444
O O12 0.084228 0.500000 0.245781
O O13 0.134170 0.766908 0.222754
O O14 0.083674 0.702127 0.333644
O O15 0.000000 0.718823 0.240179
O O16 0.713625 0.500000 0.716135
O O17 0.735717 0.739827 0.646345
O O18 0.000000 0.781039 0.860995
O O19 0.076590 0.000000 0.894158
O O20 0.085195 0.500000 0.420335
O O21 0.000000 0.717775 0.426569
O O22 0.785274 0.500000 0.091293
#
# Coordination Sequence:
#
# PCOD9375629 Si02
#       8
#     8   8   8   8   8   8   8   8
#     4  11  21  35  57  80 109 146 180 219 274 330
#     4   9  17  31  52  77 107 144 180 213 255 312
#     4  11  21  34  56  85 111 139 182 230 269 316
#     4   9  18  34  55  78 108 147 184 216 263 327
#     4  12  25  37  53  79 110 143 187 233 272 317
#     4   9  18  32  53  82 110 137 174 220 266 314
#     4   9  18  33  55  82 110 143 180 218 269 329
#     4  10  22  38  53  75 111 149 185 222 269 325
#
# _framework density 17.033380999999999
#
# number of rings (size 3 to 8) (size 9 to 14) (size 15 to 20)
#    0.000    2.000    2.500    2.625    0.000    3.000 
#    0.000    2.500    0.000    0.750    0.000    1.750 
#    0.000    0.000    0.000    0.000    0.000    0.000 
#
# Total GULP energy -178612.021904 kJ/mol
# GULP energy per Si atom -5581.625684 kJ/mol
# Density = 1.699461 g / cm^3
# Si number density = 17.033381 Si / 1000 Ang^3
#
#
#
# Elastic Constant Matrix: (Units=GPa)
#
#
# Indices 1 2 3 4 5 6 
#
# 1 105.0228 44.7096 61.4068 0.0000 0.0000 0.0000
# 2 44.7096 49.5403 52.6394 0.0000 0.0000 0.0000
# 3 61.4068 52.6394 108.1282 0.0000 0.0000 0.0000
# 4 0.0000 0.0000 0.0000 26.2504 0.0000 0.0000
# 5 0.0000 0.0000 0.0000 0.0000 17.8902 0.0000
# 6 0.0000 0.0000 0.0000 0.0000 0.0000 12.3721
#
#
#
# Elastic Compliance Matrix: (Units=1/GPa)
#
#
# Indices 1 2 3 4 5 6 
#
# 1 0.016401 -0.010161 -0.004368 0.000000 0.000000 0.000000
# 2 -0.010161 0.048111 -0.017651 0.000000 0.000000 0.000000
# 3 -0.004368 -0.017651 0.020322 0.000000 0.000000 0.000000
# 4 0.000000 0.000000 0.000000 0.038095 0.000000 0.000000
# 5 0.000000 0.000000 0.000000 0.000000 0.055897 0.000000
# 6 0.000000 0.000000 0.000000 0.000000 0.000000 0.080827
#
#
# Mechanical properties :
#
#
# Convention : Reuss Voigt Hill
#
# Bulk Modulus (GPa) = 48.84164 64.46700 56.65432
# Shear Modulus (GPa) = 15.11318 18.23156 16.67237
#
# Velocity S-wave (km/s) = 2.98194 3.27516 3.13198
# Velocity P-wave (km/s) = 6.37120 7.22716 6.81264
#
# Compressibility (1/GPa) = 0.02047433
#
# Stress axis : x y z
#
# Youngs Moduli (GPa) = 60.97105 20.78525 49.20819
#
# Poissons Ratio (x) = 0.21120 0.21493
# Poissons Ratio (y) = 0.61952 0.86858
# Poissons Ratio (z) = 0.26631 0.36688
#
# Static dielectric constant tensor:
#      x y z
#    x 1.601870 0.000000 0.000000 
#    y 0.000000 1.565850 0.000000 
#    z 0.000000 0.000000 1.551210 
# 
# From -- ./inp_files/20721.got.cif
#   From: 2010.05.17/outbox.cif.g08.bks.cpg/sg44_11_cif.got.tgz:20721.got - 2010.06.03 19:37:08.
