data_PCOD9375986
_publ_section_title
;
Structure prediction by ZEFSAII (Michael W. Deem and Ramdas Pophale) SiO2 
 PCOD9375986
Probable space group: I M M 2
;
_chemical_formula_sum "Si O2"
_cell_formula_units_Z 32
_cell_length_a 30.000000
_cell_length_b 9.000000
_cell_length_c 12.000000
_cell_angle_alpha 90.000000
_cell_angle_beta 90.000000
_cell_angle_gamma 90.000000
_cell_volume 3240.000000
_symmetry_space_group_name_H-M "I M M 2"
_symmetry_group_IT_number 44
_symmetry_cell_setting 'orthorhombic'
loop_
_space_group_symop_operation_xyz
x,y,z
-x,-y,z
-x,y,z
x,-y,z
1/2+x,1/2+y,1/2+z
1/2-x,1/2-y,1/2+z
1/2-x,1/2+y,1/2+z
1/2+x,1/2-y,1/2+z
loop_
_atom_site_type_symbol
_atom_site_label
_atom_site_fract_x
_atom_site_fract_y
_atom_site_fract_z
Si Si1 0.763194 0.669364 0.485940
Si Si2 0.865078 0.176002 0.218105
Si Si3 0.763051 0.169588 0.272851
Si Si4 0.049960 0.677496 0.213566
Si Si5 0.122689 0.329197 0.817822
Si Si6 0.948993 0.828151 0.968937
Si Si7 0.317737 0.830998 0.532531
Si Si8 0.183745 0.173372 0.651416
O O1 0.763824 0.500000 0.445709
O O2 0.754844 0.805216 0.403197
O O3 0.718054 0.698978 0.556709
O O4 0.807530 0.713026 0.550622
O O5 0.816267 0.195854 0.271535
O O6 0.908959 0.242482 0.275860
O O7 0.858664 0.278526 0.109267
O O8 0.870567 0.000000 0.197664
O O9 0.728738 0.290259 0.222544
O O10 0.751568 0.000000 0.239185
O O11 0.056648 0.500000 0.206250
O O12 0.000000 0.703240 0.259741
O O13 0.050054 0.751622 0.090421
O O14 0.115477 0.500000 0.783130
O O15 0.081009 0.260729 0.882063
O O16 0.141155 0.225067 0.720446
O O17 0.162217 0.330391 0.909465
O O18 0.000000 0.829391 0.929631
O O19 0.933618 0.000000 0.978931
O O20 0.304011 0.000000 0.562644
O O21 0.182431 0.000000 0.622320
#
# Coordination Sequence:
#
# PCOD9375986 Si02
#       8
#     8   8   8   8   8   8   8   8
#     4  12  24  38  55  76 105 141 181 224 266 313
#     4  11  22  34  53  77 106 141 179 221 264 315
#     4  11  23  38  54  77 107 139 180 223 264 315
#     4  10  20  33  50  74 106 141 177 218 264 316
#     4  11  22  35  53  77 107 143 181 221 262 315
#     4  10  20  33  51  76 106 139 177 219 264 317
#     4  11  21  32  51  75 106 143 180 220 261 308
#     4  12  24  37  56  78 105 142 180 221 267 315
#
# _framework density 9.8765429999999999
#
# number of rings (size 3 to 8) (size 9 to 14) (size 15 to 20)
#    0.000    1.000    3.750    4.500    0.000    4.000 
#    0.000    0.000    0.000    0.000    0.000    0.875 
#    0.000    3.000    0.000    0.000    0.000    0.000 
#
# Total GULP energy -178188.906554 kJ/mol
# GULP energy per Si atom -5568.403330 kJ/mol
# Density = 0.985406 g / cm^3
# Si number density = 9.876543 Si / 1000 Ang^3
#
#
#
# Elastic Constant Matrix: (Units=GPa)
#
#
# Indices 1 2 3 4 5 6 
#
# 1 88.7233 23.0704 -2.5555 0.0000 0.0000 0.0000
# 2 23.0704 123.6045 -6.3624 0.0000 0.0000 0.0000
# 3 -2.5555 -6.3624 -2.0781 0.0000 0.0000 0.0000
# 4 0.0000 0.0000 0.0000 20.0085 0.0000 0.0000
# 5 0.0000 0.0000 0.0000 0.0000 21.1645 0.0000
# 6 0.0000 0.0000 0.0000 0.0000 0.0000 32.6015
#
#
#
# Elastic Compliance Matrix: (Units=1/GPa)
#
#
# Indices 1 2 3 4 5 6 
#
# 1 0.011738 -0.002534 -0.006675 0.000000 0.000000 0.000000
# 2 -0.002534 0.007536 -0.019956 0.000000 0.000000 0.000000
# 3 -0.006675 -0.019956 -0.411900 0.000000 0.000000 0.000000
# 4 0.000000 0.000000 0.000000 0.049979 0.000000 0.000000
# 5 0.000000 0.000000 0.000000 0.000000 0.047249 0.000000
# 6 0.000000 0.000000 0.000000 0.000000 0.000000 0.030673
#
#
# Mechanical properties :
#
#
# Convention : Reuss Voigt Hill
#
# Bulk Modulus (GPa) = -2.21751 26.50609 12.14429
# Shear Modulus (GPa) = -14.01684 27.82805 6.90560
#
# Velocity S-wave (km/s) = -2.66673 3.75746 1.87178
# Velocity P-wave (km/s) = 3.25683 5.68089 3.29132
#
# Compressibility (1/GPa) = -0.45095671
#
# Stress axis : x y z
#
# Youngs Moduli (GPa) = 85.19515 132.69397 -2.42777
#
# Poissons Ratio (x) = 0.33630 -0.01620
# Poissons Ratio (y) = 0.21592 -0.04845
# Poissons Ratio (z) = 0.56865 2.64806
#
# Static dielectric constant tensor:
#      x y z
#    x 1.772660 0.000000 0.000000 
#    y 0.000000 1.657050 0.000000 
#    z 0.000000 0.000000 1.837390 
# 
# From -- ./inp_files/15076.got.cif
#   From: 2010.05.17/outbox.ucp.g08.bks.cvg/sg44_8_cif.got.tgz:15076.got - 2010.06.11 16:32:36.
