data_PCOD9375301
_publ_section_title
;
Structure prediction by ZEFSAII (Michael W. Deem and Ramdas Pophale) SiO2 
 PCOD9375301
Probable space group: I M M 2
;
_chemical_formula_sum "Si O2"
_cell_formula_units_Z 48
_cell_length_a 9.028373
_cell_length_b 14.672343
_cell_length_c 18.934316
_cell_angle_alpha 90.000000
_cell_angle_beta 90.000000
_cell_angle_gamma 90.000000
_cell_volume 2508.179335
_symmetry_space_group_name_H-M "I M M 2"
_symmetry_group_IT_number 44
_symmetry_cell_setting 'orthorhombic'
loop_
_space_group_symop_operation_xyz
x,y,z
-x,-y,z
-x,y,z
x,-y,z
1/2+x,1/2+y,1/2+z
1/2-x,1/2-y,1/2+z
1/2-x,1/2+y,1/2+z
1/2+x,1/2-y,1/2+z
loop_
_atom_site_type_symbol
_atom_site_label
_atom_site_fract_x
_atom_site_fract_y
_atom_site_fract_z
Si Si1 0.673431 0.109116 0.838080
Si Si2 0.327990 0.891260 0.428415
Si Si3 0.675947 0.724327 0.214875
Si Si4 0.175961 0.106916 0.281164
Si Si5 0.677016 0.781408 0.569527
Si Si6 0.676971 0.395477 0.487465
O O1 0.500000 0.133086 0.835859
O O2 0.759506 0.161794 0.777210
O O3 0.740901 0.129657 0.915004
O O4 0.687470 0.000000 0.828166
O O5 0.500000 0.867078 0.412317
O O6 0.228409 0.869259 0.360733
O O7 0.286152 0.840695 0.500321
O O8 0.320917 0.000000 0.439296
O O9 0.500000 0.724511 0.216738
O O10 0.739802 0.825295 0.229359
O O11 0.736506 0.691702 0.139407
O O12 0.000000 0.118848 0.274209
O O13 0.210981 0.000000 0.269727
O O14 0.500000 0.789627 0.581749
O O15 0.711280 0.677261 0.547773
O O16 0.500000 0.390459 0.474626
O O17 0.713932 0.500000 0.505737
#
# Coordination Sequence:
#
# PCOD9375301 Si02
#       6
#     8   8   8   8   8   8
#     4  10  21  38  61  86 112 145 186 232 279 329
#     4   9  18  34  57  83 110 142 181 225 274 329
#     4  12  25  38  55  81 115 153 189 230 279 330
#     4  10  21  38  61  86 112 145 186 232 279 329
#     4  10  21  36  53  77 111 149 185 222 271 330
#     4   9  18  34  57  83 110 142 181 225 274 329
#
# _framework density 19.137387
#
# number of rings (size 3 to 8) (size 9 to 14) (size 15 to 20)
#    0.000    2.000    0.000    3.500    0.000    6.000 
#    0.000    3.333    0.000    0.000    0.000    0.000 
#    0.000    0.000    0.000    0.000    0.000    0.000 
#
# Total GULP energy -134115.194652 kJ/mol
# GULP energy per Si atom -5588.133111 kJ/mol
# Density = 1.909383 g / cm^3
# Si number density = 19.137387 Si / 1000 Ang^3
#
#
#
# Elastic Constant Matrix: (Units=GPa)
#
#
# Indices 1 2 3 4 5 6 
#
# 1 55.7467 12.9188 20.1776 0.0000 0.0000 0.0000
# 2 12.9188 24.3145 6.4070 0.0000 0.0000 0.0000
# 3 20.1776 6.4070 43.0412 0.0000 0.0000 0.0000
# 4 0.0000 0.0000 0.0000 9.4312 0.0000 0.0000
# 5 0.0000 0.0000 0.0000 0.0000 36.3527 0.0000
# 6 0.0000 0.0000 0.0000 0.0000 0.0000 23.5220
#
#
#
# Elastic Compliance Matrix: (Units=1/GPa)
#
#
# Indices 1 2 3 4 5 6 
#
# 1 0.023765 -0.010087 -0.009639 0.000000 0.000000 0.000000
# 2 -0.010087 0.047088 -0.002281 0.000000 0.000000 0.000000
# 3 -0.009639 -0.002281 0.028092 0.000000 0.000000 0.000000
# 4 0.000000 0.000000 0.000000 0.106031 0.000000 0.000000
# 5 0.000000 0.000000 0.000000 0.000000 0.027508 0.000000
# 6 0.000000 0.000000 0.000000 0.000000 0.000000 0.042513
#
#
# Mechanical properties :
#
#
# Convention : Reuss Voigt Hill
#
# Bulk Modulus (GPa) = 18.20463 22.45655 20.33059
# Shear Modulus (GPa) = 14.82268 19.43446 17.12857
#
# Velocity S-wave (km/s) = 2.78608 3.19018 2.99495
# Velocity P-wave (km/s) = 4.45902 5.03285 4.75460
#
# Compressibility (1/GPa) = 0.05493108
#
# Stress axis : x y z
#
# Youngs Moduli (GPa) = 42.07906 21.23688 35.59729
#
# Poissons Ratio (x) = 0.21421 0.34314
# Poissons Ratio (y) = 0.42444 0.08119
# Poissons Ratio (z) = 0.40562 0.04844
#
# Static dielectric constant tensor:
#      x y z
#    x 1.640420 0.000000 0.000000 
#    y 0.000000 1.691970 0.000000 
#    z 0.000000 0.000000 1.626500 
# 
# From -- ./inp_files/16100.got.cif
#   From: 2010.05.17/outbox.cif.g08.bks.cpg/sg44_9_cif.got.tgz:16100.got - 2010.06.03 19:37:08.
