data_PCOD9375819
_publ_section_title
;
Structure prediction by ZEFSAII (Michael W. Deem and Ramdas Pophale) SiO2 
 PCOD9375819
Probable space group: I M M 2
;
_chemical_formula_sum "Si O2"
_cell_formula_units_Z 64
_cell_length_a 8.807733
_cell_length_b 28.834059
_cell_length_c 12.874246
_cell_angle_alpha 90.000000
_cell_angle_beta 90.000000
_cell_angle_gamma 90.000000
_cell_volume 3269.578184
_symmetry_space_group_name_H-M "I M M 2"
_symmetry_group_IT_number 44
_symmetry_cell_setting 'orthorhombic'
loop_
_space_group_symop_operation_xyz
x,y,z
-x,-y,z
-x,y,z
x,-y,z
1/2+x,1/2+y,1/2+z
1/2-x,1/2-y,1/2+z
1/2-x,1/2+y,1/2+z
1/2+x,1/2-y,1/2+z
loop_
_atom_site_type_symbol
_atom_site_label
_atom_site_fract_x
_atom_site_fract_y
_atom_site_fract_z
Si Si1 0.684228 0.406189 0.987400
Si Si2 0.673316 0.678132 0.700917
Si Si3 0.678938 0.615911 0.382524
Si Si4 0.317742 0.946208 0.699524
Si Si5 0.180172 0.298232 0.487430
Si Si6 0.825694 0.552320 0.549834
Si Si7 0.673089 0.569989 0.760244
Si Si8 0.815291 0.802534 0.425727
O O1 0.500000 0.406834 0.995151
O O2 0.722747 0.433010 0.880019
O O3 0.733300 0.352096 0.972913
O O4 0.755848 0.429187 0.088314
O O5 0.500000 0.692693 0.676071
O O6 0.776380 0.684223 0.601522
O O7 0.666905 0.624726 0.735500
O O8 0.730436 0.702671 0.805217
O O9 0.500000 0.618205 0.366709
O O10 0.754770 0.588101 0.287953
O O11 0.743693 0.667112 0.404801
O O12 0.717966 0.586187 0.485815
O O13 0.500000 0.944366 0.700706
O O14 0.271852 0.000000 0.717914
O O15 0.231525 0.244697 0.481053
O O16 0.000000 0.299804 0.471671
O O17 0.813797 0.500000 0.507690
O O18 0.779563 0.550871 0.670394
O O19 0.000000 0.567952 0.538182
O O20 0.500000 0.552492 0.750216
O O21 0.000000 0.804729 0.425077
#
# Coordination Sequence:
#
# PCOD9375819 Si02
#       8
#     8   8   8   8   8   8   8   8
#     4   9  19  39  64  89 121 160 204 250 296 356
#     4   9  17  34  56  78 110 152 193 238 290 346
#     4  12  25  41  61  85 115 155 204 253 302 366
#     4  11  25  44  64  88 122 163 207 260 319 373
#     4  11  21  35  58  88 121 157 198 248 307 364
#     4  11  23  37  56  85 119 150 185 237 298 356
#     4   9  18  34  58  84 113 152 194 236 287 347
#     4   8  18  36  58  86 121 160 201 248 301 356
#
# _framework density 19.574390999999999
#
# number of rings (size 3 to 8) (size 9 to 14) (size 15 to 20)
#    0.000    2.000    1.250    4.125    0.000    5.500 
#    0.000    9.375    0.000    0.000    0.000    0.000 
#    0.000    0.000    0.000    0.000    0.000    0.000 
#
# Total GULP energy -178604.447378 kJ/mol
# GULP energy per Si atom -5581.388981 kJ/mol
# Density = 1.952984 g / cm^3
# Si number density = 19.574391 Si / 1000 Ang^3
#
#
#
# Elastic Constant Matrix: (Units=GPa)
#
#
# Indices 1 2 3 4 5 6 
#
# 1 49.0749 13.3105 13.4000 -0.0001 0.0000 0.0000
# 2 13.3105 58.2241 16.1113 -0.0002 0.0000 0.0000
# 3 13.4000 16.1113 87.3380 0.0003 0.0001 0.0000
# 4 -0.0001 -0.0002 0.0003 19.5311 0.0000 0.0000
# 5 0.0000 0.0000 0.0001 0.0000 19.9941 0.0000
# 6 0.0000 0.0000 0.0000 0.0000 0.0000 17.0615
#
#
#
# Elastic Compliance Matrix: (Units=1/GPa)
#
#
# Indices 1 2 3 4 5 6 
#
# 1 0.022275 -0.004370 -0.002612 0.000000 0.000000 0.000000
# 2 -0.004370 0.018956 -0.002826 0.000000 0.000000 0.000000
# 3 -0.002612 -0.002826 0.012372 0.000000 0.000000 0.000000
# 4 0.000000 0.000000 0.000000 0.051200 0.000000 0.000000
# 5 0.000000 0.000000 0.000000 0.000000 0.050015 0.000000
# 6 0.000000 0.000000 0.000000 0.000000 0.000000 0.058611
#
#
# Mechanical properties :
#
#
# Convention : Reuss Voigt Hill
#
# Bulk Modulus (GPa) = 29.42222 31.14229 30.28226
# Shear Modulus (GPa) = 20.46042 21.43836 20.94939
#
# Velocity S-wave (km/s) = 3.23656 3.31301 3.27501
# Velocity P-wave (km/s) = 5.38802 5.52982 5.45938
#
# Compressibility (1/GPa) = 0.03398791
#
# Stress axis : x y z
#
# Youngs Moduli (GPa) = 44.89280 52.75359 80.82866
#
# Poissons Ratio (x) = 0.23052 0.21109
# Poissons Ratio (y) = 0.19617 0.22845
# Poissons Ratio (z) = 0.11724 0.14910
#
# Static dielectric constant tensor:
#      x y z
#    x 1.665870 0.000000 0.000000 
#    y 0.000000 1.719010 0.000000 
#    z 0.000000 0.000000 1.679350 
# 
# From -- ./inp_files/11542.got.cif
#   From: 2010.05.17/outbox.cif.g08.bks.cpg/sg44_6_cif.got.tgz:11542.got - 2010.06.03 19:37:08.
