data_PCOD9375892
_publ_section_title
;
Structure prediction by ZEFSAII (Michael W. Deem and Ramdas Pophale) SiO2 
 PCOD9375892
Probable space group: I M M 2
;
_chemical_formula_sum "Si O2"
_cell_formula_units_Z 34
_cell_length_a 28.505937
_cell_length_b 10.615575
_cell_length_c 5.054461
_cell_angle_alpha 90.000000
_cell_angle_beta 90.000000
_cell_angle_gamma 90.000000
_cell_volume 1529.514836
_symmetry_space_group_name_H-M "I M M 2"
_symmetry_group_IT_number 44
_symmetry_cell_setting 'orthorhombic'
loop_
_space_group_symop_operation_xyz
x,y,z
-x,-y,z
-x,y,z
x,-y,z
1/2+x,1/2+y,1/2+z
1/2-x,1/2-y,1/2+z
1/2-x,1/2+y,1/2+z
1/2+x,1/2-y,1/2+z
loop_
_atom_site_type_symbol
_atom_site_label
_atom_site_fract_x
_atom_site_fract_y
_atom_site_fract_z
Si Si1 0.913016 0.000000 0.533061
Si Si2 0.781541 0.244207 0.015421
Si Si3 0.873155 0.643247 0.167572
Si Si4 0.500000 0.000000 0.116338
Si Si5 0.346248 0.500000 0.532147
Si Si6 0.576257 0.227427 0.160171
O O1 0.939854 0.868548 0.586002
O O2 0.887457 0.000000 0.249848
O O3 0.870876 0.000000 0.747371
O O4 0.739324 0.249229 0.223468
O O5 0.819454 0.351269 0.079690
O O6 0.812544 0.119694 0.058398
O O7 0.890236 0.500000 0.159674
O O8 0.881122 0.698247 0.458411
O O9 0.904619 0.720100 0.958348
O O10 0.459779 0.886891 0.120772
#
# Coordination Sequence:
#
# PCOD9375892 Si02
#       6
#     4   8   8   2   4   8
#     4  12  22  47  70 100 136 190 232 278 358 431
#     4  12  26  41  64 102 137 181 235 297 344 412
#     4  12  24  46  69 100 137 190 232 282 359 427
#     4  12  28  48  74 114 140 184 244 304 368 436
#     4  12  24  44  67  93 140 188 234 280 348 426
#     4  12  25  45  74 102 140 184 230 296 354 432
#
# _framework density 22.229272000000002
#
# number of rings (size 3 to 8) (size 9 to 14) (size 15 to 20)
#    0.000    0.000    7.059    2.824    3.294    2.353 
#    0.000    0.000    0.000    4.235    0.000    0.000 
#    0.000    0.000    0.000    0.000    0.000    0.000 
#
# Total GULP energy -94832.544226 kJ/mol
# GULP energy per Si atom -5578.384954 kJ/mol
# Density = 2.217868 g / cm^3
# Si number density = 22.229272 Si / 1000 Ang^3
#
#
#
# Elastic Constant Matrix: (Units=GPa)
#
#
# Indices 1 2 3 4 5 6 
#
# 1 76.5447 24.2143 -4.5444 0.0008 -0.0006 0.0000
# 2 24.2143 180.2856 1.5458 0.0019 -0.0016 -0.0006
# 3 -4.5444 1.5458 75.3559 0.0023 -0.0022 -0.0010
# 4 0.0008 0.0019 0.0023 25.7325 -0.0013 -0.0007
# 5 -0.0006 -0.0016 -0.0022 -0.0013 -46.5138 0.0002
# 6 0.0000 -0.0006 -0.0010 -0.0007 0.0002 41.3408
#
#
#
# Elastic Compliance Matrix: (Units=1/GPa)
#
#
# Indices 1 2 3 4 5 6 
#
# 1 0.013700 -0.001847 0.000864 0.000000 0.000000 0.000000
# 2 -0.001847 0.005797 -0.000230 0.000000 0.000000 0.000000
# 3 0.000864 -0.000230 0.013327 -0.000001 -0.000001 0.000000
# 4 0.000000 0.000000 -0.000001 0.038861 -0.000001 0.000001
# 5 0.000000 0.000000 -0.000001 -0.000001 -0.021499 0.000000
# 6 0.000000 0.000000 0.000000 0.000001 0.000000 0.024189
#
#
# Mechanical properties :
#
#
# Convention : Reuss Voigt Hill
#
# Bulk Modulus (GPa) = 32.89836 41.62417 37.26127
# Shear Modulus (GPa) = 57.51412 24.84329 41.17871
#
# Velocity S-wave (km/s) = 5.09208 3.34667 4.30868
# Velocity P-wave (km/s) = 7.02881 5.80510 6.44606
#
# Compressibility (1/GPa) = 0.03039665
#
# Stress axis : x y z
#
# Youngs Moduli (GPa) = 72.99278 172.50708 75.03453
#
# Poissons Ratio (x) = 0.31870 -0.06484
# Poissons Ratio (y) = 0.13485 0.01728
# Poissons Ratio (z) = -0.06307 0.03973
#
# Static dielectric constant tensor:
#      x y z
#    x 1.765970 0.000000 0.000000 
#    y 0.000000 1.901230 0.000000 
#    z 0.000000 0.000000 1.770060 
# 
# From -- ./inp_files/2669.got.cif
#   From: 2010.05.17/outbox.cif.g08.bks.cpg/sg44_2_cif.got.tgz:2669.got - 2010.06.03 19:37:08.
