data_PCOD9375569
_publ_section_title
;
Structure prediction by ZEFSAII (Michael W. Deem and Ramdas Pophale) SiO2 
 PCOD9375569
Probable space group: I M M 2
;
_chemical_formula_sum "Si O2"
_cell_formula_units_Z 40
_cell_length_a 15.636752
_cell_length_b 18.524956
_cell_length_c 6.759804
_cell_angle_alpha 90.000000
_cell_angle_beta 90.000000
_cell_angle_gamma 90.000000
_cell_volume 1958.113390
_symmetry_space_group_name_H-M "I M M 2"
_symmetry_group_IT_number 44
_symmetry_cell_setting 'orthorhombic'
loop_
_space_group_symop_operation_xyz
x,y,z
-x,-y,z
-x,y,z
x,-y,z
1/2+x,1/2+y,1/2+z
1/2-x,1/2-y,1/2+z
1/2-x,1/2+y,1/2+z
1/2+x,1/2-y,1/2+z
loop_
_atom_site_type_symbol
_atom_site_label
_atom_site_fract_x
_atom_site_fract_y
_atom_site_fract_z
Si Si1 0.598525 0.084343 0.601760
Si Si2 0.678409 0.316636 0.472448
Si Si3 0.595261 0.350235 0.078404
Si Si4 0.642782 0.221008 0.822341
Si Si5 0.254224 0.415092 0.815726
O O1 0.500000 0.091260 0.537695
O O2 0.614214 0.139501 0.782474
O O3 0.666411 0.103576 0.430088
O O4 0.613432 0.000000 0.654920
O O5 0.618189 0.351170 0.308690
O O6 0.627360 0.263935 0.618115
O O7 0.755073 0.276796 0.357097
O O8 0.726790 0.373009 0.614352
O O9 0.500000 0.377267 0.039440
O O10 0.668063 0.393406 0.961238
O O11 0.601839 0.267767 0.996712
O O12 0.253666 0.500000 0.779569
#
# Coordination Sequence:
#
# PCOD9375569 Si02
#       5
#     8   8   8   8   8
#     4  10  21  39  64  93 125 163 206 254 310 370
#     4  11  21  38  64  91 122 163 208 249 304 368
#     4  11  24  40  64  95 126 162 206 256 308 365
#     4  11  20  39  63  92 122 160 202 252 307 363
#     4  10  23  42  64  90 126 166 207 256 307 366
#
# _framework density 20.427828000000002
#
# number of rings (size 3 to 8) (size 9 to 14) (size 15 to 20)
#    0.000    1.400    4.000    1.800    0.000    6.000 
#    0.000    1.000    0.000    2.400    0.000    0.000 
#    0.000    0.000    0.000    0.000    0.000    0.000 
#
# Total GULP energy -111710.725055 kJ/mol
# GULP energy per Si atom -5585.536253 kJ/mol
# Density = 2.038133 g / cm^3
# Si number density = 20.427828 Si / 1000 Ang^3
#
#
#
# Elastic Constant Matrix: (Units=GPa)
#
#
# Indices 1 2 3 4 5 6 
#
# 1 107.2874 8.6433 13.0872 0.0000 0.0000 0.0000
# 2 8.6433 79.6201 22.5205 0.0000 0.0000 0.0000
# 3 13.0872 22.5205 79.4699 0.0000 0.0000 0.0000
# 4 0.0000 0.0000 0.0000 20.7263 0.0000 0.0000
# 5 0.0000 0.0000 0.0000 0.0000 6.0498 0.0000
# 6 0.0000 0.0000 0.0000 0.0000 0.0000 21.3579
#
#
#
# Elastic Compliance Matrix: (Units=1/GPa)
#
#
# Indices 1 2 3 4 5 6 
#
# 1 0.009542 -0.000643 -0.001389 0.000000 0.000000 0.000000
# 2 -0.000643 0.013697 -0.003776 0.000000 0.000000 0.000000
# 3 -0.001389 -0.003776 0.013882 0.000000 0.000000 0.000000
# 4 0.000000 0.000000 0.000000 0.048248 0.000000 0.000000
# 5 0.000000 0.000000 0.000000 0.000000 0.165294 0.000000
# 6 0.000000 0.000000 0.000000 0.000000 0.000000 0.046821
#
#
# Mechanical properties :
#
#
# Convention : Reuss Voigt Hill
#
# Bulk Modulus (GPa) = 39.20670 39.43103 39.31887
# Shear Modulus (GPa) = 15.74298 24.43525 20.08912
#
# Velocity S-wave (km/s) = 2.77909 3.46233 3.13935
# Velocity P-wave (km/s) = 5.43436 5.94375 5.69475
#
# Compressibility (1/GPa) = 0.02550584
#
# Stress axis : x y z
#
# Youngs Moduli (GPa) = 104.79975 73.00656 72.03500
#
# Poissons Ratio (x) = 0.04694 0.10007
# Poissons Ratio (y) = 0.06738 0.27199
# Poissons Ratio (z) = 0.14559 0.27565
#
# Static dielectric constant tensor:
#      x y z
#    x 1.723130 0.000000 0.000000 
#    y 0.000000 1.753260 0.000000 
#    z 0.000000 0.000000 1.716580 
# 
# From -- ./inp_files/1901.got.cif
#   From: 2010.05.17/outbox.cif.g08.bks.cpg/sg44_1_cif.got.tgz:1901.got - 2010.06.03 19:37:08.
