data_PCOD9375046
_publ_section_title
;
Structure prediction by ZEFSAII (Michael W. Deem and Ramdas Pophale) SiO2 
 PCOD9375046
Probable space group: I M M 2
;
_chemical_formula_sum "Si O2"
_cell_formula_units_Z 48
_cell_length_a 10.185174
_cell_length_b 8.739463
_cell_length_c 28.434026
_cell_angle_alpha 90.000000
_cell_angle_beta 90.000000
_cell_angle_gamma 90.000000
_cell_volume 2530.996572
_symmetry_space_group_name_H-M "I M M 2"
_symmetry_group_IT_number 44
_symmetry_cell_setting 'orthorhombic'
loop_
_space_group_symop_operation_xyz
x,y,z
-x,-y,z
-x,y,z
x,-y,z
1/2+x,1/2+y,1/2+z
1/2-x,1/2-y,1/2+z
1/2-x,1/2+y,1/2+z
1/2+x,1/2-y,1/2+z
loop_
_atom_site_type_symbol
_atom_site_label
_atom_site_fract_x
_atom_site_fract_y
_atom_site_fract_z
Si Si1 0.257468 0.182474 0.623870
Si Si2 0.758072 0.178643 0.838171
Si Si3 0.000000 0.317886 0.782038
Si Si4 0.000000 0.315696 0.672678
Si Si5 0.652786 0.186674 0.938939
Si Si6 0.000000 0.178305 0.178565
Si Si7 0.653790 0.314927 0.523967
Si Si8 0.500000 0.172341 0.774601
O O1 0.125953 0.253970 0.645119
O O2 0.373954 0.239807 0.657194
O O3 0.292826 0.243169 0.572051
O O4 0.248892 0.000000 0.623537
O O5 0.873346 0.262289 0.810696
O O6 0.718009 0.237437 0.889803
O O7 0.627394 0.185509 0.806881
O O8 0.796249 0.000000 0.843183
O O9 0.000000 0.500000 0.780152
O O10 0.000000 0.263296 0.727503
O O11 0.000000 0.500000 0.672225
O O12 0.500000 0.236426 0.943454
O O13 0.649109 0.000000 0.937562
O O14 0.748571 0.230329 0.981671
O O15 0.000000 0.203217 0.234108
O O16 0.000000 0.000000 0.165691
O O17 0.500000 0.272817 0.516471
O O18 0.657914 0.500000 0.527859
O O19 0.500000 0.000000 0.753394
#
# Coordination Sequence:
#
# PCOD9375046 Si02
#       8
#     8   8   4   4   8   4   8   4
#     4  12  25  42  64  92 126 161 204 261 316 369
#     4  10  20  37  63  91 123 160 202 251 303 362
#     4  11  25  41  58  87 124 163 207 251 304 363
#     4  11  25  45  66  89 124 168 211 256 308 377
#     4   9  18  35  61  94 124 156 203 253 300 360
#     4  12  24  40  63  90 121 164 211 252 305 374
#     4  10  21  37  61  92 124 162 207 251 304 370
#     4  10  20  36  61  94 123 153 197 253 313 364
#
# _framework density 18.964860999999999
#
# number of rings (size 3 to 8) (size 9 to 14) (size 15 to 20)
#    0.000    1.500    1.667    3.750    2.333    4.667 
#    0.000    0.833    0.000    1.000    0.000    0.000 
#    0.000    0.000    0.000    0.000    0.000    0.000 
#
# Total GULP energy -134089.803425 kJ/mol
# GULP energy per Si atom -5587.075143 kJ/mol
# Density = 1.892170 g / cm^3
# Si number density = 18.964861 Si / 1000 Ang^3
#
#
#
# Elastic Constant Matrix: (Units=GPa)
#
#
# Indices 1 2 3 4 5 6 
#
# 1 174.6940 49.8653 74.7437 0.0000 0.0000 0.0000
# 2 49.8653 56.6631 43.4074 0.0000 0.0000 0.0000
# 3 74.7437 43.4074 140.6236 0.0000 0.0000 0.0000
# 4 0.0000 0.0000 0.0000 28.0853 0.0000 0.0000
# 5 0.0000 0.0000 0.0000 0.0000 35.1958 0.0000
# 6 0.0000 0.0000 0.0000 0.0000 0.0000 23.0828
#
#
#
# Elastic Compliance Matrix: (Units=1/GPa)
#
#
# Indices 1 2 3 4 5 6 
#
# 1 0.008448 -0.005232 -0.002875 0.000000 0.000000 0.000000
# 2 -0.005232 0.026354 -0.005354 0.000000 0.000000 0.000000
# 3 -0.002875 -0.005354 0.010292 0.000000 0.000000 0.000000
# 4 0.000000 0.000000 0.000000 0.035606 0.000000 0.000000
# 5 0.000000 0.000000 0.000000 0.000000 0.028413 0.000000
# 6 0.000000 0.000000 0.000000 0.000000 0.000000 0.043322
#
#
# Mechanical properties :
#
#
# Convention : Reuss Voigt Hill
#
# Bulk Modulus (GPa) = 55.03083 78.66815 66.84949
# Shear Modulus (GPa) = 26.96671 30.87040 28.91855
#
# Velocity S-wave (km/s) = 3.77494 4.03894 3.90917
# Velocity P-wave (km/s) = 6.93401 7.95750 7.46332
#
# Compressibility (1/GPa) = 0.01817163
#
# Stress axis : x y z
#
# Youngs Moduli (GPa) = 118.37330 37.94511 97.16184
#
# Poissons Ratio (x) = 0.19852 0.27936
# Poissons Ratio (y) = 0.61930 0.52021
# Poissons Ratio (z) = 0.34035 0.20316
#
# Static dielectric constant tensor:
#      x y z
#    x 1.654300 0.000000 0.000000 
#    y 0.000000 1.657110 0.000000 
#    z 0.000000 0.000000 1.645620 
# 
# From -- ./inp_files/27030.got.cif
#   From: 2010.05.17/outbox.cif.g08.bks.cpg/sg44_14_cif.got.tgz:27030.got - 2010.06.03 19:37:08.
