data_PCOD9375621
_publ_section_title
;
Structure prediction by ZEFSAII (Michael W. Deem and Ramdas Pophale) SiO2 
 PCOD9375621
Probable space group: I M M 2
;
_chemical_formula_sum "Si O2"
_cell_formula_units_Z 64
_cell_length_a 28.887322
_cell_length_b 8.995303
_cell_length_c 13.248834
_cell_angle_alpha 90.000000
_cell_angle_beta 90.000000
_cell_angle_gamma 90.000000
_cell_volume 3442.712353
_symmetry_space_group_name_H-M "I M M 2"
_symmetry_group_IT_number 44
_symmetry_cell_setting 'orthorhombic'
loop_
_space_group_symop_operation_xyz
x,y,z
-x,-y,z
-x,y,z
x,-y,z
1/2+x,1/2+y,1/2+z
1/2-x,1/2-y,1/2+z
1/2-x,1/2+y,1/2+z
1/2+x,1/2-y,1/2+z
loop_
_atom_site_type_symbol
_atom_site_label
_atom_site_fract_x
_atom_site_fract_y
_atom_site_fract_z
Si Si1 0.290943 0.663337 0.453630
Si Si2 0.946311 0.680965 0.833792
Si Si3 0.700029 0.830902 0.081483
Si Si4 0.122164 0.177860 0.449503
Si Si5 0.555472 0.176021 0.107589
Si Si6 0.145726 0.178327 0.222231
Si Si7 0.253591 0.829215 0.737100
Si Si8 0.620394 0.175973 0.515435
O O1 0.314094 0.500000 0.455666
O O2 0.252004 0.666546 0.538579
O O3 0.261253 0.675284 0.352933
O O4 0.329041 0.787309 0.470341
O O5 0.945566 0.500000 0.832087
O O6 0.929620 0.726038 0.721024
O O7 0.000000 0.726273 0.844867
O O8 0.915936 0.727891 0.929740
O O9 0.708733 0.738483 0.181790
O O10 0.684611 0.000000 0.099354
O O11 0.666562 0.751958 0.002820
O O12 0.079859 0.237355 0.517004
O O13 0.122509 0.216946 0.330434
O O14 0.125083 0.000000 0.456473
O O15 0.500000 0.192351 0.103926
O O16 0.565895 0.000000 0.097814
O O17 0.197937 0.243631 0.224397
O O18 0.119839 0.243916 0.124268
O O19 0.148197 0.000000 0.214245
O O20 0.260579 0.000000 0.704414
O O21 0.614501 0.000000 0.530212
#
# Coordination Sequence:
#
# PCOD9375621 Si02
#       8
#     8   8   8   8   8   8   8   8
#     4  10  22  37  53  78 115 152 187 235 285 335
#     4   8  17  37  62  89 117 143 178 229 288 344
#     4  11  22  37  56  80 113 153 193 235 286 338
#     4  11  24  39  58  85 116 154 198 241 286 341
#     4   9  19  39  66  91 116 147 184 232 293 354
#     4  11  23  39  56  77 114 158 194 236 286 336
#     4  11  22  37  55  78 110 150 195 241 283 333
#     4  11  22  35  59  88 113 149 194 237 282 342
#
# _framework density 18.589993
#
# number of rings (size 3 to 8) (size 9 to 14) (size 15 to 20)
#    0.000    1.750    2.500    2.625    1.750    3.250 
#    0.000    1.250    0.000    5.250    0.000    0.000 
#    0.000    0.000    0.000    0.000    0.000    0.000 
#
# Total GULP energy -178483.588563 kJ/mol
# GULP energy per Si atom -5577.612143 kJ/mol
# Density = 1.854768 g / cm^3
# Si number density = 18.589993 Si / 1000 Ang^3
#
#
#
# Elastic Constant Matrix: (Units=GPa)
#
#
# Indices 1 2 3 4 5 6 
#
# 1 61.2073 25.8674 44.6747 0.0000 0.0000 0.0000
# 2 25.8674 70.3041 46.7675 0.0000 0.0000 0.0000
# 3 44.6747 46.7675 126.6475 0.0000 0.0000 0.0000
# 4 0.0000 0.0000 0.0000 27.0732 0.0000 0.0000
# 5 0.0000 0.0000 0.0000 0.0000 32.5214 0.0000
# 6 0.0000 0.0000 0.0000 0.0000 0.0000 22.6539
#
#
#
# Elastic Compliance Matrix: (Units=1/GPa)
#
#
# Indices 1 2 3 4 5 6 
#
# 1 0.022835 -0.004035 -0.006565 0.000000 0.000000 0.000000
# 2 -0.004035 0.019569 -0.005803 0.000000 0.000000 0.000000
# 3 -0.006565 -0.005803 0.012355 0.000000 0.000000 0.000000
# 4 0.000000 0.000000 0.000000 0.036937 0.000000 0.000000
# 5 0.000000 0.000000 0.000000 0.000000 0.030749 0.000000
# 6 0.000000 0.000000 0.000000 0.000000 0.000000 0.044142
#
#
# Mechanical properties :
#
#
# Convention : Reuss Voigt Hill
#
# Bulk Modulus (GPa) = 45.55219 54.75312 50.15266
# Shear Modulus (GPa) = 24.18855 25.83964 25.01409
#
# Velocity S-wave (km/s) = 3.61107 3.73228 3.67218
# Velocity P-wave (km/s) = 6.47636 6.93471 6.70945
#
# Compressibility (1/GPa) = 0.02195284
#
# Stress axis : x y z
#
# Youngs Moduli (GPa) = 43.79276 51.10223 80.94116
#
# Poissons Ratio (x) = 0.20617 0.53139
# Poissons Ratio (y) = 0.17668 0.46970
# Poissons Ratio (z) = 0.28750 0.29655
#
# Static dielectric constant tensor:
#      x y z
#    x 1.626610 0.000000 0.000000 
#    y 0.000000 1.667260 0.000000 
#    z 0.000000 0.000000 1.669820 
# 
# From -- ./inp_files/11459.got.cif
#   From: 2010.05.17/outbox.cif.g08.bks.cpg/sg44_6_cif.got.tgz:11459.got - 2010.06.03 19:37:08.
