data_PCOD9375746
_publ_section_title
;
Structure prediction by ZEFSAII (Michael W. Deem and Ramdas Pophale) SiO2 
 PCOD9375746
Probable space group: I M M 2
;
_chemical_formula_sum "Si O2"
_cell_formula_units_Z 48
_cell_length_a 8.590903
_cell_length_b 31.644598
_cell_length_c 9.338398
_cell_angle_alpha 90.000000
_cell_angle_beta 90.000000
_cell_angle_gamma 90.000000
_cell_volume 2538.696463
_symmetry_space_group_name_H-M "I M M 2"
_symmetry_group_IT_number 44
_symmetry_cell_setting 'orthorhombic'
loop_
_space_group_symop_operation_xyz
x,y,z
-x,-y,z
-x,y,z
x,-y,z
1/2+x,1/2+y,1/2+z
1/2-x,1/2-y,1/2+z
1/2-x,1/2+y,1/2+z
1/2+x,1/2-y,1/2+z
loop_
_atom_site_type_symbol
_atom_site_label
_atom_site_fract_x
_atom_site_fract_y
_atom_site_fract_z
Si Si1 0.813222 0.209260 0.337470
Si Si2 0.688220 0.709627 0.169441
Si Si3 0.689433 0.952536 0.342293
Si Si4 0.687818 0.048330 0.673846
Si Si5 0.813886 0.126949 0.846873
Si Si6 0.813071 0.628812 0.666741
O O1 0.755217 0.250708 0.255034
O O2 0.762727 0.210306 0.503535
O O3 0.748183 0.168003 0.258775
O O4 0.000000 0.207959 0.333908
O O5 0.500000 0.712077 0.173042
O O6 0.735956 0.666157 0.246662
O O7 0.500000 0.952912 0.339585
O O8 0.733798 0.944458 0.507722
O O9 0.741816 0.915057 0.239369
O O10 0.741021 0.000000 0.302392
O O11 0.500000 0.051195 0.681298
O O12 0.760106 0.083384 0.775074
O O13 0.730733 0.000000 0.711139
O O14 0.000000 0.127775 0.856601
O O15 0.744180 0.131847 0.004477
O O16 0.000000 0.629318 0.668608
#
# Coordination Sequence:
#
# PCOD9375746 Si02
#       6
#     8   8   8   8   8   8
#     4  11  23  39  60  84 111 143 182 229 278 331
#     4  10  23  41  59  82 112 147 186 228 278 335
#     4   8  16  33  57  83 109 141 185 233 277 326
#     4   9  18  35  59  84 110 144 188 234 281 336
#     4  11  23  38  56  81 116 152 188 232 280 331
#     4  11  22  36  57  84 114 148 187 230 278 332
#
# _framework density 18.907340999999999
#
# number of rings (size 3 to 8) (size 9 to 14) (size 15 to 20)
#    0.000    2.000    0.000    4.500    0.000    6.333 
#    0.000    2.500    0.000    3.500    0.000    0.000 
#    0.000    0.000    0.000    0.000    0.000    0.000 
#
# Total GULP energy -134086.510000 kJ/mol
# GULP energy per Si atom -5586.937917 kJ/mol
# Density = 1.886431 g / cm^3
# Si number density = 18.907341 Si / 1000 Ang^3
#
#
#
# Elastic Constant Matrix: (Units=GPa)
#
#
# Indices 1 2 3 4 5 6 
#
# 1 25.0321 40.5501 42.0939 0.0001 0.0000 0.0000
# 2 40.5501 174.5930 127.5367 0.0001 0.0000 0.0000
# 3 42.0939 127.5367 189.6048 0.0003 -0.0001 -0.0001
# 4 0.0001 0.0001 0.0003 42.2477 -0.0001 -0.0001
# 5 0.0000 0.0000 -0.0001 -0.0001 28.6033 0.0000
# 6 0.0000 0.0000 -0.0001 -0.0001 0.0000 27.5661
#
#
#
# Elastic Compliance Matrix: (Units=1/GPa)
#
#
# Indices 1 2 3 4 5 6 
#
# 1 0.071424 -0.009841 -0.009237 0.000000 0.000000 0.000000
# 2 -0.009841 0.012616 -0.006302 0.000000 0.000000 0.000000
# 3 -0.009237 -0.006302 0.011564 0.000000 0.000000 0.000000
# 4 0.000000 0.000000 0.000000 0.023670 0.000000 0.000000
# 5 0.000000 0.000000 0.000000 0.000000 0.034961 0.000000
# 6 0.000000 0.000000 0.000000 0.000000 0.000000 0.036276
#
#
# Mechanical properties :
#
#
# Convention : Reuss Voigt Hill
#
# Bulk Modulus (GPa) = 22.29943 89.95458 56.12701
# Shear Modulus (GPa) = 19.51460 31.62003 25.56732
#
# Velocity S-wave (km/s) = 3.21614 4.09390 3.68127
# Velocity P-wave (km/s) = 5.06074 8.36818 6.91511
#
# Compressibility (1/GPa) = 0.04484420
#
# Stress axis : x y z
#
# Youngs Moduli (GPa) = 14.00097 79.26203 86.47806
#
# Poissons Ratio (x) = 0.78000 0.79882
# Poissons Ratio (y) = 0.13778 0.54495
# Poissons Ratio (z) = 0.12933 0.49948
#
# Static dielectric constant tensor:
#      x y z
#    x 1.647200 0.000000 0.000000 
#    y 0.000000 1.634470 0.000000 
#    z 0.000000 0.000000 1.628330 
# 
# From -- ./inp_files/4855.got.cif
#   From: 2010.05.17/outbox.cif.g08.bks.cpg/sg44_3_cif.got.tgz:4855.got - 2010.06.03 19:37:08.
