data_PCOD9375118
_publ_section_title
;
Structure prediction by ZEFSAII (Michael W. Deem and Ramdas Pophale) SiO2 
 PCOD9375118
Probable space group: I M M 2
;
_chemical_formula_sum "Si O2"
_cell_formula_units_Z 48
_cell_length_a 14.346947
_cell_length_b 7.795190
_cell_length_c 18.989100
_cell_angle_alpha 90.000000
_cell_angle_beta 90.000000
_cell_angle_gamma 90.000000
_cell_volume 2123.687353
_symmetry_space_group_name_H-M "I M M 2"
_symmetry_group_IT_number 44
_symmetry_cell_setting 'orthorhombic'
loop_
_space_group_symop_operation_xyz
x,y,z
-x,-y,z
-x,y,z
x,-y,z
1/2+x,1/2+y,1/2+z
1/2-x,1/2-y,1/2+z
1/2-x,1/2+y,1/2+z
1/2+x,1/2-y,1/2+z
loop_
_atom_site_type_symbol
_atom_site_label
_atom_site_fract_x
_atom_site_fract_y
_atom_site_fract_z
Si Si1 0.605517 0.295553 0.796540
Si Si2 0.800755 0.794546 0.153320
Si Si3 0.753008 0.796474 0.899430
Si Si4 0.101564 0.303116 0.627760
Si Si5 0.398473 0.295196 0.286947
Si Si6 0.397821 0.795655 0.516599
O O1 0.500000 0.227739 0.793122
O O2 0.601183 0.500000 0.786268
O O3 0.668205 0.228296 0.730508
O O4 0.652733 0.265648 0.872755
O O5 0.704256 0.722968 0.118775
O O6 0.786488 0.000000 0.159227
O O7 0.880511 0.760242 0.096758
O O8 0.821667 0.726284 0.838984
O O9 0.808370 0.759528 0.970795
O O10 0.749493 0.000000 0.893740
O O11 0.102592 0.500000 0.601681
O O12 0.100223 0.298861 0.712801
O O13 0.000000 0.227783 0.605776
O O14 0.500000 0.275261 0.320303
O O15 0.385435 0.500000 0.273676
O O16 0.500000 0.729171 0.492917
O O17 0.400420 0.000000 0.513284
#
# Coordination Sequence:
#
# PCOD9375118 Si02
#       6
#     8   8   8   8   8   8
#     4  10  21  38  61  89 121 158 202 251 302 358
#     4  10  20  37  61  88 122 161 200 244 298 359
#     4  11  22  37  59  86 118 155 197 246 298 359
#     4   9  17  30  52  83 115 147 186 232 282 339
#     4   9  17  29  48  77 111 144 179 225 281 336
#     4  11  25  42  61  87 119 157 202 252 305 361
#
# _framework density 22.602195999999999
#
# number of rings (size 3 to 8) (size 9 to 14) (size 15 to 20)
#    0.000    2.000    1.667    2.000    0.000    5.000 
#    0.000    2.500    0.000    3.000    0.000    0.000 
#    0.000    0.000    0.000    0.000    0.000    0.000 
#
# Total GULP energy -133744.362113 kJ/mol
# GULP energy per Si atom -5572.681755 kJ/mol
# Density = 2.255075 g / cm^3
# Si number density = 22.602196 Si / 1000 Ang^3
#
#
#
# Elastic Constant Matrix: (Units=GPa)
#
#
# Indices 1 2 3 4 5 6 
#
# 1 148.7301 12.4896 31.7077 0.0000 0.0000 0.0000
# 2 12.4896 34.7670 -10.1216 0.0000 0.0000 0.0000
# 3 31.7077 -10.1216 69.7461 0.0000 0.0000 0.0000
# 4 0.0000 0.0000 0.0000 19.9836 0.0000 0.0000
# 5 0.0000 0.0000 0.0000 0.0000 25.7671 0.0000
# 6 0.0000 0.0000 0.0000 0.0000 0.0000 14.2385
#
#
#
# Elastic Compliance Matrix: (Units=1/GPa)
#
#
# Indices 1 2 3 4 5 6 
#
# 1 0.007965 -0.004088 -0.004215 0.000000 0.000000 0.000000
# 2 -0.004088 0.032130 0.006521 0.000000 0.000000 0.000000
# 3 -0.004215 0.006521 0.017200 0.000000 0.000000 0.000000
# 4 0.000000 0.000000 0.000000 0.050041 0.000000 0.000000
# 5 0.000000 0.000000 0.000000 0.000000 0.038809 0.000000
# 6 0.000000 0.000000 0.000000 0.000000 0.000000 0.070232
#
#
# Mechanical properties :
#
#
# Convention : Reuss Voigt Hill
#
# Bulk Modulus (GPa) = 18.61068 35.71053 27.16060
# Shear Modulus (GPa) = 21.02148 26.60901 23.81525
#
# Velocity S-wave (km/s) = 3.05300 3.43487 3.24955
# Velocity P-wave (km/s) = 4.54749 5.61827 5.11100
#
# Compressibility (1/GPa) = 0.05373259
#
# Stress axis : x y z
#
# Youngs Moduli (GPa) = 125.54288 31.12340 58.13923
#
# Poissons Ratio (x) = 0.12725 0.24503
# Poissons Ratio (y) = 0.51327 -0.37915
# Poissons Ratio (z) = 0.52910 -0.20297
#
# Static dielectric constant tensor:
#      x y z
#    x 1.960530 0.000000 0.000000 
#    y 0.000000 1.829890 0.000000 
#    z 0.000000 0.000000 1.806590 
# 
# From -- ./inp_files/20314.got.cif
#   From: 2010.05.17/outbox.cif.g08.bks.cpg/sg44_11_cif.got.tgz:20314.got - 2010.06.03 19:37:08.
