data_PCOD9375077
_publ_section_title
;
Structure prediction by ZEFSAII (Michael W. Deem and Ramdas Pophale) SiO2 
 PCOD9375077
Probable space group: I M M 2
;
_chemical_formula_sum "Si O2"
_cell_formula_units_Z 58
_cell_length_a 12.947680
_cell_length_b 17.398574
_cell_length_c 12.951170
_cell_angle_alpha 90.000000
_cell_angle_beta 90.000000
_cell_angle_gamma 90.000000
_cell_volume 2917.525201
_symmetry_space_group_name_H-M "I M M 2"
_symmetry_group_IT_number 44
_symmetry_cell_setting 'orthorhombic'
loop_
_space_group_symop_operation_xyz
x,y,z
-x,-y,z
-x,y,z
x,-y,z
1/2+x,1/2+y,1/2+z
1/2-x,1/2-y,1/2+z
1/2-x,1/2+y,1/2+z
1/2+x,1/2-y,1/2+z
loop_
_atom_site_type_symbol
_atom_site_label
_atom_site_fract_x
_atom_site_fract_y
_atom_site_fract_z
Si Si1 0.814332 0.184079 0.938590
Si Si2 0.705084 0.913162 0.225670
Si Si3 0.834084 0.621688 0.158147
Si Si4 0.617308 0.697915 0.670631
Si Si5 0.619063 0.851915 0.428760
Si Si6 0.886663 0.089733 0.747640
Si Si7 0.381186 0.909445 0.997950
Si Si8 0.000000 0.500000 0.231915
O O1 0.812436 0.275105 0.921302
O O2 0.875778 0.142391 0.848304
O O3 0.867371 0.174773 0.050214
O O4 0.702183 0.144393 0.943509
O O5 0.798430 0.853091 0.228171
O O6 0.638499 0.902305 0.328266
O O7 0.639218 0.900138 0.121060
O O8 0.745222 0.000000 0.219292
O O9 0.858454 0.711410 0.178027
O O10 0.713689 0.607264 0.179515
O O11 0.908923 0.567031 0.223234
O O12 0.858274 0.607131 0.037191
O O13 0.500000 0.683942 0.702665
O O14 0.500000 0.826288 0.432269
O O15 0.000000 0.103455 0.699313
O O16 0.881679 0.000000 0.777151
O O17 0.500000 0.892156 0.973241
O O18 0.364100 0.000000 0.973055
#
# Coordination Sequence:
#
# PCOD9375077 Si02
#       8
#     8   8   8   8   8   8   8   2
#     4  10  20  37  57  84 114 152 198 236 291 355
#     4  10  22  36  59  88 117 150 194 239 294 362
#     4  11  22  39  62  90 117 153 199 247 299 343
#     4  10  20  39  61  85 118 153 192 243 295 350
#     4  11  22  38  60  85 114 152 192 247 297 351
#     4  11  23  38  57  84 118 155 195 240 290 354
#     4   9  18  36  57  86 119 150 187 244 303 359
#     4  12  20  40  62  96 114 150 196 262 284 356
#
# _framework density 19.879861999999999
#
# number of rings (size 3 to 8) (size 9 to 14) (size 15 to 20)
#    0.000    1.655    2.069    3.724    0.966    1.655 
#    1.241    8.966    0.000    0.000    0.000    0.000 
#    0.000    0.000    0.000    0.000    0.000    0.000 
#
# Total GULP energy -161783.017423 kJ/mol
# GULP energy per Si atom -5578.724739 kJ/mol
# Density = 1.983461 g / cm^3
# Si number density = 19.879862 Si / 1000 Ang^3
#
#
#
# Elastic Constant Matrix: (Units=GPa)
#
#
# Indices 1 2 3 4 5 6 
#
# 1 146.8331 40.3267 15.0608 -0.0001 0.0000 0.0000
# 2 40.3267 58.4555 9.8484 0.0000 0.0000 0.0000
# 3 15.0608 9.8484 44.3213 -0.0001 0.0000 0.0000
# 4 -0.0001 0.0000 -0.0001 21.3126 0.0000 0.0000
# 5 0.0000 0.0000 0.0000 0.0000 12.4090 0.0000
# 6 0.0000 0.0000 0.0000 0.0000 0.0000 33.7481
#
#
#
# Elastic Compliance Matrix: (Units=1/GPa)
#
#
# Indices 1 2 3 4 5 6 
#
# 1 0.008517 -0.005598 -0.001650 0.000000 0.000000 0.000000
# 2 -0.005598 0.021451 -0.002864 0.000000 0.000000 0.000000
# 3 -0.001650 -0.002864 0.023760 0.000000 0.000000 0.000000
# 4 0.000000 0.000000 0.000000 0.046921 0.000000 0.000000
# 5 0.000000 0.000000 0.000000 0.000000 0.080587 0.000000
# 6 0.000000 0.000000 0.000000 0.000000 0.000000 0.029631
#
#
# Mechanical properties :
#
#
# Convention : Reuss Voigt Hill
#
# Bulk Modulus (GPa) = 29.84782 42.23129 36.03956
# Shear Modulus (GPa) = 20.63903 25.78553 23.21228
#
# Velocity S-wave (km/s) = 3.22559 3.60539 3.42076
# Velocity P-wave (km/s) = 5.37766 6.21459 5.81121
#
# Compressibility (1/GPa) = 0.03350328
#
# Stress axis : x y z
#
# Youngs Moduli (GPa) = 117.41107 46.61736 42.08792
#
# Poissons Ratio (x) = 0.26095 0.06946
# Poissons Ratio (y) = 0.65722 0.12056
# Poissons Ratio (z) = 0.19377 0.13353
#
# Static dielectric constant tensor:
#      x y z
#    x 1.683330 0.000000 0.000000 
#    y 0.000000 1.682250 0.000000 
#    z 0.000000 0.000000 1.730340 
# 
# From -- ./inp_files/17909.got.cif
#   From: 2010.05.17/outbox.cif.g08.bks.cpg/sg44_9_cif.got.tgz:17909.got - 2010.06.03 19:37:08.
