data_PCOD9375406
_publ_section_title
;
Structure prediction by ZEFSAII (Michael W. Deem and Ramdas Pophale) SiO2 
 PCOD9375406
Probable space group: I M M 2
;
_chemical_formula_sum "Si O2"
_cell_formula_units_Z 64
_cell_length_a 22.945407
_cell_length_b 8.021378
_cell_length_c 16.038383
_cell_angle_alpha 90.000000
_cell_angle_beta 90.000000
_cell_angle_gamma 90.000000
_cell_volume 2951.925063
_symmetry_space_group_name_H-M "I M M 2"
_symmetry_group_IT_number 44
_symmetry_cell_setting 'orthorhombic'
loop_
_space_group_symop_operation_xyz
x,y,z
-x,-y,z
-x,y,z
x,-y,z
1/2+x,1/2+y,1/2+z
1/2-x,1/2-y,1/2+z
1/2-x,1/2+y,1/2+z
1/2+x,1/2-y,1/2+z
loop_
_atom_site_type_symbol
_atom_site_label
_atom_site_fract_x
_atom_site_fract_y
_atom_site_fract_z
Si Si1 0.816279 0.298203 0.498610
Si Si2 0.118887 0.298369 0.912065
Si Si3 0.929536 0.190152 0.266592
Si Si4 0.192239 0.801803 0.678404
Si Si5 0.435478 0.194184 0.945531
Si Si6 0.064150 0.699821 0.738847
Si Si7 0.758016 0.805758 0.846131
Si Si8 0.932775 0.299155 0.087718
O O1 0.817289 0.500000 0.493456
O O2 0.788841 0.253860 0.586923
O O3 0.882710 0.233022 0.497878
O O4 0.784610 0.232071 0.415836
O O5 0.127895 0.500000 0.912439
O O6 0.073260 0.264388 0.837568
O O7 0.178161 0.209187 0.886640
O O8 0.098733 0.245366 0.003504
O O9 0.916071 0.295694 0.348583
O O10 0.906706 0.243831 0.176380
O O11 0.000000 0.201598 0.259667
O O12 0.913580 0.000000 0.283809
O O13 0.124259 0.756960 0.695752
O O14 0.232089 0.731525 0.753937
O O15 0.196082 0.000000 0.682785
O O16 0.500000 0.270156 0.953634
O O17 0.440375 0.000000 0.968008
O O18 0.063276 0.500000 0.728621
O O19 0.000000 0.762777 0.711301
O O20 0.741673 0.000000 0.836037
O O21 0.933524 0.500000 0.088151
O O22 0.000000 0.241405 0.082978
#
# Coordination Sequence:
#
# PCOD9375406 Si02
#       8
#     8   8   8   8   8   8   8   8
#     4  10  21  39  61  82 107 143 184 226 273 331
#     4   9  17  30  50  76 104 138 183 232 272 314
#     4   9  17  29  45  68 102 139 172 212 263 316
#     4  10  21  37  57  82 113 146 182 230 280 326
#     4   9  18  34  56  79 103 134 174 219 269 325
#     4   9  17  31  53  80 111 147 185 224 270 327
#     4   9  20  39  57  75 107 146 180 223 277 327
#     4   9  16  27  45  70 102 140 181 223 268 318
#
# _framework density 21.680766999999999
#
# number of rings (size 3 to 8) (size 9 to 14) (size 15 to 20)
#    0.000    2.750    0.000    1.125    0.000    5.750 
#    2.250    1.250    0.000    2.250    0.000    0.000 
#    0.000    0.000    0.000    0.000    0.000    0.000 
#
# Total GULP energy -178394.524903 kJ/mol
# GULP energy per Si atom -5574.828903 kJ/mol
# Density = 2.163142 g / cm^3
# Si number density = 21.680767 Si / 1000 Ang^3
#
#
#
# Elastic Constant Matrix: (Units=GPa)
#
#
# Indices 1 2 3 4 5 6 
#
# 1 48.6062 5.4508 46.6181 0.0000 0.0000 0.0000
# 2 5.4508 14.1917 2.0882 0.0000 0.0000 0.0000
# 3 46.6181 2.0882 120.8902 0.0000 0.0000 0.0000
# 4 0.0000 0.0000 0.0000 14.7087 0.0000 0.0000
# 5 0.0000 0.0000 0.0000 0.0000 20.9054 0.0000
# 6 0.0000 0.0000 0.0000 0.0000 0.0000 9.6144
#
#
#
# Elastic Compliance Matrix: (Units=1/GPa)
#
#
# Indices 1 2 3 4 5 6 
#
# 1 0.034359 -0.011276 -0.013055 0.000000 0.000000 0.000000
# 2 -0.011276 0.074344 0.003064 0.000000 0.000000 0.000000
# 3 -0.013055 0.003064 0.013253 0.000000 0.000000 0.000000
# 4 0.000000 0.000000 0.000000 0.067987 0.000000 0.000000
# 5 0.000000 0.000000 0.000000 0.000000 0.047835 0.000000
# 6 0.000000 0.000000 0.000000 0.000000 0.000000 0.104011
#
#
# Mechanical properties :
#
#
# Convention : Reuss Voigt Hill
#
# Bulk Modulus (GPa) = 12.59087 32.44470 22.51779
# Shear Modulus (GPa) = 12.17151 17.68110 14.92630
#
# Velocity S-wave (km/s) = 2.37195 2.85883 2.62670
# Velocity P-wave (km/s) = 3.64987 5.08866 4.42809
#
# Compressibility (1/GPa) = 0.07942264
#
# Stress axis : x y z
#
# Youngs Moduli (GPa) = 29.10465 13.45107 75.45308
#
# Poissons Ratio (x) = 0.15167 0.98502
# Poissons Ratio (y) = 0.32818 -0.23119
# Poissons Ratio (z) = 0.37995 -0.04121
#
# Static dielectric constant tensor:
#      x y z
#    x 1.815550 0.000000 0.000000 
#    y 0.000000 1.788030 0.000000 
#    z 0.000000 0.000000 1.814050 
# 
# From -- ./inp_files/19467.got.cif
#   From: 2010.05.17/outbox.cif.g08.bks.cpg/sg44_10_cif.got.tgz:19467.got - 2010.06.03 19:37:08.
