data_PCOD9375225
_publ_section_title
;
Structure prediction by ZEFSAII (Michael W. Deem and Ramdas Pophale) SiO2 
 PCOD9375225
Probable space group: I M M 2
;
_chemical_formula_sum "Si O2"
_cell_formula_units_Z 58
_cell_length_a 8.928891
_cell_length_b 25.955432
_cell_length_c 13.929775
_cell_angle_alpha 90.000000
_cell_angle_beta 90.000000
_cell_angle_gamma 90.000000
_cell_volume 3228.270255
_symmetry_space_group_name_H-M "I M M 2"
_symmetry_group_IT_number 44
_symmetry_cell_setting 'orthorhombic'
loop_
_space_group_symop_operation_xyz
x,y,z
-x,-y,z
-x,y,z
x,-y,z
1/2+x,1/2+y,1/2+z
1/2-x,1/2-y,1/2+z
1/2-x,1/2+y,1/2+z
1/2+x,1/2-y,1/2+z
loop_
_atom_site_type_symbol
_atom_site_label
_atom_site_fract_x
_atom_site_fract_y
_atom_site_fract_z
Si Si1 0.000000 0.000000 0.949750
Si Si2 0.319869 0.693095 0.373476
Si Si3 0.323598 0.403544 0.893133
Si Si4 0.677679 0.709260 0.978193
Si Si5 0.680258 0.166021 0.670304
Si Si6 0.680223 0.943180 0.586806
Si Si7 0.334620 0.400103 0.511262
Si Si8 0.821731 0.559700 0.696187
O O1 0.128448 0.046035 0.958379
O O2 0.500000 0.695887 0.365849
O O3 0.255169 0.743372 0.425222
O O4 0.248380 0.685776 0.269148
O O5 0.281207 0.643273 0.438290
O O6 0.500000 0.414919 0.892069
O O7 0.303238 0.343149 0.916766
O O8 0.251846 0.418491 0.792389
O O9 0.247565 0.433743 0.981329
O O10 0.500000 0.718153 0.990061
O O11 0.753698 0.697630 0.080605
O O12 0.500000 0.169557 0.671066
O O13 0.723717 0.105941 0.651266
O O14 0.500000 0.942258 0.579302
O O15 0.725808 0.000000 0.622429
O O16 0.500000 0.383194 0.548892
O O17 0.230725 0.410101 0.602008
O O18 0.773518 0.500000 0.684832
O O19 0.000000 0.561329 0.705568
#
# Coordination Sequence:
#
# PCOD9375225 Si02
#       8
#     2   8   8   8   8   8   8   8
#     4   8  16  40  62  76 112 150 186 228 278 320
#     4  11  23  39  61  89 113 146 189 229 278 340
#     4  10  21  34  54  80 110 148 192 232 282 338
#     4  10  22  41  61  82 113 148 189 240 285 331
#     4  10  21  39  61  84 115 151 188 230 282 336
#     4   9  18  35  55  80 113 149 188 234 281 332
#     4   9  19  37  59  78 110 148 184 225 275 327
#     4  11  21  33  52  82 115 149 187 232 282 336
#
# _framework density 17.966277000000002
#
# number of rings (size 3 to 8) (size 9 to 14) (size 15 to 20)
#    0.414    1.655    0.690    2.483    0.000    7.172 
#    1.241    1.379    0.000    0.000    0.000    0.000 
#    0.000    0.000    0.000    0.000    0.000    0.000 
#
# Total GULP energy -161524.739366 kJ/mol
# GULP energy per Si atom -5569.818599 kJ/mol
# Density = 1.792538 g / cm^3
# Si number density = 17.966277 Si / 1000 Ang^3
#
#
#
# Elastic Constant Matrix: (Units=GPa)
#
#
# Indices 1 2 3 4 5 6 
#
# 1 54.7267 46.4180 56.0885 0.0000 0.0000 0.0000
# 2 46.4180 111.8557 77.9497 0.0000 0.0000 0.0000
# 3 56.0885 77.9497 127.8654 0.0000 0.0000 0.0000
# 4 0.0000 0.0000 0.0000 12.4028 0.0000 0.0000
# 5 0.0000 0.0000 0.0000 0.0000 29.3636 0.0000
# 6 0.0000 0.0000 0.0000 0.0000 0.0000 27.0546
#
#
#
# Elastic Compliance Matrix: (Units=1/GPa)
#
#
# Indices 1 2 3 4 5 6 
#
# 1 0.035971 -0.006835 -0.011612 0.000000 0.000000 0.000000
# 2 -0.006835 0.016842 -0.007269 0.000000 0.000000 0.000000
# 3 -0.011612 -0.007269 0.017346 0.000000 0.000000 0.000000
# 4 0.000000 0.000000 0.000000 0.080627 0.000000 0.000000
# 5 0.000000 0.000000 0.000000 0.000000 0.034056 0.000000
# 6 0.000000 0.000000 0.000000 0.000000 0.000000 0.036962
#
#
# Mechanical properties :
#
#
# Convention : Reuss Voigt Hill
#
# Bulk Modulus (GPa) = 53.40033 72.81780 63.10906
# Shear Modulus (GPa) = 17.89049 21.36365 19.62707
#
# Velocity S-wave (km/s) = 3.15902 3.45207 3.30879
# Velocity P-wave (km/s) = 6.56452 7.51713 7.05692
#
# Compressibility (1/GPa) = 0.01872648
#
# Stress axis : x y z
#
# Youngs Moduli (GPa) = 27.80038 59.37431 57.65118
#
# Poissons Ratio (x) = 0.40584 0.66943
# Poissons Ratio (y) = 0.19002 0.41908
# Poissons Ratio (z) = 0.32281 0.43160
#
# Static dielectric constant tensor:
#      x y z
#    x 1.609030 0.000000 0.000000 
#    y 0.000000 1.621730 0.000000 
#    z 0.000000 0.000000 1.574550 
# 
# From -- ./inp_files/11316.got.cif
#   From: 2010.05.17/outbox.cif.g08.bks.cpg/sg44_6_cif.got.tgz:11316.got - 2010.06.03 19:37:08.
