data_PCOD9375599
_publ_section_title
;
Structure prediction by ZEFSAII (Michael W. Deem and Ramdas Pophale) SiO2 
 PCOD9375599
Probable space group: I M M 2
;
_chemical_formula_sum "Si O2"
_cell_formula_units_Z 64
_cell_length_a 19.005136
_cell_length_b 14.840987
_cell_length_c 11.643943
_cell_angle_alpha 90.000000
_cell_angle_beta 90.000000
_cell_angle_gamma 90.000000
_cell_volume 3284.232067
_symmetry_space_group_name_H-M "I M M 2"
_symmetry_group_IT_number 44
_symmetry_cell_setting 'orthorhombic'
loop_
_space_group_symop_operation_xyz
x,y,z
-x,-y,z
-x,y,z
x,-y,z
1/2+x,1/2+y,1/2+z
1/2-x,1/2-y,1/2+z
1/2-x,1/2+y,1/2+z
1/2+x,1/2-y,1/2+z
loop_
_atom_site_type_symbol
_atom_site_label
_atom_site_fract_x
_atom_site_fract_y
_atom_site_fract_z
Si Si1 0.580620 0.276465 0.207470
Si Si2 0.298590 0.657935 0.585603
Si Si3 0.342077 0.898425 0.740680
Si Si4 0.218854 0.641583 0.000350
Si Si5 0.082249 0.213554 0.259705
Si Si6 0.882432 0.896312 0.489523
Si Si7 0.332102 0.896066 0.242543
Si Si8 0.313258 0.400745 0.338555
O O1 0.500000 0.274944 0.244977
O O2 0.587662 0.334277 0.091152
O O3 0.611182 0.175841 0.197711
O O4 0.631381 0.328121 0.295819
O O5 0.274235 0.753085 0.531242
O O6 0.368712 0.676146 0.657991
O O7 0.238872 0.620893 0.669761
O O8 0.311546 0.597541 0.475276
O O9 0.328950 0.896296 0.603472
O O10 0.392942 0.817372 0.776551
O O11 0.264874 0.878331 0.793469
O O12 0.362770 0.000000 0.775320
O O13 0.297623 0.603156 0.002174
O O14 0.185666 0.624428 0.875963
O O15 0.098126 0.153055 0.371089
O O16 0.000000 0.210393 0.232839
O O17 0.907140 0.000000 0.492947
O O18 0.353512 0.000000 0.231057
O O19 0.331234 0.500000 0.291615
#
# Coordination Sequence:
#
# PCOD9375599 Si02
#       8
#     8   8   8   8   8   8   8   8
#     4  12  26  43  62  91 130 167 204 255 315 377
#     4  11  22  40  64  93 127 164 206 257 315 369
#     4  10  21  40  67  94 123 162 212 264 311 366
#     4  11  20  39  69  96 122 156 212 269 311 356
#     4  11  25  41  60  91 131 168 206 255 311 372
#     4  12  23  41  68  94 122 161 211 262 312 371
#     4  12  24  42  69  96 123 164 214 262 309 367
#     4  11  22  40  65  93 122 160 208 261 314 372
#
# _framework density 19.487051999999998
#
# number of rings (size 3 to 8) (size 9 to 14) (size 15 to 20)
#    0.000    0.750    5.000    3.750    0.000    3.250 
#    0.000    0.000    0.000    3.000    0.000    0.000 
#    0.000    0.000    0.000    0.000    0.000    0.000 
#
# Total GULP energy -178906.667638 kJ/mol
# GULP energy per Si atom -5590.833364 kJ/mol
# Density = 1.944270 g / cm^3
# Si number density = 19.487052 Si / 1000 Ang^3
#
#
#
# Elastic Constant Matrix: (Units=GPa)
#
#
# Indices 1 2 3 4 5 6 
#
# 1 66.4459 38.9836 29.9775 0.0000 0.0000 0.0000
# 2 38.9836 144.2269 51.6733 0.0000 0.0000 0.0000
# 3 29.9775 51.6733 113.2875 0.0000 0.0000 0.0000
# 4 0.0000 0.0000 0.0000 17.1134 0.0000 0.0000
# 5 0.0000 0.0000 0.0000 0.0000 -11.0157 0.0000
# 6 0.0000 0.0000 0.0000 0.0000 0.0000 -3.7094
#
#
#
# Elastic Compliance Matrix: (Units=1/GPa)
#
#
# Indices 1 2 3 4 5 6 
#
# 1 0.018796 -0.003943 -0.003175 0.000000 0.000000 0.000000
# 2 -0.003943 0.009115 -0.003114 0.000000 0.000000 0.000000
# 3 -0.003175 -0.003114 0.011088 0.000000 0.000000 0.000000
# 4 0.000000 0.000000 0.000000 0.058434 0.000000 0.000000
# 5 0.000000 0.000000 0.000000 0.000000 -0.090779 0.000000
# 6 0.000000 0.000000 0.000000 0.000000 0.000000 -0.269582
#
#
# Mechanical properties :
#
#
# Convention : Reuss Voigt Hill
#
# Bulk Modulus (GPa) = 53.95508 62.80326 58.37917
# Shear Modulus (GPa) = -21.16066 14.03272 -3.56397
#
# Velocity S-wave (km/s) = -3.29885 2.68639 -1.35383
# Velocity P-wave (km/s) = 3.63839 6.47460 5.25159
#
# Compressibility (1/GPa) = 0.01853394
#
# Stress axis : x y z
#
# Youngs Moduli (GPa) = 53.20418 109.70948 90.18917
#
# Poissons Ratio (x) = 0.43255 0.28637
# Poissons Ratio (y) = 0.20977 0.28087
# Poissons Ratio (z) = 0.16893 0.34167
#
# Static dielectric constant tensor:
#      x y z
#    x 1.639990 0.000000 0.000000 
#    y 0.000000 1.722760 0.000000 
#    z 0.000000 0.000000 1.682320 
# 
# From -- ./inp_files/13453.got.cif
#   From: 2010.05.17/outbox.cif.g08.bks.cpg/sg44_7_cif.got.tgz:13453.got - 2010.06.03 19:37:08.
