data_PCOD9375200
_publ_section_title
;
Structure prediction by ZEFSAII (Michael W. Deem and Ramdas Pophale) SiO2 
 PCOD9375200
Probable space group: I M M 2
;
_chemical_formula_sum "Si O2"
_cell_formula_units_Z 48
_cell_length_a 18.800857
_cell_length_b 8.607792
_cell_length_c 15.386939
_cell_angle_alpha 90.000000
_cell_angle_beta 90.000000
_cell_angle_gamma 90.000000
_cell_volume 2490.127832
_symmetry_space_group_name_H-M "I M M 2"
_symmetry_group_IT_number 44
_symmetry_cell_setting 'orthorhombic'
loop_
_space_group_symop_operation_xyz
x,y,z
-x,-y,z
-x,y,z
x,-y,z
1/2+x,1/2+y,1/2+z
1/2-x,1/2-y,1/2+z
1/2-x,1/2+y,1/2+z
1/2+x,1/2-y,1/2+z
loop_
_atom_site_type_symbol
_atom_site_label
_atom_site_fract_x
_atom_site_fract_y
_atom_site_fract_z
Si Si1 0.500000 0.685102 0.711700
Si Si2 0.654420 0.810602 0.448902
Si Si3 0.422057 0.183278 0.031446
Si Si4 0.000000 0.311678 0.018320
Si Si5 0.228446 0.184889 0.591327
Si Si6 0.263692 0.182587 0.283542
Si Si7 0.619490 0.181606 0.833891
O O1 0.500000 0.500000 0.722368
O O2 0.500000 0.733483 0.612114
O O3 0.432159 0.759392 0.758963
O O4 0.573723 0.767471 0.471601
O O5 0.711615 0.756734 0.522300
O O6 0.677727 0.758989 0.352496
O O7 0.657818 0.000000 0.448792
O O8 0.500000 0.242294 0.060332
O O9 0.351044 0.261965 0.066726
O O10 0.418401 0.000000 0.053088
O O11 0.417742 0.196041 0.927055
O O12 0.000000 0.500000 0.028068
O O13 0.241365 0.239156 0.689739
O O14 0.231893 0.000000 0.588330
O O15 0.189729 0.215384 0.332048
O O16 0.274475 0.000000 0.269538
O O17 0.637445 0.000000 0.820740
#
# Coordination Sequence:
#
# PCOD9375200 Si02
#       7
#     4   8   8   4   8   8   8
#     4  12  24  36  56  91 126 159 194 249 314 372
#     4   9  20  38  62  87 118 158 205 252 299 357
#     4  10  21  39  61  87 118 155 200 250 305 363
#     4  10  20  40  64  85 116 163 208 251 300 358
#     4  11  22  39  61  90 122 160 206 253 306 367
#     4  11  22  39  60  90 122 160 208 256 302 359
#     4  11  21  37  60  88 120 158 200 249 305 367
#
# _framework density 19.276119000000001
#
# number of rings (size 3 to 8) (size 9 to 14) (size 15 to 20)
#    0.000    1.500    2.500    3.250    0.000    2.333 
#    1.500    2.500    0.000    0.000    0.000    0.000 
#    0.000    0.000    0.000    0.000    0.000    0.000 
#
# Total GULP energy -134000.902521 kJ/mol
# GULP energy per Si atom -5583.370938 kJ/mol
# Density = 1.923225 g / cm^3
# Si number density = 19.276119 Si / 1000 Ang^3
#
#
#
# Elastic Constant Matrix: (Units=GPa)
#
#
# Indices 1 2 3 4 5 6 
#
# 1 112.8283 5.3190 25.1512 0.0000 0.0000 0.0000
# 2 5.3190 23.3372 9.4848 0.0000 0.0000 0.0000
# 3 25.1512 9.4848 60.4292 0.0000 0.0000 0.0000
# 4 0.0000 0.0000 0.0000 26.8409 0.0000 0.0000
# 5 0.0000 0.0000 0.0000 0.0000 32.3613 0.0000
# 6 0.0000 0.0000 0.0000 0.0000 0.0000 25.7303
#
#
#
# Elastic Compliance Matrix: (Units=1/GPa)
#
#
# Indices 1 2 3 4 5 6 
#
# 1 0.009778 -0.000614 -0.003973 0.000000 0.000000 0.000000
# 2 -0.000614 0.045808 -0.006934 0.000000 0.000000 0.000000
# 3 -0.003973 -0.006934 0.019290 0.000000 0.000000 0.000000
# 4 0.000000 0.000000 0.000000 0.037257 0.000000 0.000000
# 5 0.000000 0.000000 0.000000 0.000000 0.030901 0.000000
# 6 0.000000 0.000000 0.000000 0.000000 0.000000 0.038865
#
#
# Mechanical properties :
#
#
# Convention : Reuss Voigt Hill
#
# Bulk Modulus (GPa) = 19.29255 30.72275 25.00765
# Shear Modulus (GPa) = 22.50027 27.42912 24.96470
#
# Velocity S-wave (km/s) = 3.42023 3.77630 3.60267
# Velocity P-wave (km/s) = 5.06236 5.91497 5.50519
#
# Compressibility (1/GPa) = 0.05183348
#
# Stress axis : x y z
#
# Youngs Moduli (GPa) = 102.27407 21.83011 51.83926
#
# Poissons Ratio (x) = 0.01340 0.20597
# Poissons Ratio (y) = 0.06277 0.35948
# Poissons Ratio (z) = 0.40636 0.15138
#
# Static dielectric constant tensor:
#      x y z
#    x 1.688150 0.000000 0.000000 
#    y 0.000000 1.657110 0.000000 
#    z 0.000000 0.000000 1.666650 
# 
# From -- ./inp_files/16110.got.cif
#   From: 2010.05.17/outbox.cif.g08.bks.cpg/sg44_9_cif.got.tgz:16110.got - 2010.06.03 19:37:08.
