data_PCOD9375809
_publ_section_title
;
Structure prediction by ZEFSAII (Michael W. Deem and Ramdas Pophale) SiO2 
 PCOD9375809
Probable space group: I M M 2
;
_chemical_formula_sum "Si O2"
_cell_formula_units_Z 56
_cell_length_a 14.153558
_cell_length_b 8.636139
_cell_length_c 30.298742
_cell_angle_alpha 90.000000
_cell_angle_beta 90.000000
_cell_angle_gamma 90.000000
_cell_volume 3703.478687
_symmetry_space_group_name_H-M "I M M 2"
_symmetry_group_IT_number 44
_symmetry_cell_setting 'orthorhombic'
loop_
_space_group_symop_operation_xyz
x,y,z
-x,-y,z
-x,y,z
x,-y,z
1/2+x,1/2+y,1/2+z
1/2-x,1/2-y,1/2+z
1/2-x,1/2+y,1/2+z
1/2+x,1/2-y,1/2+z
loop_
_atom_site_type_symbol
_atom_site_label
_atom_site_fract_x
_atom_site_fract_y
_atom_site_fract_z
Si Si1 0.110440 0.687722 0.823280
Si Si2 0.210671 0.815678 0.737626
Si Si3 0.614646 0.179547 0.420736
Si Si4 0.709804 0.688179 0.601490
Si Si5 0.391929 0.687221 0.691955
Si Si6 0.392826 0.187534 0.151931
Si Si7 0.109232 0.813723 0.013480
O O1 0.113244 0.500000 0.822861
O O2 0.173114 0.753011 0.784057
O O3 0.142934 0.739211 0.872296
O O4 0.000000 0.732175 0.817000
O O5 0.315450 0.757201 0.725216
O O6 0.143304 0.750192 0.698822
O O7 0.207939 0.000000 0.737020
O O8 0.500000 0.185493 0.419939
O O9 0.644828 0.264498 0.465225
O O10 0.642173 0.000000 0.424135
O O11 0.709775 0.500000 0.599795
O O12 0.641747 0.730884 0.642405
O O13 0.815069 0.736737 0.615776
O O14 0.670780 0.744126 0.554698
O O15 0.500000 0.733932 0.699629
O O16 0.386444 0.500000 0.694575
O O17 0.500000 0.236042 0.142832
O O18 0.390589 0.000000 0.154169
O O19 0.000000 0.760856 0.018446
O O20 0.107977 0.000000 0.015068
#
# Coordination Sequence:
#
# PCOD9375809 Si02
#       7
#     8   8   8   8   8   8   8
#     4   9  17  30  46  61  81 112 147 179 209 248
#     4  11  21  29  41  64  91 114 137 172 218 260
#     4   8  15  27  41  58  81 108 137 170 208 249
#     4   8  14  25  42  64  85 107 140 176 207 242
#     4   9  17  31  49  64  82 113 150 180 203 238
#     4   9  17  30  46  61  81 113 151 184 209 242
#     4   9  15  23  38  60  85 110 134 165 207 253
#
# _framework density 15.120919000000001
#
# number of rings (size 3 to 8) (size 9 to 14) (size 15 to 20)
#    0.000    3.000    0.000    3.857    0.000    4.857 
#    0.000    4.286    0.000    3.429    0.000    1.000 
#    0.000    3.429    0.000    0.000    0.000    0.000 
#
# Total GULP energy -155919.224138 kJ/mol
# GULP energy per Si atom -5568.543719 kJ/mol
# Density = 1.508650 g / cm^3
# Si number density = 15.120919 Si / 1000 Ang^3
#
#
#
# Elastic Constant Matrix: (Units=GPa)
#
#
# Indices 1 2 3 4 5 6 
#
# 1 106.3165 22.4362 74.1568 0.0000 0.0000 0.0000
# 2 22.4362 13.1743 24.7286 0.0000 0.0000 0.0000
# 3 74.1568 24.7286 154.7128 0.0000 0.0000 0.0000
# 4 0.0000 0.0000 0.0000 19.9260 0.0000 0.0000
# 5 0.0000 0.0000 0.0000 0.0000 24.1477 0.0000
# 6 0.0000 0.0000 0.0000 0.0000 0.0000 8.6902
#
#
#
# Elastic Compliance Matrix: (Units=1/GPa)
#
#
# Indices 1 2 3 4 5 6 
#
# 1 0.017057 -0.019576 -0.005047 0.000000 0.000000 0.000000
# 2 -0.019576 0.130905 -0.011540 0.000000 0.000000 0.000000
# 3 -0.005047 -0.011540 0.010727 0.000000 0.000000 0.000000
# 4 0.000000 0.000000 0.000000 0.050186 0.000000 0.000000
# 5 0.000000 0.000000 0.000000 0.000000 0.041412 0.000000
# 6 0.000000 0.000000 0.000000 0.000000 0.000000 0.115073
#
#
# Mechanical properties :
#
#
# Convention : Reuss Voigt Hill
#
# Bulk Modulus (GPa) = 11.57896 57.42740 34.50318
# Shear Modulus (GPa) = 10.71873 20.74491 15.73182
#
# Velocity S-wave (km/s) = 2.66535 3.70798 3.22902
# Velocity P-wave (km/s) = 4.14081 7.50955 6.06381
#
# Compressibility (1/GPa) = 0.08636355
#
# Stress axis : x y z
#
# Youngs Moduli (GPa) = 58.62594 7.63914 93.22038
#
# Poissons Ratio (x) = 0.14954 0.47048
# Poissons Ratio (y) = 1.14764 1.07579
# Poissons Ratio (z) = 0.29589 0.08816
#
# Static dielectric constant tensor:
#      x y z
#    x 1.494360 0.000000 0.000000 
#    y 0.000000 1.515030 0.000000 
#    z 0.000000 0.000000 1.504910 
# 
# From -- ./inp_files/27212.got.cif
#   From: 2010.05.17/outbox.cif.g08.bks.cpg/sg44_14_cif.got.tgz:27212.got - 2010.06.03 19:37:08.
