data_PCOD9375717
_publ_section_title
;
Structure prediction by ZEFSAII (Michael W. Deem and Ramdas Pophale) SiO2 
 PCOD9375717
Probable space group: I M M 2
;
_chemical_formula_sum "Si O2"
_cell_formula_units_Z 34
_cell_length_a 7.722406
_cell_length_b 22.766973
_cell_length_c 8.801250
_cell_angle_alpha 90.000000
_cell_angle_beta 90.000000
_cell_angle_gamma 90.000000
_cell_volume 1547.398888
_symmetry_space_group_name_H-M "I M M 2"
_symmetry_group_IT_number 44
_symmetry_cell_setting 'orthorhombic'
loop_
_space_group_symop_operation_xyz
x,y,z
-x,-y,z
-x,y,z
x,-y,z
1/2+x,1/2+y,1/2+z
1/2-x,1/2-y,1/2+z
1/2-x,1/2+y,1/2+z
1/2+x,1/2-y,1/2+z
loop_
_atom_site_type_symbol
_atom_site_label
_atom_site_fract_x
_atom_site_fract_y
_atom_site_fract_z
Si Si1 0.701977 0.299647 0.353050
Si Si2 0.792020 0.435314 0.858088
Si Si3 0.000000 0.000000 0.894889
Si Si4 0.799257 0.414590 0.503218
Si Si5 0.297858 0.315653 0.015305
O O1 0.500000 0.314838 0.350189
O O2 0.787798 0.345455 0.468104
O O3 0.775810 0.309172 0.184574
O O4 0.717960 0.232623 0.404518
O O5 0.728922 0.500000 0.905950
O O6 0.753361 0.427104 0.679366
O O7 0.000000 0.434381 0.872140
O O8 0.721859 0.381200 0.953252
O O9 0.155551 0.949155 0.906378
O O10 0.000000 0.432666 0.478544
O O11 0.500000 0.300799 0.022703
#
# Coordination Sequence:
#
# PCOD9375717 Si02
#       5
#     8   8   2   8   8
#     4  11  24  44  64  94 129 171 220 272 329 391
#     4  10  22  41  63  94 130 170 217 268 323 392
#     4  12  22  40  68 100 136 180 208 270 320 390
#     4  11  23  41  68  99 134 172 223 265 320 392
#     4  11  25  41  65  94 129 169 220 274 330 393
#
# _framework density 21.972356999999999
#
# number of rings (size 3 to 8) (size 9 to 14) (size 15 to 20)
#    0.000    1.176    2.353    3.176    1.647    9.882 
#    2.118    0.000    0.000    0.000    0.000    0.000 
#    0.000    0.000    0.000    0.000    0.000    0.000 
#
# Total GULP energy -94799.247568 kJ/mol
# GULP energy per Si atom -5576.426328 kJ/mol
# Density = 2.192235 g / cm^3
# Si number density = 21.972357 Si / 1000 Ang^3
#
#
#
# Elastic Constant Matrix: (Units=GPa)
#
#
# Indices 1 2 3 4 5 6 
#
# 1 80.4109 7.2593 8.4277 -0.0002 0.0000 0.0000
# 2 7.2593 169.8221 53.6094 -0.0003 0.0000 0.0000
# 3 8.4277 53.6094 51.2937 -0.0020 -0.0003 -0.0001
# 4 -0.0002 -0.0003 -0.0020 21.1442 0.0000 0.0000
# 5 0.0000 0.0000 -0.0003 0.0000 12.6230 0.0000
# 6 0.0000 0.0000 -0.0001 0.0000 0.0000 35.3381
#
#
#
# Elastic Compliance Matrix: (Units=1/GPa)
#
#
# Indices 1 2 3 4 5 6 
#
# 1 0.012657 0.000172 -0.002260 0.000000 0.000000 0.000000
# 2 0.000172 0.008790 -0.009215 -0.000001 0.000000 0.000000
# 3 -0.002260 -0.009215 0.029498 0.000003 0.000001 0.000000
# 4 0.000000 -0.000001 0.000003 0.047294 0.000000 0.000000
# 5 0.000000 0.000000 0.000001 0.000000 0.079220 0.000000
# 6 0.000000 0.000000 0.000000 0.000000 0.000000 0.028298
#
#
# Mechanical properties :
#
#
# Convention : Reuss Voigt Hill
#
# Bulk Modulus (GPa) = 35.28546 48.90218 42.09382
# Shear Modulus (GPa) = 21.02509 29.30308 25.16409
#
# Velocity S-wave (km/s) = 3.09672 3.65586 3.38784
# Velocity P-wave (km/s) = 5.37402 6.33442 5.87388
#
# Compressibility (1/GPa) = 0.02834029
#
# Stress axis : x y z
#
# Youngs Moduli (GPa) = 79.00513 113.76202 33.90018
#
# Poissons Ratio (x) = -0.01960 0.07661
# Poissons Ratio (y) = -0.01361 0.31241
# Poissons Ratio (z) = 0.17853 1.04837
#
# Static dielectric constant tensor:
#      x y z
#    x 1.796310 0.000000 0.000000 
#    y 0.000000 1.789530 0.000000 
#    z 0.000000 0.000000 1.817640 
# 
# From -- ./inp_files/4278.got.cif
#   From: 2010.05.17/outbox.cif.g08.bks.cpg/sg44_3_cif.got.tgz:4278.got - 2010.06.03 19:37:08.
