data_PCOD9375673
_publ_section_title
;
Structure prediction by ZEFSAII (Michael W. Deem and Ramdas Pophale) SiO2 
 PCOD9375673
Probable space group: I M M 2
;
_chemical_formula_sum "Si O2"
_cell_formula_units_Z 38
_cell_length_a 7.937487
_cell_length_b 24.594057
_cell_length_c 10.046337
_cell_angle_alpha 90.000000
_cell_angle_beta 90.000000
_cell_angle_gamma 90.000000
_cell_volume 1961.195755
_symmetry_space_group_name_H-M "I M M 2"
_symmetry_group_IT_number 44
_symmetry_cell_setting 'orthorhombic'
loop_
_space_group_symop_operation_xyz
x,y,z
-x,-y,z
-x,y,z
x,-y,z
1/2+x,1/2+y,1/2+z
1/2-x,1/2-y,1/2+z
1/2-x,1/2+y,1/2+z
1/2+x,1/2-y,1/2+z
loop_
_atom_site_type_symbol
_atom_site_label
_atom_site_fract_x
_atom_site_fract_y
_atom_site_fract_z
Si Si1 0.695319 0.192100 0.723560
Si Si2 0.818914 0.500000 0.987315
Si Si3 0.000000 0.000000 0.673302
Si Si4 0.311719 0.097450 0.277605
Si Si5 0.500000 0.615483 0.308836
Si Si6 0.700513 0.292987 0.922815
Si Si7 0.000000 0.934532 0.092072
O O1 0.500000 0.174208 0.736738
O O2 0.834279 0.146750 0.757033
O O3 0.725453 0.240650 0.829098
O O4 0.723183 0.211404 0.570913
O O5 0.809958 0.552489 0.893411
O O6 0.000000 0.500000 0.057492
O O7 0.664530 0.500000 0.083830
O O8 0.000000 0.945193 0.754822
O O9 0.500000 0.097646 0.217553
O O10 0.274945 0.155191 0.345697
O O11 0.165983 0.080297 0.176626
O O12 0.500000 0.605686 0.466326
O O13 0.500000 0.301294 0.938160
O O14 0.000000 0.000000 0.063895
#
# Coordination Sequence:
#
# PCOD9375673 Si02
#       7
#     8   4   2   8   4   8   4
#     4  11  27  46  69 100 141 179 229 282 343 410
#     4  10  22  39  65 101 135 172 229 288 342 411
#     4  12  24  42  70  94 130 188 224 286 354 406
#     4  11  23  40  69 102 137 176 229 283 343 411
#     4  12  28  47  68  99 140 178 236 284 345 414
#     4  11  24  43  70 103 135 185 227 279 344 407
#     4  12  25  46  70  98 137 186 230 287 347 411
#
# _framework density 19.375933
#
# number of rings (size 3 to 8) (size 9 to 14) (size 15 to 20)
#    0.000    0.842    3.684    2.526    5.895    3.368 
#    0.000    0.000    0.000    0.000    0.000    0.000 
#    0.000    0.000    0.000    0.000    0.000    0.000 
#
# Total GULP energy -106215.111153 kJ/mol
# GULP energy per Si atom -5590.269008 kJ/mol
# Density = 1.933183 g / cm^3
# Si number density = 19.375933 Si / 1000 Ang^3
#
#
#
# Elastic Constant Matrix: (Units=GPa)
#
#
# Indices 1 2 3 4 5 6 
#
# 1 162.7949 66.9425 51.0502 0.0000 0.0000 0.0000
# 2 66.9425 114.7979 34.8127 0.0000 0.0000 0.0000
# 3 51.0502 34.8127 82.1131 0.0005 0.0008 0.0004
# 4 0.0000 0.0000 0.0005 36.1634 0.0001 0.0001
# 5 0.0000 0.0000 0.0008 0.0001 33.6985 0.0001
# 6 0.0000 0.0000 0.0004 0.0001 0.0001 30.6624
#
#
#
# Elastic Compliance Matrix: (Units=1/GPa)
#
#
# Indices 1 2 3 4 5 6 
#
# 1 0.009046 -0.004096 -0.003887 0.000000 0.000000 0.000000
# 2 -0.004096 0.011851 -0.002478 0.000000 0.000000 0.000000
# 3 -0.003887 -0.002478 0.015646 0.000000 0.000000 0.000000
# 4 0.000000 0.000000 0.000000 0.027652 0.000000 0.000000
# 5 0.000000 0.000000 0.000000 0.000000 0.029675 0.000000
# 6 0.000000 0.000000 0.000000 0.000000 0.000000 0.032613
#
#
# Mechanical properties :
#
#
# Convention : Reuss Voigt Hill
#
# Bulk Modulus (GPa) = 64.02025 73.92407 68.97216
# Shear Modulus (GPa) = 32.76273 33.89823 33.33048
#
# Velocity S-wave (km/s) = 4.11651 4.18724 4.15203
# Velocity P-wave (km/s) = 7.46372 7.84937 7.65897
#
# Compressibility (1/GPa) = 0.01562006
#
# Stress axis : x y z
#
# Youngs Moduli (GPa) = 110.54445 84.38121 63.91579
#
# Poissons Ratio (x) = 0.34565 0.24847
# Poissons Ratio (y) = 0.45282 0.15836
# Poissons Ratio (z) = 0.42973 0.20907
#
# Static dielectric constant tensor:
#      x y z
#    x 1.676740 0.000000 0.000000 
#    y 0.000000 1.653680 0.000000 
#    z 0.000000 0.000000 1.657780 
# 
# From -- ./inp_files/4508.got.cif
#   From: 2010.05.17/outbox.cif.g08.bks.cpg/sg44_3_cif.got.tgz:4508.got - 2010.06.03 19:37:08.
