data_PCOD9375095
_publ_section_title
;
Structure prediction by ZEFSAII (Michael W. Deem and Ramdas Pophale) SiO2 
 PCOD9375095
Probable space group: I M M 2
;
_chemical_formula_sum "Si O2"
_cell_formula_units_Z 64
_cell_length_a 17.971069
_cell_length_b 12.487718
_cell_length_c 13.006887
_cell_angle_alpha 90.000000
_cell_angle_beta 90.000000
_cell_angle_gamma 90.000000
_cell_volume 2918.974908
_symmetry_space_group_name_H-M "I M M 2"
_symmetry_group_IT_number 44
_symmetry_cell_setting 'orthorhombic'
loop_
_space_group_symop_operation_xyz
x,y,z
-x,-y,z
-x,y,z
x,-y,z
1/2+x,1/2+y,1/2+z
1/2-x,1/2-y,1/2+z
1/2-x,1/2+y,1/2+z
1/2+x,1/2-y,1/2+z
loop_
_atom_site_type_symbol
_atom_site_label
_atom_site_fract_x
_atom_site_fract_y
_atom_site_fract_z
Si Si1 0.416294 0.128567 0.539240
Si Si2 0.133733 0.629157 0.495132
Si Si3 0.918396 0.874040 0.360715
Si Si4 0.119205 0.622420 0.264403
Si Si5 0.304708 0.691799 0.486506
Si Si6 0.293226 0.331552 0.257998
Si Si7 0.788497 0.123362 0.211175
Si Si8 0.083250 0.176579 0.598582
O O1 0.500000 0.151043 0.498650
O O2 0.414381 0.165003 0.658758
O O3 0.348571 0.195811 0.490266
O O4 0.403988 0.000000 0.532385
O O5 0.140512 0.500000 0.508928
O O6 0.100663 0.652567 0.382009
O O7 0.214859 0.685618 0.490784
O O8 0.089648 0.694497 0.581042
O O9 0.851559 0.835971 0.289560
O O10 0.905795 0.865230 0.482470
O O11 0.000000 0.830786 0.335151
O O12 0.920474 0.000000 0.336852
O O13 0.094063 0.500000 0.262652
O O14 0.209521 0.622760 0.249773
O O15 0.321172 0.645754 0.373457
O O16 0.320184 0.633574 0.595070
O O17 0.278394 0.205071 0.234525
O O18 0.353143 0.365047 0.173895
O O19 0.768409 0.000000 0.229455
O O20 0.000000 0.148584 0.632465
#
# Coordination Sequence:
#
# PCOD9375095 Si02
#       8
#     8   8   8   8   8   8   8   8
#     4  10  21  37  58  88 124 157 194 244 301 361
#     4  10  20  37  59  86 119 151 195 254 306 358
#     4   9  20  39  62  90 120 151 196 254 313 367
#     4   9  18  34  59  89 117 149 193 246 306 362
#     4  11  22  38  61  86 119 164 206 246 299 360
#     4  11  23  39  57  86 122 161 205 248 299 364
#     4  11  22  38  63  91 120 158 202 256 311 357
#     4  11  23  38  59  86 120 160 201 246 305 373
#
# _framework density 21.925505000000001
#
# number of rings (size 3 to 8) (size 9 to 14) (size 15 to 20)
#    0.000    1.750    2.500    1.875    0.000    3.250 
#    0.000    4.375    0.000    1.125    0.000    5.250 
#    0.000    0.000    0.000    0.000    0.000    0.000 
#
# Total GULP energy -178397.018968 kJ/mol
# GULP energy per Si atom -5574.906843 kJ/mol
# Density = 2.187560 g / cm^3
# Si number density = 21.925505 Si / 1000 Ang^3
#
#
#
# Elastic Constant Matrix: (Units=GPa)
#
#
# Indices 1 2 3 4 5 6 
#
# 1 95.6674 15.8604 31.9897 0.0000 0.0000 0.0000
# 2 15.8604 76.0577 -14.0233 0.0000 0.0000 0.0000
# 3 31.9897 -14.0233 84.3842 0.0000 0.0000 0.0000
# 4 0.0000 0.0000 0.0000 14.0100 0.0000 0.0000
# 5 0.0000 0.0000 0.0000 0.0000 27.4053 0.0000
# 6 0.0000 0.0000 0.0000 0.0000 0.0000 18.3923
#
#
#
# Elastic Compliance Matrix: (Units=1/GPa)
#
#
# Indices 1 2 3 4 5 6 
#
# 1 0.012910 -0.003708 -0.005510 0.000000 0.000000 0.000000
# 2 -0.003708 0.014629 0.003837 0.000000 0.000000 0.000000
# 3 -0.005510 0.003837 0.014577 0.000000 0.000000 0.000000
# 4 0.000000 0.000000 0.000000 0.071378 0.000000 0.000000
# 5 0.000000 0.000000 0.000000 0.000000 0.036489 0.000000
# 6 0.000000 0.000000 0.000000 0.000000 0.000000 0.054370
#
#
# Mechanical properties :
#
#
# Convention : Reuss Voigt Hill
#
# Bulk Modulus (GPa) = 31.89557 35.97365 33.93461
# Shear Modulus (GPa) = 22.16625 26.78036 24.47330
#
# Velocity S-wave (km/s) = 3.18304 3.49868 3.34459
# Velocity P-wave (km/s) = 5.29979 5.72397 5.51596
#
# Compressibility (1/GPa) = 0.03135232
#
# Stress axis : x y z
#
# Youngs Moduli (GPa) = 77.45772 68.35923 68.60040
#
# Poissons Ratio (x) = 0.25349 0.37802
# Poissons Ratio (y) = 0.28723 -0.26321
# Poissons Ratio (z) = 0.42683 -0.26228
#
# Static dielectric constant tensor:
#      x y z
#    x 1.815580 0.000000 0.000000 
#    y 0.000000 1.908130 0.000000 
#    z 0.000000 0.000000 1.810550 
# 
# From -- ./inp_files/13989.got.cif
#   From: 2010.05.17/outbox.cif.g08.bks.cpg/sg44_7_cif.got.tgz:13989.got - 2010.06.03 19:37:08.
