data_PCOD9375868
_publ_section_title
;
Structure prediction by ZEFSAII (Michael W. Deem and Ramdas Pophale) SiO2 
 PCOD9375868
Probable space group: I M M 2
;
_chemical_formula_sum "Si O2"
_cell_formula_units_Z 40
_cell_length_a 7.623673
_cell_length_b 9.139836
_cell_length_c 30.402124
_cell_angle_alpha 90.000000
_cell_angle_beta 90.000000
_cell_angle_gamma 90.000000
_cell_volume 2118.393275
_symmetry_space_group_name_H-M "I M M 2"
_symmetry_group_IT_number 44
_symmetry_cell_setting 'orthorhombic'
loop_
_space_group_symop_operation_xyz
x,y,z
-x,-y,z
-x,y,z
x,-y,z
1/2+x,1/2+y,1/2+z
1/2-x,1/2-y,1/2+z
1/2-x,1/2+y,1/2+z
1/2+x,1/2-y,1/2+z
loop_
_atom_site_type_symbol
_atom_site_label
_atom_site_fract_x
_atom_site_fract_y
_atom_site_fract_z
Si Si1 0.000000 0.824079 0.742700
Si Si2 0.703274 0.176061 0.911274
Si Si3 0.700435 0.328828 0.687078
Si Si4 0.712371 0.328143 0.098056
Si Si5 0.500000 0.677999 0.344162
Si Si6 0.213425 0.169234 0.500242
O O1 0.168283 0.761650 0.717440
O O2 0.000000 0.776000 0.793593
O O3 0.000000 0.000000 0.740497
O O4 0.500000 0.220416 0.904614
O O5 0.767410 0.238670 0.958000
O O6 0.829276 0.224401 0.871819
O O7 0.707792 0.000000 0.913416
O O8 0.500000 0.313583 0.702084
O O9 0.748257 0.500000 0.687424
O O10 0.714820 0.266809 0.637645
O O11 0.500000 0.319383 0.100040
O O12 0.758166 0.500000 0.103487
O O13 0.769484 0.281568 0.048974
O O14 0.500000 0.500000 0.343759
O O15 0.000000 0.172892 0.501004
O O16 0.265661 0.000000 0.494923
#
# Coordination Sequence:
#
# PCOD9375868 Si02
#       6
#     4   8   8   8   4   8
#     4  11  23  41  65  87 111 149 197 247 298 347
#     4   9  17  32  54  78 107 143 181 222 271 327
#     4  11  24  40  58  84 118 152 189 238 295 353
#     4   9  17  32  56  83 112 151 194 234 279 333
#     4   9  20  37  57  83 109 137 183 239 284 333
#     4   8  15  29  50  78 112 147 183 223 270 325
#
# _framework density 18.882235000000001
#
# number of rings (size 3 to 8) (size 9 to 14) (size 15 to 20)
#    0.000    2.600    1.000    2.100    0.000    3.200 
#    1.800    6.500    0.000    2.400    0.000    0.000 
#    0.000    0.000    0.000    0.000    0.000    0.000 
#
# Total GULP energy -111600.029863 kJ/mol
# GULP energy per Si atom -5580.001493 kJ/mol
# Density = 1.883926 g / cm^3
# Si number density = 18.882235 Si / 1000 Ang^3
#
#
#
# Elastic Constant Matrix: (Units=GPa)
#
#
# Indices 1 2 3 4 5 6 
#
# 1 81.9185 40.5094 68.2484 0.0000 0.0000 0.0000
# 2 40.5094 56.3568 58.3420 0.0000 0.0000 0.0000
# 3 68.2484 58.3420 177.6058 0.0000 0.0000 0.0000
# 4 0.0000 0.0000 0.0000 29.1030 0.0000 0.0000
# 5 0.0000 0.0000 0.0000 0.0000 -27.3741 0.0000
# 6 0.0000 0.0000 0.0000 0.0000 0.0000 -14.0355
#
#
#
# Elastic Compliance Matrix: (Units=1/GPa)
#
#
# Indices 1 2 3 4 5 6 
#
# 1 0.021325 -0.010373 -0.004787 0.000000 0.000000 0.000000
# 2 -0.010373 0.031933 -0.006504 0.000000 0.000000 0.000000
# 3 -0.004787 -0.006504 0.009606 0.000000 0.000000 0.000000
# 4 0.000000 0.000000 0.000000 0.034361 0.000000 0.000000
# 5 0.000000 0.000000 0.000000 0.000000 -0.036531 0.000000
# 6 0.000000 0.000000 0.000000 0.000000 0.000000 -0.071248
#
#
# Mechanical properties :
#
#
# Convention : Reuss Voigt Hill
#
# Bulk Modulus (GPa) = 51.18480 72.23118 61.70799
# Shear Modulus (GPa) = 127.27348 7.45746 67.36547
#
# Velocity S-wave (km/s) = 8.21889 1.98948 5.97947
# Velocity P-wave (km/s) = 10.82742 6.60408 8.96792
#
# Compressibility (1/GPa) = 0.01953705
#
# Stress axis : x y z
#
# Youngs Moduli (GPa) = 46.89353 31.31576 104.09667
#
# Poissons Ratio (x) = 0.32482 0.49833
# Poissons Ratio (y) = 0.48641 0.67702
# Poissons Ratio (z) = 0.22449 0.20367
#
# Static dielectric constant tensor:
#      x y z
#    x 1.689180 0.000000 0.000000 
#    y 0.000000 1.627830 0.000000 
#    z 0.000000 0.000000 1.638490 
# 
# From -- ./inp_files/25960.got.cif
#   From: 2010.05.17/outbox.cif.g08.bks.cpg/sg44_13_cif.got.tgz:25960.got - 2010.06.03 19:37:08.
