data_PCOD9375286
_publ_section_title
;
Structure prediction by ZEFSAII (Michael W. Deem and Ramdas Pophale) SiO2 
 PCOD9375286
Probable space group: I M M 2
;
_chemical_formula_sum "Si O2"
_cell_formula_units_Z 40
_cell_length_a 7.704415
_cell_length_b 27.282379
_cell_length_c 9.362251
_cell_angle_alpha 90.000000
_cell_angle_beta 90.000000
_cell_angle_gamma 90.000000
_cell_volume 1967.896196
_symmetry_space_group_name_H-M "I M M 2"
_symmetry_group_IT_number 44
_symmetry_cell_setting 'orthorhombic'
loop_
_space_group_symop_operation_xyz
x,y,z
-x,-y,z
-x,y,z
x,-y,z
1/2+x,1/2+y,1/2+z
1/2-x,1/2-y,1/2+z
1/2-x,1/2+y,1/2+z
1/2+x,1/2-y,1/2+z
loop_
_atom_site_type_symbol
_atom_site_label
_atom_site_fract_x
_atom_site_fract_y
_atom_site_fract_z
Si Si1 0.293077 0.702619 0.844350
Si Si2 0.701103 0.500000 0.684736
Si Si3 0.701010 0.500000 0.336694
Si Si4 0.786509 0.892913 0.178658
Si Si5 0.291617 0.605848 0.350213
Si Si6 0.793225 0.702650 0.176076
O O1 0.500000 0.702067 0.820466
O O2 0.226642 0.652190 0.774802
O O3 0.222606 0.750954 0.765344
O O4 0.263742 0.704706 0.012579
O O5 0.500000 0.500000 0.731506
O O6 0.700679 0.500000 0.510762
O O7 0.774925 0.552945 0.726564
O O8 0.500000 0.500000 0.287588
O O9 0.777699 0.447071 0.297173
O O10 0.000000 0.894364 0.180609
O O11 0.733155 0.885133 0.013499
O O12 0.500000 0.600500 0.358312
O O13 0.254085 0.651654 0.250812
O O14 0.000000 0.705871 0.177506
#
# Coordination Sequence:
#
# PCOD9375286 Si02
#       6
#     8   4   4   8   8   8
#     4  10  21  36  52  71  98 132 168 206 252 306
#     4   7  10  20  43  75 102 120 152 205 250 281
#     4   7  12  24  48  79 102 128 168 205 240 289
#     4   8  14  27  50  77 100 125 161 205 248 290
#     4   9  16  31  55  79 104 133 167 208 250 293
#     4  11  23  36  51  74 101 131 169 210 256 306
#
# _framework density 20.326276
#
# number of rings (size 3 to 8) (size 9 to 14) (size 15 to 20)
#    0.000    3.000    0.000    4.200    0.000    3.200 
#    0.000    2.500    0.000    3.600    0.000    1.400 
#    0.000    0.000    0.000    0.000    0.000    0.000 
#
# Total GULP energy -111488.067306 kJ/mol
# GULP energy per Si atom -5574.403365 kJ/mol
# Density = 2.028001 g / cm^3
# Si number density = 20.326276 Si / 1000 Ang^3
#
#
#
# Elastic Constant Matrix: (Units=GPa)
#
#
# Indices 1 2 3 4 5 6 
#
# 1 31.0083 7.7074 -4.0635 0.0000 0.0000 0.0000
# 2 7.7074 257.9818 113.8684 0.0000 0.0000 0.0000
# 3 -4.0635 113.8684 111.5858 -0.0003 0.0001 0.0001
# 4 0.0000 0.0000 -0.0003 39.1941 0.0000 0.0000
# 5 0.0000 0.0000 0.0001 0.0000 13.4247 0.0000
# 6 0.0000 0.0000 0.0001 0.0000 0.0000 10.5094
#
#
#
# Elastic Compliance Matrix: (Units=1/GPa)
#
#
# Indices 1 2 3 4 5 6 
#
# 1 0.033479 -0.002799 0.004076 0.000000 0.000000 0.000000
# 2 -0.002799 0.007287 -0.007538 0.000000 0.000000 0.000000
# 3 0.004076 -0.007538 0.016802 0.000000 0.000000 0.000000
# 4 0.000000 0.000000 0.000000 0.025514 0.000000 0.000000
# 5 0.000000 0.000000 0.000000 0.000000 0.074489 0.000000
# 6 0.000000 0.000000 0.000000 0.000000 0.000000 0.095153
#
#
# Mechanical properties :
#
#
# Convention : Reuss Voigt Hill
#
# Bulk Modulus (GPa) = 22.19978 70.62228 46.41103
# Shear Modulus (GPa) = 17.84036 31.49654 24.66845
#
# Velocity S-wave (km/s) = 2.96581 3.94070 3.48749
# Velocity P-wave (km/s) = 4.76167 7.45153 6.25295
#
# Compressibility (1/GPa) = 0.04504549
#
# Stress axis : x y z
#
# Youngs Moduli (GPa) = 29.86924 137.23058 59.51551
#
# Poissons Ratio (x) = 0.38412 -0.24256
# Poissons Ratio (y) = 0.08361 0.44863
# Poissons Ratio (z) = -0.12173 1.03445
#
# Static dielectric constant tensor:
#      x y z
#    x 1.778310 0.000000 0.000000 
#    y 0.000000 1.768580 0.000000 
#    z 0.000000 0.000000 1.683640 
# 
# From -- ./inp_files/4623.got.cif
#   From: 2010.05.17/outbox.cif.g08.bks.cpg/sg44_3_cif.got.tgz:4623.got - 2010.06.03 19:37:08.
