data_PCOD9375754
_publ_section_title
;
Structure prediction by ZEFSAII (Michael W. Deem and Ramdas Pophale) SiO2 
 PCOD9375754
Probable space group: I M M 2
;
_chemical_formula_sum "Si O2"
_cell_formula_units_Z 56
_cell_length_a 8.745964
_cell_length_b 18.949617
_cell_length_c 17.046742
_cell_angle_alpha 90.000000
_cell_angle_beta 90.000000
_cell_angle_gamma 90.000000
_cell_volume 2825.202034
_symmetry_space_group_name_H-M "I M M 2"
_symmetry_group_IT_number 44
_symmetry_cell_setting 'orthorhombic'
loop_
_space_group_symop_operation_xyz
x,y,z
-x,-y,z
-x,y,z
x,-y,z
1/2+x,1/2+y,1/2+z
1/2-x,1/2-y,1/2+z
1/2-x,1/2+y,1/2+z
1/2+x,1/2-y,1/2+z
loop_
_atom_site_type_symbol
_atom_site_label
_atom_site_fract_x
_atom_site_fract_y
_atom_site_fract_z
Si Si1 0.683365 0.842137 0.334550
Si Si2 0.317517 0.298776 0.566839
Si Si3 0.318037 0.152999 0.641900
Si Si4 0.181502 0.702533 0.394973
Si Si5 0.321110 0.584409 0.987887
Si Si6 0.182491 0.082328 0.796165
Si Si7 0.684233 0.917824 0.171284
O O1 0.500000 0.840975 0.341180
O O2 0.746471 0.762843 0.339741
O O3 0.753718 0.882712 0.408784
O O4 0.724953 0.882302 0.254613
O O5 0.500000 0.298302 0.556295
O O6 0.277638 0.234761 0.625870
O O7 0.240048 0.285212 0.483129
O O8 0.261287 0.371721 0.603720
O O9 0.500000 0.148191 0.654899
O O10 0.271047 0.112930 0.562438
O O11 0.232402 0.117965 0.714532
O O12 0.237732 0.627036 0.364316
O O13 0.000000 0.707423 0.391856
O O14 0.500000 0.604137 0.995805
O O15 0.310588 0.500000 0.984793
O O16 0.000000 0.087244 0.804758
O O17 0.225853 0.000000 0.796495
O O18 0.500000 0.913640 0.163143
O O19 0.727875 0.000000 0.169858
#
# Coordination Sequence:
#
# PCOD9375754 Si02
#       7
#     8   8   8   8   8   8   8
#     4  11  22  40  65  93 127 166 211 261 314 378
#     4  11  24  42  65  94 126 165 212 260 315 376
#     4  11  23  40  64  93 127 166 212 262 315 378
#     4  12  25  42  67  95 126 166 212 263 318 380
#     4  11  23  37  58  91 130 170 211 257 313 376
#     4  11  25  44  66  93 128 168 211 263 320 379
#     4  10  23  42  64  92 126 166 210 258 315 375
#
# _framework density 19.821591999999999
#
# number of rings (size 3 to 8) (size 9 to 14) (size 15 to 20)
#    0.000    1.000    1.429    5.143    0.000   10.571 
#    0.000    0.000    0.000    0.000    0.000    0.000 
#    0.000    0.000    0.000    0.000    0.000    0.000 
#
# Total GULP energy -156708.325820 kJ/mol
# GULP energy per Si atom -5596.725922 kJ/mol
# Density = 1.977648 g / cm^3
# Si number density = 19.821592 Si / 1000 Ang^3
#
#
#
# Elastic Constant Matrix: (Units=GPa)
#
#
# Indices 1 2 3 4 5 6 
#
# 1 36.7471 35.5145 2.9432 0.0000 0.0000 0.0000
# 2 35.5145 129.1134 17.3906 0.0000 0.0000 0.0000
# 3 2.9432 17.3906 24.0954 0.0000 0.0000 0.0000
# 4 0.0000 0.0000 0.0000 25.8859 0.0000 0.0000
# 5 0.0000 0.0000 0.0000 0.0000 35.9176 0.0000
# 6 0.0000 0.0000 0.0000 0.0000 0.0000 33.6895
#
#
#
# Elastic Compliance Matrix: (Units=1/GPa)
#
#
# Indices 1 2 3 4 5 6 
#
# 1 0.037282 -0.010680 0.003154 0.000000 0.000000 0.000000
# 2 -0.010680 0.011638 -0.007095 0.000000 0.000000 0.000000
# 3 0.003154 -0.007095 0.046237 0.000000 0.000000 0.000000
# 4 0.000000 0.000000 0.000000 0.038631 0.000000 0.000000
# 5 0.000000 0.000000 0.000000 0.000000 0.027841 0.000000
# 6 0.000000 0.000000 0.000000 0.000000 0.000000 0.029683
#
#
# Mechanical properties :
#
#
# Convention : Reuss Voigt Hill
#
# Bulk Modulus (GPa) = 15.17087 33.51695 24.34391
# Shear Modulus (GPa) = 20.61623 28.03912 24.32768
#
# Velocity S-wave (km/s) = 3.22854 3.76516 3.50713
# Velocity P-wave (km/s) = 4.64417 5.98732 5.35800
#
# Compressibility (1/GPa) = 0.06591581
#
# Stress axis : x y z
#
# Youngs Moduli (GPa) = 26.82259 85.92198 21.62749
#
# Poissons Ratio (x) = 0.91763 -0.06822
# Poissons Ratio (y) = 0.28646 0.15346
# Poissons Ratio (z) = -0.08460 0.60965
#
# Static dielectric constant tensor:
#      x y z
#    x 1.664370 0.000000 0.000000 
#    y 0.000000 1.691690 0.000000 
#    z 0.000000 0.000000 1.664820 
# 
# From -- ./inp_files/16419.got.cif
#   From: 2010.05.17/outbox.cif.g08.bks.cpg/sg44_9_cif.got.tgz:16419.got - 2010.06.03 19:37:08.
