data_PCOD9375239
_publ_section_title
;
Structure prediction by ZEFSAII (Michael W. Deem and Ramdas Pophale) SiO2 
 PCOD9375239
Probable space group: I M M 2
;
_chemical_formula_sum "Si O2"
_cell_formula_units_Z 64
_cell_length_a 9.536548
_cell_length_b 7.582847
_cell_length_c 43.071520
_cell_angle_alpha 90.000000
_cell_angle_beta 90.000000
_cell_angle_gamma 90.000000
_cell_volume 3114.681839
_symmetry_space_group_name_H-M "I M M 2"
_symmetry_group_IT_number 44
_symmetry_cell_setting 'orthorhombic'
loop_
_space_group_symop_operation_xyz
x,y,z
-x,-y,z
-x,y,z
x,-y,z
1/2+x,1/2+y,1/2+z
1/2-x,1/2-y,1/2+z
1/2-x,1/2+y,1/2+z
1/2+x,1/2-y,1/2+z
loop_
_atom_site_type_symbol
_atom_site_label
_atom_site_fract_x
_atom_site_fract_y
_atom_site_fract_z
Si Si1 0.838632 0.784027 0.373950
Si Si2 0.161693 0.787361 0.680041
Si Si3 0.840364 0.711613 0.562541
Si Si4 0.339709 0.711471 0.992790
Si Si5 0.661237 0.784227 0.434181
Si Si6 0.839815 0.290981 0.815560
Si Si7 0.157483 0.210310 0.119661
Si Si8 0.836483 0.788211 0.747676
O O1 0.750997 0.730449 0.404231
O O2 0.758406 0.722813 0.342970
O O3 0.000000 0.726710 0.375149
O O4 0.840327 0.000000 0.373725
O O5 0.256533 0.737284 0.651182
O O6 0.217245 0.727544 0.713991
O O7 0.000000 0.726511 0.676094
O O8 0.156882 0.000000 0.680958
O O9 0.847256 0.500000 0.565646
O O10 0.790008 0.749299 0.527670
O O11 0.742936 0.780933 0.590043
O O12 0.000000 0.779904 0.565292
O O13 0.500000 0.778872 0.989689
O O14 0.346459 0.500000 0.989801
O O15 0.238758 0.775490 0.965547
O O16 0.500000 0.726847 0.432453
O O17 0.659960 0.000000 0.434351
O O18 0.851722 0.500000 0.820575
O O19 0.778143 0.267359 0.780950
O O20 0.000000 0.218525 0.816547
O O21 0.000000 0.281792 0.121772
O O22 0.147133 0.000000 0.115251
O O23 0.000000 0.732192 0.748119
O O24 0.832811 0.000000 0.747592
#
# Coordination Sequence:
#
# PCOD9375239 Si02
#       8
#     8   8   8   8   8   8   8   8
#     4   9  16  26  41  62  90 122 152 185 228 272
#     4   9  18  33  53  75  97 124 161 201 240 286
#     4   9  18  33  51  69  92 125 160 191 229 279
#     4   9  17  29  46  69  94 118 148 188 231 274
#     4   9  16  26  42  65  92 120 150 186 228 272
#     4   9  16  26  43  68  93 116 148 189 228 268
#     4  10  21  35  50  71  99 129 161 198 241 287
#     4   8  15  29  48  69  93 121 152 187 229 277
#
# _framework density 20.547846
#
# number of rings (size 3 to 8) (size 9 to 14) (size 15 to 20)
#    0.000    3.000    0.000    1.875    0.000    5.500 
#    0.000    3.125    0.000    3.375    0.000    0.000 
#    0.000    0.000    0.000    0.000    0.000    0.000 
#
# Total GULP energy -178463.505092 kJ/mol
# GULP energy per Si atom -5576.984534 kJ/mol
# Density = 2.050108 g / cm^3
# Si number density = 20.547846 Si / 1000 Ang^3
#
#
#
# Elastic Constant Matrix: (Units=GPa)
#
#
# Indices 1 2 3 4 5 6 
#
# 1 132.0539 5.6767 129.6365 0.0000 0.0000 0.0000
# 2 5.6767 42.3867 0.5988 0.0000 0.0000 0.0000
# 3 129.6365 0.5988 242.2530 0.0000 0.0000 0.0000
# 4 0.0000 0.0000 0.0000 13.1899 0.0000 0.0000
# 5 0.0000 0.0000 0.0000 0.0000 28.2667 0.0000
# 6 0.0000 0.0000 0.0000 0.0000 0.0000 3.3672
#
#
#
# Elastic Compliance Matrix: (Units=1/GPa)
#
#
# Indices 1 2 3 4 5 6 
#
# 1 0.016128 -0.002038 -0.008625 0.000000 0.000000 0.000000
# 2 -0.002038 0.023851 0.001032 0.000000 0.000000 0.000000
# 3 -0.008625 0.001032 0.008741 0.000000 0.000000 0.000000
# 4 0.000000 0.000000 0.000000 0.075816 0.000000 0.000000
# 5 0.000000 0.000000 0.000000 0.000000 0.035377 0.000000
# 6 0.000000 0.000000 0.000000 0.000000 0.000000 0.296983
#
#
# Mechanical properties :
#
#
# Convention : Reuss Voigt Hill
#
# Bulk Modulus (GPa) = 33.94903 76.50194 55.22548
# Shear Modulus (GPa) = 10.28853 27.68353 18.98603
#
# Velocity S-wave (km/s) = 2.24008 3.67450 3.04302
# Velocity P-wave (km/s) = 4.82166 7.43738 6.26750
#
# Compressibility (1/GPa) = 0.02945593
#
# Stress axis : x y z
#
# Youngs Moduli (GPa) = 62.00482 41.92753 114.40260
#
# Poissons Ratio (x) = 0.08545 0.98677
# Poissons Ratio (y) = 0.12637 -0.11803
# Poissons Ratio (z) = 0.53482 -0.04326
#
# Static dielectric constant tensor:
#      x y z
#    x 1.713390 0.000000 0.000000 
#    y 0.000000 1.780830 0.000000 
#    z 0.000000 0.000000 1.729430 
# 
# From -- ./inp_files/27197.got.cif
#   From: 2010.05.17/outbox.cif.g08.bks.cpg/sg44_14_cif.got.tgz:27197.got - 2010.06.03 19:37:08.
