data_PCOD9375572
_publ_section_title
;
Structure prediction by ZEFSAII (Michael W. Deem and Ramdas Pophale) SiO2 
 PCOD9375572
Probable space group: I M M 2
;
_chemical_formula_sum "Si O2"
_cell_formula_units_Z 32
_cell_length_a 11.623063
_cell_length_b 8.355231
_cell_length_c 14.742756
_cell_angle_alpha 90.000000
_cell_angle_beta 90.000000
_cell_angle_gamma 90.000000
_cell_volume 1431.718811
_symmetry_space_group_name_H-M "I M M 2"
_symmetry_group_IT_number 44
_symmetry_cell_setting 'orthorhombic'
loop_
_space_group_symop_operation_xyz
x,y,z
-x,-y,z
-x,y,z
x,-y,z
1/2+x,1/2+y,1/2+z
1/2-x,1/2-y,1/2+z
1/2-x,1/2+y,1/2+z
1/2+x,1/2-y,1/2+z
loop_
_atom_site_type_symbol
_atom_site_label
_atom_site_fract_x
_atom_site_fract_y
_atom_site_fract_z
Si Si1 0.131271 0.188696 0.462540
Si Si2 0.123754 0.500000 0.119190
Si Si3 0.210630 0.321248 0.787690
Si Si4 0.805817 0.827308 0.088082
Si Si5 0.125494 0.000000 0.720028
O O1 0.209132 0.208454 0.374023
O O2 0.182103 0.296992 0.542325
O O3 0.000000 0.227902 0.442880
O O4 0.137818 0.000000 0.487148
O O5 0.126941 0.334242 0.064116
O O6 0.248302 0.500000 0.170161
O O7 0.000000 0.500000 0.170511
O O8 0.157921 0.500000 0.795703
O O9 0.289152 0.328589 0.696529
O O10 0.131249 0.166544 0.774742
O O11 0.852021 0.000000 0.059727
O O12 0.000000 0.000000 0.670975
#
# Coordination Sequence:
#
# PCOD9375572 Si02
#       5
#     8   4   8   8   4
#     4  10  21  40  69 101 137 180 232 289 340 403
#     4  10  22  42  66  96 133 176 223 278 341 404
#     4   9  21  40  62  93 136 175 220 273 341 401
#     4  10  21  39  64  96 136 174 222 277 344 404
#     4  10  22  40  66  98 131 172 223 278 339 406
#
# _framework density 22.350756000000001
#
# number of rings (size 3 to 8) (size 9 to 14) (size 15 to 20)
#    0.000    2.250    1.250    0.000    1.750    9.500 
#    0.000   11.250    0.000    0.000    0.000    0.000 
#    0.000    0.000    0.000    0.000    0.000    0.000 
#
# Total GULP energy -89122.859256 kJ/mol
# GULP energy per Si atom -5570.178703 kJ/mol
# Density = 2.229989 g / cm^3
# Si number density = 22.350756 Si / 1000 Ang^3
#
#
#
# Elastic Constant Matrix: (Units=GPa)
#
#
# Indices 1 2 3 4 5 6 
#
# 1 139.3169 42.8859 25.4855 0.0000 0.0000 0.0000
# 2 42.8859 190.6557 -0.1361 0.0000 0.0000 0.0000
# 3 25.4855 -0.1361 70.8189 0.0000 0.0000 0.0000
# 4 0.0000 0.0000 0.0000 18.7202 0.0000 0.0000
# 5 0.0000 0.0000 0.0000 0.0000 22.1301 0.0000
# 6 0.0000 0.0000 0.0000 0.0000 0.0000 5.2007
#
#
#
# Elastic Compliance Matrix: (Units=1/GPa)
#
#
# Indices 1 2 3 4 5 6 
#
# 1 0.008300 -0.001869 -0.002991 0.000000 0.000000 0.000000
# 2 -0.001869 0.005666 0.000684 0.000000 0.000000 0.000000
# 3 -0.002991 0.000684 0.015198 0.000000 0.000000 0.000000
# 4 0.000000 0.000000 0.000000 0.053418 0.000000 0.000000
# 5 0.000000 0.000000 0.000000 0.000000 0.045187 0.000000
# 6 0.000000 0.000000 0.000000 0.000000 0.000000 0.192282
#
#
# Mechanical properties :
#
#
# Convention : Reuss Voigt Hill
#
# Bulk Modulus (GPa) = 48.04950 59.69579 53.87264
# Shear Modulus (GPa) = 14.91015 31.38062 23.14538
#
# Velocity S-wave (km/s) = 2.58563 3.75107 3.22149
# Velocity P-wave (km/s) = 5.51893 6.74739 6.16384
#
# Compressibility (1/GPa) = 0.02081187
#
# Stress axis : x y z
#
# Youngs Moduli (GPa) = 120.47672 176.49131 65.79782
#
# Poissons Ratio (x) = 0.32990 0.19678
# Poissons Ratio (y) = 0.22520 -0.04498
# Poissons Ratio (z) = 0.36030 -0.12064
#
# Static dielectric constant tensor:
#      x y z
#    x 1.832850 0.000000 0.000000 
#    y 0.000000 1.911100 0.000000 
#    z 0.000000 0.000000 1.818810 
# 
# From -- ./inp_files/15538.got.cif
#   From: 2010.05.17/outbox.cif.g08.bks.cpg/sg44_8_cif.got.tgz:15538.got - 2010.06.03 19:37:08.
