data_PCOD9375837
_publ_section_title
;
Structure prediction by ZEFSAII (Michael W. Deem and Ramdas Pophale) SiO2 
 PCOD9375837
Probable space group: I M M 2
;
_chemical_formula_sum "Si O2"
_cell_formula_units_Z 64
_cell_length_a 7.977200
_cell_length_b 33.530455
_cell_length_c 12.188034
_cell_angle_alpha 90.000000
_cell_angle_beta 90.000000
_cell_angle_gamma 90.000000
_cell_volume 3260.044921
_symmetry_space_group_name_H-M "I M M 2"
_symmetry_group_IT_number 44
_symmetry_cell_setting 'orthorhombic'
loop_
_space_group_symop_operation_xyz
x,y,z
-x,-y,z
-x,y,z
x,-y,z
1/2+x,1/2+y,1/2+z
1/2-x,1/2-y,1/2+z
1/2-x,1/2+y,1/2+z
1/2+x,1/2-y,1/2+z
loop_
_atom_site_type_symbol
_atom_site_label
_atom_site_fract_x
_atom_site_fract_y
_atom_site_fract_z
Si Si1 0.800325 0.044678 0.907740
Si Si2 0.795061 0.953498 0.663500
Si Si3 0.306819 0.816113 0.960354
Si Si4 0.804173 0.121708 0.531200
Si Si5 0.809218 0.397820 0.597226
Si Si6 0.205126 0.729272 0.667202
Si Si7 0.302239 0.181218 0.719156
Si Si8 0.800165 0.349591 0.794446
O O1 0.739921 0.058996 0.787309
O O2 0.000000 0.042331 0.896284
O O3 0.733206 0.000000 0.922914
O O4 0.767510 0.070671 0.014383
O O5 0.735563 0.920757 0.575784
O O6 0.000000 0.952603 0.660829
O O7 0.746912 0.000000 0.646096
O O8 0.500000 0.803869 0.938834
O O9 0.230035 0.823873 0.841975
O O10 0.310722 0.856747 0.028605
O O11 0.236586 0.783993 0.045421
O O12 0.782582 0.153283 0.629406
O O13 0.728666 0.139591 0.420047
O O14 0.000000 0.116206 0.508498
O O15 0.730968 0.384133 0.712997
O O16 0.000000 0.411097 0.616971
O O17 0.276055 0.772274 0.693923
O O18 0.257619 0.694071 0.752046
O O19 0.000000 0.731010 0.667516
O O20 0.500000 0.171203 0.717141
O O21 0.000000 0.349028 0.774590
#
# Coordination Sequence:
#
# PCOD9375837 Si02
#       8
#     8   8   8   8   8   8   8   8
#     4   9  17  30  51  79 109 136 166 214 269 316
#     4   8  16  33  55  79 108 141 178 223 273 319
#     4   8  17  34  53  72  97 130 166 209 259 309
#     4  11  22  35  55  81 107 142 185 225 268 322
#     4   9  17  33  55  74  98 136 173 209 260 316
#     4   9  19  37  56  74 100 136 176 218 265 316
#     4  11  22  34  52  79 108 136 170 217 269 317
#     4   9  20  38  56  74 105 144 179 221 271 316
#
# _framework density 19.631630000000001
#
# number of rings (size 3 to 8) (size 9 to 14) (size 15 to 20)
#    0.000    2.750    0.000    3.750    1.750    1.250 
#    0.000    4.375    0.000    5.250    0.000    0.000 
#    0.000    0.000    0.000    0.000    0.000    0.000 
#
# Total GULP energy -178284.499778 kJ/mol
# GULP energy per Si atom -5571.390618 kJ/mol
# Density = 1.958695 g / cm^3
# Si number density = 19.631630 Si / 1000 Ang^3
#
#
#
# Elastic Constant Matrix: (Units=GPa)
#
#
# Indices 1 2 3 4 5 6 
#
# 1 14.2291 -5.8302 -7.7266 0.0000 0.0000 0.0000
# 2 -5.8302 66.1804 38.6258 0.0001 0.0000 0.0000
# 3 -7.7266 38.6258 127.6250 0.0002 0.0000 0.0000
# 4 0.0000 0.0001 0.0002 18.5339 0.0000 0.0000
# 5 0.0000 0.0000 0.0000 0.0000 10.2892 0.0001
# 6 0.0000 0.0000 0.0000 0.0000 0.0001 4.5514
#
#
#
# Elastic Compliance Matrix: (Units=1/GPa)
#
#
# Indices 1 2 3 4 5 6 
#
# 1 0.073868 0.004733 0.003039 0.000000 0.000000 0.000000
# 2 0.004733 0.018655 -0.005359 0.000000 0.000000 0.000000
# 3 0.003039 -0.005359 0.009642 0.000000 0.000000 0.000000
# 4 0.000000 0.000000 0.000000 0.053955 0.000000 0.000000
# 5 0.000000 0.000000 0.000000 0.000000 0.097189 -0.000001
# 6 0.000000 0.000000 0.000000 0.000000 -0.000001 0.219714
#
#
# Mechanical properties :
#
#
# Convention : Reuss Voigt Hill
#
# Bulk Modulus (GPa) = 9.34648 28.68585 19.01616
# Shear Modulus (GPa) = 9.92339 18.87260 14.39800
#
# Velocity S-wave (km/s) = 2.25073 3.10391 2.71109
# Velocity P-wave (km/s) = 3.39494 5.24304 4.41673
#
# Compressibility (1/GPa) = 0.10699211
#
# Stress axis : x y z
#
# Youngs Moduli (GPa) = 13.53760 53.60434 103.71823
#
# Poissons Ratio (x) = -0.25373 -0.31525
# Poissons Ratio (y) = -0.06408 0.55587
# Poissons Ratio (z) = -0.04115 0.28729
#
# Static dielectric constant tensor:
#      x y z
#    x 1.728750 0.000000 0.000000 
#    y 0.000000 1.687780 0.000000 
#    z 0.000000 0.000000 1.716760 
# 
# From -- ./inp_files/11414.got.cif
#   From: 2010.05.17/outbox.cif.g08.bks.cpg/sg44_6_cif.got.tgz:11414.got - 2010.06.03 19:37:08.
