data_PCOD9375843
_publ_section_title
;
Structure prediction by ZEFSAII (Michael W. Deem and Ramdas Pophale) SiO2 
 PCOD9375843
Probable space group: I M M 2
;
_chemical_formula_sum "Si O2"
_cell_formula_units_Z 64
_cell_length_a 14.490892
_cell_length_b 18.812589
_cell_length_c 11.749610
_cell_angle_alpha 90.000000
_cell_angle_beta 90.000000
_cell_angle_gamma 90.000000
_cell_volume 3203.075228
_symmetry_space_group_name_H-M "I M M 2"
_symmetry_group_IT_number 44
_symmetry_cell_setting 'orthorhombic'
loop_
_space_group_symop_operation_xyz
x,y,z
-x,-y,z
-x,y,z
x,-y,z
1/2+x,1/2+y,1/2+z
1/2-x,1/2-y,1/2+z
1/2-x,1/2+y,1/2+z
1/2+x,1/2-y,1/2+z
loop_
_atom_site_type_symbol
_atom_site_label
_atom_site_fract_x
_atom_site_fract_y
_atom_site_fract_z
Si Si1 0.713195 0.847300 0.501810
Si Si2 0.714948 0.721775 0.326644
Si Si3 0.896301 0.081229 0.556512
Si Si4 0.894709 0.304187 0.638411
Si Si5 0.108399 0.663058 0.240025
Si Si6 0.606329 0.419766 0.331114
Si Si7 0.900284 0.423399 0.829990
Si Si8 0.390084 0.079724 0.961716
O O1 0.695778 0.776320 0.428695
O O2 0.820403 0.862792 0.519037
O O3 0.655443 0.849662 0.618129
O O4 0.676557 0.909908 0.421720
O O5 0.664527 0.746265 0.208305
O O6 0.823411 0.720369 0.297735
O O7 0.674581 0.644541 0.360248
O O8 0.894781 0.078802 0.693773
O O9 0.000000 0.099222 0.519875
O O10 0.875803 0.000000 0.518726
O O11 0.899728 0.365269 0.733623
O O12 0.856316 0.350045 0.531479
O O13 0.000000 0.278339 0.614993
O O14 0.117030 0.596780 0.327342
O O15 0.000000 0.681109 0.231770
O O16 0.500000 0.405492 0.367626
O O17 0.631882 0.500000 0.369312
O O18 0.892003 0.500000 0.775049
O O19 0.000000 0.418835 0.889344
O O20 0.500000 0.078660 0.988883
O O21 0.353898 0.000000 0.986767
#
# Coordination Sequence:
#
# PCOD9375843 Si02
#       8
#     8   8   8   8   8   8   8   8
#     4  11  22  37  57  84 119 161 202 246 304 374
#     4  11  23  37  59  85 119 159 205 250 311 371
#     4   9  18  34  58  87 117 151 197 254 303 344
#     4   9  18  34  59  88 117 149 196 252 300 351
#     4  11  25  40  54  80 121 160 197 245 305 368
#     4   9  18  35  60  87 112 143 192 256 314 358
#     4   9  17  30  52  84 120 157 194 236 289 354
#     4   9  19  36  59  86 118 158 198 239 293 357
#
# _framework density 19.980798
#
# number of rings (size 3 to 8) (size 9 to 14) (size 15 to 20)
#    0.000    2.250    1.250    2.250    1.750    5.000 
#    0.000    1.250    0.000    0.000    0.000    0.000 
#    0.000    4.000    0.000    6.500    0.000    0.000 
#
# Total GULP energy -178311.715316 kJ/mol
# GULP energy per Si atom -5572.241104 kJ/mol
# Density = 1.993532 g / cm^3
# Si number density = 19.980798 Si / 1000 Ang^3
#
#
#
# Elastic Constant Matrix: (Units=GPa)
#
#
# Indices 1 2 3 4 5 6 
#
# 1 115.3572 48.4215 33.2346 0.0000 0.0000 0.0000
# 2 48.4215 103.3620 25.2409 0.0000 0.0000 0.0000
# 3 33.2346 25.2409 82.6335 0.0000 0.0000 0.0000
# 4 0.0000 0.0000 0.0000 14.2553 0.0000 0.0000
# 5 0.0000 0.0000 0.0000 0.0000 24.7289 0.0000
# 6 0.0000 0.0000 0.0000 0.0000 0.0000 18.4767
#
#
#
# Elastic Compliance Matrix: (Units=1/GPa)
#
#
# Indices 1 2 3 4 5 6 
#
# 1 0.011537 -0.004616 -0.003230 0.000000 0.000000 0.000000
# 2 -0.004616 0.012301 -0.001901 0.000000 0.000000 0.000000
# 3 -0.003230 -0.001901 0.013981 0.000000 0.000000 0.000000
# 4 0.000000 0.000000 0.000000 0.070149 0.000000 0.000000
# 5 0.000000 0.000000 0.000000 0.000000 0.040439 0.000000
# 6 0.000000 0.000000 0.000000 0.000000 0.000000 0.054122
#
#
# Mechanical properties :
#
#
# Convention : Reuss Voigt Hill
#
# Bulk Modulus (GPa) = 54.56837 57.23850 55.90344
# Shear Modulus (GPa) = 21.91711 24.45588 23.18650
#
# Velocity S-wave (km/s) = 3.31555 3.50232 3.41022
# Velocity P-wave (km/s) = 6.48282 6.71297 6.59890
#
# Compressibility (1/GPa) = 0.01832564
#
# Stress axis : x y z
#
# Youngs Moduli (GPa) = 86.67897 81.29204 71.52336
#
# Poissons Ratio (x) = 0.37523 0.23103
# Poissons Ratio (y) = 0.40009 0.13597
# Poissons Ratio (z) = 0.27998 0.15454
#
# Static dielectric constant tensor:
#      x y z
#    x 1.759930 0.000000 0.000000 
#    y 0.000000 1.770730 0.000000 
#    z 0.000000 0.000000 1.707860 
# 
# From -- ./inp_files/13413.got.cif
#   From: 2010.05.17/outbox.cif.g08.bks.cpg/sg44_7_cif.got.tgz:13413.got - 2010.06.03 19:37:08.
