data_PCOD9375669
_publ_section_title
;
Structure prediction by ZEFSAII (Michael W. Deem and Ramdas Pophale) SiO2 
 PCOD9375669
Probable space group: I M M 2
;
_chemical_formula_sum "Si O2"
_cell_formula_units_Z 40
_cell_length_a 24.038266
_cell_length_b 8.086967
_cell_length_c 9.775322
_cell_angle_alpha 90.000000
_cell_angle_beta 90.000000
_cell_angle_gamma 90.000000
_cell_volume 1900.289985
_symmetry_space_group_name_H-M "I M M 2"
_symmetry_group_IT_number 44
_symmetry_cell_setting 'orthorhombic'
loop_
_space_group_symop_operation_xyz
x,y,z
-x,-y,z
-x,y,z
x,-y,z
1/2+x,1/2+y,1/2+z
1/2-x,1/2-y,1/2+z
1/2-x,1/2+y,1/2+z
1/2+x,1/2-y,1/2+z
loop_
_atom_site_type_symbol
_atom_site_label
_atom_site_fract_x
_atom_site_fract_y
_atom_site_fract_z
Si Si1 0.187935 0.685384 0.752100
Si Si2 0.000000 0.250612 0.103735
Si Si3 0.879967 0.000000 0.400940
Si Si4 0.123255 0.683724 0.198782
Si Si5 0.000000 0.000000 0.851856
Si Si6 0.775208 0.804691 0.017233
Si Si7 0.381435 0.500000 0.211583
Si Si8 0.500000 0.500000 0.851634
O O1 0.164886 0.500000 0.758968
O O2 0.221728 0.706352 0.612761
O O3 0.143668 0.830001 0.770521
O O4 0.232031 0.713698 0.873753
O O5 0.937121 0.321639 0.122159
O O6 0.000000 0.151972 0.961061
O O7 0.000000 0.148298 0.245111
O O8 0.872320 0.164368 0.307691
O O9 0.858187 0.000000 0.554648
O O10 0.945354 0.000000 0.437382
O O11 0.131517 0.500000 0.260805
O O12 0.172077 0.721271 0.091219
O O13 0.054439 0.000000 0.757135
O O14 0.786268 0.000000 0.997904
#
# Coordination Sequence:
#
# PCOD9375669 Si02
#       8
#     8   4   4   8   2   8   4   2
#     4  11  27  44  68  98 137 177 232 281 344 415
#     4   9  19  36  63  95 131 167 229 280 335 397
#     4  10  22  39  62  93 135 170 225 273 341 401
#     4  11  22  38  67  97 132 175 225 281 342 405
#     4  11  23  42  72  96 135 183 228 284 350 406
#     4  11  24  43  66  96 132 174 223 282 342 403
#     4  12  26  45  70  99 139 185 230 284 345 414
#     4   7  15  34  58  88 119 169 202 268 320 396
#
# _framework density 21.049419
#
# number of rings (size 3 to 8) (size 9 to 14) (size 15 to 20)
#    0.000    1.400    2.000    3.000    5.600    0.800 
#    0.000    1.500    0.000    2.400    0.000    0.000 
#    0.000    0.000    0.000    0.000    0.000    0.000 
#
# Total GULP energy -111464.943577 kJ/mol
# GULP energy per Si atom -5573.247179 kJ/mol
# Density = 2.100151 g / cm^3
# Si number density = 21.049419 Si / 1000 Ang^3
#
#
#
# Elastic Constant Matrix: (Units=GPa)
#
#
# Indices 1 2 3 4 5 6 
#
# 1 69.1351 51.5335 -5.0642 0.0000 0.0000 0.0000
# 2 51.5335 170.5573 43.8645 0.0000 0.0000 0.0000
# 3 -5.0642 43.8645 92.8214 0.0000 0.0000 0.0000
# 4 0.0000 0.0000 0.0000 18.1334 0.0000 0.0000
# 5 0.0000 0.0000 0.0000 0.0000 22.7735 0.0000
# 6 0.0000 0.0000 0.0000 0.0000 0.0000 14.5857
#
#
#
# Elastic Compliance Matrix: (Units=1/GPa)
#
#
# Indices 1 2 3 4 5 6 
#
# 1 0.020223 -0.007279 0.004543 0.000000 0.000000 0.000000
# 2 -0.007279 0.009294 -0.004789 0.000000 0.000000 0.000000
# 3 0.004543 -0.004789 0.013284 0.000000 0.000000 0.000000
# 4 0.000000 0.000000 0.000000 0.055147 0.000000 0.000000
# 5 0.000000 0.000000 0.000000 0.000000 0.043911 0.000000
# 6 0.000000 0.000000 0.000000 0.000000 0.000000 0.068560
#
#
# Mechanical properties :
#
#
# Convention : Reuss Voigt Hill
#
# Bulk Modulus (GPa) = 36.03401 57.02015 46.52708
# Shear Modulus (GPa) = 21.30205 27.24386 24.27296
#
# Velocity S-wave (km/s) = 3.18465 3.60151 3.39948
# Velocity P-wave (km/s) = 5.53882 6.66649 6.12865
#
# Compressibility (1/GPa) = 0.02775156
#
# Stress axis : x y z
#
# Youngs Moduli (GPa) = 49.44929 107.59567 75.27594
#
# Poissons Ratio (x) = 0.78315 -0.34198
# Poissons Ratio (y) = 0.35992 0.36051
# Poissons Ratio (z) = -0.22465 0.51530
#
# Static dielectric constant tensor:
#      x y z
#    x 1.765960 0.000000 0.000000 
#    y 0.000000 1.778160 0.000000 
#    z 0.000000 0.000000 1.764010 
# 
# From -- ./inp_files/9647.got.cif
#   From: 2010.05.17/outbox.cif.g08.bks.cpg/sg44_5_cif.got.tgz:9647.got - 2010.06.03 19:37:08.
