data_PCOD9375002
_publ_section_title
;
Structure prediction by ZEFSAII (Michael W. Deem and Ramdas Pophale) SiO2 
 PCOD9375002
Probable space group: I M M 2
;
_chemical_formula_sum "Si O2"
_cell_formula_units_Z 40
_cell_length_a 21.668672
_cell_length_b 10.447777
_cell_length_c 9.627634
_cell_angle_alpha 90.000000
_cell_angle_beta 90.000000
_cell_angle_gamma 90.000000
_cell_volume 2179.594794
_symmetry_space_group_name_H-M "I M M 2"
_symmetry_group_IT_number 44
_symmetry_cell_setting 'orthorhombic'
loop_
_space_group_symop_operation_xyz
x,y,z
-x,-y,z
-x,y,z
x,-y,z
1/2+x,1/2+y,1/2+z
1/2-x,1/2-y,1/2+z
1/2-x,1/2+y,1/2+z
1/2+x,1/2-y,1/2+z
loop_
_atom_site_type_symbol
_atom_site_label
_atom_site_fract_x
_atom_site_fract_y
_atom_site_fract_z
Si Si1 0.806880 0.646690 0.940360
Si Si2 0.687004 0.500000 0.260494
Si Si3 0.430754 0.783824 0.526385
Si Si4 0.929403 0.000000 0.967792
Si Si5 0.929101 0.500000 0.257780
Si Si6 0.688589 0.000000 0.955464
Si Si7 0.277687 0.766840 0.147647
O O1 0.799021 0.500000 0.978662
O O2 0.769617 0.678676 0.801992
O O3 0.878613 0.675991 0.917110
O O4 0.784893 0.733466 0.067100
O O5 0.626102 0.500000 0.356548
O O6 0.749561 0.500000 0.357150
O O7 0.689088 0.370058 0.170265
O O8 0.500000 0.806803 0.474236
O O9 0.424257 0.632346 0.552325
O O10 0.422453 0.875489 0.658682
O O11 0.000000 0.000000 0.908551
O O12 0.873294 0.500000 0.365178
O O13 0.000000 0.500000 0.312096
O O14 0.690557 0.125324 0.053520
#
# Coordination Sequence:
#
# PCOD9375002 Si02
#       7
#     8   4   8   4   4   4   8
#     4  12  23  38  60  93 123 156 205 256 304 364
#     4  12  22  39  59  89 124 160 203 245 314 364
#     4  10  20  36  63  90 119 160 205 248 301 364
#     4  10  20  36  58  92 124 156 203 257 297 357
#     4  10  22  41  63  91 125 167 204 252 313 368
#     4  12  24  40  62  88 125 159 206 260 300 369
#     4  12  24  38  61  90 122 162 200 249 312 361
#
# _framework density 18.352035000000001
#
# number of rings (size 3 to 8) (size 9 to 14) (size 15 to 20)
#    0.000    0.800    7.000    1.200    0.000    0.000 
#    0.000    3.000    0.000    0.000    0.000    0.000 
#    0.000    0.000    0.000    0.000    0.000    0.000 
#
# Total GULP energy -111539.756242 kJ/mol
# GULP energy per Si atom -5576.987812 kJ/mol
# Density = 1.831026 g / cm^3
# Si number density = 18.352035 Si / 1000 Ang^3
#
#
#
# Elastic Constant Matrix: (Units=GPa)
#
#
# Indices 1 2 3 4 5 6 
#
# 1 115.8335 50.2641 58.6850 0.0000 0.0000 0.0000
# 2 50.2641 142.9052 37.2406 0.0000 0.0000 0.0000
# 3 58.6850 37.2406 66.8674 0.0000 0.0000 0.0000
# 4 0.0000 0.0000 0.0000 34.7667 0.0000 0.0000
# 5 0.0000 0.0000 0.0000 0.0000 27.8074 0.0000
# 6 0.0000 0.0000 0.0000 0.0000 0.0000 23.0949
#
#
#
# Elastic Compliance Matrix: (Units=1/GPa)
#
#
# Indices 1 2 3 4 5 6 
#
# 1 0.016181 -0.002329 -0.012904 0.000000 0.000000 0.000000
# 2 -0.002329 0.008521 -0.002702 0.000000 0.000000 0.000000
# 3 -0.012904 -0.002702 0.027785 0.000000 0.000000 0.000000
# 4 0.000000 0.000000 0.000000 0.028763 0.000000 0.000000
# 5 0.000000 0.000000 0.000000 0.000000 0.035962 0.000000
# 6 0.000000 0.000000 0.000000 0.000000 0.000000 0.043300
#
#
# Mechanical properties :
#
#
# Convention : Reuss Voigt Hill
#
# Bulk Modulus (GPa) = 60.17764 68.66505 64.42135
# Shear Modulus (GPa) = 24.76225 29.09489 26.92857
#
# Velocity S-wave (km/s) = 3.67726 3.98600 3.83474
# Velocity P-wave (km/s) = 7.13383 7.66035 7.40177
#
# Compressibility (1/GPa) = 0.01661747
#
# Stress axis : x y z
#
# Youngs Moduli (GPa) = 61.79969 117.36023 35.99071
#
# Poissons Ratio (x) = 0.27329 0.46444
# Poissons Ratio (y) = 0.14391 0.09724
# Poissons Ratio (z) = 0.79748 0.31708
#
# Static dielectric constant tensor:
#      x y z
#    x 1.653910 0.000000 0.000000 
#    y 0.000000 1.668840 0.000000 
#    z 0.000000 0.000000 1.614980 
# 
# From -- ./inp_files/8802.got.cif
#   From: 2010.05.17/outbox.cif.g08.bks.cpg/sg44_5_cif.got.tgz:8802.got - 2010.06.03 19:37:08.
