data_PCOD9375663
_publ_section_title
;
Structure prediction by ZEFSAII (Michael W. Deem and Ramdas Pophale) SiO2 
 PCOD9375663
Probable space group: I M M 2
;
_chemical_formula_sum "Si O2"
_cell_formula_units_Z 40
_cell_length_a 22.768908
_cell_length_b 10.669175
_cell_length_c 7.387267
_cell_angle_alpha 90.000000
_cell_angle_beta 90.000000
_cell_angle_gamma 90.000000
_cell_volume 1794.555264
_symmetry_space_group_name_H-M "I M M 2"
_symmetry_group_IT_number 44
_symmetry_cell_setting 'orthorhombic'
loop_
_space_group_symop_operation_xyz
x,y,z
-x,-y,z
-x,y,z
x,-y,z
1/2+x,1/2+y,1/2+z
1/2-x,1/2-y,1/2+z
1/2-x,1/2+y,1/2+z
1/2+x,1/2-y,1/2+z
loop_
_atom_site_type_symbol
_atom_site_label
_atom_site_fract_x
_atom_site_fract_y
_atom_site_fract_z
Si Si1 0.812456 0.629653 0.646160
Si Si2 0.886486 0.649940 0.190121
Si Si3 0.569247 0.361061 0.963484
Si Si4 0.066647 0.296335 0.794681
Si Si5 0.243593 0.635680 0.040843
O O1 0.799280 0.500000 0.544123
O O2 0.880166 0.629367 0.703135
O O3 0.777260 0.628947 0.834344
O O4 0.790561 0.755751 0.557093
O O5 0.899646 0.500000 0.217671
O O6 0.904319 0.745161 0.349207
O O7 0.919457 0.697547 0.007633
O O8 0.816905 0.659923 0.149256
O O9 0.500000 0.361871 0.918135
O O10 0.593523 0.500000 0.921626
O O11 0.571996 0.332363 0.179446
O O12 0.000000 0.341541 0.765056
O O13 0.267241 0.500000 0.097111
#
# Coordination Sequence:
#
# PCOD9375663 Si02
#       5
#     8   8   8   8   8
#     4  10  22  39  61  90 121 159 207 254 309 373
#     4  10  22  41  66  95 127 166 215 269 322 378
#     4  10  23  41  62  93 131 171 214 261 320 387
#     4  10  22  41  64  92 129 168 210 263 319 377
#     4   9  21  40  59  87 124 159 202 255 312 372
#
# _framework density 22.289646999999999
#
# number of rings (size 3 to 8) (size 9 to 14) (size 15 to 20)
#    0.000    2.200    0.000    2.400    2.800    7.600 
#    0.000   10.000    0.000    0.000    0.000    0.000 
#    0.000    0.000    0.000    0.000    0.000    0.000 
#
# Total GULP energy -111570.112549 kJ/mol
# GULP energy per Si atom -5578.505627 kJ/mol
# Density = 2.223892 g / cm^3
# Si number density = 22.289647 Si / 1000 Ang^3
#
#
#
# Elastic Constant Matrix: (Units=GPa)
#
#
# Indices 1 2 3 4 5 6 
#
# 1 121.2436 69.6899 26.8787 0.0000 0.0000 0.0000
# 2 69.6899 174.7786 74.2154 0.0000 0.0000 0.0000
# 3 26.8787 74.2154 119.8979 0.0000 0.0000 0.0000
# 4 0.0000 0.0000 0.0000 -64.8512 0.0000 0.0000
# 5 0.0000 0.0000 0.0000 0.0000 34.6369 0.0000
# 6 0.0000 0.0000 0.0000 0.0000 0.0000 -422.4957
#
#
#
# Elastic Compliance Matrix: (Units=1/GPa)
#
#
# Indices 1 2 3 4 5 6 
#
# 1 0.010710 -0.004410 0.000329 0.000000 0.000000 0.000000
# 2 -0.004410 0.009577 -0.004940 0.000000 0.000000 0.000000
# 3 0.000329 -0.004940 0.011324 0.000000 0.000000 0.000000
# 4 0.000000 0.000000 0.000000 -0.015420 0.000000 0.000000
# 5 0.000000 0.000000 0.000000 0.000000 0.028871 0.000000
# 6 0.000000 0.000000 0.000000 0.000000 0.000000 -0.002367
#
#
# Mechanical properties :
#
#
# Convention : Reuss Voigt Hill
#
# Bulk Modulus (GPa) = 73.69286 84.16533 78.92910
# Shear Modulus (GPa) = 76.61585 -74.19957 1.20814
#
# Velocity S-wave (km/s) = 5.86920 -5.77590 0.73702
# Velocity P-wave (km/s) = 8.89175 2.57675 6.01762
#
# Compressibility (1/GPa) = 0.01356984
#
# Stress axis : x y z
#
# Youngs Moduli (GPa) = 93.37271 104.41213 88.30540
#
# Poissons Ratio (x) = 0.46045 -0.02903
# Poissons Ratio (y) = 0.41177 0.43620
# Poissons Ratio (z) = -0.03070 0.51576
#
# Static dielectric constant tensor:
#      x y z
#    x 1.807930 0.000000 0.000000 
#    y 0.000000 2.051920 0.000000 
#    z 0.000000 0.000000 1.845230 
# 
# From -- ./inp_files/4448.got.cif
#   From: 2010.05.17/outbox.cif.g08.bks.cpg/sg44_3_cif.got.tgz:4448.got - 2010.06.03 19:37:08.
