data_PCOD9375670
_publ_section_title
;
Structure prediction by ZEFSAII (Michael W. Deem and Ramdas Pophale) SiO2 
 PCOD9375670
Probable space group: I M M 2
;
_chemical_formula_sum "Si O2"
_cell_formula_units_Z 52
_cell_length_a 18.333012
_cell_length_b 22.842001
_cell_length_c 5.221460
_cell_angle_alpha 90.000000
_cell_angle_beta 90.000000
_cell_angle_gamma 90.000000
_cell_volume 2186.552575
_symmetry_space_group_name_H-M "I M M 2"
_symmetry_group_IT_number 44
_symmetry_cell_setting 'orthorhombic'
loop_
_space_group_symop_operation_xyz
x,y,z
-x,-y,z
-x,y,z
x,-y,z
1/2+x,1/2+y,1/2+z
1/2-x,1/2-y,1/2+z
1/2-x,1/2+y,1/2+z
1/2+x,1/2-y,1/2+z
loop_
_atom_site_type_symbol
_atom_site_label
_atom_site_fract_x
_atom_site_fract_y
_atom_site_fract_z
Si Si1 0.240670 0.784922 0.122850
Si Si2 0.075190 0.063472 0.168661
Si Si3 0.207370 0.935215 0.554474
Si Si4 0.118264 0.837384 0.816172
Si Si5 0.621024 0.931853 0.515470
Si Si6 0.500000 0.748787 0.062576
Si Si7 0.613521 0.143607 0.030393
O O1 0.239870 0.765923 0.417745
O O2 0.303456 0.833257 0.076996
O O3 0.159211 0.799694 0.032089
O O4 0.149115 0.065814 0.326234
O O5 0.000000 0.068041 0.330201
O O6 0.073720 0.000000 0.043053
O O7 0.074072 0.114008 0.966217
O O8 0.183204 0.876865 0.699310
O O9 0.291189 0.932460 0.477589
O O10 0.199606 0.000000 0.682607
O O11 0.065194 0.798917 0.642894
O O12 0.591068 0.895138 0.276353
O O13 0.597213 0.000000 0.526059
O O14 0.607933 0.896736 0.778536
O O15 0.436799 0.799305 0.008490
#
# Coordination Sequence:
#
# PCOD9375670 Si02
#       7
#     8   8   8   8   8   4   8
#     4  12  26  46  73 104 150 202 256 304 373 437
#     4  10  22  39  62  98 147 196 244 304 370 444
#     4  10  23  41  69 108 141 186 247 317 375 443
#     4  12  24  44  67 101 142 202 247 305 364 456
#     4  11  25  50  85 112 142 187 247 320 398 456
#     4  12  30  46  70 108 152 202 254 300 378 440
#     4  12  26  51  73 114 154 191 249 321 368 463
#
# _framework density 23.781727
#
# number of rings (size 3 to 8) (size 9 to 14) (size 15 to 20)
#    0.000    0.769    3.846    2.769    3.231    0.615 
#    2.769    2.308    0.000    0.000    0.000    0.000 
#    0.000    0.000    0.000    0.000    0.000    0.000 
#
# Total GULP energy -144763.824240 kJ/mol
# GULP energy per Si atom -5567.839394 kJ/mol
# Density = 2.372760 g / cm^3
# Si number density = 23.781727 Si / 1000 Ang^3
#
#
#
# Elastic Constant Matrix: (Units=GPa)
#
#
# Indices 1 2 3 4 5 6 
#
# 1 89.1088 34.2997 4.6175 0.0000 0.0000 0.0000
# 2 34.2997 138.2087 45.2574 0.0000 0.0000 0.0000
# 3 4.6175 45.2574 70.4421 0.0000 0.0000 0.0000
# 4 0.0000 0.0000 0.0000 35.2491 0.0000 0.0000
# 5 0.0000 0.0000 0.0000 0.0000 31.2487 0.0000
# 6 0.0000 0.0000 0.0000 0.0000 0.0000 34.1189
#
#
#
# Elastic Compliance Matrix: (Units=1/GPa)
#
#
# Indices 1 2 3 4 5 6 
#
# 1 0.012530 -0.003597 0.001490 0.000000 0.000000 0.000000
# 2 -0.003597 0.010196 -0.006315 0.000000 0.000000 0.000000
# 3 0.001490 -0.006315 0.018156 0.000000 0.000000 0.000000
# 4 0.000000 0.000000 0.000000 0.028370 0.000000 0.000000
# 5 0.000000 0.000000 0.000000 0.000000 0.032001 0.000000
# 6 0.000000 0.000000 0.000000 0.000000 0.000000 0.029309
#
#
# Mechanical properties :
#
#
# Convention : Reuss Voigt Hill
#
# Bulk Modulus (GPa) = 41.60331 51.78989 46.69660
# Shear Modulus (GPa) = 32.17118 34.36234 33.26676
#
# Velocity S-wave (km/s) = 3.68199 3.80531 3.74416
# Velocity P-wave (km/s) = 5.96723 6.41340 6.19433
#
# Compressibility (1/GPa) = 0.02403655
#
# Stress axis : x y z
#
# Youngs Moduli (GPa) = 79.81003 98.07683 55.07949
#
# Poissons Ratio (x) = 0.35283 -0.08206
# Poissons Ratio (y) = 0.28711 0.34782
# Poissons Ratio (z) = -0.11891 0.61935
#
# Static dielectric constant tensor:
#      x y z
#    x 1.814020 0.000000 0.000000 
#    y 0.000000 1.929090 0.000000 
#    z 0.000000 0.000000 1.920750 
# 
# From -- ./inp_files/2410.got.cif
#   From: 2010.05.17/outbox.cif.g08.bks.cpg/sg44_2_cif.got.tgz:2410.got - 2010.06.03 19:37:08.
