data_PCOD9375040
_publ_section_title
;
Structure prediction by ZEFSAII (Michael W. Deem and Ramdas Pophale) SiO2 
 PCOD9375040
Probable space group: I M M 2
;
_chemical_formula_sum "Si O2"
_cell_formula_units_Z 58
_cell_length_a 7.576643
_cell_length_b 22.810392
_cell_length_c 15.430022
_cell_angle_alpha 90.000000
_cell_angle_beta 90.000000
_cell_angle_gamma 90.000000
_cell_volume 2666.712020
_symmetry_space_group_name_H-M "I M M 2"
_symmetry_group_IT_number 44
_symmetry_cell_setting 'orthorhombic'
loop_
_space_group_symop_operation_xyz
x,y,z
-x,-y,z
-x,y,z
x,-y,z
1/2+x,1/2+y,1/2+z
1/2-x,1/2-y,1/2+z
1/2-x,1/2+y,1/2+z
1/2+x,1/2-y,1/2+z
loop_
_atom_site_type_symbol
_atom_site_label
_atom_site_fract_x
_atom_site_fract_y
_atom_site_fract_z
Si Si1 0.703294 0.761505 0.781190
Si Si2 0.209551 0.404991 0.556532
Si Si3 0.701013 0.566116 0.995173
Si Si4 0.702006 0.811076 0.430050
Si Si5 0.285122 0.878018 0.864626
Si Si6 0.784915 0.231518 0.091282
Si Si7 0.500000 0.500000 0.609765
Si Si8 0.699684 0.930491 0.686072
O O1 0.500000 0.777813 0.766943
O O2 0.709692 0.703467 0.838679
O O3 0.773529 0.811525 0.846294
O O4 0.779113 0.755181 0.685071
O O5 0.269439 0.405931 0.454964
O O6 0.227338 0.336005 0.580799
O O7 0.342696 0.448242 0.605384
O O8 0.000000 0.420602 0.563503
O O9 0.500000 0.564110 0.964912
O O10 0.776429 0.500000 0.986467
O O11 0.702790 0.581868 0.097209
O O12 0.791398 0.620174 0.949329
O O13 0.500000 0.793473 0.420316
O O14 0.774865 0.773159 0.511572
O O15 0.500000 0.880690 0.868503
O O16 0.226179 0.909164 0.776687
O O17 0.000000 0.232242 0.091644
O O18 0.500000 0.906532 0.675936
O O19 0.688967 0.000000 0.692390
#
# Coordination Sequence:
#
# PCOD9375040 Si02
#       8
#     8   8   8   8   8   8   2   8
#     4  10  20  36  61  89 123 163 204 260 329 385
#     4  11  23  41  67  93 128 175 226 275 335 400
#     4  10  21  37  55  81 117 157 204 256 313 380
#     4  11  22  37  62  91 122 162 208 259 320 387
#     4   9  18  34  56  87 121 161 207 252 310 389
#     4  10  21  40  64  93 130 169 212 275 336 389
#     4  12  26  44  64  94 132 180 222 284 336 402
#     4   9  17  31  52  79 115 155 196 242 296 366
#
# _framework density 21.749628000000001
#
# number of rings (size 3 to 8) (size 9 to 14) (size 15 to 20)
#    0.000    1.931    2.069    1.862    0.966    4.138 
#    1.241    1.379    1.517    0.000    0.000    0.000 
#    0.000    0.000    0.000    0.000    0.000    0.000 
#
# Total GULP energy -161511.581635 kJ/mol
# GULP energy per Si atom -5569.364884 kJ/mol
# Density = 2.170013 g / cm^3
# Si number density = 21.749628 Si / 1000 Ang^3
#
#
#
# Elastic Constant Matrix: (Units=GPa)
#
#
# Indices 1 2 3 4 5 6 
#
# 1 84.9490 16.4072 -0.2556 0.0000 0.0000 0.0000
# 2 16.4072 70.6476 4.2589 0.0000 0.0000 0.0000
# 3 -0.2556 4.2589 53.5597 0.0001 0.0000 0.0000
# 4 0.0000 0.0000 0.0001 31.7187 0.0000 0.0000
# 5 0.0000 0.0000 0.0000 0.0000 13.8937 0.0000
# 6 0.0000 0.0000 0.0000 0.0000 0.0000 3.8045
#
#
#
# Elastic Compliance Matrix: (Units=1/GPa)
#
#
# Indices 1 2 3 4 5 6 
#
# 1 0.012329 -0.002881 0.000288 0.000000 0.000000 0.000000
# 2 -0.002881 0.014896 -0.001198 0.000000 0.000000 0.000000
# 3 0.000288 -0.001198 0.018767 0.000000 0.000000 0.000000
# 4 0.000000 0.000000 0.000000 0.031527 0.000000 0.000000
# 5 0.000000 0.000000 0.000000 0.000000 0.071975 0.000000
# 6 0.000000 0.000000 0.000000 0.000000 0.000000 0.262846
#
#
# Mechanical properties :
#
#
# Convention : Reuss Voigt Hill
#
# Bulk Modulus (GPa) = 26.03458 27.77526 26.90492
# Shear Modulus (GPa) = 11.55465 22.46642 17.01054
#
# Velocity S-wave (km/s) = 2.30740 3.21745 2.79965
# Velocity P-wave (km/s) = 4.36977 5.15760 4.77995
#
# Compressibility (1/GPa) = 0.03841045
#
# Stress axis : x y z
#
# Youngs Moduli (GPa) = 81.10947 67.13210 53.28390
#
# Poissons Ratio (x) = 0.19338 -0.01534
# Poissons Ratio (y) = 0.23365 0.06385
# Poissons Ratio (z) = -0.02335 0.08044
#
# Static dielectric constant tensor:
#      x y z
#    x 1.861310 0.000000 0.000000 
#    y 0.000000 1.846100 0.000000 
#    z 0.000000 0.000000 1.802440 
# 
# From -- ./inp_files/16726.got.cif
#   From: 2010.05.17/outbox.cif.g08.bks.cpg/sg44_9_cif.got.tgz:16726.got - 2010.06.03 19:37:08.
