data_PCOD9375451
_publ_section_title
;
Structure prediction by ZEFSAII (Michael W. Deem and Ramdas Pophale) SiO2 
 PCOD9375451
Probable space group: I M M 2
;
_chemical_formula_sum "Si O2"
_cell_formula_units_Z 64
_cell_length_a 15.130680
_cell_length_b 16.540029
_cell_length_c 11.906477
_cell_angle_alpha 90.000000
_cell_angle_beta 90.000000
_cell_angle_gamma 90.000000
_cell_volume 2979.737390
_symmetry_space_group_name_H-M "I M M 2"
_symmetry_group_IT_number 44
_symmetry_cell_setting 'orthorhombic'
loop_
_space_group_symop_operation_xyz
x,y,z
-x,-y,z
-x,y,z
x,-y,z
1/2+x,1/2+y,1/2+z
1/2-x,1/2-y,1/2+z
1/2-x,1/2+y,1/2+z
1/2+x,1/2-y,1/2+z
loop_
_atom_site_type_symbol
_atom_site_label
_atom_site_fract_x
_atom_site_fract_y
_atom_site_fract_z
Si Si1 0.838816 0.908563 0.920730
Si Si2 0.363750 0.132851 0.892678
Si Si3 0.093251 0.403886 0.137008
Si Si4 0.719373 0.596481 0.063403
Si Si5 0.605487 0.322151 0.871499
Si Si6 0.197776 0.911029 0.182627
Si Si7 0.903079 0.188062 0.728998
Si Si8 0.098557 0.375138 0.650229
O O1 0.736293 0.897574 0.888904
O O2 0.891074 0.836847 0.858831
O O3 0.868934 0.000000 0.889205
O O4 0.834671 0.903578 0.054908
O O5 0.401714 0.106702 0.772174
O O6 0.374728 0.229125 0.896994
O O7 0.400679 0.108319 0.015329
O O8 0.092018 0.500000 0.116768
O O9 0.179718 0.372850 0.072817
O O10 0.000000 0.368088 0.098167
O O11 0.719311 0.500000 0.069859
O O12 0.670131 0.635438 0.168261
O O13 0.662858 0.625419 0.957952
O O14 0.500000 0.336304 0.877225
O O15 0.647789 0.343480 0.752390
O O16 0.305081 0.906929 0.189097
O O17 0.171396 0.000000 0.225253
O O18 0.895878 0.280702 0.688633
O O19 0.000000 0.160792 0.691372
O O20 0.000000 0.402476 0.690383
#
# Coordination Sequence:
#
# PCOD9375451 Si02
#       8
#     8   8   8   8   8   8   8   8
#     4  10  21  38  61  90 125 164 203 254 315 367
#     4  11  20  37  61  90 124 160 204 247 304 371
#     4  10  21  37  61  94 127 159 200 254 314 373
#     4  11  23  39  61  91 124 158 202 256 311 364
#     4  12  25  41  63  89 121 166 214 259 305 365
#     4  10  24  42  61  88 121 163 211 254 305 367
#     4  11  21  36  60  92 125 159 200 250 310 368
#     4  10  21  39  62  92 125 159 202 252 307 368
#
# _framework density 21.478401999999999
#
# number of rings (size 3 to 8) (size 9 to 14) (size 15 to 20)
#    0.000    1.375    2.500    3.375    0.000    3.750 
#    0.000    1.875    0.000    3.750    0.000    0.000 
#    0.000    0.000    0.000    0.000    0.000    0.000 
#
# Total GULP energy -178520.334719 kJ/mol
# GULP energy per Si atom -5578.760460 kJ/mol
# Density = 2.142952 g / cm^3
# Si number density = 21.478402 Si / 1000 Ang^3
#
#
#
# Elastic Constant Matrix: (Units=GPa)
#
#
# Indices 1 2 3 4 5 6 
#
# 1 92.8759 37.7136 22.1383 0.0000 0.0000 0.0000
# 2 37.7136 44.7703 15.8630 0.0000 0.0000 0.0000
# 3 22.1383 15.8630 48.6996 0.0000 0.0000 0.0000
# 4 0.0000 0.0000 0.0000 27.3954 0.0000 0.0000
# 5 0.0000 0.0000 0.0000 0.0000 -1.3771 0.0000
# 6 0.0000 0.0000 0.0000 0.0000 0.0000 25.5597
#
#
#
# Elastic Compliance Matrix: (Units=1/GPa)
#
#
# Indices 1 2 3 4 5 6 
#
# 1 0.016858 -0.012984 -0.003434 0.000000 0.000000 0.000000
# 2 -0.012984 0.035251 -0.005580 0.000000 0.000000 0.000000
# 3 -0.003434 -0.005580 0.023913 0.000000 0.000000 0.000000
# 4 0.000000 0.000000 0.000000 0.036502 0.000000 0.000000
# 5 0.000000 0.000000 0.000000 0.000000 -0.726160 0.000000
# 6 0.000000 0.000000 0.000000 0.000000 0.000000 0.039124
#
#
# Mechanical properties :
#
#
# Convention : Reuss Voigt Hill
#
# Bulk Modulus (GPa) = 31.22527 37.53064 34.37795
# Shear Modulus (GPa) = -9.61832 17.69099 4.03633
#
# Velocity S-wave (km/s) = -2.11846 2.87307 1.37235
# Velocity P-wave (km/s) = 2.93014 5.34019 4.30717
#
# Compressibility (1/GPa) = 0.03202535
#
# Stress axis : x y z
#
# Youngs Moduli (GPa) = 59.31899 28.36817 41.81876
#
# Poissons Ratio (x) = 0.36833 0.14361
# Poissons Ratio (y) = 0.77020 0.23334
# Poissons Ratio (z) = 0.20371 0.15829
#
# Static dielectric constant tensor:
#      x y z
#    x 1.822460 0.000000 0.000000 
#    y 0.000000 1.778930 0.000000 
#    z 0.000000 0.000000 1.861650 
# 
# From -- ./inp_files/13443.got.cif
#   From: 2010.05.17/outbox.cif.g08.bks.cpg/sg44_7_cif.got.tgz:13443.got - 2010.06.03 19:37:08.
