data_PCOD9375641
_publ_section_title
;
Structure prediction by ZEFSAII (Michael W. Deem and Ramdas Pophale) SiO2 
 PCOD9375641
Probable space group: I M M 2
;
_chemical_formula_sum "Si O2"
_cell_formula_units_Z 44
_cell_length_a 28.105693
_cell_length_b 7.281926
_cell_length_c 8.901314
_cell_angle_alpha 90.000000
_cell_angle_beta 90.000000
_cell_angle_gamma 90.000000
_cell_volume 1821.774760
_symmetry_space_group_name_H-M "I M M 2"
_symmetry_group_IT_number 44
_symmetry_cell_setting 'orthorhombic'
loop_
_space_group_symop_operation_xyz
x,y,z
-x,-y,z
-x,y,z
x,-y,z
1/2+x,1/2+y,1/2+z
1/2-x,1/2-y,1/2+z
1/2-x,1/2+y,1/2+z
1/2+x,1/2-y,1/2+z
loop_
_atom_site_type_symbol
_atom_site_label
_atom_site_fract_x
_atom_site_fract_y
_atom_site_fract_z
Si Si1 0.229814 0.720406 0.040010
Si Si2 0.077320 0.720190 0.682998
Si Si3 0.361904 0.778883 0.735256
Si Si4 0.683812 0.790257 0.235300
Si Si5 0.592919 0.500000 0.962018
Si Si6 0.948914 0.278797 0.020022
O O1 0.234192 0.500000 0.032527
O O2 0.189112 0.763938 0.161879
O O3 0.280423 0.789358 0.096399
O O4 0.211518 0.788690 0.878801
O O5 0.074312 0.500000 0.660327
O O6 0.132477 0.789282 0.700268
O O7 0.055244 0.765913 0.844467
O O8 0.060716 0.837955 0.543987
O O9 0.374673 0.660628 0.878494
O O10 0.402836 0.724421 0.614138
O O11 0.363902 0.000000 0.760808
O O12 0.672377 0.000000 0.278787
O O13 0.948763 0.500000 0.026646
O O14 0.000000 0.213632 0.080039
#
# Coordination Sequence:
#
# PCOD9375641 Si02
#       6
#     8   8   8   8   4   8
#     4  10  22  38  58  85 123 164 208 264 316 374
#     4  10  22  43  64  94 131 166 217 272 319 379
#     4  10  22  43  64  94 131 166 217 272 319 379
#     4  10  22  38  58  85 123 164 208 264 316 374
#     4  12  26  38  65  92 128 182 204 252 337 386
#     4   9  18  41  76  99 122 169 220 270 328 387
#
# _framework density 24.152270999999999
#
# number of rings (size 3 to 8) (size 9 to 14) (size 15 to 20)
#    0.000    2.000    1.818    0.545    5.091    1.455 
#    0.000    3.636    0.000    4.364    0.000    0.000 
#    0.000    0.000    0.000    0.000    0.000    0.000 
#
# Total GULP energy -122512.348978 kJ/mol
# GULP energy per Si atom -5568.743135 kJ/mol
# Density = 2.409730 g / cm^3
# Si number density = 24.152271 Si / 1000 Ang^3
#
#
#
# Elastic Constant Matrix: (Units=GPa)
#
#
# Indices 1 2 3 4 5 6 
#
# 1 114.3170 -2.7182 2.4360 0.0000 0.0000 0.0000
# 2 -2.7182 130.1947 12.6247 0.0000 0.0000 0.0000
# 3 2.4360 12.6247 56.2236 0.0000 0.0000 0.0000
# 4 0.0000 0.0000 0.0000 -57.9150 0.0000 0.0000
# 5 0.0000 0.0000 0.0000 0.0000 10.4768 0.0000
# 6 0.0000 0.0000 0.0000 0.0000 0.0000 530.8749
#
#
#
# Elastic Compliance Matrix: (Units=1/GPa)
#
#
# Indices 1 2 3 4 5 6 
#
# 1 0.008762 0.000225 -0.000430 0.000000 0.000000 0.000000
# 2 0.000225 0.007858 -0.001774 0.000000 0.000000 0.000000
# 3 -0.000430 -0.001774 0.018203 0.000000 0.000000 0.000000
# 4 0.000000 0.000000 0.000000 -0.017267 0.000000 0.000000
# 5 0.000000 0.000000 0.000000 0.000000 0.095449 0.000000
# 6 0.000000 0.000000 0.000000 0.000000 0.000000 0.001884
#
#
# Mechanical properties :
#
#
# Convention : Reuss Voigt Hill
#
# Bulk Modulus (GPa) = 32.40054 36.15782 34.27918
# Shear Modulus (GPa) = 38.71899 115.91354 77.31626
#
# Velocity S-wave (km/s) = 4.00824 6.93520 5.66405
# Velocity P-wave (km/s) = 5.90471 8.89565 7.54977
#
# Compressibility (1/GPa) = 0.03086368
#
# Stress axis : x y z
#
# Youngs Moduli (GPa) = 114.12776 127.26656 54.93564
#
# Poissons Ratio (x) = -0.02859 0.02363
# Poissons Ratio (y) = -0.02564 0.09746
# Poissons Ratio (z) = 0.04908 0.22578
#
# Static dielectric constant tensor:
#      x y z
#    x 1.933390 0.000000 0.000000 
#    y 0.000000 1.877070 0.000000 
#    z 0.000000 0.000000 1.985440 
# 
# From -- ./inp_files/4804.got.cif
#   From: 2010.05.17/outbox.cif.g08.bks.cpg/sg44_3_cif.got.tgz:4804.got - 2010.06.03 19:37:08.
