data_PCOD9375780
_publ_section_title
;
Structure prediction by ZEFSAII (Michael W. Deem and Ramdas Pophale) SiO2 
 PCOD9375780
Probable space group: I M M 2
;
_chemical_formula_sum "Si O2"
_cell_formula_units_Z 48
_cell_length_a 18.816180
_cell_length_b 8.060339
_cell_length_c 16.295269
_cell_angle_alpha 90.000000
_cell_angle_beta 90.000000
_cell_angle_gamma 90.000000
_cell_volume 2471.418542
_symmetry_space_group_name_H-M "I M M 2"
_symmetry_group_IT_number 44
_symmetry_cell_setting 'orthorhombic'
loop_
_space_group_symop_operation_xyz
x,y,z
-x,-y,z
-x,y,z
x,-y,z
1/2+x,1/2+y,1/2+z
1/2-x,1/2-y,1/2+z
1/2-x,1/2+y,1/2+z
1/2+x,1/2-y,1/2+z
loop_
_atom_site_type_symbol
_atom_site_label
_atom_site_fract_x
_atom_site_fract_y
_atom_site_fract_z
Si Si1 0.217687 0.313981 0.741950
Si Si2 0.578845 0.308459 0.164469
Si Si3 0.081350 0.819065 0.467510
Si Si4 0.133414 0.183192 0.152073
Si Si5 0.913881 0.000000 0.000526
Si Si6 0.193359 0.000000 0.860260
Si Si7 0.160763 0.500000 0.405147
Si Si8 0.078949 0.500000 0.241045
O O1 0.225720 0.500000 0.777245
O O2 0.143622 0.301674 0.693454
O O3 0.284808 0.288664 0.680449
O O4 0.209230 0.165435 0.807229
O O5 0.500000 0.254031 0.191185
O O6 0.589263 0.500000 0.192964
O O7 0.579097 0.314688 0.066067
O O8 0.125986 0.665941 0.438212
O O9 0.000000 0.803874 0.438327
O O10 0.108876 0.000000 0.441545
O O11 0.089380 0.334868 0.187685
O O12 0.113112 0.000000 0.187384
O O13 0.116784 0.153723 0.055628
O O14 0.880178 0.000000 0.909956
O O15 0.000000 0.000000 0.000834
O O16 0.256803 0.000000 0.926126
O O17 0.140432 0.500000 0.309097
O O18 0.000000 0.500000 0.278593
#
# Coordination Sequence:
#
# PCOD9375780 Si02
#       8
#     8   8   8   8   4   4   4   4
#     4  11  22  41  66  93 129 168 214 272 327 392
#     4   9  19  36  62  92 127 171 209 253 312 382
#     4   9  20  37  55  86 130 167 206 250 309 389
#     4   9  22  42  65  93 124 165 221 274 326 387
#     4  10  24  48  72  93 130 181 226 275 330 384
#     4  12  26  44  62  96 136 164 213 271 334 386
#     4  12  24  36  58  92 128 167 207 264 328 391
#     4  12  22  38  66  93 122 166 216 276 338 389
#
# _framework density 19.422044
#
# number of rings (size 3 to 8) (size 9 to 14) (size 15 to 20)
#    0.500    1.333    2.500    2.250    3.500    2.333 
#    1.500    0.000    0.000    0.000    0.000    0.000 
#    0.000    0.000    0.000    0.000    0.000    0.000 
#
# Total GULP energy -133719.917532 kJ/mol
# GULP energy per Si atom -5571.663230 kJ/mol
# Density = 1.937784 g / cm^3
# Si number density = 19.422044 Si / 1000 Ang^3
#
#
#
# Elastic Constant Matrix: (Units=GPa)
#
#
# Indices 1 2 3 4 5 6 
#
# 1 112.9006 50.4474 31.7945 0.0000 0.0000 0.0000
# 2 50.4474 124.6003 31.7604 0.0000 0.0000 0.0000
# 3 31.7945 31.7604 45.0723 0.0000 0.0000 0.0000
# 4 0.0000 0.0000 0.0000 28.8319 0.0000 0.0000
# 5 0.0000 0.0000 0.0000 0.0000 29.5911 0.0000
# 6 0.0000 0.0000 0.0000 0.0000 0.0000 3.8605
#
#
#
# Elastic Compliance Matrix: (Units=1/GPa)
#
#
# Indices 1 2 3 4 5 6 
#
# 1 0.012080 -0.003314 -0.006186 0.000000 0.000000 0.000000
# 2 -0.003314 0.010692 -0.005196 0.000000 0.000000 0.000000
# 3 -0.006186 -0.005196 0.030212 0.000000 0.000000 0.000000
# 4 0.000000 0.000000 0.000000 0.034684 0.000000 0.000000
# 5 0.000000 0.000000 0.000000 0.000000 0.033794 0.000000
# 6 0.000000 0.000000 0.000000 0.000000 0.000000 0.259034
#
#
# Mechanical properties :
#
#
# Convention : Reuss Voigt Hill
#
# Bulk Modulus (GPa) = 42.38927 56.73090 49.56009
# Shear Modulus (GPa) = 11.96877 23.69476 17.83177
#
# Velocity S-wave (km/s) = 2.48512 3.49663 3.03334
# Velocity P-wave (km/s) = 5.48700 6.75091 6.15151
#
# Compressibility (1/GPa) = 0.02359087
#
# Stress axis : x y z
#
# Youngs Moduli (GPa) = 82.77895 93.52772 33.09935
#
# Poissons Ratio (x) = 0.30996 0.20476
# Poissons Ratio (y) = 0.27434 0.17200
# Poissons Ratio (z) = 0.51210 0.48600
#
# Static dielectric constant tensor:
#      x y z
#    x 1.691160 0.000000 0.000000 
#    y 0.000000 1.669680 0.000000 
#    z 0.000000 0.000000 1.707420 
# 
# From -- ./inp_files/18865.got.cif
#   From: 2010.05.17/outbox.cif.g08.bks.cpg/sg44_10_cif.got.tgz:18865.got - 2010.06.03 19:37:08.
