data_PCOD9375402
_publ_section_title
;
Structure prediction by ZEFSAII (Michael W. Deem and Ramdas Pophale) SiO2 
 PCOD9375402
Probable space group: I M M 2
;
_chemical_formula_sum "Si O2"
_cell_formula_units_Z 58
_cell_length_a 9.836985
_cell_length_b 17.588801
_cell_length_c 17.372638
_cell_angle_alpha 90.000000
_cell_angle_beta 90.000000
_cell_angle_gamma 90.000000
_cell_volume 3005.827232
_symmetry_space_group_name_H-M "I M M 2"
_symmetry_group_IT_number 44
_symmetry_cell_setting 'orthorhombic'
loop_
_space_group_symop_operation_xyz
x,y,z
-x,-y,z
-x,y,z
x,-y,z
1/2+x,1/2+y,1/2+z
1/2-x,1/2-y,1/2+z
1/2-x,1/2+y,1/2+z
1/2+x,1/2-y,1/2+z
loop_
_atom_site_type_symbol
_atom_site_label
_atom_site_fract_x
_atom_site_fract_y
_atom_site_fract_z
Si Si1 0.839512 0.665352 0.772240
Si Si2 0.161525 0.169682 0.549566
Si Si3 0.230759 0.581619 0.445442
Si Si4 0.155003 0.410687 0.174791
Si Si5 0.000000 0.000000 0.907881
Si Si6 0.848633 0.302399 0.321335
Si Si7 0.838287 0.345478 0.597195
Si Si8 0.840535 0.587672 0.927453
O O1 0.760606 0.738123 0.804477
O O2 0.793660 0.645915 0.685729
O O3 0.822990 0.600325 0.836197
O O4 0.000000 0.683221 0.766453
O O5 0.233347 0.121102 0.616694
O O6 0.181462 0.257917 0.571534
O O7 0.241267 0.143655 0.473303
O O8 0.000000 0.155669 0.543794
O O9 0.157671 0.500000 0.434543
O O10 0.379850 0.565028 0.412559
O O11 0.167473 0.652126 0.400630
O O12 0.234781 0.601365 0.535475
O O13 0.174006 0.500000 0.187680
O O14 0.163954 0.365280 0.254319
O O15 0.000000 0.399392 0.144414
O O16 0.000000 0.268698 0.317843
O O17 0.000000 0.361861 0.592670
O O18 0.813578 0.500000 0.949008
O O19 0.000000 0.603791 0.944670
#
# Coordination Sequence:
#
# PCOD9375402 Si02
#       8
#     8   8   8   8   2   8   8   8
#     4  10  22  40  63  90 120 159 203 249 301 360
#     4  11  22  39  60  88 120 154 199 248 298 354
#     4  10  22  41  61  87 122 158 204 248 301 363
#     4  10  21  37  56  85 122 159 198 239 292 359
#     4   8  24  44  54  96 120 164 202 252 308 364
#     4  11  22  38  61  92 123 159 199 246 304 363
#     4  10  21  39  62  90 121 155 199 252 304 359
#     4  10  22  40  61  85 117 158 203 247 295 355
#
# _framework density 19.295852
#
# number of rings (size 3 to 8) (size 9 to 14) (size 15 to 20)
#    0.414    1.379    1.379    2.483    0.966    6.069 
#    3.724    1.379    0.000    0.000    0.000    0.000 
#    0.000    0.000    0.000    0.000    0.000    0.000 
#
# Total GULP energy -161577.046920 kJ/mol
# GULP energy per Si atom -5571.622308 kJ/mol
# Density = 1.925193 g / cm^3
# Si number density = 19.295852 Si / 1000 Ang^3
#
#
#
# Elastic Constant Matrix: (Units=GPa)
#
#
# Indices 1 2 3 4 5 6 
#
# 1 58.2678 6.3115 9.6151 0.0000 0.0000 0.0000
# 2 6.3115 16.5670 -6.7439 0.0000 0.0000 0.0000
# 3 9.6151 -6.7439 90.5089 0.0000 0.0000 0.0000
# 4 0.0000 0.0000 0.0000 54.7333 0.0000 0.0000
# 5 0.0000 0.0000 0.0000 0.0000 15.3387 0.0000
# 6 0.0000 0.0000 0.0000 0.0000 0.0000 22.0790
#
#
#
# Elastic Compliance Matrix: (Units=1/GPa)
#
#
# Indices 1 2 3 4 5 6 
#
# 1 0.018460 -0.008076 -0.002563 0.000000 0.000000 0.000000
# 2 -0.008076 0.065782 0.005759 0.000000 0.000000 0.000000
# 3 -0.002563 0.005759 0.011750 0.000000 0.000000 0.000000
# 4 0.000000 0.000000 0.000000 0.018270 0.000000 0.000000
# 5 0.000000 0.000000 0.000000 0.000000 0.065195 0.000000
# 6 0.000000 0.000000 0.000000 0.000000 0.000000 0.045292
#
#
# Mechanical properties :
#
#
# Convention : Reuss Voigt Hill
#
# Bulk Modulus (GPa) = 11.59643 20.41211 16.00427
# Shear Modulus (GPa) = 18.99322 28.84093 23.91707
#
# Velocity S-wave (km/s) = 3.14079 3.87029 3.52446
# Velocity P-wave (km/s) = 4.37899 5.52935 4.98744
#
# Compressibility (1/GPa) = 0.08623347
#
# Stress axis : x y z
#
# Youngs Moduli (GPa) = 54.17174 15.20171 85.10618
#
# Poissons Ratio (x) = 0.12277 0.21811
# Poissons Ratio (y) = 0.43748 -0.49016
# Poissons Ratio (z) = 0.13883 -0.08755
#
# Static dielectric constant tensor:
#      x y z
#    x 1.657260 0.000000 0.000000 
#    y 0.000000 1.657360 0.000000 
#    z 0.000000 0.000000 1.709320 
# 
# From -- ./inp_files/20564.got.cif
#   From: 2010.05.17/outbox.cif.g08.bks.cpg/sg44_11_cif.got.tgz:20564.got - 2010.06.03 19:37:08.
