data_PCOD9375030
_publ_section_title
;
Structure prediction by ZEFSAII (Michael W. Deem and Ramdas Pophale) SiO2 
 PCOD9375030
Probable space group: I M M 2
;
_chemical_formula_sum "Si O2"
_cell_formula_units_Z 64
_cell_length_a 7.998194
_cell_length_b 31.774701
_cell_length_c 12.267388
_cell_angle_alpha 90.000000
_cell_angle_beta 90.000000
_cell_angle_gamma 90.000000
_cell_volume 3117.636721
_symmetry_space_group_name_H-M "I M M 2"
_symmetry_group_IT_number 44
_symmetry_cell_setting 'orthorhombic'
loop_
_space_group_symop_operation_xyz
x,y,z
-x,-y,z
-x,y,z
x,-y,z
1/2+x,1/2+y,1/2+z
1/2-x,1/2-y,1/2+z
1/2-x,1/2+y,1/2+z
1/2+x,1/2-y,1/2+z
loop_
_atom_site_type_symbol
_atom_site_label
_atom_site_fract_x
_atom_site_fract_y
_atom_site_fract_z
Si Si1 0.306321 0.208335 0.060560
Si Si2 0.805561 0.829701 0.279729
Si Si3 0.298357 0.128301 0.922106
Si Si4 0.297525 0.546529 0.036209
Si Si5 0.203622 0.073144 0.296604
Si Si6 0.298025 0.546109 0.558377
Si Si7 0.299576 0.127836 0.674016
Si Si8 0.195334 0.300334 0.009757
O O1 0.500000 0.215357 0.031197
O O2 0.293085 0.193436 0.184965
O O3 0.214051 0.252289 0.045423
O O4 0.239178 0.169720 0.987206
O O5 0.748597 0.877887 0.292401
O O6 0.786864 0.807847 0.395939
O O7 0.000000 0.830369 0.246833
O O8 0.500000 0.130655 0.920396
O O9 0.235065 0.127795 0.797847
O O10 0.254484 0.085711 0.986160
O O11 0.500000 0.547459 0.035552
O O12 0.244114 0.500000 0.073028
O O13 0.239469 0.584597 0.111755
O O14 0.240334 0.553797 0.911194
O O15 0.259193 0.052254 0.183741
O O16 0.000000 0.070864 0.297738
O O17 0.500000 0.546196 0.559953
O O18 0.242211 0.500000 0.518471
O O19 0.500000 0.132046 0.681117
O O20 0.238787 0.167049 0.600857
O O21 0.000000 0.310038 0.991785
#
# Coordination Sequence:
#
# PCOD9375030 Si02
#       8
#     8   8   8   8   8   8   8   8
#     4  11  24  41  63  91 121 156 202 251 302 358
#     4  11  21  38  65  91 122 160 197 242 301 360
#     4  10  23  42  60  81 116 159 198 242 295 352
#     4  10  20  36  60  89 118 151 195 245 295 350
#     4   9  17  33  58  87 119 153 189 236 294 350
#     4  10  20  36  60  89 118 151 195 245 295 350
#     4  10  23  42  60  81 116 159 198 242 295 352
#     4  11  24  41  63  91 121 156 202 251 302 358
#
# _framework density 20.528372000000001
#
# number of rings (size 3 to 8) (size 9 to 14) (size 15 to 20)
#    0.000    1.750    2.500    1.500    1.750    4.000 
#    0.000    3.125    0.000    1.500    0.000    0.000 
#    0.000    0.000    0.000    0.000    0.000    0.000 
#
# Total GULP energy -178784.446891 kJ/mol
# GULP energy per Si atom -5587.013965 kJ/mol
# Density = 2.048165 g / cm^3
# Si number density = 20.528372 Si / 1000 Ang^3
#
#
#
# Elastic Constant Matrix: (Units=GPa)
#
#
# Indices 1 2 3 4 5 6 
#
# 1 18.9288 -0.3898 -0.2400 -0.0001 0.0000 0.0000
# 2 -0.3898 167.8115 76.6275 -0.0002 0.0000 0.0000
# 3 -0.2400 76.6275 152.7732 0.0000 0.0000 -0.0002
# 4 -0.0001 -0.0002 0.0000 45.6924 0.0000 0.0003
# 5 0.0000 0.0000 0.0000 0.0000 21.8272 0.0000
# 6 0.0000 0.0000 -0.0002 0.0003 0.0000 0.2730
#
#
#
# Elastic Compliance Matrix: (Units=1/GPa)
#
#
# Indices 1 2 3 4 5 6 
#
# 1 0.052832 0.000110 0.000028 0.000000 0.000000 -0.000006
# 2 0.000110 0.007730 -0.003877 0.000000 0.000000 -0.000003
# 3 0.000028 -0.003877 0.008490 0.000000 0.000000 0.000006
# 4 0.000000 0.000000 0.000000 0.021885 0.000000 -0.000028
# 5 0.000000 0.000000 0.000000 0.000000 0.045814 0.000007
# 6 -0.000006 -0.000003 0.000006 -0.000028 0.000007 3.662874
#
#
# Mechanical properties :
#
#
# Convention : Reuss Voigt Hill
#
# Bulk Modulus (GPa) = 16.24061 54.61212 35.42636
# Shear Modulus (GPa) = 1.30629 31.12624 16.21626
#
# Velocity S-wave (km/s) = 0.79857 3.89814 2.81364
# Velocity P-wave (km/s) = 2.96290 6.84993 5.27733
#
# Compressibility (1/GPa) = 0.06157406
#
# Stress axis : x y z
#
# Youngs Moduli (GPa) = 18.92784 129.37307 117.78269
#
# Poissons Ratio (x) = -0.01423 -0.00328
# Poissons Ratio (y) = -0.00208 0.45662
# Poissons Ratio (z) = -0.00053 0.50155
#
# Static dielectric constant tensor:
#      x y z
#    x 1.739930 0.000000 0.000000 
#    y 0.000000 1.705100 0.000000 
#    z 0.000000 0.000000 1.708410 
# 
# From -- ./inp_files/11448.got.cif
#   From: 2010.05.17/outbox.cif.g08.bks.cpg/sg44_6_cif.got.tgz:11448.got - 2010.06.03 19:37:08.
