data_PCOD9375434
_publ_section_title
;
Structure prediction by ZEFSAII (Michael W. Deem and Ramdas Pophale) SiO2 
 PCOD9375434
Probable space group: I M M 2
;
_chemical_formula_sum "Si O2"
_cell_formula_units_Z 48
_cell_length_a 23.348088
_cell_length_b 8.021668
_cell_length_c 11.989262
_cell_angle_alpha 90.000000
_cell_angle_beta 90.000000
_cell_angle_gamma 90.000000
_cell_volume 2245.476198
_symmetry_space_group_name_H-M "I M M 2"
_symmetry_group_IT_number 44
_symmetry_cell_setting 'orthorhombic'
loop_
_space_group_symop_operation_xyz
x,y,z
-x,-y,z
-x,y,z
x,-y,z
1/2+x,1/2+y,1/2+z
1/2-x,1/2-y,1/2+z
1/2-x,1/2+y,1/2+z
1/2+x,1/2-y,1/2+z
loop_
_atom_site_type_symbol
_atom_site_label
_atom_site_fract_x
_atom_site_fract_y
_atom_site_fract_z
Si Si1 0.065867 0.295129 0.858000
Si Si2 0.758125 0.694967 0.491871
Si Si3 0.646657 0.808228 0.162242
Si Si4 0.140586 0.691908 0.056025
Si Si5 0.565637 0.698903 0.972013
Si Si6 0.338927 0.307697 0.802451
O O1 0.066558 0.500000 0.853601
O O2 0.113698 0.234460 0.769020
O O3 0.000000 0.244030 0.835350
O O4 0.088646 0.243561 0.979918
O O5 0.746484 0.500000 0.512436
O O6 0.797854 0.760690 0.595339
O O7 0.698889 0.791624 0.485347
O O8 0.793191 0.709073 0.376791
O O9 0.661009 0.000000 0.189141
O O10 0.598023 0.798922 0.067411
O O11 0.128529 0.500000 0.081214
O O12 0.155649 0.777247 0.172286
O O13 0.500000 0.744831 0.964581
O O14 0.569952 0.500000 0.997605
O O15 0.599698 0.727602 0.858245
O O16 0.324543 0.500000 0.822728
#
# Coordination Sequence:
#
# PCOD9375434 Si02
#       6
#     8   8   8   8   8   8
#     4   9  19  36  57  83 116 154 194 235 284 343
#     4  10  21  37  59  87 115 145 189 242 295 353
#     4   9  18  34  58  85 111 143 186 236 286 340
#     4  11  23  37  57  84 115 153 192 237 291 347
#     4   9  18  33  54  81 112 146 183 229 286 338
#     4  10  21  38  57  79 112 150 190 237 286 339
#
# _framework density 21.376313
#
# number of rings (size 3 to 8) (size 9 to 14) (size 15 to 20)
#    0.000    2.333    0.000    2.000    2.333    3.000 
#    0.000    1.667    0.000    3.500    0.000    0.000 
#    0.000    0.000    0.000    0.000    0.000    0.000 
#
# Total GULP energy -133882.618767 kJ/mol
# GULP energy per Si atom -5578.442449 kJ/mol
# Density = 2.132766 g / cm^3
# Si number density = 21.376313 Si / 1000 Ang^3
#
#
#
# Elastic Constant Matrix: (Units=GPa)
#
#
# Indices 1 2 3 4 5 6 
#
# 1 52.0239 -1.4459 11.8788 0.0000 0.0000 0.0000
# 2 -1.4459 14.8984 -0.5903 0.0000 0.0000 0.0000
# 3 11.8788 -0.5903 85.9619 0.0000 0.0000 0.0000
# 4 0.0000 0.0000 0.0000 23.8619 0.0000 0.0000
# 5 0.0000 0.0000 0.0000 0.0000 16.2895 0.0000
# 6 0.0000 0.0000 0.0000 0.0000 0.0000 13.8785
#
#
#
# Elastic Compliance Matrix: (Units=1/GPa)
#
#
# Indices 1 2 3 4 5 6 
#
# 1 0.019898 0.001823 -0.002737 0.000000 0.000000 0.000000
# 2 0.001823 0.067307 0.000210 0.000000 0.000000 0.000000
# 3 -0.002737 0.000210 0.012013 0.000000 0.000000 0.000000
# 4 0.000000 0.000000 0.000000 0.041908 0.000000 0.000000
# 5 0.000000 0.000000 0.000000 0.000000 0.061389 0.000000
# 6 0.000000 0.000000 0.000000 0.000000 0.000000 0.072054
#
#
# Mechanical properties :
#
#
# Convention : Reuss Voigt Hill
#
# Bulk Modulus (GPa) = 10.22405 19.17439 14.69922
# Shear Modulus (GPa) = 16.20330 20.34207 18.27268
#
# Velocity S-wave (km/s) = 2.75617 3.08818 2.92689
# Velocity P-wave (km/s) = 3.86289 4.65888 4.27943
#
# Compressibility (1/GPa) = 0.09780857
#
# Stress axis : x y z
#
# Youngs Moduli (GPa) = 50.25742 14.85739 83.24500
#
# Poissons Ratio (x) = -0.02708 0.22785
# Poissons Ratio (y) = -0.09160 -0.01751
# Poissons Ratio (z) = 0.13756 -0.00312
#
# Static dielectric constant tensor:
#      x y z
#    x 1.761030 0.000000 0.000000 
#    y 0.000000 1.749540 0.000000 
#    z 0.000000 0.000000 1.789680 
# 
# From -- ./inp_files/11146.got.cif
#   From: 2010.05.17/outbox.cif.g08.bks.cpg/sg44_6_cif.got.tgz:11146.got - 2010.06.03 19:37:08.
