data_PCOD9375068
_publ_section_title
;
Structure prediction by ZEFSAII (Michael W. Deem and Ramdas Pophale) SiO2 
 PCOD9375068
Probable space group: I M M 2
;
_chemical_formula_sum "Si O2"
_cell_formula_units_Z 64
_cell_length_a 29.208169
_cell_length_b 8.875244
_cell_length_c 13.370828
_cell_angle_alpha 90.000000
_cell_angle_beta 90.000000
_cell_angle_gamma 90.000000
_cell_volume 3466.114751
_symmetry_space_group_name_H-M "I M M 2"
_symmetry_group_IT_number 44
_symmetry_cell_setting 'orthorhombic'
loop_
_space_group_symop_operation_xyz
x,y,z
-x,-y,z
-x,y,z
x,-y,z
1/2+x,1/2+y,1/2+z
1/2-x,1/2-y,1/2+z
1/2-x,1/2+y,1/2+z
1/2+x,1/2-y,1/2+z
loop_
_atom_site_type_symbol
_atom_site_label
_atom_site_fract_x
_atom_site_fract_y
_atom_site_fract_z
Si Si1 0.141432 0.317843 0.480410
Si Si2 0.752678 0.317661 0.508413
Si Si3 0.946824 0.816599 0.092944
Si Si4 0.619230 0.319752 0.772740
Si Si5 0.288358 0.829062 0.700739
Si Si6 0.554229 0.680553 0.368854
Si Si7 0.379514 0.179651 0.205797
Si Si8 0.800475 0.170939 0.828289
O O1 0.139972 0.500000 0.473699
O O2 0.195426 0.273003 0.479328
O O3 0.116215 0.250136 0.383848
O O4 0.121457 0.271865 0.589104
O O5 0.752066 0.500000 0.511843
O O6 0.740258 0.246530 0.613229
O O7 0.710095 0.269306 0.438260
O O8 0.917256 0.768108 0.188534
O O9 0.000000 0.771815 0.103208
O O10 0.945728 0.000000 0.091794
O O11 0.930434 0.770018 0.981210
O O12 0.616520 0.500000 0.780524
O O13 0.668460 0.268970 0.731242
O O14 0.251286 0.838532 0.788536
O O15 0.302844 0.000000 0.676838
O O16 0.500000 0.712190 0.362090
O O17 0.560048 0.500000 0.363561
O O18 0.581438 0.753785 0.277605
O O19 0.332413 0.231378 0.258252
O O20 0.382400 0.000000 0.205888
O O21 0.819378 0.000000 0.831337
#
# Coordination Sequence:
#
# PCOD9375068 Si02
#       8
#     8   8   8   8   8   8   8   8
#     4  10  21  39  56  76 114 156 190 232 282 328
#     4  10  20  37  54  72 106 151 194 234 273 325
#     4   8  17  37  62  86 111 140 177 226 282 333
#     4  11  22  35  58  87 112 146 191 235 280 338
#     4  11  22  36  53  79 114 150 187 232 280 331
#     4   9  19  39  65  87 111 145 183 226 281 345
#     4  11  23  37  57  84 115 149 187 236 287 336
#     4  10  21  36  54  75 107 151 194 232 272 324
#
# _framework density 18.464476999999999
#
# number of rings (size 3 to 8) (size 9 to 14) (size 15 to 20)
#    0.000    2.000    2.500    1.875    1.750    2.750 
#    0.000    1.250    0.000    5.250    0.000    0.000 
#    0.000    0.000    0.000    0.000    0.000    0.000 
#
# Total GULP energy -178380.675101 kJ/mol
# GULP energy per Si atom -5574.396097 kJ/mol
# Density = 1.842245 g / cm^3
# Si number density = 18.464477 Si / 1000 Ang^3
#
#
#
# Elastic Constant Matrix: (Units=GPa)
#
#
# Indices 1 2 3 4 5 6 
#
# 1 67.8977 23.9213 62.8402 0.0000 0.0000 0.0000
# 2 23.9213 23.4179 39.5403 0.0000 0.0000 0.0000
# 3 62.8402 39.5403 145.1150 0.0000 0.0000 0.0000
# 4 0.0000 0.0000 0.0000 24.6946 0.0000 0.0000
# 5 0.0000 0.0000 0.0000 0.0000 36.4811 0.0000
# 6 0.0000 0.0000 0.0000 0.0000 0.0000 24.0577
#
#
#
# Elastic Compliance Matrix: (Units=1/GPa)
#
#
# Indices 1 2 3 4 5 6 
#
# 1 0.027005 -0.014521 -0.007738 0.000000 0.000000 0.000000
# 2 -0.014521 0.086896 -0.017389 0.000000 0.000000 0.000000
# 3 -0.007738 -0.017389 0.014980 0.000000 0.000000 0.000000
# 4 0.000000 0.000000 0.000000 0.040495 0.000000 0.000000
# 5 0.000000 0.000000 0.000000 0.000000 0.027411 0.000000
# 6 0.000000 0.000000 0.000000 0.000000 0.000000 0.041567
#
#
# Mechanical properties :
#
#
# Convention : Reuss Voigt Hill
#
# Bulk Modulus (GPa) = 20.16703 54.33715 37.25209
# Shear Modulus (GPa) = 14.96210 24.38860 19.67535
#
# Velocity S-wave (km/s) = 2.84970 3.63828 3.26786
# Velocity P-wave (km/s) = 4.66621 6.86595 5.87004
#
# Compressibility (1/GPa) = 0.04958588
#
# Stress axis : x y z
#
# Youngs Moduli (GPa) = 37.02972 11.50802 66.75640
#
# Poissons Ratio (x) = 0.16711 0.51654
# Poissons Ratio (y) = 0.53771 1.16082
# Poissons Ratio (z) = 0.28652 0.20011
#
# Static dielectric constant tensor:
#      x y z
#    x 1.629710 0.000000 0.000000 
#    y 0.000000 1.624520 0.000000 
#    z 0.000000 0.000000 1.656300 
# 
# From -- ./inp_files/11435.got.cif
#   From: 2010.05.17/outbox.cif.g08.bks.cpg/sg44_6_cif.got.tgz:11435.got - 2010.06.03 19:37:08.
