data_PCOD9375921
_publ_section_title
;
Structure prediction by ZEFSAII (Michael W. Deem and Ramdas Pophale) SiO2 
 PCOD9375921
Probable space group: I M M 2
;
_chemical_formula_sum "Si O2"
_cell_formula_units_Z 48
_cell_length_a 24.885555
_cell_length_b 7.716757
_cell_length_c 14.285997
_cell_angle_alpha 90.000000
_cell_angle_beta 90.000000
_cell_angle_gamma 90.000000
_cell_volume 2743.422588
_symmetry_space_group_name_H-M "I M M 2"
_symmetry_group_IT_number 44
_symmetry_cell_setting 'orthorhombic'
loop_
_space_group_symop_operation_xyz
x,y,z
-x,-y,z
-x,y,z
x,-y,z
1/2+x,1/2+y,1/2+z
1/2-x,1/2-y,1/2+z
1/2-x,1/2+y,1/2+z
1/2+x,1/2-y,1/2+z
loop_
_atom_site_type_symbol
_atom_site_label
_atom_site_fract_x
_atom_site_fract_y
_atom_site_fract_z
Si Si1 0.560724 0.288237 0.231560
Si Si2 0.226950 0.292213 0.231271
Si Si3 0.834043 0.788048 0.836118
Si Si4 0.333042 0.791915 0.912479
Si Si5 0.272522 0.707573 0.517219
Si Si6 0.059741 0.792292 0.517601
O O1 0.500000 0.234957 0.256839
O O2 0.561244 0.500000 0.232240
O O3 0.608403 0.228521 0.298897
O O4 0.571188 0.232680 0.124116
O O5 0.227707 0.500000 0.237126
O O6 0.286000 0.233779 0.265996
O O7 0.184346 0.229403 0.309137
O O8 0.215961 0.248263 0.124348
O O9 0.835116 0.000000 0.835833
O O10 0.815492 0.731647 0.939616
O O11 0.391939 0.749383 0.948572
O O12 0.329712 0.000000 0.911109
O O13 0.286355 0.728485 0.983628
O O14 0.271314 0.500000 0.509437
O O15 0.000000 0.728702 0.490726
O O16 0.056948 0.000000 0.522341
#
# Coordination Sequence:
#
# PCOD9375921 Si02
#       6
#     8   8   8   8   8   8
#     4   8  13  22  39  63  86 107 134 167 204 249
#     4   9  17  29  44  61  83 113 145 172 205 253
#     4   8  14  25  40  58  83 112 136 164 205 248
#     4   9  18  30  43  62  87 114 144 175 211 260
#     4   9  17  28  42  62  86 110 140 177 212 247
#     4   9  17  28  44  67  89 109 139 177 213 252
#
# _framework density 17.496393000000001
#
# number of rings (size 3 to 8) (size 9 to 14) (size 15 to 20)
#    0.000    3.333    0.000    4.000    0.000    3.000 
#    0.000    2.500    0.000    2.000    0.000    2.333 
#    0.000    0.000    0.000    0.000    0.000    0.000 
#
# Total GULP energy -133678.869193 kJ/mol
# GULP energy per Si atom -5569.952883 kJ/mol
# Density = 1.745657 g / cm^3
# Si number density = 17.496393 Si / 1000 Ang^3
#
#
#
# Elastic Constant Matrix: (Units=GPa)
#
#
# Indices 1 2 3 4 5 6 
#
# 1 170.4242 7.7275 110.9851 0.0000 0.0000 0.0000
# 2 7.7275 23.2868 5.5501 0.0000 0.0000 0.0000
# 3 110.9851 5.5501 154.5229 0.0000 0.0000 0.0000
# 4 0.0000 0.0000 0.0000 17.6010 0.0000 0.0000
# 5 0.0000 0.0000 0.0000 0.0000 25.7411 0.0000
# 6 0.0000 0.0000 0.0000 0.0000 0.0000 16.3815
#
#
#
# Elastic Compliance Matrix: (Units=1/GPa)
#
#
# Indices 1 2 3 4 5 6 
#
# 1 0.011098 -0.001798 -0.007907 0.000000 0.000000 0.000000
# 2 -0.001798 0.043605 -0.000274 0.000000 0.000000 0.000000
# 3 -0.007907 -0.000274 0.012160 0.000000 0.000000 0.000000
# 4 0.000000 0.000000 0.000000 0.056815 0.000000 0.000000
# 5 0.000000 0.000000 0.000000 0.000000 0.038848 0.000000
# 6 0.000000 0.000000 0.000000 0.000000 0.000000 0.061044
#
#
# Mechanical properties :
#
#
# Convention : Reuss Voigt Hill
#
# Bulk Modulus (GPa) = 21.31997 66.30660 43.81329
# Shear Modulus (GPa) = 19.29271 26.87615 23.08443
#
# Velocity S-wave (km/s) = 3.32425 3.92356 3.63627
# Velocity P-wave (km/s) = 5.19095 7.64888 6.53649
#
# Compressibility (1/GPa) = 0.04690438
#
# Stress axis : x y z
#
# Youngs Moduli (GPa) = 90.10364 22.93319 82.23457
#
# Poissons Ratio (x) = 0.04124 0.65021
# Poissons Ratio (y) = 0.16204 0.02257
# Poissons Ratio (z) = 0.71242 0.00629
#
# Static dielectric constant tensor:
#      x y z
#    x 1.603270 0.000000 0.000000 
#    y 0.000000 1.665350 0.000000 
#    z 0.000000 0.000000 1.593600 
# 
# From -- ./inp_files/11139.got.cif
#   From: 2010.05.17/outbox.cif.g08.bks.cpg/sg44_6_cif.got.tgz:11139.got - 2010.06.03 19:37:08.
