data_PCOD9375650
_publ_section_title
;
Structure prediction by ZEFSAII (Michael W. Deem and Ramdas Pophale) SiO2 
 PCOD9375650
Probable space group: I M M 2
;
_chemical_formula_sum "Si O2"
_cell_formula_units_Z 64
_cell_length_a 8.970292
_cell_length_b 25.028278
_cell_length_c 14.377790
_cell_angle_alpha 90.000000
_cell_angle_beta 90.000000
_cell_angle_gamma 90.000000
_cell_volume 3227.971463
_symmetry_space_group_name_H-M "I M M 2"
_symmetry_group_IT_number 44
_symmetry_cell_setting 'orthorhombic'
loop_
_space_group_symop_operation_xyz
x,y,z
-x,-y,z
-x,y,z
x,-y,z
1/2+x,1/2+y,1/2+z
1/2-x,1/2-y,1/2+z
1/2-x,1/2+y,1/2+z
1/2+x,1/2-y,1/2+z
loop_
_atom_site_type_symbol
_atom_site_label
_atom_site_fract_x
_atom_site_fract_y
_atom_site_fract_z
Si Si1 0.319244 0.058302 0.458940
Si Si2 0.171314 0.274001 0.563094
Si Si3 0.320152 0.887472 0.272512
Si Si4 0.677137 0.161530 0.784062
Si Si5 0.669965 0.230369 0.290129
Si Si6 0.822408 0.113877 0.071578
Si Si7 0.678907 0.164335 0.563670
Si Si8 0.320004 0.940236 0.901585
O O1 0.500000 0.058119 0.468313
O O2 0.287815 0.068962 0.350551
O O3 0.267423 0.110060 0.515270
O O4 0.264417 0.000000 0.488952
O O5 0.171444 0.270420 0.676587
O O6 0.261944 0.327565 0.541239
O O7 0.244549 0.218900 0.529859
O O8 0.000000 0.279458 0.532832
O O9 0.500000 0.885084 0.257094
O O10 0.275764 0.829150 0.313455
O O11 0.239366 0.895831 0.175232
O O12 0.500000 0.163890 0.795083
O O13 0.742486 0.217305 0.820730
O O14 0.708036 0.158810 0.673925
O O15 0.730558 0.107912 0.834609
O O16 0.500000 0.235373 0.321932
O O17 0.000000 0.113302 0.070503
O O18 0.753472 0.071465 0.000732
O O19 0.500000 0.169366 0.550353
O O20 0.500000 0.937218 0.910014
O O21 0.283189 0.000000 0.868309
#
# Coordination Sequence:
#
# PCOD9375650 Si02
#       8
#     8   8   8   8   8   8   8   8
#     4   9  18  32  52  79 109 143 183 220 256 307
#     4   9  17  32  54  80 109 140 174 210 259 324
#     4   9  18  34  54  77 107 143 180 213 255 317
#     4   9  18  32  52  78 106 135 170 215 262 308
#     4   8  15  28  48  74 104 136 169 210 259 312
#     4  11  22  36  56  81 107 134 170 222 277 318
#     4   9  17  31  53  83 114 140 173 219 264 304
#     4  10  22  39  55  73 102 143 187 222 258 313
#
# _framework density 19.826692000000001
#
# number of rings (size 3 to 8) (size 9 to 14) (size 15 to 20)
#    0.000    2.750    0.000    2.250    0.000    5.750 
#    0.000    5.625    0.000    1.125    0.000    3.500 
#    0.000    0.000    0.000    0.000    0.000    0.000 
#
# Total GULP energy -178585.363699 kJ/mol
# GULP energy per Si atom -5580.792616 kJ/mol
# Density = 1.978157 g / cm^3
# Si number density = 19.826692 Si / 1000 Ang^3
#
#
#
# Elastic Constant Matrix: (Units=GPa)
#
#
# Indices 1 2 3 4 5 6 
#
# 1 25.4860 16.2649 11.6609 0.0000 0.0000 0.0000
# 2 16.2649 93.0289 12.2770 0.0000 0.0000 0.0000
# 3 11.6609 12.2770 29.6552 0.0001 0.0000 0.0000
# 4 0.0000 0.0000 0.0001 27.6530 0.0000 0.0000
# 5 0.0000 0.0000 0.0000 0.0000 12.1544 0.0000
# 6 0.0000 0.0000 0.0000 0.0000 0.0000 24.9635
#
#
#
# Elastic Compliance Matrix: (Units=1/GPa)
#
#
# Indices 1 2 3 4 5 6 
#
# 1 0.051511 -0.006699 -0.017482 0.000000 0.000000 0.000000
# 2 -0.006699 0.012242 -0.002434 0.000000 0.000000 0.000000
# 3 -0.017482 -0.002434 0.041603 0.000000 0.000000 0.000000
# 4 0.000000 0.000000 0.000000 0.036162 0.000000 0.000000
# 5 0.000000 0.000000 0.000000 0.000000 0.082275 0.000000
# 6 0.000000 0.000000 0.000000 0.000000 0.000000 0.040059
#
#
# Mechanical properties :
#
#
# Convention : Reuss Voigt Hill
#
# Bulk Modulus (GPa) = 19.18416 25.39730 22.29073
# Shear Modulus (GPa) = 14.94967 20.15199 17.55083
#
# Velocity S-wave (km/s) = 2.74892 3.19157 2.97848
# Velocity P-wave (km/s) = 4.44661 5.13994 4.80579
#
# Compressibility (1/GPa) = 0.05212634
#
# Stress axis : x y z
#
# Youngs Moduli (GPa) = 19.41333 81.68752 24.03700
#
# Poissons Ratio (x) = 0.54722 0.42021
# Poissons Ratio (y) = 0.13005 0.05850
# Poissons Ratio (z) = 0.33938 0.19881
#
# Static dielectric constant tensor:
#      x y z
#    x 1.666700 0.000000 0.000000 
#    y 0.000000 1.702520 0.000000 
#    z 0.000000 0.000000 1.733720 
# 
# From -- ./inp_files/16890.got.cif
#   From: 2010.05.17/outbox.cif.g08.bks.cpg/sg44_9_cif.got.tgz:16890.got - 2010.06.03 19:37:08.
