data_PCOD9375887
_publ_section_title
;
Structure prediction by ZEFSAII (Michael W. Deem and Ramdas Pophale) SiO2 
 PCOD9375887
Probable space group: I M M 2
;
_chemical_formula_sum "Si O2"
_cell_formula_units_Z 48
_cell_length_a 16.166552
_cell_length_b 17.860037
_cell_length_c 7.873599
_cell_angle_alpha 90.000000
_cell_angle_beta 90.000000
_cell_angle_gamma 90.000000
_cell_volume 2273.385315
_symmetry_space_group_name_H-M "I M M 2"
_symmetry_group_IT_number 44
_symmetry_cell_setting 'orthorhombic'
loop_
_space_group_symop_operation_xyz
x,y,z
-x,-y,z
-x,y,z
x,-y,z
1/2+x,1/2+y,1/2+z
1/2-x,1/2-y,1/2+z
1/2-x,1/2+y,1/2+z
1/2+x,1/2-y,1/2+z
loop_
_atom_site_type_symbol
_atom_site_label
_atom_site_fract_x
_atom_site_fract_y
_atom_site_fract_z
Si Si1 0.596652 0.081623 0.773000
Si Si2 0.656130 0.910399 0.144758
Si Si3 0.599284 0.817165 0.467959
Si Si4 0.673572 0.658841 0.517287
Si Si5 0.401919 0.585003 0.831408
Si Si6 0.905063 0.910424 0.696193
O O1 0.500000 0.076183 0.730722
O O2 0.627905 0.142875 0.642369
O O3 0.636386 0.000000 0.743350
O O4 0.603323 0.097547 0.972281
O O5 0.616336 0.872378 0.309849
O O6 0.738846 0.865492 0.093898
O O7 0.669377 0.000000 0.171923
O O8 0.500000 0.800201 0.473077
O O9 0.653752 0.742448 0.457922
O O10 0.613723 0.637198 0.672546
O O11 0.651608 0.609700 0.353409
O O12 0.500000 0.578970 0.855987
O O13 0.370270 0.500000 0.798395
O O14 0.370948 0.615366 0.012887
O O15 0.000000 0.882678 0.725056
O O16 0.909737 0.000000 0.682031
#
# Coordination Sequence:
#
# PCOD9375887 Si02
#       6
#     8   8   8   8   8   8
#     4   9  20  42  70  94 120 164 223 276 320 384
#     4  11  25  43  67  97 132 177 223 274 335 401
#     4  11  25  43  67  97 132 177 223 274 335 401
#     4  12  24  37  62  92 136 168 211 274 342 402
#     4   9  18  34  57  86 123 170 221 265 312 389
#     4   9  18  34  57  86 123 170 221 265 312 389
#
# _framework density 21.113887999999999
#
# number of rings (size 3 to 8) (size 9 to 14) (size 15 to 20)
#    0.000    1.833    0.000    5.000    2.333    5.667 
#    0.000    3.333    0.000    0.000    0.000    0.000 
#    0.000    0.000    0.000    0.000    0.000    0.000 
#
# Total GULP energy -133925.466536 kJ/mol
# GULP energy per Si atom -5580.227772 kJ/mol
# Density = 2.106583 g / cm^3
# Si number density = 21.113888 Si / 1000 Ang^3
#
#
#
# Elastic Constant Matrix: (Units=GPa)
#
#
# Indices 1 2 3 4 5 6 
#
# 1 30.8220 19.1404 -3.7734 0.0000 0.0000 0.0000
# 2 19.1404 73.5331 31.7446 0.0000 0.0000 0.0000
# 3 -3.7734 31.7446 105.9571 0.0000 0.0000 0.0000
# 4 0.0000 0.0000 0.0000 66.3107 0.0000 0.0000
# 5 0.0000 0.0000 0.0000 0.0000 33.5355 0.0000
# 6 0.0000 0.0000 0.0000 0.0000 0.0000 19.4454
#
#
#
# Elastic Compliance Matrix: (Units=1/GPa)
#
#
# Indices 1 2 3 4 5 6 
#
# 1 0.041204 -0.013046 0.005376 0.000000 0.000000 0.000000
# 2 -0.013046 0.019750 -0.006382 0.000000 0.000000 0.000000
# 3 0.005376 -0.006382 0.011541 0.000000 0.000000 0.000000
# 4 0.000000 0.000000 0.000000 0.015081 0.000000 0.000000
# 5 0.000000 0.000000 0.000000 0.000000 0.029819 0.000000
# 6 0.000000 0.000000 0.000000 0.000000 0.000000 0.051426
#
#
# Mechanical properties :
#
#
# Convention : Reuss Voigt Hill
#
# Bulk Modulus (GPa) = 22.52668 33.83728 28.18198
# Shear Modulus (GPa) = 23.61583 34.73836 29.17709
#
# Velocity S-wave (km/s) = 3.34802 4.06061 3.72141
# Velocity P-wave (km/s) = 5.06339 6.16811 5.64285
#
# Compressibility (1/GPa) = 0.04439181
#
# Stress axis : x y z
#
# Youngs Moduli (GPa) = 24.26938 50.63237 86.64607
#
# Poissons Ratio (x) = 0.66056 -0.46581
# Poissons Ratio (y) = 0.31662 0.55295
# Poissons Ratio (z) = -0.13047 0.32312
#
# Static dielectric constant tensor:
#      x y z
#    x 1.825630 0.000000 0.000000 
#    y 0.000000 1.770430 0.000000 
#    z 0.000000 0.000000 1.761210 
# 
# From -- ./inp_files/7121.got.cif
#   From: 2010.05.17/outbox.cif.g08.bks.cpg/sg44_4_cif.got.tgz:7121.got - 2010.06.03 19:37:08.
