data_PCOD9375198
_publ_section_title
;
Structure prediction by ZEFSAII (Michael W. Deem and Ramdas Pophale) SiO2 
 PCOD9375198
Probable space group: I M M 2
;
_chemical_formula_sum "Si O2"
_cell_formula_units_Z 52
_cell_length_a 16.851784
_cell_length_b 19.042269
_cell_length_c 8.417347
_cell_angle_alpha 90.000000
_cell_angle_beta 90.000000
_cell_angle_gamma 90.000000
_cell_volume 2701.094701
_symmetry_space_group_name_H-M "I M M 2"
_symmetry_group_IT_number 44
_symmetry_cell_setting 'orthorhombic'
loop_
_space_group_symop_operation_xyz
x,y,z
-x,-y,z
-x,y,z
x,-y,z
1/2+x,1/2+y,1/2+z
1/2-x,1/2-y,1/2+z
1/2-x,1/2+y,1/2+z
1/2+x,1/2-y,1/2+z
loop_
_atom_site_type_symbol
_atom_site_label
_atom_site_fract_x
_atom_site_fract_y
_atom_site_fract_z
Si Si1 0.279274 0.179037 0.847920
Si Si2 0.349855 0.709180 0.084736
Si Si3 0.407367 0.082985 0.672546
Si Si4 0.500000 0.196614 0.172656
Si Si5 0.713848 0.418089 0.621099
Si Si6 0.905854 0.918004 0.387883
Si Si7 0.121764 0.581322 0.797271
O O1 0.218989 0.205798 0.714953
O O2 0.348195 0.130773 0.772302
O O3 0.319285 0.243521 0.938937
O O4 0.231373 0.132158 0.974726
O O5 0.429660 0.744529 0.148957
O O6 0.368518 0.631850 0.019724
O O7 0.500000 0.099708 0.705123
O O8 0.391279 0.094125 0.484833
O O9 0.395355 0.000000 0.705634
O O10 0.568619 0.135490 0.201398
O O11 0.711767 0.500000 0.571378
O O12 0.634789 0.401283 0.719010
O O13 0.787374 0.410455 0.743783
O O14 0.000000 0.907720 0.381046
O O15 0.888943 0.000000 0.420118
O O16 0.099549 0.500000 0.766663
#
# Coordination Sequence:
#
# PCOD9375198 Si02
#       7
#     8   8   8   4   8   8   8
#     4  12  26  42  62  90 135 166 211 260 323 386
#     4  12  27  43  64  93 128 174 213 261 321 380
#     4  10  22  39  66 101 132 169 212 258 314 383
#     4  12  23  42  63  94 132 164 216 260 305 380
#     4  10  21  40  68  96 122 162 209 262 322 381
#     4  10  22  45  70  91 119 164 221 270 316 374
#     4  10  20  39  68  97 131 171 206 248 315 385
#
# _framework density 19.251453999999999
#
# number of rings (size 3 to 8) (size 9 to 14) (size 15 to 20)
#    0.000    1.231    3.077    2.538    3.231    2.462 
#    1.385    0.000    0.000    0.000    0.000    0.000 
#    0.000    0.000    0.000    0.000    0.000    0.000 
#
# Total GULP energy -144857.907626 kJ/mol
# GULP energy per Si atom -5571.457986 kJ/mol
# Density = 1.920764 g / cm^3
# Si number density = 19.251454 Si / 1000 Ang^3
#
#
#
# Elastic Constant Matrix: (Units=GPa)
#
#
# Indices 1 2 3 4 5 6 
#
# 1 105.2482 50.4936 53.0821 0.0000 0.0000 0.0000
# 2 50.4936 70.6628 42.3872 0.0000 0.0000 0.0000
# 3 53.0821 42.3872 51.3889 0.0000 0.0000 0.0000
# 4 0.0000 0.0000 0.0000 38.0979 0.0000 0.0000
# 5 0.0000 0.0000 0.0000 0.0000 -4.3365 0.0000
# 6 0.0000 0.0000 0.0000 0.0000 0.0000 37.5121
#
#
#
# Elastic Compliance Matrix: (Units=1/GPa)
#
#
# Indices 1 2 3 4 5 6 
#
# 1 0.020343 -0.003824 -0.017860 0.000000 0.000000 0.000000
# 2 -0.003824 0.028729 -0.019747 0.000000 0.000000 0.000000
# 3 -0.017860 -0.019747 0.054196 0.000000 0.000000 0.000000
# 4 0.000000 0.000000 0.000000 0.026248 0.000000 0.000000
# 5 0.000000 0.000000 0.000000 0.000000 -0.230603 0.000000
# 6 0.000000 0.000000 0.000000 0.000000 0.000000 0.026658
#
#
# Mechanical properties :
#
#
# Convention : Reuss Voigt Hill
#
# Bulk Modulus (GPa) = 49.00227 57.69174 53.34700
# Shear Modulus (GPa) = 328.15641 19.67717 173.91679
#
# Velocity S-wave (km/s) = 13.07012 3.20052 9.51502
# Velocity P-wave (km/s) = 15.91477 6.60986 12.18544
#
# Compressibility (1/GPa) = 0.02040722
#
# Stress axis : x y z
#
# Youngs Moduli (GPa) = 49.15599 34.80746 18.45146
#
# Poissons Ratio (x) = 0.13309 0.32954
# Poissons Ratio (y) = 0.18795 0.36437
# Poissons Ratio (z) = 0.87792 0.68736
#
# Static dielectric constant tensor:
#      x y z
#    x 1.657480 0.000000 0.000000 
#    y 0.000000 1.661570 0.000000 
#    z 0.000000 0.000000 1.665930 
# 
# From -- ./inp_files/8285.got.cif
#   From: 2010.05.17/outbox.cif.g08.bks.cpg/sg44_5_cif.got.tgz:8285.got - 2010.06.03 19:37:08.
