data_PCOD9375258
_publ_section_title
;
Structure prediction by ZEFSAII (Michael W. Deem and Ramdas Pophale) SiO2 
 PCOD9375258
Probable space group: I M M 2
;
_chemical_formula_sum "Si O2"
_cell_formula_units_Z 64
_cell_length_a 7.727685
_cell_length_b 14.330805
_cell_length_c 25.317293
_cell_angle_alpha 90.000000
_cell_angle_beta 90.000000
_cell_angle_gamma 90.000000
_cell_volume 2803.736950
_symmetry_space_group_name_H-M "I M M 2"
_symmetry_group_IT_number 44
_symmetry_cell_setting 'orthorhombic'
loop_
_space_group_symop_operation_xyz
x,y,z
-x,-y,z
-x,y,z
x,-y,z
1/2+x,1/2+y,1/2+z
1/2-x,1/2-y,1/2+z
1/2-x,1/2+y,1/2+z
1/2+x,1/2-y,1/2+z
loop_
_atom_site_type_symbol
_atom_site_label
_atom_site_fract_x
_atom_site_fract_y
_atom_site_fract_z
Si Si1 0.711686 0.606427 0.589930
Si Si2 0.291450 0.607175 0.141669
Si Si3 0.208212 0.283791 0.034921
Si Si4 0.201283 0.393942 0.373940
Si Si5 0.707493 0.106513 0.317881
Si Si6 0.700253 0.386233 0.255608
Si Si7 0.201019 0.705988 0.921103
Si Si8 0.292919 0.391177 0.705281
O O1 0.500000 0.605570 0.589945
O O2 0.767796 0.500000 0.582817
O O3 0.770929 0.678940 0.546464
O O4 0.768122 0.642636 0.648077
O O5 0.500000 0.606559 0.146378
O O6 0.231710 0.500000 0.136828
O O7 0.246072 0.658780 0.087744
O O8 0.226948 0.646153 0.198623
O O9 0.000000 0.280691 0.030209
O O10 0.276953 0.317627 0.978437
O O11 0.270237 0.500000 0.378813
O O12 0.215314 0.365789 0.311964
O O13 0.291221 0.316351 0.409529
O O14 0.000000 0.394858 0.388047
O O15 0.500000 0.103195 0.321631
O O16 0.779088 0.157813 0.369288
O O17 0.742496 0.152634 0.260957
O O18 0.773877 0.000000 0.317072
O O19 0.500000 0.356875 0.260302
O O20 0.703142 0.500000 0.251393
O O21 0.000000 0.677102 0.922531
O O22 0.500000 0.391564 0.703803
O O23 0.233870 0.500000 0.707151
#
# Coordination Sequence:
#
# PCOD9375258 Si02
#       8
#     8   8   8   8   8   8   8   8
#     4   8  15  30  51  74 101 129 158 201 255 305
#     4   9  19  36  56  78 107 142 174 209 262 322
#     4  10  21  35  53  78 103 133 179 224 257 299
#     4  10  21  36  55  80 108 137 172 219 270 313
#     4   9  18  33  51  71  99 132 165 206 252 297
#     4   8  15  31  55  80 106 137 172 209 257 322
#     4  10  22  37  52  74 104 140 180 216 256 310
#     4   8  14  27  49  75 100 126 158 198 249 308
#
# _framework density 22.826678999999999
#
# number of rings (size 3 to 8) (size 9 to 14) (size 15 to 20)
#    0.000    3.000    0.000    1.875    0.000    4.500 
#    0.000    6.875    0.000    2.625    0.000    0.000 
#    0.000    0.000    0.000    0.000    0.000    0.000 
#
# Total GULP energy -178518.281162 kJ/mol
# GULP energy per Si atom -5578.696286 kJ/mol
# Density = 2.277472 g / cm^3
# Si number density = 22.826679 Si / 1000 Ang^3
#
#
#
# Elastic Constant Matrix: (Units=GPa)
#
#
# Indices 1 2 3 4 5 6 
#
# 1 32.7553 -8.1261 3.7550 0.0000 0.0000 0.0000
# 2 -8.1261 38.1902 11.9173 0.0000 0.0000 0.0000
# 3 3.7550 11.9173 105.3353 0.0000 0.0000 0.0000
# 4 0.0000 0.0000 0.0000 22.7609 0.0000 0.0000
# 5 0.0000 0.0000 0.0000 0.0000 20.0938 0.0000
# 6 0.0000 0.0000 0.0000 0.0000 0.0000 11.6747
#
#
#
# Elastic Compliance Matrix: (Units=1/GPa)
#
#
# Indices 1 2 3 4 5 6 
#
# 1 0.032641 0.007576 -0.002021 0.000000 0.000000 0.000000
# 2 0.007576 0.028901 -0.003540 0.000000 0.000000 0.000000
# 3 -0.002021 -0.003540 0.009966 0.000000 0.000000 0.000000
# 4 0.000000 0.000000 0.000000 0.043935 0.000000 0.000000
# 5 0.000000 0.000000 0.000000 0.000000 0.049767 0.000000
# 6 0.000000 0.000000 0.000000 0.000000 0.000000 0.085656
#
#
# Mechanical properties :
#
#
# Convention : Reuss Voigt Hill
#
# Bulk Modulus (GPa) = 13.23830 21.26368 17.25099
# Shear Modulus (GPa) = 18.38141 22.15484 20.26813
#
# Velocity S-wave (km/s) = 2.84079 3.11877 2.98302
# Velocity P-wave (km/s) = 4.07089 4.72276 4.40889
#
# Compressibility (1/GPa) = 0.07553842
#
# Stress axis : x y z
#
# Youngs Moduli (GPa) = 30.63676 34.60047 100.34100
#
# Poissons Ratio (x) = -0.26213 0.20276
# Poissons Ratio (y) = -0.23210 0.35519
# Poissons Ratio (z) = 0.06191 0.12248
#
# Static dielectric constant tensor:
#      x y z
#    x 1.840330 0.000000 0.000000 
#    y 0.000000 1.884130 0.000000 
#    z 0.000000 0.000000 1.884010 
# 
# From -- ./inp_files/25080.got.cif
#   From: 2010.05.17/outbox.cif.g08.bks.cpg/sg44_13_cif.got.tgz:25080.got - 2010.06.03 19:37:08.
