data_PCOD9375528
_publ_section_title
;
Structure prediction by ZEFSAII (Michael W. Deem and Ramdas Pophale) SiO2 
 PCOD9375528
Probable space group: I M M 2
;
_chemical_formula_sum "Si O2"
_cell_formula_units_Z 64
_cell_length_a 17.814018
_cell_length_b 15.297738
_cell_length_c 11.737285
_cell_angle_alpha 90.000000
_cell_angle_beta 90.000000
_cell_angle_gamma 90.000000
_cell_volume 3198.576598
_symmetry_space_group_name_H-M "I M M 2"
_symmetry_group_IT_number 44
_symmetry_cell_setting 'orthorhombic'
loop_
_space_group_symop_operation_xyz
x,y,z
-x,-y,z
-x,y,z
x,-y,z
1/2+x,1/2+y,1/2+z
1/2-x,1/2-y,1/2+z
1/2-x,1/2+y,1/2+z
1/2+x,1/2-y,1/2+z
loop_
_atom_site_type_symbol
_atom_site_label
_atom_site_fract_x
_atom_site_fract_y
_atom_site_fract_z
Si Si1 0.705191 0.846975 0.933660
Si Si2 0.586045 0.895048 0.754470
Si Si3 0.915479 0.896435 0.308961
Si Si4 0.914833 0.779244 0.927958
Si Si5 0.693323 0.646864 0.000319
Si Si6 0.161970 0.896893 0.760325
Si Si7 0.641253 0.098400 0.500732
Si Si8 0.681374 0.601731 0.597003
O O1 0.627061 0.862135 0.868466
O O2 0.764704 0.881604 0.839560
O O3 0.710190 0.745397 0.962573
O O4 0.732679 0.890685 0.052866
O O5 0.500000 0.864620 0.746525
O O6 0.627313 0.875433 0.634030
O O7 0.586430 0.000000 0.762191
O O8 0.880707 0.880556 0.432327
O O9 0.848756 0.870609 0.221128
O O10 0.000000 0.859361 0.291332
O O11 0.922556 0.000000 0.293969
O O12 0.899773 0.831459 0.811591
O O13 0.000000 0.787787 0.964315
O O14 0.893737 0.677174 0.928063
O O15 0.863692 0.832316 0.016404
O O16 0.679978 0.631810 0.133101
O O17 0.770368 0.596402 0.974075
O O18 0.142510 0.000000 0.765344
O O19 0.610098 0.000000 0.485220
O O20 0.660015 0.500000 0.578446
#
# Coordination Sequence:
#
# PCOD9375528 Si02
#       8
#     8   8   8   8   8   8   8   8
#     4  11  22  36  62  92 129 162 214 266 320 387
#     4  10  21  38  63  95 130 171 218 271 329 386
#     4  10  23  41  61  90 126 165 212 264 322 384
#     4  11  23  39  63  95 129 165 213 268 327 386
#     4  12  24  39  64  92 129 169 219 261 318 382
#     4  11  23  42  64  92 127 171 219 269 320 385
#     4  11  22  39  63  95 132 171 217 268 323 393
#     4  10  21  39  62  91 128 170 211 265 326 385
#
# _framework density 20.008900000000001
#
# number of rings (size 3 to 8) (size 9 to 14) (size 15 to 20)
#    0.000    1.250    3.750    4.125    3.500    3.250 
#    0.000    0.000    0.000    1.500    0.000    0.000 
#    0.000    0.000    0.000    0.000    0.000    0.000 
#
# Total GULP energy -178376.158537 kJ/mol
# GULP energy per Si atom -5574.254954 kJ/mol
# Density = 1.996336 g / cm^3
# Si number density = 20.008900 Si / 1000 Ang^3
#
#
#
# Elastic Constant Matrix: (Units=GPa)
#
#
# Indices 1 2 3 4 5 6 
#
# 1 75.2409 23.1830 23.0960 0.0000 0.0000 0.0000
# 2 23.1830 122.4998 24.8840 0.0000 0.0000 0.0000
# 3 23.0960 24.8840 78.8055 0.0000 0.0000 0.0000
# 4 0.0000 0.0000 0.0000 29.7977 0.0000 0.0000
# 5 0.0000 0.0000 0.0000 0.0000 22.9515 0.0000
# 6 0.0000 0.0000 0.0000 0.0000 0.0000 15.6182
#
#
#
# Elastic Compliance Matrix: (Units=1/GPa)
#
#
# Indices 1 2 3 4 5 6 
#
# 1 0.015090 -0.002092 -0.003762 0.000000 0.000000 0.000000
# 2 -0.002092 0.009013 -0.002233 0.000000 0.000000 0.000000
# 3 -0.003762 -0.002233 0.014497 0.000000 0.000000 0.000000
# 4 0.000000 0.000000 0.000000 0.033560 0.000000 0.000000
# 5 0.000000 0.000000 0.000000 0.000000 0.043570 0.000000
# 6 0.000000 0.000000 0.000000 0.000000 0.000000 0.064028
#
#
# Mechanical properties :
#
#
# Convention : Reuss Voigt Hill
#
# Bulk Modulus (GPa) = 44.58974 46.54135 45.56555
# Shear Modulus (GPa) = 24.58140 27.36568 25.97354
#
# Velocity S-wave (km/s) = 3.50883 3.70222 3.60682
# Velocity P-wave (km/s) = 6.22489 6.44873 6.33779
#
# Compressibility (1/GPa) = 0.02242668
#
# Stress axis : x y z
#
# Youngs Moduli (GPa) = 66.26960 110.95467 68.97926
#
# Poissons Ratio (x) = 0.23207 0.25950
# Poissons Ratio (y) = 0.13861 0.15402
# Poissons Ratio (z) = 0.24931 0.24775
#
# Static dielectric constant tensor:
#      x y z
#    x 1.767910 0.000000 0.000000 
#    y 0.000000 1.734460 0.000000 
#    z 0.000000 0.000000 1.737250 
# 
# From -- ./inp_files/13984.got.cif
#   From: 2010.05.17/outbox.cif.g08.bks.cpg/sg44_7_cif.got.tgz:13984.got - 2010.06.03 19:37:08.
