data_PCOD9375716
_publ_section_title
;
Structure prediction by ZEFSAII (Michael W. Deem and Ramdas Pophale) SiO2 
 PCOD9375716
Probable space group: I M M 2
;
_chemical_formula_sum "Si O2"
_cell_formula_units_Z 64
_cell_length_a 31.578278
_cell_length_b 8.757739
_cell_length_c 12.192117
_cell_angle_alpha 90.000000
_cell_angle_beta 90.000000
_cell_angle_gamma 90.000000
_cell_volume 3371.782587
_symmetry_space_group_name_H-M "I M M 2"
_symmetry_group_IT_number 44
_symmetry_cell_setting 'orthorhombic'
loop_
_space_group_symop_operation_xyz
x,y,z
-x,-y,z
-x,y,z
x,-y,z
1/2+x,1/2+y,1/2+z
1/2-x,1/2-y,1/2+z
1/2-x,1/2+y,1/2+z
1/2+x,1/2-y,1/2+z
loop_
_atom_site_type_symbol
_atom_site_label
_atom_site_fract_x
_atom_site_fract_y
_atom_site_fract_z
Si Si1 0.200392 0.318132 0.169090
Si Si2 0.837954 0.680944 0.930391
Si Si3 0.875455 0.815940 0.562028
Si Si4 0.047372 0.317536 0.168015
Si Si5 0.202977 0.184544 0.715716
Si Si6 0.430706 0.681023 0.433451
Si Si7 0.624541 0.682857 0.808174
Si Si8 0.046916 0.682457 0.700368
O O1 0.197061 0.500000 0.189176
O O2 0.249147 0.273255 0.185022
O O3 0.167554 0.235480 0.249032
O O4 0.185990 0.291311 0.044339
O O5 0.847778 0.500000 0.922718
O O6 0.810566 0.734237 0.827517
O O7 0.881151 0.776112 0.930440
O O8 0.831801 0.773997 0.623609
O O9 0.875707 0.767557 0.435223
O O10 0.915140 0.749082 0.628131
O O11 0.878487 0.000000 0.565220
O O12 0.052224 0.500000 0.162961
O O13 0.084626 0.250360 0.242457
O O14 0.000000 0.281922 0.209828
O O15 0.051530 0.252084 0.045253
O O16 0.201170 0.000000 0.729246
O O17 0.436853 0.500000 0.433756
O O18 0.449779 0.752048 0.323212
O O19 0.621993 0.500000 0.804400
O O20 0.051076 0.500000 0.705245
O O21 0.000000 0.720128 0.656045
#
# Coordination Sequence:
#
# PCOD9375716 Si02
#       8
#     8   8   8   8   8   8   8   8
#     4  10  23  41  63  90 126 166 204 254 310 365
#     4  11  22  38  64  94 125 163 203 252 308 365
#     4  10  23  42  63  88 122 163 205 254 307 360
#     4  11  24  42  64  90 123 163 205 254 312 371
#     4  10  22  41  63  90 124 164 207 253 306 363
#     4  12  23  38  63  94 127 161 200 253 308 365
#     4  11  24  41  64  91 123 164 209 257 308 365
#     4  11  24  41  63  92 124 160 203 251 306 369
#
# _framework density 18.981057
#
# number of rings (size 3 to 8) (size 9 to 14) (size 15 to 20)
#    0.000    1.250    2.500    3.000    1.750    6.000 
#    0.000    2.500    0.000    0.000    0.000    0.000 
#    0.000    0.000    0.000    0.000    0.000    0.000 
#
# Total GULP energy -178920.710327 kJ/mol
# GULP energy per Si atom -5591.272198 kJ/mol
# Density = 1.893785 g / cm^3
# Si number density = 18.981057 Si / 1000 Ang^3
#
#
#
# Elastic Constant Matrix: (Units=GPa)
#
#
# Indices 1 2 3 4 5 6 
#
# 1 170.1354 49.7701 77.9560 0.0000 0.0000 0.0000
# 2 49.7701 41.4901 46.0152 0.0000 0.0000 0.0000
# 3 77.9560 46.0152 147.4209 0.0000 0.0000 0.0000
# 4 0.0000 0.0000 0.0000 24.3224 0.0000 0.0000
# 5 0.0000 0.0000 0.0000 0.0000 27.5317 0.0000
# 6 0.0000 0.0000 0.0000 0.0000 0.0000 33.8553
#
#
#
# Elastic Compliance Matrix: (Units=1/GPa)
#
#
# Indices 1 2 3 4 5 6 
#
# 1 0.009518 -0.008925 -0.002247 0.000000 0.000000 0.000000
# 2 -0.008925 0.045233 -0.009399 0.000000 0.000000 0.000000
# 3 -0.002247 -0.009399 0.010905 0.000000 0.000000 0.000000
# 4 0.000000 0.000000 0.000000 0.041114 0.000000 0.000000
# 5 0.000000 0.000000 0.000000 0.000000 0.036322 0.000000
# 6 0.000000 0.000000 0.000000 0.000000 0.000000 0.029537
#
#
# Mechanical properties :
#
#
# Convention : Reuss Voigt Hill
#
# Bulk Modulus (GPa) = 40.79449 78.50322 59.64885
# Shear Modulus (GPa) = 22.52811 29.49558 26.01184
#
# Velocity S-wave (km/s) = 3.44884 3.94629 3.70592
# Velocity P-wave (km/s) = 6.11541 7.88751 7.05730
#
# Compressibility (1/GPa) = 0.02451312
#
# Stress axis : x y z
#
# Youngs Moduli (GPa) = 105.05966 22.10780 91.69724
#
# Poissons Ratio (x) = 0.19732 0.20608
# Poissons Ratio (y) = 0.93771 0.86186
# Poissons Ratio (z) = 0.23611 0.20779
#
# Static dielectric constant tensor:
#      x y z
#    x 1.651160 0.000000 0.000000 
#    y 0.000000 1.638610 0.000000 
#    z 0.000000 0.000000 1.630700 
# 
# From -- ./inp_files/11420.got.cif
#   From: 2010.05.17/outbox.cif.g08.bks.cpg/sg44_6_cif.got.tgz:11420.got - 2010.06.03 19:37:08.
