data_PCOD9375966
_publ_section_title
;
Structure prediction by ZEFSAII (Michael W. Deem and Ramdas Pophale) SiO2 
 PCOD9375966
Probable space group: I M M 2
;
_chemical_formula_sum "Si O2"
_cell_formula_units_Z 19
_cell_length_a 12.000000
_cell_length_b 12.000000
_cell_length_c 15.000000
_cell_angle_alpha 90.000000
_cell_angle_beta 90.000000
_cell_angle_gamma 90.000000
_cell_volume 2160.000000
_symmetry_space_group_name_H-M "I M M 2"
_symmetry_group_IT_number 44
_symmetry_cell_setting 'orthorhombic'
loop_
_space_group_symop_operation_xyz
x,y,z
-x,-y,z
-x,y,z
x,-y,z
1/2+x,1/2+y,1/2+z
1/2-x,1/2-y,1/2+z
1/2-x,1/2+y,1/2+z
1/2+x,1/2-y,1/2+z
loop_
_atom_site_type_symbol
_atom_site_label
_atom_site_fract_x
_atom_site_fract_y
_atom_site_fract_z
Si Si1 0.367922 0.632560 0.563070
Si Si2 0.500000 0.627307 0.014070
Si Si3 0.266088 0.291585 0.938072
Si Si4 0.634368 0.236472 0.749536
Si Si5 0.739685 0.000000 0.705170
Si Si6 0.000000 0.000000 0.686625
Si Si7 0.364738 0.000000 0.508317
O O1 0.500000 0.650025 0.543254
O O2 0.349806 0.500000 0.572610
O O3 0.291764 0.685338 0.485360
O O4 0.345531 0.696631 0.656916
O O5 0.500000 0.500000 0.975810
O O6 0.614636 0.684285 0.985214
O O7 0.500000 0.606319 0.120071
O O8 0.299016 0.283775 0.834400
O O9 0.178884 0.391220 0.956747
O O10 0.500000 0.238507 0.765064
O O11 0.679594 0.111014 0.739699
O O12 0.708229 0.000000 0.599685
O O13 0.873591 0.000000 0.726406
O O14 0.500000 0.000000 0.523317
#
# Coordination Sequence:
#
# PCOD9375966 Si02
#       7
#     8   4   8   8   4   2   4
#     4  10  23  43  63  90 128 169 209 256 318 379
#     4  10  18  36  63  95 117 153 210 263 307 369
#     4  12  22  39  66  94 126 163 213 261 316 375
#     4  11  24  40  66  94 124 166 215 268 310 375
#     4  12  22  42  64  95 125 161 220 263 320 375
#     4  10  18  38  66  88 120 162 200 272 314 370
#     4  12  22  40  70  91 123 163 217 268 317 372
#
# _framework density 8.7962959999999999
#
# number of rings (size 3 to 8) (size 9 to 14) (size 15 to 20)
#    0.316    0.632    6.316    1.579    2.947    0.000 
#    3.789    0.526    0.000    0.000    0.000    0.000 
#    0.000    0.000    0.000    0.000    0.000    0.000 
#
# Total GULP energy -105980.884138 kJ/mol
# GULP energy per Si atom -5577.941270 kJ/mol
# Density = 0.877628 g / cm^3
# Si number density = 8.796296 Si / 1000 Ang^3
#
#
#
# Elastic Constant Matrix: (Units=GPa)
#
#
# Indices 1 2 3 4 5 6 
#
# 1 115.7368 31.6200 18.2304 0.0000 0.0000 0.0000
# 2 31.6200 83.9676 1.1650 0.0000 0.0000 0.0000
# 3 18.2304 1.1650 46.8167 0.0000 0.0000 0.0000
# 4 0.0000 0.0000 0.0000 13.3404 0.0000 0.0000
# 5 0.0000 0.0000 0.0000 0.0000 33.8588 0.0000
# 6 0.0000 0.0000 0.0000 0.0000 0.0000 29.1270
#
#
#
# Elastic Compliance Matrix: (Units=1/GPa)
#
#
# Indices 1 2 3 4 5 6 
#
# 1 0.010302 -0.003825 -0.003917 0.000000 0.000000 0.000000
# 2 -0.003825 0.013334 0.001158 0.000000 0.000000 0.000000
# 3 -0.003917 0.001158 0.022856 0.000000 0.000000 0.000000
# 4 0.000000 0.000000 0.000000 0.074961 0.000000 0.000000
# 5 0.000000 0.000000 0.000000 0.000000 0.029534 0.000000
# 6 0.000000 0.000000 0.000000 0.000000 0.000000 0.034332
#
#
# Mechanical properties :
#
#
# Convention : Reuss Voigt Hill
#
# Bulk Modulus (GPa) = 30.00820 38.72799 34.36809
# Shear Modulus (GPa) = 23.85545 28.29895 26.07720
#
# Velocity S-wave (km/s) = 3.68638 4.01505 3.85422
# Velocity P-wave (km/s) = 5.93410 6.59968 6.27572
#
# Compressibility (1/GPa) = 0.03332423
#
# Stress axis : x y z
#
# Youngs Moduli (GPa) = 97.06581 74.99752 43.75185
#
# Poissons Ratio (x) = 0.28688 0.17136
# Poissons Ratio (y) = 0.37130 -0.05065
# Poissons Ratio (z) = 0.38016 -0.08683
#
# Static dielectric constant tensor:
#      x y z
#    x 1.579470 0.000000 0.000000 
#    y 0.000000 1.615440 0.000000 
#    z 0.000000 0.000000 1.624380 
# 
# From -- ./inp_files/17516.got.cif
#   From: 2010.05.17/outbox.ucp.g08.bks.cvg/sg44_9_cif.got.tgz:17516.got - 2010.06.11 16:32:36.
