data_PCOD9375080
_publ_section_title
;
Structure prediction by ZEFSAII (Michael W. Deem and Ramdas Pophale) SiO2 
 PCOD9375080
Probable space group: I M M 2
;
_chemical_formula_sum "Si O2"
_cell_formula_units_Z 64
_cell_length_a 32.989604
_cell_length_b 8.706985
_cell_length_c 12.075454
_cell_angle_alpha 90.000000
_cell_angle_beta 90.000000
_cell_angle_gamma 90.000000
_cell_volume 3468.553252
_symmetry_space_group_name_H-M "I M M 2"
_symmetry_group_IT_number 44
_symmetry_cell_setting 'orthorhombic'
loop_
_space_group_symop_operation_xyz
x,y,z
-x,-y,z
-x,y,z
x,-y,z
1/2+x,1/2+y,1/2+z
1/2-x,1/2-y,1/2+z
1/2-x,1/2+y,1/2+z
1/2+x,1/2-y,1/2+z
loop_
_atom_site_type_symbol
_atom_site_label
_atom_site_fract_x
_atom_site_fract_y
_atom_site_fract_z
Si Si1 0.099282 0.825080 0.848470
Si Si2 0.815941 0.824975 0.979527
Si Si3 0.726314 0.817464 0.275299
Si Si4 0.686122 0.182823 0.719173
Si Si5 0.548353 0.680284 0.547544
Si Si6 0.851046 0.186944 0.647693
Si Si7 0.376102 0.316048 0.898478
Si Si8 0.547146 0.183540 0.785614
O O1 0.112816 0.759216 0.730302
O O2 0.084779 0.000000 0.827615
O O3 0.141406 0.831044 0.915673
O O4 0.068209 0.753461 0.935825
O O5 0.822512 0.750339 0.098018
O O6 0.800852 0.000000 0.991321
O O7 0.786684 0.728825 0.899772
O O8 0.768667 0.737531 0.248840
O O9 0.690829 0.756205 0.193899
O O10 0.729885 0.000000 0.265070
O O11 0.654524 0.247588 0.808188
O O12 0.683804 0.000000 0.717348
O O13 0.500000 0.686017 0.537555
O O14 0.560647 0.500000 0.557758
O O15 0.559421 0.764380 0.661331
O O16 0.861167 0.226308 0.521670
O O17 0.848357 0.000000 0.657682
O O18 0.375615 0.500000 0.890356
O O19 0.421046 0.256641 0.870090
O O20 0.500000 0.231194 0.802415
O O21 0.549040 0.000000 0.792463
#
# Coordination Sequence:
#
# PCOD9375080 Si02
#       8
#     8   8   8   8   8   8   8   8
#     4   8  15  31  54  78 106 140 177 224 278 334
#     4  10  20  37  58  80 108 144 188 234 284 338
#     4  11  23  39  59  83 113 150 192 238 293 349
#     4  12  25  39  58  84 116 150 190 240 293 351
#     4   9  16  28  52  84 114 144 182 231 287 348
#     4   9  20  39  59  79 111 153 196 242 293 350
#     4  11  23  39  60  86 116 153 200 248 297 357
#     4  10  21  37  57  83 118 156 194 241 299 358
#
# _framework density 18.451495999999999
#
# number of rings (size 3 to 8) (size 9 to 14) (size 15 to 20)
#    0.000    2.000    0.000    4.875    1.750    2.750 
#    0.000    3.125    0.000    2.250    0.000    1.750 
#    0.000    0.000    0.000    0.000    0.000    0.000 
#
# Total GULP energy -178602.772381 kJ/mol
# GULP energy per Si atom -5581.336637 kJ/mol
# Density = 1.840950 g / cm^3
# Si number density = 18.451496 Si / 1000 Ang^3
#
#
#
# Elastic Constant Matrix: (Units=GPa)
#
#
# Indices 1 2 3 4 5 6 
#
# 1 55.9056 15.9138 47.0171 0.0000 0.0000 0.0000
# 2 15.9138 55.5743 39.9166 0.0000 0.0000 0.0000
# 3 47.0171 39.9166 152.5809 0.0000 0.0000 0.0000
# 4 0.0000 0.0000 0.0000 9.6370 0.0000 0.0000
# 5 0.0000 0.0000 0.0000 0.0000 14.6364 0.0000
# 6 0.0000 0.0000 0.0000 0.0000 0.0000 25.7998
#
#
#
# Elastic Compliance Matrix: (Units=1/GPa)
#
#
# Indices 1 2 3 4 5 6 
#
# 1 0.024314 -0.001947 -0.006983 0.000000 0.000000 0.000000
# 2 -0.001947 0.022313 -0.005237 0.000000 0.000000 0.000000
# 3 -0.006983 -0.005237 0.010076 0.000000 0.000000 0.000000
# 4 0.000000 0.000000 0.000000 0.103767 0.000000 0.000000
# 5 0.000000 0.000000 0.000000 0.000000 0.068323 0.000000
# 6 0.000000 0.000000 0.000000 0.000000 0.000000 0.038760
#
#
# Mechanical properties :
#
#
# Convention : Reuss Voigt Hill
#
# Bulk Modulus (GPa) = 35.25009 52.19511 43.72260
# Shear Modulus (GPa) = 16.37498 20.76218 18.56858
#
# Velocity S-wave (km/s) = 2.98226 3.35808 3.17574
# Velocity P-wave (km/s) = 5.56814 6.58671 6.09873
#
# Compressibility (1/GPa) = 0.02836872
#
# Stress axis : x y z
#
# Youngs Moduli (GPa) = 41.12814 44.81647 99.24724
#
# Poissons Ratio (x) = 0.08725 0.69304
# Poissons Ratio (y) = 0.08007 0.51980
# Poissons Ratio (z) = 0.28720 0.23472
#
# Static dielectric constant tensor:
#      x y z
#    x 1.633140 0.000000 0.000000 
#    y 0.000000 1.631570 0.000000 
#    z 0.000000 0.000000 1.638690 
# 
# From -- ./inp_files/15121.got.cif
#   From: 2010.05.17/outbox.cif.g08.bks.cpg/sg44_8_cif.got.tgz:15121.got - 2010.06.03 19:37:08.
