data_PCOD9375007
_publ_section_title
;
Structure prediction by ZEFSAII (Michael W. Deem and Ramdas Pophale) SiO2 
 PCOD9375007
Probable space group: I M M 2
;
_chemical_formula_sum "Si O2"
_cell_formula_units_Z 64
_cell_length_a 31.861004
_cell_length_b 7.632999
_cell_length_c 12.377244
_cell_angle_alpha 90.000000
_cell_angle_beta 90.000000
_cell_angle_gamma 90.000000
_cell_volume 3010.083999
_symmetry_space_group_name_H-M "I M M 2"
_symmetry_group_IT_number 44
_symmetry_cell_setting 'orthorhombic'
loop_
_space_group_symop_operation_xyz
x,y,z
-x,-y,z
-x,y,z
x,-y,z
1/2+x,1/2+y,1/2+z
1/2-x,1/2-y,1/2+z
1/2-x,1/2+y,1/2+z
1/2+x,1/2-y,1/2+z
loop_
_atom_site_type_symbol
_atom_site_label
_atom_site_fract_x
_atom_site_fract_y
_atom_site_fract_z
Si Si1 0.300450 0.709304 0.478300
Si Si2 0.954615 0.204745 0.509805
Si Si3 0.126887 0.208332 0.134367
Si Si4 0.567425 0.796464 0.249293
Si Si5 0.834914 0.786625 0.749720
Si Si6 0.953664 0.288267 0.989022
Si Si7 0.126777 0.784657 0.380489
Si Si8 0.295744 0.289345 0.025246
O O1 0.333271 0.779287 0.567180
O O2 0.313190 0.774286 0.359744
O O3 0.252047 0.742180 0.502422
O O4 0.193578 0.000000 0.975622
O O5 0.949258 0.214276 0.639057
O O6 0.913369 0.276386 0.450320
O O7 0.000000 0.282924 0.480475
O O8 0.955891 0.000000 0.480298
O O9 0.123858 0.275315 0.256674
O O10 0.133073 0.000000 0.144824
O O11 0.084681 0.234573 0.065100
O O12 0.617543 0.777913 0.247249
O O13 0.552709 0.725162 0.365391
O O14 0.555224 0.000000 0.245186
O O15 0.810505 0.728010 0.643134
O O16 0.836279 0.000000 0.748736
O O17 0.952790 0.500000 0.985289
O O18 0.000000 0.233209 0.027266
O O19 0.170069 0.728285 0.437463
O O20 0.126644 0.000000 0.382544
O O21 0.298001 0.500000 0.025863
#
# Coordination Sequence:
#
# PCOD9375007 Si02
#       8
#     8   8   8   8   8   8   8   8
#     4  10  22  37  56  84 116 143 182 237 279 322
#     4  10  20  36  59  83 112 151 189 229 281 338
#     4  10  21  38  60  84 111 146 188 234 276 324
#     4  11  21  35  58  86 116 147 184 236 285 332
#     4  10  20  38  60  82 112 150 189 233 280 334
#     4  10  22  39  57  81 115 150 183 227 283 337
#     4   9  19  37  58  83 113 145 187 234 276 326
#     4  10  21  37  59  81 110 150 186 225 278 337
#
# _framework density 21.261863999999999
#
# number of rings (size 3 to 8) (size 9 to 14) (size 15 to 20)
#    0.000    2.000    2.500    0.750    1.750    3.500 
#    0.000    2.500    0.000    0.000    0.000    0.000 
#    0.000    0.000    0.000    0.000    0.000    0.000 
#
# Total GULP energy -178757.886813 kJ/mol
# GULP energy per Si atom -5586.183963 kJ/mol
# Density = 2.121347 g / cm^3
# Si number density = 21.261864 Si / 1000 Ang^3
#
#
#
# Elastic Constant Matrix: (Units=GPa)
#
#
# Indices 1 2 3 4 5 6 
#
# 1 198.3103 -8.0985 93.7115 0.0000 0.0000 0.0000
# 2 -8.0985 37.7602 2.5265 0.0000 0.0000 0.0000
# 3 93.7115 2.5265 167.0042 0.0000 0.0000 0.0000
# 4 0.0000 0.0000 0.0000 0.4434 0.0000 0.0000
# 5 0.0000 0.0000 0.0000 0.0000 39.0611 0.0000
# 6 0.0000 0.0000 0.0000 0.0000 0.0000 -28.1205
#
#
#
# Elastic Compliance Matrix: (Units=1/GPa)
#
#
# Indices 1 2 3 4 5 6 
#
# 1 0.006977 0.001760 -0.003942 0.000000 0.000000 0.000000
# 2 0.001760 0.026954 -0.001395 0.000000 0.000000 0.000000
# 3 -0.003942 -0.001395 0.008221 0.000000 0.000000 0.000000
# 4 0.000000 0.000000 0.000000 2.255061 0.000000 0.000000
# 5 0.000000 0.000000 0.000000 0.000000 0.025601 0.000000
# 6 0.000000 0.000000 0.000000 0.000000 0.000000 -0.035561
#
#
# Mechanical properties :
#
#
# Convention : Reuss Voigt Hill
#
# Bulk Modulus (GPa) = 28.57329 64.37262 46.47296
# Shear Modulus (GPa) = 2.16819 23.27248 12.72033
#
# Velocity S-wave (km/s) = 1.01092 3.31201 2.44861
# Velocity P-wave (km/s) = 3.85105 6.70580 5.46801
#
# Compressibility (1/GPa) = 0.03499772
#
# Stress axis : x y z
#
# Youngs Moduli (GPa) = 143.32495 37.10052 121.64235
#
# Poissons Ratio (x) = -0.06530 0.47948
# Poissons Ratio (y) = -0.25227 0.16974
# Poissons Ratio (z) = 0.56495 0.05177
#
# Static dielectric constant tensor:
#      x y z
#    x 1.734200 0.000000 0.000000 
#    y 0.000000 1.812070 0.000000 
#    z 0.000000 0.000000 1.748200 
# 
# From -- ./inp_files/11505.got.cif
#   From: 2010.05.17/outbox.cif.g08.bks.cpg/sg44_6_cif.got.tgz:11505.got - 2010.06.03 19:37:08.
