data_PCOD9375354
_publ_section_title
;
Structure prediction by ZEFSAII (Michael W. Deem and Ramdas Pophale) SiO2 
 PCOD9375354
Probable space group: I M M 2
;
_chemical_formula_sum "Si O2"
_cell_formula_units_Z 64
_cell_length_a 29.428900
_cell_length_b 8.843468
_cell_length_c 13.227324
_cell_angle_alpha 90.000000
_cell_angle_beta 90.000000
_cell_angle_gamma 90.000000
_cell_volume 3442.457835
_symmetry_space_group_name_H-M "I M M 2"
_symmetry_group_IT_number 44
_symmetry_cell_setting 'orthorhombic'
loop_
_space_group_symop_operation_xyz
x,y,z
-x,-y,z
-x,y,z
x,-y,z
1/2+x,1/2+y,1/2+z
1/2-x,1/2-y,1/2+z
1/2-x,1/2+y,1/2+z
1/2+x,1/2-y,1/2+z
loop_
_atom_site_type_symbol
_atom_site_label
_atom_site_fract_x
_atom_site_fract_y
_atom_site_fract_z
Si Si1 0.644385 0.819015 0.493220
Si Si2 0.782965 0.171457 0.286368
Si Si3 0.802158 0.328186 0.647729
Si Si4 0.445749 0.819947 0.117050
Si Si5 0.876836 0.317299 0.217686
Si Si6 0.379435 0.679139 0.278872
Si Si7 0.447575 0.184010 0.890085
Si Si8 0.756138 0.820086 0.976475
O O1 0.618596 0.780488 0.598190
O O2 0.623241 0.751063 0.390748
O O3 0.696293 0.759739 0.502104
O O4 0.645597 0.000000 0.483037
O O5 0.748338 0.163317 0.193398
O O6 0.830691 0.240176 0.255072
O O7 0.756636 0.277728 0.363482
O O8 0.787790 0.000000 0.326000
O O9 0.820766 0.500000 0.643605
O O10 0.834795 0.230828 0.716732
O O11 0.789228 0.269810 0.537434
O O12 0.500000 0.797293 0.122297
O O13 0.420239 0.737529 0.207895
O O14 0.431185 0.770509 0.003092
O O15 0.437267 0.000000 0.125454
O O16 0.872415 0.500000 0.224034
O O17 0.916520 0.270484 0.295432
O O18 0.380722 0.500000 0.289041
O O19 0.500000 0.232896 0.878025
O O20 0.447864 0.000000 0.891845
O O21 0.761244 0.000000 0.988768
#
# Coordination Sequence:
#
# PCOD9375354 Si02
#       8
#     8   8   8   8   8   8   8   8
#     4  11  22  37  56  80 116 155 195 239 284 338
#     4  11  22  36  54  80 115 152 190 234 284 340
#     4  10  22  38  55  77 111 153 195 238 284 338
#     4   9  19  39  66  90 115 148 185 231 291 352
#     4  10  21  36  58  87 115 149 193 240 285 339
#     4  12  25  38  58  85 116 154 197 241 287 343
#     4   8  16  35  63  91 115 142 180 229 287 345
#     4  11  22  37  55  76 107 150 196 240 286 335
#
# _framework density 18.591370000000001
#
# number of rings (size 3 to 8) (size 9 to 14) (size 15 to 20)
#    0.000    1.750    2.500    3.000    1.750    2.250 
#    0.000    0.625    0.000    3.375    0.000    0.000 
#    0.000    0.000    0.000    0.000    0.000    0.000 
#
# Total GULP energy -178458.834879 kJ/mol
# GULP energy per Si atom -5576.838590 kJ/mol
# Density = 1.854905 g / cm^3
# Si number density = 18.591370 Si / 1000 Ang^3
#
#
#
# Elastic Constant Matrix: (Units=GPa)
#
#
# Indices 1 2 3 4 5 6 
#
# 1 71.7430 29.5976 45.5628 0.0000 0.0000 0.0000
# 2 29.5976 61.2524 49.1964 0.0000 0.0000 0.0000
# 3 45.5628 49.1964 109.5223 0.0000 0.0000 0.0000
# 4 0.0000 0.0000 0.0000 15.5728 0.0000 0.0000
# 5 0.0000 0.0000 0.0000 0.0000 34.8761 0.0000
# 6 0.0000 0.0000 0.0000 0.0000 0.0000 25.4213
#
#
#
# Elastic Compliance Matrix: (Units=1/GPa)
#
#
# Indices 1 2 3 4 5 6 
#
# 1 0.019740 -0.004604 -0.006144 0.000000 0.000000 0.000000
# 2 -0.004604 0.026614 -0.010040 0.000000 0.000000 0.000000
# 3 -0.006144 -0.010040 0.016196 0.000000 0.000000 0.000000
# 4 0.000000 0.000000 0.000000 0.064214 0.000000 0.000000
# 5 0.000000 0.000000 0.000000 0.000000 0.028673 0.000000
# 6 0.000000 0.000000 0.000000 0.000000 0.000000 0.039337
#
#
# Mechanical properties :
#
#
# Convention : Reuss Voigt Hill
#
# Bulk Modulus (GPa) = 47.67481 54.58125 51.12803
# Shear Modulus (GPa) = 20.54729 23.05144 21.79937
#
# Velocity S-wave (km/s) = 3.32807 3.52504 3.42797
# Velocity P-wave (km/s) = 6.36139 6.78159 6.57485
#
# Compressibility (1/GPa) = 0.02097544
#
# Stress axis : x y z
#
# Youngs Moduli (GPa) = 50.65868 37.57439 61.74250
#
# Poissons Ratio (x) = 0.17298 0.37936
# Poissons Ratio (y) = 0.23321 0.61987
# Poissons Ratio (z) = 0.31126 0.37723
#
# Static dielectric constant tensor:
#      x y z
#    x 1.632440 0.000000 0.000000 
#    y 0.000000 1.624710 0.000000 
#    z 0.000000 0.000000 1.669550 
# 
# From -- ./inp_files/15082.got.cif
#   From: 2010.05.17/outbox.cif.g08.bks.cpg/sg44_8_cif.got.tgz:15082.got - 2010.06.03 19:37:08.
