data_PCOD9375736
_publ_section_title
;
Structure prediction by ZEFSAII (Michael W. Deem and Ramdas Pophale) SiO2 
 PCOD9375736
Probable space group: I M M 2
;
_chemical_formula_sum "Si O2"
_cell_formula_units_Z 34
_cell_length_a 12.951135
_cell_length_b 21.209943
_cell_length_c 4.927369
_cell_angle_alpha 90.000000
_cell_angle_beta 90.000000
_cell_angle_gamma 90.000000
_cell_volume 1353.512960
_symmetry_space_group_name_H-M "I M M 2"
_symmetry_group_IT_number 44
_symmetry_cell_setting 'orthorhombic'
loop_
_space_group_symop_operation_xyz
x,y,z
-x,-y,z
-x,y,z
x,-y,z
1/2+x,1/2+y,1/2+z
1/2-x,1/2-y,1/2+z
1/2-x,1/2+y,1/2+z
1/2+x,1/2-y,1/2+z
loop_
_atom_site_type_symbol
_atom_site_label
_atom_site_fract_x
_atom_site_fract_y
_atom_site_fract_z
Si Si1 0.840865 0.613652 0.930820
Si Si2 0.500000 0.000000 0.527061
Si Si3 0.838074 0.699981 0.451964
Si Si4 0.109211 0.804468 0.850474
Si Si5 0.886464 0.073004 0.526376
O O1 0.876646 0.645312 0.653351
O O2 0.722017 0.591277 0.889164
O O3 0.849002 0.668747 0.157358
O O4 0.910230 0.555244 0.016238
O O5 0.885174 0.764221 0.569969
O O6 0.714991 0.708451 0.503619
O O7 0.110882 0.877810 0.773475
O O8 0.000000 0.788509 0.984284
O O9 0.000000 0.080722 0.387700
O O10 0.879833 0.000000 0.608330
#
# Coordination Sequence:
#
# PCOD9375736 Si02
#       5
#     8   2   8   8   8
#     4  11  26  45  73 103 145 192 244 303 373 446
#     4  12  28  50  74 110 152 202 246 308 376 466
#     4  11  25  46  70 108 145 187 247 306 363 449
#     4  10  22  42  72 103 145 190 243 309 373 435
#     4   9  18  39  65  96 132 179 234 295 361 427
#
# _framework density 25.119817999999999
#
# number of rings (size 3 to 8) (size 9 to 14) (size 15 to 20)
#    0.000    1.647    1.176    2.824    3.294    2.824 
#    2.118    8.235    0.000    2.824    0.000    0.000 
#    0.000    0.000    0.000    0.000    0.000    0.000 
#
# Total GULP energy -94760.008401 kJ/mol
# GULP energy per Si atom -5574.118141 kJ/mol
# Density = 2.506264 g / cm^3
# Si number density = 25.119818 Si / 1000 Ang^3
#
#
#
# Elastic Constant Matrix: (Units=GPa)
#
#
# Indices 1 2 3 4 5 6 
#
# 1 181.3617 27.0202 18.9847 0.0000 0.0000 0.0001
# 2 27.0202 185.3761 39.4360 -0.0001 -0.0001 0.0001
# 3 18.9847 39.4360 42.0256 0.0000 -0.0003 0.0003
# 4 0.0000 -0.0001 0.0000 5.0930 0.0000 0.0001
# 5 0.0000 -0.0001 -0.0003 0.0000 14.2664 0.0000
# 6 0.0001 0.0001 0.0003 0.0001 0.0000 -28.3708
#
#
#
# Elastic Compliance Matrix: (Units=1/GPa)
#
#
# Indices 1 2 3 4 5 6 
#
# 1 0.005807 -0.000360 -0.002285 0.000000 0.000000 0.000000
# 2 -0.000360 0.006762 -0.006183 0.000000 0.000000 0.000000
# 3 -0.002285 -0.006183 0.030629 0.000000 0.000001 0.000000
# 4 0.000000 0.000000 0.000000 0.196347 0.000000 0.000001
# 5 0.000000 0.000000 0.000001 0.000000 0.070095 0.000000
# 6 0.000000 0.000000 0.000000 0.000001 0.000000 -0.035248
#
#
# Mechanical properties :
#
#
# Convention : Reuss Voigt Hill
#
# Bulk Modulus (GPa) = 39.15154 64.40502 51.77828
# Shear Modulus (GPa) = 16.63548 19.75257 18.19402
#
# Velocity S-wave (km/s) = 2.57620 2.80721 2.69418
# Velocity P-wave (km/s) = 4.94660 6.01681 5.50776
#
# Compressibility (1/GPa) = 0.02554178
#
# Stress axis : x y z
#
# Youngs Moduli (GPa) = 172.21435 147.87973 32.64869
#
# Poissons Ratio (x) = 0.05328 0.07460
# Poissons Ratio (y) = 0.06204 0.20186
# Poissons Ratio (z) = 0.39352 0.91431
#
# Static dielectric constant tensor:
#      x y z
#    x 2.020140 0.000000 0.000000 
#    y 0.000000 1.941610 0.000000 
#    z 0.000000 0.000000 1.975000 
# 
# From -- ./inp_files/1417.got.cif
#   From: 2010.05.17/outbox.cif.g08.bks.cpg/sg44_1_cif.got.tgz:1417.got - 2010.06.03 19:37:08.
