data_PCOD9375859
_publ_section_title
;
Structure prediction by ZEFSAII (Michael W. Deem and Ramdas Pophale) SiO2 
 PCOD9375859
Probable space group: I M M 2
;
_chemical_formula_sum "Si O2"
_cell_formula_units_Z 32
_cell_length_a 7.494339
_cell_length_b 7.920922
_cell_length_c 25.170333
_cell_angle_alpha 90.000000
_cell_angle_beta 90.000000
_cell_angle_gamma 90.000000
_cell_volume 1494.163187
_symmetry_space_group_name_H-M "I M M 2"
_symmetry_group_IT_number 44
_symmetry_cell_setting 'orthorhombic'
loop_
_space_group_symop_operation_xyz
x,y,z
-x,-y,z
-x,y,z
x,-y,z
1/2+x,1/2+y,1/2+z
1/2-x,1/2-y,1/2+z
1/2-x,1/2+y,1/2+z
1/2+x,1/2-y,1/2+z
loop_
_atom_site_type_symbol
_atom_site_label
_atom_site_fract_x
_atom_site_fract_y
_atom_site_fract_z
Si Si1 0.218168 0.186013 0.159460
Si Si2 0.786441 0.691398 0.390667
Si Si3 0.711516 0.797362 0.773765
Si Si4 0.781087 0.500000 0.088090
Si Si5 0.710353 0.000000 0.467878
O O1 0.282002 0.216138 0.219877
O O2 0.275680 0.334952 0.120697
O O3 0.000000 0.192659 0.160845
O O4 0.269965 0.000000 0.141147
O O5 0.721767 0.500000 0.402609
O O6 0.716968 0.746355 0.332242
O O7 0.000000 0.678514 0.385090
O O8 0.754602 0.832417 0.434561
O O9 0.500000 0.756776 0.774488
O O10 0.728396 0.000000 0.768604
O O11 0.000000 0.500000 0.088057
O O12 0.715726 0.500000 0.027593
O O13 0.500000 0.000000 0.473949
#
# Coordination Sequence:
#
# PCOD9375859 Si02
#       5
#     8   8   8   4   4
#     4   9  15  23  40  66  95 127 158 200 262 314
#     4   9  19  35  55  80 107 136 175 224 269 310
#     4   8  13  24  44  71 102 125 151 205 269 315
#     4   9  18  31  41  61 103 139 168 205 250 310
#     4  11  23  35  51  75 109 153 184 209 252 314
#
# _framework density 21.416671000000001
#
# number of rings (size 3 to 8) (size 9 to 14) (size 15 to 20)
#    0.000    3.000    1.250    1.875    1.750    1.500 
#    0.000    2.500    0.000    0.000    0.000    3.500 
#    0.000    0.000    0.000    0.000    0.000    0.000 
#
# Total GULP energy -89263.876359 kJ/mol
# GULP energy per Si atom -5578.992272 kJ/mol
# Density = 2.136793 g / cm^3
# Si number density = 21.416671 Si / 1000 Ang^3
#
#
#
# Elastic Constant Matrix: (Units=GPa)
#
#
# Indices 1 2 3 4 5 6 
#
# 1 57.0164 8.1532 5.2699 0.0000 0.0000 0.0000
# 2 8.1532 163.9539 144.5108 0.0000 0.0000 0.0000
# 3 5.2699 144.5108 202.5526 0.0000 0.0000 0.0000
# 4 0.0000 0.0000 0.0000 18.3597 0.0000 0.0000
# 5 0.0000 0.0000 0.0000 0.0000 11.6920 0.0000
# 6 0.0000 0.0000 0.0000 0.0000 0.0000 -41.2039
#
#
#
# Elastic Compliance Matrix: (Units=1/GPa)
#
#
# Indices 1 2 3 4 5 6 
#
# 1 0.017680 -0.001276 0.000451 0.000000 0.000000 0.000000
# 2 -0.001276 0.016525 -0.011757 0.000000 0.000000 0.000000
# 3 0.000451 -0.011757 0.013313 0.000000 0.000000 0.000000
# 4 0.000000 0.000000 0.000000 0.054467 0.000000 0.000000
# 5 0.000000 0.000000 0.000000 0.000000 0.085529 0.000000
# 6 0.000000 0.000000 0.000000 0.000000 0.000000 -0.024270
#
#
# Mechanical properties :
#
#
# Convention : Reuss Voigt Hill
#
# Bulk Modulus (GPa) = 44.73650 82.15452 63.44551
# Shear Modulus (GPa) = 25.52839 15.47548 20.50194
#
# Velocity S-wave (km/s) = 3.45626 2.69102 3.09736
# Velocity P-wave (km/s) = 6.07138 6.93533 6.51769
#
# Compressibility (1/GPa) = 0.02235311
#
# Stress axis : x y z
#
# Youngs Moduli (GPa) = 56.56207 60.51354 75.11426
#
# Poissons Ratio (x) = 0.07724 -0.03385
# Poissons Ratio (y) = 0.07220 0.88309
# Poissons Ratio (z) = -0.02549 0.71144
#
# Static dielectric constant tensor:
#      x y z
#    x 1.872720 0.000000 0.000000 
#    y 0.000000 1.688710 0.000000 
#    z 0.000000 0.000000 1.777370 
# 
# From -- ./inp_files/23515.got.cif
#   From: 2010.05.17/outbox.cif.g08.bks.cpg/sg44_12_cif.got.tgz:23515.got - 2010.06.03 19:37:08.
