data_PCOD9375483
_publ_section_title
;
Structure prediction by ZEFSAII (Michael W. Deem and Ramdas Pophale) SiO2 
 PCOD9375483
Probable space group: I M M 2
;
_chemical_formula_sum "Si O2"
_cell_formula_units_Z 64
_cell_length_a 22.783415
_cell_length_b 7.676065
_cell_length_c 16.003292
_cell_angle_alpha 90.000000
_cell_angle_beta 90.000000
_cell_angle_gamma 90.000000
_cell_volume 2798.767319
_symmetry_space_group_name_H-M "I M M 2"
_symmetry_group_IT_number 44
_symmetry_cell_setting 'orthorhombic'
loop_
_space_group_symop_operation_xyz
x,y,z
-x,-y,z
-x,y,z
x,-y,z
1/2+x,1/2+y,1/2+z
1/2-x,1/2-y,1/2+z
1/2-x,1/2+y,1/2+z
1/2+x,1/2-y,1/2+z
loop_
_atom_site_type_symbol
_atom_site_label
_atom_site_fract_x
_atom_site_fract_y
_atom_site_fract_z
Si Si1 0.567870 0.288922 0.420570
Si Si2 0.315656 0.211127 0.839329
Si Si3 0.928782 0.200363 0.100687
Si Si4 0.935334 0.702257 0.285804
Si Si5 0.307814 0.708426 0.020642
Si Si6 0.879343 0.703449 0.743297
Si Si7 0.754490 0.802116 0.683615
Si Si8 0.435827 0.707550 0.075278
O O1 0.500000 0.231859 0.412125
O O2 0.567900 0.500000 0.424525
O O3 0.591817 0.228175 0.511132
O O4 0.601457 0.233497 0.337993
O O5 0.382465 0.279272 0.838493
O O6 0.284427 0.280009 0.756209
O O7 0.315972 0.000000 0.834641
O O8 0.287366 0.257456 0.927191
O O9 0.916493 0.291674 0.188220
O O10 0.000000 0.200694 0.093630
O O11 0.909639 0.000000 0.109558
O O12 0.940100 0.500000 0.308927
O O13 0.000000 0.782866 0.293731
O O14 0.310630 0.500000 0.033607
O O15 0.264572 0.779039 0.092463
O O16 0.374805 0.776253 0.035134
O O17 0.867776 0.500000 0.730309
O O18 0.820115 0.804721 0.721289
O O19 0.927198 0.761040 0.674639
O O20 0.732669 0.000000 0.671610
O O21 0.500000 0.777072 0.048387
O O22 0.436754 0.500000 0.060703
#
# Coordination Sequence:
#
# PCOD9375483 Si02
#       8
#     8   8   8   8   8   8   8   8
#     4   9  17  30  48  70 103 147 187 222 269 332
#     4  10  21  38  60  83 109 146 185 222 274 338
#     4   8  15  29  48  70  99 137 179 219 257 305
#     4   9  18  33  53  79 112 144 172 210 269 335
#     4   9  19  36  58  82 109 142 183 234 278 317
#     4  11  21  31  48  77 108 138 181 239 286 322
#     4   9  20  41  60  73 103 150 189 225 274 334
#     4   9  18  34  55  78 110 153 189 216 265 336
#
# _framework density 22.86721
#
# number of rings (size 3 to 8) (size 9 to 14) (size 15 to 20)
#    0.000    2.750    0.000    3.000    0.000    6.000 
#    2.250    1.250    0.000    0.000    0.000    0.000 
#    0.000    0.000    0.000    0.000    0.000    0.000 
#
# Total GULP energy -178499.712055 kJ/mol
# GULP energy per Si atom -5578.116002 kJ/mol
# Density = 2.281516 g / cm^3
# Si number density = 22.867210 Si / 1000 Ang^3
#
#
#
# Elastic Constant Matrix: (Units=GPa)
#
#
# Indices 1 2 3 4 5 6 
#
# 1 47.0740 2.0985 42.0612 0.0000 0.0000 0.0000
# 2 2.0985 50.3055 -8.4038 0.0000 0.0000 0.0000
# 3 42.0612 -8.4038 130.4149 0.0000 0.0000 0.0000
# 4 0.0000 0.0000 0.0000 16.8047 0.0000 0.0000
# 5 0.0000 0.0000 0.0000 0.0000 21.0352 0.0000
# 6 0.0000 0.0000 0.0000 0.0000 0.0000 -4.5042
#
#
#
# Elastic Compliance Matrix: (Units=1/GPa)
#
#
# Indices 1 2 3 4 5 6 
#
# 1 0.030263 -0.002924 -0.009949 0.000000 0.000000 0.000000
# 2 -0.002924 0.020377 0.002256 0.000000 0.000000 0.000000
# 3 -0.009949 0.002256 0.011022 0.000000 0.000000 0.000000
# 4 0.000000 0.000000 0.000000 0.059507 0.000000 0.000000
# 5 0.000000 0.000000 0.000000 0.000000 0.047539 0.000000
# 6 0.000000 0.000000 0.000000 0.000000 0.000000 -0.222015
#
#
# Mechanical properties :
#
#
# Convention : Reuss Voigt Hill
#
# Bulk Modulus (GPa) = 24.73512 33.25626 28.99569
# Shear Modulus (GPa) = -268.87274 19.46970 -124.70152
#
# Velocity S-wave (km/s) = -10.85520 2.92108 -7.39265
# Velocity P-wave (km/s) = 12.09435 5.09429 7.75634
#
# Compressibility (1/GPa) = 0.04042834
#
# Stress axis : x y z
#
# Youngs Moduli (GPa) = 33.04381 49.07387 90.72849
#
# Poissons Ratio (x) = 0.14351 0.90264
# Poissons Ratio (y) = 0.09663 -0.20471
# Poissons Ratio (z) = 0.32875 -0.11072
#
# Static dielectric constant tensor:
#      x y z
#    x 1.888660 0.000000 0.000000 
#    y 0.000000 1.955530 0.000000 
#    z 0.000000 0.000000 1.865210 
# 
# From -- ./inp_files/19471.got.cif
#   From: 2010.05.17/outbox.cif.g08.bks.cpg/sg44_10_cif.got.tgz:19471.got - 2010.06.03 19:37:08.
