data_PCOD9375269
_publ_section_title
;
Structure prediction by ZEFSAII (Michael W. Deem and Ramdas Pophale) SiO2 
 PCOD9375269
Probable space group: I M M 2
;
_chemical_formula_sum "Si O2"
_cell_formula_units_Z 58
_cell_length_a 8.655462
_cell_length_b 14.956268
_cell_length_c 25.039489
_cell_angle_alpha 90.000000
_cell_angle_beta 90.000000
_cell_angle_gamma 90.000000
_cell_volume 3241.447219
_symmetry_space_group_name_H-M "I M M 2"
_symmetry_group_IT_number 44
_symmetry_cell_setting 'orthorhombic'
loop_
_space_group_symop_operation_xyz
x,y,z
-x,-y,z
-x,y,z
x,-y,z
1/2+x,1/2+y,1/2+z
1/2-x,1/2-y,1/2+z
1/2-x,1/2+y,1/2+z
1/2+x,1/2-y,1/2+z
loop_
_atom_site_type_symbol
_atom_site_label
_atom_site_fract_x
_atom_site_fract_y
_atom_site_fract_z
Si Si1 0.814911 0.733094 0.967180
Si Si2 0.316523 0.605237 0.289877
Si Si3 0.685089 0.233094 0.698833
Si Si4 0.500000 0.000000 0.583007
Si Si5 0.316108 0.895248 0.905798
Si Si6 0.328294 0.814421 0.583007
Si Si7 0.183892 0.395248 0.760216
Si Si8 0.816523 0.105237 0.376136
O O1 0.769882 0.831089 0.946862
O O2 0.744202 0.664219 0.924626
O O3 0.000000 0.720715 0.966931
O O4 0.754981 0.713120 0.026901
O O5 0.500000 0.617342 0.296219
O O6 0.285698 0.500000 0.279872
O O7 0.255797 0.664219 0.241387
O O8 0.234780 0.629520 0.345605
O O9 0.500000 0.220715 0.699083
O O10 0.745019 0.213120 0.639112
O O11 0.730118 0.331089 0.719152
O O12 0.367956 0.919850 0.583007
O O13 0.500000 0.883824 0.910771
O O14 0.278318 0.000000 0.913212
O O15 0.500000 0.769462 0.583007
O O16 0.221682 0.500000 0.752801
O O17 0.234779 0.370480 0.820408
O O18 0.000000 0.383824 0.755242
O O19 0.000000 0.117342 0.369793
O O20 0.785698 0.000000 0.386141
#
# Coordination Sequence:
#
# PCOD9375269 Si02
#       8
#     8   8   8   2   8   8   8   8
#     4  11  21  35  57  82 109 143 185 228 276 324
#     4  10  21  35  54  82 114 146 182 225 277 332
#     4  11  21  35  57  82 109 143 185 228 276 324
#     4   8  16  40  56  80 116 140 192 220 258 322
#     4  10  21  38  57  79 108 146 185 227 276 330
#     4   8  20  34  56  81 109 144 181 221 264 319
#     4  10  21  38  57  79 108 146 185 227 276 330
#     4  10  21  35  54  82 114 146 182 225 277 332
#
# _framework density 17.893242000000001
#
# number of rings (size 3 to 8) (size 9 to 14) (size 15 to 20)
#    0.414    1.655    0.000    3.310    1.931    3.310 
#    0.000    3.448    0.000    5.793    0.000    0.000 
#    0.000    0.000    0.000    0.000    0.000    0.000 
#
# Total GULP energy -161531.969465 kJ/mol
# GULP energy per Si atom -5570.067913 kJ/mol
# Density = 1.785252 g / cm^3
# Si number density = 17.893242 Si / 1000 Ang^3
#
#
#
# Elastic Constant Matrix: (Units=GPa)
#
#
# Indices 1 2 3 4 5 6 
#
# 1 23.1734 14.6043 8.1855 0.0000 0.0000 0.0000
# 2 14.6043 66.2002 59.1863 0.0000 0.0000 0.0000
# 3 8.1855 59.1863 124.8751 0.0000 0.0000 0.0000
# 4 0.0000 0.0000 0.0000 1.4689 0.0000 0.0000
# 5 0.0000 0.0000 0.0000 0.0000 16.9624 0.0000
# 6 0.0000 0.0000 0.0000 0.0000 0.0000 20.0995
#
#
#
# Elastic Compliance Matrix: (Units=1/GPa)
#
#
# Indices 1 2 3 4 5 6 
#
# 1 0.050964 -0.014328 0.003450 0.000000 0.000000 0.000000
# 2 -0.014328 0.030242 -0.013394 0.000000 0.000000 0.000000
# 3 0.003450 -0.013394 0.014130 0.000000 0.000000 0.000000
# 4 0.000000 0.000000 0.000000 0.680772 0.000000 0.000000
# 5 0.000000 0.000000 0.000000 0.000000 0.058954 0.000000
# 6 0.000000 0.000000 0.000000 0.000000 0.000000 0.049752
#
#
# Mechanical properties :
#
#
# Convention : Reuss Voigt Hill
#
# Bulk Modulus (GPa) = 21.37112 42.02233 31.69673
# Shear Modulus (GPa) = 5.26896 16.52435 10.89665
#
# Velocity S-wave (km/s) = 1.71786 3.04221 2.47043
# Velocity P-wave (km/s) = 3.98803 5.98966 5.08824
#
# Compressibility (1/GPa) = 0.04679212
#
# Stress axis : x y z
#
# Youngs Moduli (GPa) = 19.62179 33.06704 70.77025
#
# Poissons Ratio (x) = 0.47377 -0.24416
# Poissons Ratio (y) = 0.28113 0.94791
# Poissons Ratio (z) = -0.06770 0.44291
#
# Static dielectric constant tensor:
#      x y z
#    x 1.610680 0.000000 0.000000 
#    y 0.000000 1.609750 0.000000 
#    z 0.000000 0.000000 1.611440 
# 
# From -- ./inp_files/25030.got.cif
#   From: 2010.05.17/outbox.cif.g08.bks.cpg/sg44_13_cif.got.tgz:25030.got - 2010.06.03 19:37:08.
