data_PCOD9375732
_publ_section_title
;
Structure prediction by ZEFSAII (Michael W. Deem and Ramdas Pophale) SiO2 
 PCOD9375732
Probable space group: I M M 2
;
_chemical_formula_sum "Si O2"
_cell_formula_units_Z 48
_cell_length_a 23.260137
_cell_length_b 8.799430
_cell_length_c 11.740371
_cell_angle_alpha 90.000000
_cell_angle_beta 90.000000
_cell_angle_gamma 90.000000
_cell_volume 2402.971556
_symmetry_space_group_name_H-M "I M M 2"
_symmetry_group_IT_number 44
_symmetry_cell_setting 'orthorhombic'
loop_
_space_group_symop_operation_xyz
x,y,z
-x,-y,z
-x,y,z
x,-y,z
1/2+x,1/2+y,1/2+z
1/2-x,1/2-y,1/2+z
1/2-x,1/2+y,1/2+z
1/2+x,1/2-y,1/2+z
loop_
_atom_site_type_symbol
_atom_site_label
_atom_site_fract_x
_atom_site_fract_y
_atom_site_fract_z
Si Si1 0.066327 0.318401 0.680600
Si Si2 0.067459 0.829172 0.256633
Si Si3 0.855753 0.180933 0.863552
Si Si4 0.857689 0.824827 0.484075
Si Si5 0.264027 0.683139 0.804863
Si Si6 0.155437 0.676878 0.111853
O O1 0.067685 0.500000 0.689968
O O2 0.088978 0.244862 0.797362
O O3 0.111947 0.267223 0.584191
O O4 0.000000 0.272747 0.654501
O O5 0.097520 0.822897 0.379112
O O6 0.095483 0.703612 0.177102
O O7 0.000000 0.812291 0.267833
O O8 0.080065 0.000000 0.210302
O O9 0.798762 0.246267 0.803191
O O10 0.855958 0.000000 0.861133
O O11 0.850323 0.242652 0.991240
O O12 0.798746 0.772673 0.421485
O O13 0.849626 0.000000 0.521760
O O14 0.262449 0.500000 0.802899
O O15 0.299070 0.743969 0.696391
O O16 0.169265 0.500000 0.097562
#
# Coordination Sequence:
#
# PCOD9375732 Si02
#       6
#     8   8   8   8   8   8
#     4  11  25  43  63  91 129 171 215 264 318 378
#     4   9  18  35  60  89 122 161 205 253 305 360
#     4  12  26  43  65  90 121 165 211 260 317 378
#     4   9  19  37  63  93 125 162 205 255 310 370
#     4  10  22  42  66  93 126 161 206 260 314 377
#     4  11  23  40  61  89 124 159 202 253 310 375
#
# _framework density 19.975269000000001
#
# number of rings (size 3 to 8) (size 9 to 14) (size 15 to 20)
#    0.000    1.667    0.000    5.500    2.333    6.333 
#    0.000    0.000    0.000    0.000    0.000    0.000 
#    0.000    0.000    0.000    0.000    0.000    0.000 
#
# Total GULP energy -134092.358864 kJ/mol
# GULP energy per Si atom -5587.181619 kJ/mol
# Density = 1.992980 g / cm^3
# Si number density = 19.975269 Si / 1000 Ang^3
#
#
#
# Elastic Constant Matrix: (Units=GPa)
#
#
# Indices 1 2 3 4 5 6 
#
# 1 64.5794 28.7641 15.8274 0.0000 0.0000 0.0000
# 2 28.7641 95.0660 29.2903 0.0000 0.0000 0.0000
# 3 15.8274 29.2903 69.8504 0.0000 0.0000 0.0000
# 4 0.0000 0.0000 0.0000 34.2377 0.0000 0.0000
# 5 0.0000 0.0000 0.0000 0.0000 13.4594 0.0000
# 6 0.0000 0.0000 0.0000 0.0000 0.0000 21.0469
#
#
#
# Elastic Compliance Matrix: (Units=1/GPa)
#
#
# Indices 1 2 3 4 5 6 
#
# 1 0.018156 -0.004853 -0.002079 0.000000 0.000000 0.000000
# 2 -0.004853 0.013377 -0.004510 0.000000 0.000000 0.000000
# 3 -0.002079 -0.004510 0.016678 0.000000 0.000000 0.000000
# 4 0.000000 0.000000 0.000000 0.029208 0.000000 0.000000
# 5 0.000000 0.000000 0.000000 0.000000 0.074298 0.000000
# 6 0.000000 0.000000 0.000000 0.000000 0.000000 0.047513
#
#
# Mechanical properties :
#
#
# Convention : Reuss Voigt Hill
#
# Bulk Modulus (GPa) = 39.48198 41.91773 40.69986
# Shear Modulus (GPa) = 21.68679 24.12304 22.90491
#
# Velocity S-wave (km/s) = 3.29854 3.47889 3.38992
# Velocity P-wave (km/s) = 5.85795 6.09650 5.97841
#
# Compressibility (1/GPa) = 0.02532801
#
# Stress axis : x y z
#
# Youngs Moduli (GPa) = 55.07865 74.75628 59.95770
#
# Poissons Ratio (x) = 0.36278 0.12465
# Poissons Ratio (y) = 0.26729 0.27039
# Poissons Ratio (z) = 0.11451 0.33713
#
# Static dielectric constant tensor:
#      x y z
#    x 1.717980 0.000000 0.000000 
#    y 0.000000 1.683640 0.000000 
#    z 0.000000 0.000000 1.713450 
# 
# From -- ./inp_files/14583.got.cif
#   From: 2010.05.17/outbox.cif.g08.bks.cpg/sg44_8_cif.got.tgz:14583.got - 2010.06.03 19:37:08.
