data_PCOD9375395
_publ_section_title
;
Structure prediction by ZEFSAII (Michael W. Deem and Ramdas Pophale) SiO2 
 PCOD9375395
Probable space group: I M M 2
;
_chemical_formula_sum "Si O2"
_cell_formula_units_Z 48
_cell_length_a 31.558879
_cell_length_b 8.455414
_cell_length_c 9.392970
_cell_angle_alpha 90.000000
_cell_angle_beta 90.000000
_cell_angle_gamma 90.000000
_cell_volume 2506.451932
_symmetry_space_group_name_H-M "I M M 2"
_symmetry_group_IT_number 44
_symmetry_cell_setting 'orthorhombic'
loop_
_space_group_symop_operation_xyz
x,y,z
-x,-y,z
-x,y,z
x,-y,z
1/2+x,1/2+y,1/2+z
1/2-x,1/2-y,1/2+z
1/2-x,1/2+y,1/2+z
1/2+x,1/2-y,1/2+z
loop_
_atom_site_type_symbol
_atom_site_label
_atom_site_fract_x
_atom_site_fract_y
_atom_site_fract_z
Si Si1 0.548145 0.308696 0.823960
Si Si2 0.451479 0.189331 0.504844
Si Si3 0.707925 0.810869 0.509043
Si Si4 0.127801 0.193046 0.508535
Si Si5 0.789897 0.808876 0.331129
Si Si6 0.872195 0.189077 0.834839
O O1 0.500000 0.261444 0.862559
O O2 0.549236 0.500000 0.816789
O O3 0.557429 0.243650 0.666570
O O4 0.584026 0.256466 0.934330
O O5 0.500000 0.237302 0.472156
O O6 0.417275 0.263650 0.400328
O O7 0.448813 0.000000 0.497814
O O8 0.748222 0.754782 0.416416
O O9 0.710128 0.747567 0.669210
O O10 0.665020 0.758638 0.431650
O O11 0.709382 0.000000 0.514539
O O12 0.167895 0.243983 0.414445
O O13 0.131510 0.245224 0.671696
O O14 0.127779 0.000000 0.509640
O O15 0.789981 0.000000 0.330855
O O16 0.868242 0.000000 0.836267
#
# Coordination Sequence:
#
# PCOD9375395 Si02
#       6
#     8   8   8   8   8   8
#     4   9  17  32  56  83 109 142 187 234 279 330
#     4  10  21  37  56  81 114 148 185 231 280 331
#     4  11  23  38  58  85 115 146 186 233 279 330
#     4   9  19  35  55  80 109 143 186 233 275 323
#     4  10  21  38  59  82 111 148 188 230 278 331
#     4  11  22  37  58  82 112 149 188 229 277 334
#
# _framework density 19.150576999999998
#
# number of rings (size 3 to 8) (size 9 to 14) (size 15 to 20)
#    0.000    2.000    0.000    3.500    0.000    5.667 
#    0.000    5.000    0.000    2.000    0.000    0.000 
#    0.000    0.000    0.000    0.000    0.000    0.000 
#
# Total GULP energy -134084.375191 kJ/mol
# GULP energy per Si atom -5586.848966 kJ/mol
# Density = 1.910699 g / cm^3
# Si number density = 19.150577 Si / 1000 Ang^3
#
#
#
# Elastic Constant Matrix: (Units=GPa)
#
#
# Indices 1 2 3 4 5 6 
#
# 1 133.6539 17.9074 109.3061 0.0000 0.0000 0.0000
# 2 17.9074 15.6711 20.7386 0.0000 0.0000 0.0000
# 3 109.3061 20.7386 184.3783 0.0000 0.0000 0.0000
# 4 0.0000 0.0000 0.0000 18.9975 0.0000 0.0000
# 5 0.0000 0.0000 0.0000 0.0000 42.9277 0.0000
# 6 0.0000 0.0000 0.0000 0.0000 0.0000 7.3065
#
#
#
# Elastic Compliance Matrix: (Units=1/GPa)
#
#
# Indices 1 2 3 4 5 6 
#
# 1 0.015040 -0.006329 -0.008204 0.000000 0.000000 0.000000
# 2 -0.006329 0.077634 -0.004980 0.000000 0.000000 0.000000
# 3 -0.008204 -0.004980 0.010848 0.000000 0.000000 0.000000
# 4 0.000000 0.000000 0.000000 0.052638 0.000000 0.000000
# 5 0.000000 0.000000 0.000000 0.000000 0.023295 0.000000
# 6 0.000000 0.000000 0.000000 0.000000 0.000000 0.136865
#
#
# Mechanical properties :
#
#
# Convention : Reuss Voigt Hill
#
# Bulk Modulus (GPa) = 15.50508 69.95638 42.73073
# Shear Modulus (GPa) = 13.26809 26.22977 19.74893
#
# Velocity S-wave (km/s) = 2.63502 3.70491 3.21478
# Velocity P-wave (km/s) = 4.16794 7.41018 6.01176
#
# Compressibility (1/GPa) = 0.06449501
#
# Stress axis : x y z
#
# Youngs Moduli (GPa) = 66.49143 12.88094 92.18693
#
# Poissons Ratio (x) = 0.08152 0.75632
# Poissons Ratio (y) = 0.42080 0.45912
# Poissons Ratio (z) = 0.54551 0.06415
#
# Static dielectric constant tensor:
#      x y z
#    x 1.658540 0.000000 0.000000 
#    y 0.000000 1.653110 0.000000 
#    z 0.000000 0.000000 1.626450 
# 
# From -- ./inp_files/4876.got.cif
#   From: 2010.05.17/outbox.cif.g08.bks.cpg/sg44_3_cif.got.tgz:4876.got - 2010.06.03 19:37:08.
