data_PCOD9375381
_publ_section_title
;
Structure prediction by ZEFSAII (Michael W. Deem and Ramdas Pophale) SiO2 
 PCOD9375381
Probable space group: I M M 2
;
_chemical_formula_sum "Si O2"
_cell_formula_units_Z 58
_cell_length_a 11.659461
_cell_length_b 15.066305
_cell_length_c 16.404618
_cell_angle_alpha 90.000000
_cell_angle_beta 90.000000
_cell_angle_gamma 90.000000
_cell_volume 2881.717148
_symmetry_space_group_name_H-M "I M M 2"
_symmetry_group_IT_number 44
_symmetry_cell_setting 'orthorhombic'
loop_
_space_group_symop_operation_xyz
x,y,z
-x,-y,z
-x,y,z
x,-y,z
1/2+x,1/2+y,1/2+z
1/2-x,1/2-y,1/2+z
1/2-x,1/2+y,1/2+z
1/2+x,1/2-y,1/2+z
loop_
_atom_site_type_symbol
_atom_site_label
_atom_site_fract_x
_atom_site_fract_y
_atom_site_fract_z
Si Si1 0.635014 0.400370 0.578670
Si Si2 0.374325 0.812652 0.294892
Si Si3 0.239947 0.230720 0.651530
Si Si4 0.670692 0.357238 0.389312
Si Si5 0.365549 0.103502 0.777670
Si Si6 0.500000 0.500000 0.323016
Si Si7 0.133149 0.100803 0.524499
Si Si8 0.627673 0.395289 0.829669
O O1 0.500000 0.397088 0.597404
O O2 0.676660 0.500000 0.599398
O O3 0.698389 0.320157 0.622305
O O4 0.648258 0.386443 0.481327
O O5 0.500000 0.858113 0.298727
O O6 0.364522 0.758282 0.210459
O O7 0.367139 0.742322 0.368990
O O8 0.250800 0.861898 0.297486
O O9 0.319156 0.168288 0.707685
O O10 0.201358 0.173614 0.574321
O O11 0.800903 0.369126 0.360572
O O12 0.598677 0.422681 0.331624
O O13 0.500000 0.114057 0.786898
O O14 0.341754 0.000000 0.759053
O O15 0.134662 0.116099 0.427563
O O16 0.000000 0.103412 0.550381
O O17 0.175452 0.000000 0.539793
O O18 0.500000 0.358746 0.803987
O O19 0.623048 0.500000 0.812322
#
# Coordination Sequence:
#
# PCOD9375381 Si02
#       8
#     8   8   8   8   8   2   8   8
#     4  11  21  38  59  82 109 147 198 246 282 329
#     4  11  23  37  56  88 121 152 190 236 285 343
#     4  11  23  35  54  83 119 156 189 227 286 345
#     4  11  20  36  63  87 112 143 190 242 292 336
#     4  10  21  37  55  82 118 153 186 229 288 353
#     4  12  16  36  62  92 106 140 184 248 288 344
#     4   9  18  37  62  89 113 142 185 237 288 344
#     4   9  20  40  66  87 111 147 197 245 287 336
#
# _framework density 20.126888999999998
#
# number of rings (size 3 to 8) (size 9 to 14) (size 15 to 20)
#    0.000    1.655    2.759    2.897    0.000    3.586 
#    0.000    3.448    0.000    4.552    0.000    0.000 
#    0.000    0.000    0.000    0.000    0.000    0.000 
#
# Total GULP energy -161561.834852 kJ/mol
# GULP energy per Si atom -5571.097754 kJ/mol
# Density = 2.008108 g / cm^3
# Si number density = 20.126889 Si / 1000 Ang^3
#
#
#
# Elastic Constant Matrix: (Units=GPa)
#
#
# Indices 1 2 3 4 5 6 
#
# 1 149.6027 55.0202 30.9368 0.0000 0.0000 0.0000
# 2 55.0202 89.2657 37.9361 0.0000 0.0000 0.0000
# 3 30.9368 37.9361 52.0640 0.0000 0.0000 0.0000
# 4 0.0000 0.0000 0.0000 7.1711 0.0000 0.0000
# 5 0.0000 0.0000 0.0000 0.0000 -8.3779 0.0000
# 6 0.0000 0.0000 0.0000 0.0000 0.0000 15.0349
#
#
#
# Elastic Compliance Matrix: (Units=1/GPa)
#
#
# Indices 1 2 3 4 5 6 
#
# 1 0.008764 -0.004619 -0.001842 0.000000 0.000000 0.000000
# 2 -0.004619 0.018662 -0.010853 0.000000 0.000000 0.000000
# 3 -0.001842 -0.010853 0.028210 0.000000 0.000000 0.000000
# 4 0.000000 0.000000 0.000000 0.139448 0.000000 0.000000
# 5 0.000000 0.000000 0.000000 0.000000 -0.119362 0.000000
# 6 0.000000 0.000000 0.000000 0.000000 0.000000 0.066512
#
#
# Mechanical properties :
#
#
# Convention : Reuss Voigt Hill
#
# Bulk Modulus (GPa) = 47.60274 59.85763 53.73019
# Shear Modulus (GPa) = 27.19397 13.90159 20.54778
#
# Velocity S-wave (km/s) = 3.67975 2.63096 3.19864
# Velocity P-wave (km/s) = 6.46195 6.24772 6.35574
#
# Compressibility (1/GPa) = 0.02100719
#
# Stress axis : x y z
#
# Youngs Moduli (GPa) = 114.10240 53.58510 35.44871
#
# Poissons Ratio (x) = 0.24751 0.06530
# Poissons Ratio (y) = 0.52704 0.38473
# Poissons Ratio (z) = 0.21018 0.58157
#
# Static dielectric constant tensor:
#      x y z
#    x 1.761040 0.000000 0.000000 
#    y 0.000000 1.734660 0.000000 
#    z 0.000000 0.000000 1.721150 
# 
# From -- ./inp_files/21416.got.cif
#   From: 2010.05.17/outbox.cif.g08.bks.cpg/sg44_11_cif.got.tgz:21416.got - 2010.06.03 19:37:08.
