data_PCOD9375141
_publ_section_title
;
Structure prediction by ZEFSAII (Michael W. Deem and Ramdas Pophale) SiO2 
 PCOD9375141
Probable space group: I M M 2
;
_chemical_formula_sum "Si O2"
_cell_formula_units_Z 58
_cell_length_a 7.346808
_cell_length_b 27.434336
_cell_length_c 12.181173
_cell_angle_alpha 90.000000
_cell_angle_beta 90.000000
_cell_angle_gamma 90.000000
_cell_volume 2455.173878
_symmetry_space_group_name_H-M "I M M 2"
_symmetry_group_IT_number 44
_symmetry_cell_setting 'orthorhombic'
loop_
_space_group_symop_operation_xyz
x,y,z
-x,-y,z
-x,y,z
x,-y,z
1/2+x,1/2+y,1/2+z
1/2-x,1/2-y,1/2+z
1/2-x,1/2+y,1/2+z
1/2+x,1/2-y,1/2+z
loop_
_atom_site_type_symbol
_atom_site_label
_atom_site_fract_x
_atom_site_fract_y
_atom_site_fract_z
Si Si1 0.710597 0.217569 0.872500
Si Si2 0.276538 0.593189 0.959521
Si Si3 0.000000 0.500000 0.959872
Si Si4 0.797906 0.851457 0.678562
Si Si5 0.784502 0.448413 0.569724
Si Si6 0.715482 0.052871 0.805715
Si Si7 0.719033 0.680237 0.805804
Si Si8 0.788016 0.344213 0.570757
O O1 0.500000 0.223515 0.904322
O O2 0.713427 0.190170 0.755167
O O3 0.787830 0.271807 0.868438
O O4 0.792228 0.182323 0.965172
O O5 0.500000 0.585483 0.963166
O O6 0.228778 0.628359 0.857062
O O7 0.160522 0.543653 0.960101
O O8 0.224437 0.626862 0.065044
O O9 0.802247 0.899891 0.754289
O O10 0.000000 0.833556 0.653083
O O11 0.708109 0.500000 0.610195
O O12 0.767185 0.447594 0.437141
O O13 0.706452 0.396689 0.602766
O O14 0.000000 0.449855 0.597306
O O15 0.500000 0.055722 0.781100
O O16 0.780562 0.000000 0.764113
O O17 0.500000 0.681359 0.808735
O O18 0.777411 0.686558 0.680319
O O19 0.000000 0.354597 0.543425
#
# Coordination Sequence:
#
# PCOD9375141 Si02
#       8
#     8   8   2   8   8   8   8   8
#     4  10  22  41  66  94 130 181 232 286 356 419
#     4  10  26  48  69 105 148 181 242 303 362 431
#     4  12  26  48  84 106 130 208 238 300 370 444
#     4  11  23  37  59  93 136 178 220 288 349 412
#     4   8  14  29  51  82 118 155 196 257 319 368
#     4   9  17  30  54  81 117 163 210 260 320 399
#     4  10  24  46  66  92 137 181 220 291 359 413
#     4  10  20  37  64  94 126 165 223 282 330 411
#
# _framework density 23.623581999999999
#
# number of rings (size 3 to 8) (size 9 to 14) (size 15 to 20)
#    0.000    2.207    1.379    1.448    5.793    1.379 
#    1.241    0.000    0.000    0.000    0.000    0.000 
#    0.000    0.000    0.000    0.000    0.000    0.000 
#
# Total GULP energy -161543.485790 kJ/mol
# GULP energy per Si atom -5570.465027 kJ/mol
# Density = 2.356981 g / cm^3
# Si number density = 23.623582 Si / 1000 Ang^3
#
#
#
# Elastic Constant Matrix: (Units=GPa)
#
#
# Indices 1 2 3 4 5 6 
#
# 1 102.3387 19.1475 7.5101 0.0000 0.0000 -0.0001
# 2 19.1475 135.1898 53.3875 0.0000 0.0000 -0.0003
# 3 7.5101 53.3875 62.7424 -0.0001 0.0000 0.0001
# 4 0.0000 0.0000 -0.0001 12.0160 0.0000 0.0000
# 5 0.0000 0.0000 0.0000 0.0000 9.9579 -0.0001
# 6 -0.0001 -0.0003 0.0001 0.0000 -0.0001 82.5638
#
#
#
# Elastic Compliance Matrix: (Units=1/GPa)
#
#
# Indices 1 2 3 4 5 6 
#
# 1 0.010037 -0.001427 0.000012 0.000000 0.000000 0.000000
# 2 -0.001427 0.011343 -0.009481 0.000000 0.000000 0.000000
# 3 0.000012 -0.009481 0.024004 0.000000 0.000000 0.000000
# 4 0.000000 0.000000 0.000000 0.083222 0.000000 0.000000
# 5 0.000000 0.000000 0.000000 0.000000 0.100423 0.000000
# 6 0.000000 0.000000 0.000000 0.000000 0.000000 0.012112
#
#
# Mechanical properties :
#
#
# Convention : Reuss Voigt Hill
#
# Bulk Modulus (GPa) = 42.38324 51.15124 46.76724
# Shear Modulus (GPa) = 18.46398 35.58926 27.02662
#
# Velocity S-wave (km/s) = 2.79873 3.88559 3.38605
# Velocity P-wave (km/s) = 5.33140 6.46762 5.92680
#
# Compressibility (1/GPa) = 0.02359423
#
# Stress axis : x y z
#
# Youngs Moduli (GPa) = 99.62674 88.15806 41.65925
#
# Poissons Ratio (x) = 0.12576 -0.00052
# Poissons Ratio (y) = 0.14212 0.39498
# Poissons Ratio (z) = -0.00123 0.83585
#
# Static dielectric constant tensor:
#      x y z
#    x 1.882490 0.000000 0.000000 
#    y 0.000000 1.915630 0.000000 
#    z 0.000000 0.000000 1.894690 
# 
# From -- ./inp_files/11305.got.cif
#   From: 2010.05.17/outbox.cif.g08.bks.cpg/sg44_6_cif.got.tgz:11305.got - 2010.06.03 19:37:08.
