data_PCOD9375554
_publ_section_title
;
Structure prediction by ZEFSAII (Michael W. Deem and Ramdas Pophale) SiO2 
 PCOD9375554
Probable space group: I M M 2
;
_chemical_formula_sum "Si O2"
_cell_formula_units_Z 56
_cell_length_a 14.352262
_cell_length_b 15.607344
_cell_length_c 11.882430
_cell_angle_alpha 90.000000
_cell_angle_beta 90.000000
_cell_angle_gamma 90.000000
_cell_volume 2661.672521
_symmetry_space_group_name_H-M "I M M 2"
_symmetry_group_IT_number 44
_symmetry_cell_setting 'orthorhombic'
loop_
_space_group_symop_operation_xyz
x,y,z
-x,-y,z
-x,y,z
x,-y,z
1/2+x,1/2+y,1/2+z
1/2-x,1/2-y,1/2+z
1/2-x,1/2+y,1/2+z
1/2+x,1/2-y,1/2+z
loop_
_atom_site_type_symbol
_atom_site_label
_atom_site_fract_x
_atom_site_fract_y
_atom_site_fract_z
Si Si1 0.401977 0.102002 0.882490
Si Si2 0.888341 0.233042 0.850500
Si Si3 0.275145 0.898062 0.280736
Si Si4 0.754484 0.168447 0.037096
Si Si5 0.899278 0.603044 0.126734
Si Si6 0.689090 0.342312 0.126506
Si Si7 0.098664 0.099501 0.419542
O O1 0.500000 0.130176 0.937770
O O2 0.309339 0.121311 0.947736
O O3 0.400549 0.135759 0.755605
O O4 0.406050 0.000000 0.871518
O O5 0.855771 0.330324 0.816276
O O6 0.845323 0.203540 0.971238
O O7 0.841201 0.170937 0.755384
O O8 0.000000 0.226427 0.847603
O O9 0.188197 0.866074 0.355746
O O10 0.296596 0.000000 0.300458
O O11 0.239933 0.885961 0.151982
O O12 0.691617 0.247915 0.075617
O O13 0.902880 0.500000 0.122190
O O14 0.793154 0.624716 0.096109
O O15 0.000000 0.632234 0.075056
O O16 0.616885 0.394951 0.052329
O O17 0.000000 0.140776 0.390348
O O18 0.095535 0.000000 0.386931
#
# Coordination Sequence:
#
# PCOD9375554 Si02
#       7
#     8   8   8   8   8   8   8
#     4   9  18  35  61  90 116 146 190 246 308 372
#     4  11  24  42  62  93 131 167 209 265 330 388
#     4  10  23  44  66  91 124 171 220 265 318 384
#     4  11  22  38  60  90 125 165 202 258 319 375
#     4   9  18  34  60  90 118 150 193 247 307 367
#     4  11  21  38  60  87 123 162 202 253 315 378
#     4  10  21  39  62  87 117 160 211 256 305 375
#
# _framework density 21.039403
#
# number of rings (size 3 to 8) (size 9 to 14) (size 15 to 20)
#    0.000    1.857    2.857    2.143    0.000    4.286 
#    0.000    2.143    0.000    3.857    0.000    0.000 
#    0.000    0.000    0.000    0.000    0.000    0.000 
#
# Total GULP energy -155883.023919 kJ/mol
# GULP energy per Si atom -5567.250854 kJ/mol
# Density = 2.099152 g / cm^3
# Si number density = 21.039403 Si / 1000 Ang^3
#
#
#
# Elastic Constant Matrix: (Units=GPa)
#
#
# Indices 1 2 3 4 5 6 
#
# 1 144.3424 14.9903 22.3311 0.0000 0.0000 0.0000
# 2 14.9903 31.2487 -7.4173 0.0000 0.0000 0.0000
# 3 22.3311 -7.4173 53.1057 0.0000 0.0000 0.0000
# 4 0.0000 0.0000 0.0000 20.3220 0.0000 0.0000
# 5 0.0000 0.0000 0.0000 0.0000 28.4090 0.0000
# 6 0.0000 0.0000 0.0000 0.0000 0.0000 24.1852
#
#
#
# Elastic Compliance Matrix: (Units=1/GPa)
#
#
# Indices 1 2 3 4 5 6 
#
# 1 0.008058 -0.004830 -0.004063 0.000000 0.000000 0.000000
# 2 -0.004830 0.035994 0.007058 0.000000 0.000000 0.000000
# 3 -0.004063 0.007058 0.021525 0.000000 0.000000 0.000000
# 4 0.000000 0.000000 0.000000 0.049208 0.000000 0.000000
# 5 0.000000 0.000000 0.000000 0.000000 0.035200 0.000000
# 6 0.000000 0.000000 0.000000 0.000000 0.000000 0.041348
#
#
# Mechanical properties :
#
#
# Convention : Reuss Voigt Hill
#
# Bulk Modulus (GPa) = 16.15329 32.05613 24.10471
# Shear Modulus (GPa) = 23.18709 27.83610 25.51159
#
# Velocity S-wave (km/s) = 3.32336 3.64132 3.48596
# Velocity P-wave (km/s) = 4.73504 5.74005 5.26160
#
# Compressibility (1/GPa) = 0.06190690
#
# Stress axis : x y z
#
# Youngs Moduli (GPa) = 124.09752 27.78269 46.45812
#
# Poissons Ratio (x) = 0.13419 0.18876
# Poissons Ratio (y) = 0.59939 -0.32791
# Poissons Ratio (z) = 0.50422 -0.19610
#
# Static dielectric constant tensor:
#      x y z
#    x 1.829170 0.000000 0.000000 
#    y 0.000000 1.784550 0.000000 
#    z 0.000000 0.000000 1.818270 
# 
# From -- ./inp_files/13230.got.cif
#   From: 2010.05.17/outbox.cif.g08.bks.cpg/sg44_7_cif.got.tgz:13230.got - 2010.06.03 19:37:08.
