data_PCOD9375665
_publ_section_title
;
Structure prediction by ZEFSAII (Michael W. Deem and Ramdas Pophale) SiO2 
 PCOD9375665
Probable space group: I M M 2
;
_chemical_formula_sum "Si O2"
_cell_formula_units_Z 40
_cell_length_a 10.188128
_cell_length_b 14.051150
_cell_length_c 12.788266
_cell_angle_alpha 90.000000
_cell_angle_beta 90.000000
_cell_angle_gamma 90.000000
_cell_volume 1830.703129
_symmetry_space_group_name_H-M "I M M 2"
_symmetry_group_IT_number 44
_symmetry_cell_setting 'orthorhombic'
loop_
_space_group_symop_operation_xyz
x,y,z
-x,-y,z
-x,y,z
x,-y,z
1/2+x,1/2+y,1/2+z
1/2-x,1/2-y,1/2+z
1/2-x,1/2+y,1/2+z
1/2+x,1/2-y,1/2+z
loop_
_atom_site_type_symbol
_atom_site_label
_atom_site_fract_x
_atom_site_fract_y
_atom_site_fract_z
Si Si1 0.223363 0.109523 0.945830
Si Si2 0.347303 0.888017 0.170998
Si Si3 0.140973 0.387309 0.234033
Si Si4 0.146682 0.310788 0.893590
Si Si5 0.651110 0.614865 0.065466
O O1 0.337511 0.118022 0.858345
O O2 0.136213 0.198482 0.914065
O O3 0.173678 0.000000 0.937596
O O4 0.269807 0.126982 0.063900
O O5 0.500000 0.867907 0.149742
O O6 0.309674 0.832882 0.275538
O O7 0.335295 0.000000 0.196040
O O8 0.134200 0.500000 0.210201
O O9 0.267328 0.354475 0.168564
O O10 0.000000 0.343714 0.203776
O O11 0.000000 0.353518 0.909021
O O12 0.257454 0.351120 0.970527
O O13 0.500000 0.649296 0.063270
O O14 0.644880 0.500000 0.063634
#
# Coordination Sequence:
#
# PCOD9375665 Si02
#       5
#     8   8   8   8   8
#     4  10  22  39  61  94 134 175 218 266 324 387
#     4   9  19  39  66  93 124 166 216 269 325 389
#     4   9  18  35  61  91 124 165 213 262 314 379
#     4  11  24  40  64  96 128 170 222 271 327 391
#     4  10  22  40  63  94 132 171 212 268 335 394
#
# _framework density 21.849530000000001
#
# number of rings (size 3 to 8) (size 9 to 14) (size 15 to 20)
#    0.000    2.200    0.000    1.800    2.800    7.200 
#    0.000    3.000    0.000    1.200    0.000    0.000 
#    0.000    0.000    0.000    0.000    0.000    0.000 
#
# Total GULP energy -111597.712975 kJ/mol
# GULP energy per Si atom -5579.885649 kJ/mol
# Density = 2.179980 g / cm^3
# Si number density = 21.849530 Si / 1000 Ang^3
#
#
#
# Elastic Constant Matrix: (Units=GPa)
#
#
# Indices 1 2 3 4 5 6 
#
# 1 146.6794 29.7761 74.3870 0.0000 0.0000 0.0000
# 2 29.7761 81.5960 63.1504 0.0000 0.0000 0.0000
# 3 74.3870 63.1504 164.4398 0.0000 0.0000 0.0000
# 4 0.0000 0.0000 0.0000 36.4232 0.0000 0.0000
# 5 0.0000 0.0000 0.0000 0.0000 -10.0089 0.0000
# 6 0.0000 0.0000 0.0000 0.0000 0.0000 0.9461
#
#
#
# Elastic Compliance Matrix: (Units=1/GPa)
#
#
# Indices 1 2 3 4 5 6 
#
# 1 0.008849 -0.000187 -0.003931 0.000000 0.000000 0.000000
# 2 -0.000187 0.017443 -0.006614 0.000000 0.000000 0.000000
# 3 -0.003931 -0.006614 0.010400 0.000000 0.000000 0.000000
# 4 0.000000 0.000000 0.000000 0.027455 0.000000 0.000000
# 5 0.000000 0.000000 0.000000 0.000000 -0.099911 0.000000
# 6 0.000000 0.000000 0.000000 0.000000 0.000000 1.056949
#
#
# Mechanical properties :
#
#
# Convention : Reuss Voigt Hill
#
# Bulk Modulus (GPa) = 65.67174 80.81580 73.24377
# Shear Modulus (GPa) = 4.77225 20.49885 12.63555
#
# Velocity S-wave (km/s) = 1.47949 3.06630 2.40739
# Velocity P-wave (km/s) = 5.74805 7.04301 6.42822
#
# Compressibility (1/GPa) = 0.01522725
#
# Stress axis : x y z
#
# Youngs Moduli (GPa) = 113.00369 57.33121 96.15607
#
# Poissons Ratio (x) = 0.01070 0.37803
# Poissons Ratio (y) = 0.02108 0.63599
# Poissons Ratio (z) = 0.44427 0.37920
#
# Static dielectric constant tensor:
#      x y z
#    x 1.805280 0.000000 0.000000 
#    y 0.000000 1.838490 0.000000 
#    z 0.000000 0.000000 1.773970 
# 
# From -- ./inp_files/12053.got.cif
#   From: 2010.05.17/outbox.cif.g08.bks.cpg/sg44_7_cif.got.tgz:12053.got - 2010.06.03 19:37:08.
