data_PCOD9375228
_publ_section_title
;
Structure prediction by ZEFSAII (Michael W. Deem and Ramdas Pophale) SiO2 
 PCOD9375228
Probable space group: I M M 2
;
_chemical_formula_sum "Si O2"
_cell_formula_units_Z 40
_cell_length_a 28.628842
_cell_length_b 13.010355
_cell_length_c 5.151496
_cell_angle_alpha 90.000000
_cell_angle_beta 90.000000
_cell_angle_gamma 90.000000
_cell_volume 1918.784915
_symmetry_space_group_name_H-M "I M M 2"
_symmetry_group_IT_number 44
_symmetry_cell_setting 'orthorhombic'
loop_
_space_group_symop_operation_xyz
x,y,z
-x,-y,z
-x,y,z
x,-y,z
1/2+x,1/2+y,1/2+z
1/2-x,1/2-y,1/2+z
1/2-x,1/2+y,1/2+z
1/2+x,1/2-y,1/2+z
loop_
_atom_site_type_symbol
_atom_site_label
_atom_site_fract_x
_atom_site_fract_y
_atom_site_fract_z
Si Si1 0.351202 0.616122 0.554960
Si Si2 0.555126 0.879908 0.794965
Si Si3 0.601973 0.785819 0.289362
Si Si4 0.740158 0.390477 0.188805
Si Si5 0.814485 0.719090 0.449954
O O1 0.361958 0.500000 0.640989
O O2 0.390372 0.666407 0.368239
O O3 0.301958 0.611140 0.399286
O O4 0.344769 0.701264 0.778637
O O5 0.500000 0.868761 0.744211
O O6 0.583247 0.845545 0.539723
O O7 0.564666 0.000000 0.852227
O O8 0.569750 0.813189 0.044763
O O9 0.654127 0.815354 0.191006
O O10 0.736257 0.500000 0.048017
O O11 0.791188 0.375813 0.306773
O O12 0.729302 0.291504 0.019216
#
# Coordination Sequence:
#
# PCOD9375228 Si02
#       5
#     8   8   8   8   8
#     4  10  21  40  64  89 125 177 224 265 318 381
#     4  11  24  45  72  99 130 167 205 255 333 414
#     4  11  23  42  65 100 130 167 214 271 315 388
#     4  10  21  34  55  85 123 174 222 268 318 366
#     4  11  20  38  59  90 134 172 224 272 317 371
#
# _framework density 20.846523999999999
#
# number of rings (size 3 to 8) (size 9 to 14) (size 15 to 20)
#    0.000    1.400    4.000    1.800    0.000    4.000 
#    0.000    0.000    0.000    3.600    0.000    0.000 
#    0.000    0.000    0.000    0.000    0.000    0.000 
#
# Total GULP energy -111577.617339 kJ/mol
# GULP energy per Si atom -5578.880867 kJ/mol
# Density = 2.079908 g / cm^3
# Si number density = 20.846524 Si / 1000 Ang^3
#
#
#
# Elastic Constant Matrix: (Units=GPa)
#
#
# Indices 1 2 3 4 5 6 
#
# 1 73.6682 56.9935 30.9283 0.0000 0.0000 0.0000
# 2 56.9935 98.9611 42.6024 -0.0001 0.0000 0.0000
# 3 30.9283 42.6024 99.7679 0.0000 -0.0001 0.0000
# 4 0.0000 -0.0001 0.0000 16.1749 -0.0001 0.0000
# 5 0.0000 0.0000 -0.0001 -0.0001 39.6852 0.0000
# 6 0.0000 0.0000 0.0000 0.0000 0.0000 14.8087
#
#
#
# Elastic Compliance Matrix: (Units=1/GPa)
#
#
# Indices 1 2 3 4 5 6 
#
# 1 0.024788 -0.013438 -0.001946 0.000000 0.000000 0.000000
# 2 -0.013438 0.019666 -0.004232 0.000000 0.000000 0.000000
# 3 -0.001946 -0.004232 0.012434 0.000000 0.000000 0.000000
# 4 0.000000 0.000000 0.000000 0.061824 0.000000 0.000000
# 5 0.000000 0.000000 0.000000 0.000000 0.025198 0.000000
# 6 0.000000 0.000000 0.000000 0.000000 0.000000 0.067528
#
#
# Mechanical properties :
#
#
# Convention : Reuss Voigt Hill
#
# Bulk Modulus (GPa) = 56.63936 59.27173 57.95554
# Shear Modulus (GPa) = 19.48903 23.59195 21.54049
#
# Velocity S-wave (km/s) = 3.06090 3.36772 3.21797
# Velocity P-wave (km/s) = 6.30245 6.60426 6.45512
#
# Compressibility (1/GPa) = 0.01765557
#
# Stress axis : x y z
#
# Youngs Moduli (GPa) = 40.34272 50.84937 80.42710
#
# Poissons Ratio (x) = 0.68331 0.15651
# Poissons Ratio (y) = 0.54212 0.34036
# Poissons Ratio (z) = 0.07851 0.21519
#
# Static dielectric constant tensor:
#      x y z
#    x 1.742730 0.000000 0.000000 
#    y 0.000000 1.719390 0.000000 
#    z 0.000000 0.000000 1.827900 
# 
# From -- ./inp_files/1147.got.cif
#   From: 2010.05.17/outbox.cif.g08.bks.cpg/sg44_1_cif.got.tgz:1147.got - 2010.06.03 19:37:08.
