data_PCOD9375399
_publ_section_title
;
Structure prediction by ZEFSAII (Michael W. Deem and Ramdas Pophale) SiO2 
 PCOD9375399
Probable space group: I M M 2
;
_chemical_formula_sum "Si O2"
_cell_formula_units_Z 58
_cell_length_a 8.996365
_cell_length_b 20.365294
_cell_length_c 17.942419
_cell_angle_alpha 90.000000
_cell_angle_beta 90.000000
_cell_angle_gamma 90.000000
_cell_volume 3287.295503
_symmetry_space_group_name_H-M "I M M 2"
_symmetry_group_IT_number 44
_symmetry_cell_setting 'orthorhombic'
loop_
_space_group_symop_operation_xyz
x,y,z
-x,-y,z
-x,y,z
x,-y,z
1/2+x,1/2+y,1/2+z
1/2-x,1/2-y,1/2+z
1/2-x,1/2+y,1/2+z
1/2+x,1/2-y,1/2+z
loop_
_atom_site_type_symbol
_atom_site_label
_atom_site_fract_x
_atom_site_fract_y
_atom_site_fract_z
Si Si1 0.000000 0.500000 0.485891
Si Si2 0.322277 0.305009 0.632108
Si Si3 0.329595 0.578894 0.908873
Si Si4 0.823084 0.340338 0.785467
Si Si5 0.329008 0.078886 0.560321
Si Si6 0.322467 0.332432 0.174766
Si Si7 0.823212 0.805899 0.842867
Si Si8 0.336047 0.862419 0.988077
O O1 0.127594 0.559649 0.486230
O O2 0.500000 0.303169 0.632724
O O3 0.259154 0.339913 0.706372
O O4 0.256264 0.231544 0.639908
O O5 0.262302 0.340361 0.558147
O O6 0.500000 0.602238 0.906236
O O7 0.331505 0.500000 0.910370
O O8 0.238498 0.603388 0.838258
O O9 0.248235 0.601828 0.984033
O O10 0.793226 0.271346 0.828134
O O11 0.000000 0.344578 0.773533
O O12 0.500000 0.101254 0.563560
O O13 0.236320 0.106127 0.629070
O O14 0.328477 0.000000 0.560473
O O15 0.500000 0.324396 0.169134
O O16 0.285848 0.337477 0.262487
O O17 0.000000 0.813063 0.855818
O O18 0.735517 0.836932 0.911359
O O19 0.500000 0.830665 0.997107
#
# Coordination Sequence:
#
# PCOD9375399 Si02
#       8
#     2   8   8   8   8   8   8   8
#     4   8  24  44  62  88 120 152 214 248 288 368
#     4  11  22  38  62  89 119 149 198 250 303 357
#     4  10  21  37  56  82 118 157 199 241 289 351
#     4  10  21  38  59  88 121 154 193 248 299 361
#     4  10  21  37  56  82 118 159 200 240 289 351
#     4  10  21  38  59  88 121 156 195 249 300 357
#     4   9  20  38  60  87 118 148 195 246 300 352
#     4  10  21  41  63  85 115 156 195 245 295 355
#
# _framework density 17.643682999999999
#
# number of rings (size 3 to 8) (size 9 to 14) (size 15 to 20)
#    0.414    1.655    0.000    4.138    1.931    4.966 
#    2.483    1.379    0.000    0.000    0.000    0.000 
#    0.000    0.000    0.000    0.000    0.000    0.000 
#
# Total GULP energy -161488.391265 kJ/mol
# GULP energy per Si atom -5568.565216 kJ/mol
# Density = 1.760352 g / cm^3
# Si number density = 17.643683 Si / 1000 Ang^3
#
#
#
# Elastic Constant Matrix: (Units=GPa)
#
#
# Indices 1 2 3 4 5 6 
#
# 1 133.5509 41.0953 76.8959 0.0000 0.0000 0.0000
# 2 41.0953 28.1354 48.5530 0.0000 0.0000 0.0000
# 3 76.8959 48.5530 120.7596 0.0000 0.0000 0.0000
# 4 0.0000 0.0000 0.0000 17.9336 0.0000 0.0000
# 5 0.0000 0.0000 0.0000 0.0000 34.2661 0.0000
# 6 0.0000 0.0000 0.0000 0.0000 0.0000 32.1972
#
#
#
# Elastic Compliance Matrix: (Units=1/GPa)
#
#
# Indices 1 2 3 4 5 6 
#
# 1 0.013782 -0.016285 -0.002228 0.000000 0.000000 0.000000
# 2 -0.016285 0.135332 -0.044043 0.000000 0.000000 0.000000
# 3 -0.002228 -0.044043 0.027408 0.000000 0.000000 0.000000
# 4 0.000000 0.000000 0.000000 0.055761 0.000000 0.000000
# 5 0.000000 0.000000 0.000000 0.000000 0.029183 0.000000
# 6 0.000000 0.000000 0.000000 0.000000 0.000000 0.031059
#
#
# Mechanical properties :
#
#
# Convention : Reuss Voigt Hill
#
# Bulk Modulus (GPa) = 19.45123 68.39271 43.92197
# Shear Modulus (GPa) = 11.50025 24.60617 18.05321
#
# Velocity S-wave (km/s) = 2.55582 3.73851 3.20224
# Velocity P-wave (km/s) = 4.44500 7.58173 6.21453
#
# Compressibility (1/GPa) = 0.05141063
#
# Stress axis : x y z
#
# Youngs Moduli (GPa) = 72.55938 7.38922 36.48593
#
# Poissons Ratio (x) = 0.12033 0.08130
# Poissons Ratio (y) = 1.18160 1.60694
# Poissons Ratio (z) = 0.16169 0.32544
#
# Static dielectric constant tensor:
#      x y z
#    x 1.600750 0.000000 0.000000 
#    y 0.000000 1.603510 0.000000 
#    z 0.000000 0.000000 1.590600 
# 
# From -- ./inp_files/16737.got.cif
#   From: 2010.05.17/outbox.cif.g08.bks.cpg/sg44_9_cif.got.tgz:16737.got - 2010.06.03 19:37:08.
