data_PCOD9375224
_publ_section_title
;
Structure prediction by ZEFSAII (Michael W. Deem and Ramdas Pophale) SiO2 
 PCOD9375224
Probable space group: I M M 2
;
_chemical_formula_sum "Si O2"
_cell_formula_units_Z 48
_cell_length_a 18.551819
_cell_length_b 8.028726
_cell_length_c 18.289583
_cell_angle_alpha 90.000000
_cell_angle_beta 90.000000
_cell_angle_gamma 90.000000
_cell_volume 2724.187144
_symmetry_space_group_name_H-M "I M M 2"
_symmetry_group_IT_number 44
_symmetry_cell_setting 'orthorhombic'
loop_
_space_group_symop_operation_xyz
x,y,z
-x,-y,z
-x,y,z
x,-y,z
1/2+x,1/2+y,1/2+z
1/2-x,1/2-y,1/2+z
1/2-x,1/2+y,1/2+z
1/2+x,1/2-y,1/2+z
loop_
_atom_site_type_symbol
_atom_site_label
_atom_site_fract_x
_atom_site_fract_y
_atom_site_fract_z
Si Si1 0.581682 0.803783 0.998940
Si Si2 0.082393 0.000000 0.968513
Si Si3 0.684936 0.194539 0.458240
Si Si4 0.210419 0.802906 0.593407
Si Si5 0.674322 0.690167 0.861625
Si Si6 0.172835 0.309907 0.203006
Si Si7 0.417782 0.500000 0.644574
O O1 0.500000 0.742479 0.011171
O O2 0.618593 0.724255 0.927333
O O3 0.578677 0.000000 0.984897
O O4 0.636230 0.777525 0.066758
O O5 0.124239 0.167935 0.945783
O O6 0.082440 0.000000 0.056802
O O7 0.000000 0.000000 0.942930
O O8 0.727787 0.237420 0.533345
O O9 0.746680 0.207276 0.396884
O O10 0.661327 0.000000 0.462494
O O11 0.247348 0.767464 0.671178
O O12 0.197888 0.000000 0.587882
O O13 0.664741 0.500000 0.837039
O O14 0.667922 0.801971 0.790276
O O15 0.156728 0.500000 0.178091
O O16 0.120990 0.167759 0.171727
O O17 0.500000 0.500000 0.670922
#
# Coordination Sequence:
#
# PCOD9375224 Si02
#       7
#     8   4   8   8   8   8   4
#     4  10  21  34  53  83 114 148 183 225 283 334
#     4  11  22  34  58  84 106 149 185 220 285 328
#     4   9  19  35  54  81 110 138 185 238 269 317
#     4   9  19  34  55  79 105 143 187 231 272 319
#     4  10  21  35  56  82 109 148 190 224 277 329
#     4  11  22  37  57  84 112 148 190 228 273 325
#     4  11  24  38  54  82 116 151 183 220 275 332
#
# _framework density 17.619935999999999
#
# number of rings (size 3 to 8) (size 9 to 14) (size 15 to 20)
#    0.000    2.000    2.500    2.000    7.000    2.667 
#    0.000    1.667    0.000    1.000    0.000    0.000 
#    0.000    0.000    0.000    0.000    0.000    0.000 
#
# Total GULP energy -133794.771141 kJ/mol
# GULP energy per Si atom -5574.782131 kJ/mol
# Density = 1.757983 g / cm^3
# Si number density = 17.619936 Si / 1000 Ang^3
#
#
#
# Elastic Constant Matrix: (Units=GPa)
#
#
# Indices 1 2 3 4 5 6 
#
# 1 133.3064 66.9886 22.2220 0.0000 0.0000 0.0000
# 2 66.9886 96.9684 13.2906 0.0000 0.0000 0.0000
# 3 22.2220 13.2906 37.7099 0.0000 0.0000 0.0000
# 4 0.0000 0.0000 0.0000 21.4407 0.0000 0.0000
# 5 0.0000 0.0000 0.0000 0.0000 12.6807 0.0000
# 6 0.0000 0.0000 0.0000 0.0000 0.0000 10.9123
#
#
#
# Elastic Compliance Matrix: (Units=1/GPa)
#
#
# Indices 1 2 3 4 5 6 
#
# 1 0.012152 -0.007790 -0.004416 0.000000 0.000000 0.000000
# 2 -0.007790 0.015830 -0.000989 0.000000 0.000000 0.000000
# 3 -0.004416 -0.000989 0.029469 0.000000 0.000000 0.000000
# 4 0.000000 0.000000 0.000000 0.046640 0.000000 0.000000
# 5 0.000000 0.000000 0.000000 0.000000 0.078860 0.000000
# 6 0.000000 0.000000 0.000000 0.000000 0.000000 0.091640
#
#
# Mechanical properties :
#
#
# Convention : Reuss Voigt Hill
#
# Bulk Modulus (GPa) = 32.19331 52.55412 42.37371
# Shear Modulus (GPa) = 16.05999 20.03898 18.04949
#
# Velocity S-wave (km/s) = 3.02233 3.37603 3.20406
# Velocity P-wave (km/s) = 5.52177 6.71476 6.14727
#
# Compressibility (1/GPa) = 0.03106235
#
# Stress axis : x y z
#
# Youngs Moduli (GPa) = 82.29036 63.17298 33.93432
#
# Poissons Ratio (x) = 0.49211 0.14984
# Poissons Ratio (y) = 0.64103 0.03355
# Poissons Ratio (z) = 0.36336 0.06245
#
# Static dielectric constant tensor:
#      x y z
#    x 1.600480 0.000000 0.000000 
#    y 0.000000 1.612730 0.000000 
#    z 0.000000 0.000000 1.601540 
# 
# From -- ./inp_files/21732.got.cif
#   From: 2010.05.17/outbox.cif.g08.bks.cpg/sg44_11_cif.got.tgz:21732.got - 2010.06.03 19:37:08.
