data_PCOD9375029
_publ_section_title
;
Structure prediction by ZEFSAII (Michael W. Deem and Ramdas Pophale) SiO2 
 PCOD9375029
Probable space group: I M M 2
;
_chemical_formula_sum "Si O2"
_cell_formula_units_Z 48
_cell_length_a 17.348345
_cell_length_b 8.553067
_cell_length_c 17.337717
_cell_angle_alpha 90.000000
_cell_angle_beta 90.000000
_cell_angle_gamma 90.000000
_cell_volume 2572.597445
_symmetry_space_group_name_H-M "I M M 2"
_symmetry_group_IT_number 44
_symmetry_cell_setting 'orthorhombic'
loop_
_space_group_symop_operation_xyz
x,y,z
-x,-y,z
-x,y,z
x,-y,z
1/2+x,1/2+y,1/2+z
1/2-x,1/2-y,1/2+z
1/2-x,1/2+y,1/2+z
1/2+x,1/2-y,1/2+z
loop_
_atom_site_type_symbol
_atom_site_label
_atom_site_fract_x
_atom_site_fract_y
_atom_site_fract_z
Si Si1 0.910836 0.810891 0.408490
Si Si2 0.500000 0.809965 0.498046
Si Si3 0.814377 0.312336 0.264668
Si Si4 0.500000 0.313884 0.324379
Si Si5 0.850495 0.689698 0.092322
Si Si6 0.176833 0.810701 0.563678
Si Si7 0.853669 0.313780 0.731916
O O1 0.864295 0.746049 0.335911
O O2 0.870250 0.762312 0.488371
O O3 0.000000 0.761785 0.406627
O O4 0.908424 0.000000 0.405790
O O5 0.500000 0.751570 0.410959
O O6 0.576514 0.756112 0.543494
O O7 0.500000 0.000000 0.497396
O O8 0.810030 0.500000 0.265152
O O9 0.851021 0.263229 0.182218
O O10 0.727848 0.245681 0.265513
O O11 0.500000 0.500000 0.326132
O O12 0.575425 0.254702 0.279513
O O13 0.852421 0.500000 0.091118
O O14 0.766984 0.736152 0.059016
O O15 0.144077 0.742754 0.643166
O O16 0.174238 0.000000 0.569351
O O17 0.855902 0.500000 0.734948
#
# Coordination Sequence:
#
# PCOD9375029 Si02
#       7
#     8   4   8   4   8   8   8
#     4  10  22  37  57  88 124 164 204 246 300 356
#     4  10  20  36  60  89 116 155 202 243 288 357
#     4  10  21  39  62  89 119 160 202 247 302 357
#     4  12  26  42  60  89 124 157 194 247 302 359
#     4   8  17  34  58  84 114 152 197 242 294 352
#     4   9  19  38  60  85 118 161 200 243 301 361
#     4  11  23  41  64  90 118 156 200 249 301 359
#
# _framework density 18.658185
#
# number of rings (size 3 to 8) (size 9 to 14) (size 15 to 20)
#    0.000    2.167    0.000    3.750    4.667    1.000 
#    0.000    4.167    0.000    0.000    0.000    0.000 
#    0.000    0.000    0.000    0.000    0.000    0.000 
#
# Total GULP energy -134039.379439 kJ/mol
# GULP energy per Si atom -5584.974143 kJ/mol
# Density = 1.861572 g / cm^3
# Si number density = 18.658185 Si / 1000 Ang^3
#
#
#
# Elastic Constant Matrix: (Units=GPa)
#
#
# Indices 1 2 3 4 5 6 
#
# 1 180.2146 48.0329 150.9205 0.0000 0.0000 0.0000
# 2 48.0329 49.4300 46.7385 0.0000 0.0000 0.0000
# 3 150.9205 46.7385 174.4689 0.0000 0.0000 0.0000
# 4 0.0000 0.0000 0.0000 33.2690 0.0000 0.0000
# 5 0.0000 0.0000 0.0000 0.0000 30.5017 0.0000
# 6 0.0000 0.0000 0.0000 0.0000 0.0000 23.1587
#
#
#
# Elastic Compliance Matrix: (Units=1/GPa)
#
#
# Indices 1 2 3 4 5 6 
#
# 1 0.020791 -0.004283 -0.016837 0.000000 0.000000 0.000000
# 2 -0.004283 0.027976 -0.003790 0.000000 0.000000 0.000000
# 3 -0.016837 -0.003790 0.021312 0.000000 0.000000 0.000000
# 4 0.000000 0.000000 0.000000 0.030058 0.000000 0.000000
# 5 0.000000 0.000000 0.000000 0.000000 0.032785 0.000000
# 6 0.000000 0.000000 0.000000 0.000000 0.000000 0.043180
#
#
# Mechanical properties :
#
#
# Convention : Reuss Voigt Hill
#
# Bulk Modulus (GPa) = 49.36180 99.49969 74.43074
# Shear Modulus (GPa) = 21.48928 27.94733 24.71831
#
# Velocity S-wave (km/s) = 3.39740 3.87442 3.64372
# Velocity P-wave (km/s) = 6.47326 8.57078 7.59478
#
# Compressibility (1/GPa) = 0.02025858
#
# Stress axis : x y z
#
# Youngs Moduli (GPa) = 48.09809 35.74540 46.92247
#
# Poissons Ratio (x) = 0.15308 0.79005
# Poissons Ratio (y) = 0.20599 0.17783
# Poissons Ratio (z) = 0.80985 0.13547
#
# Static dielectric constant tensor:
#      x y z
#    x 1.626740 0.000000 0.000000 
#    y 0.000000 1.636370 0.000000 
#    z 0.000000 0.000000 1.614850 
# 
# From -- ./inp_files/16220.got.cif
#   From: 2010.05.17/outbox.cif.g08.bks.cpg/sg44_9_cif.got.tgz:16220.got - 2010.06.03 19:37:08.
