data_PCOD9375383
_publ_section_title
;
Structure prediction by ZEFSAII (Michael W. Deem and Ramdas Pophale) SiO2 
 PCOD9375383
Probable space group: I M M 2
;
_chemical_formula_sum "Si O2"
_cell_formula_units_Z 48
_cell_length_a 8.794098
_cell_length_b 30.715928
_cell_length_c 10.290157
_cell_angle_alpha 90.000000
_cell_angle_beta 90.000000
_cell_angle_gamma 90.000000
_cell_volume 2779.565694
_symmetry_space_group_name_H-M "I M M 2"
_symmetry_group_IT_number 44
_symmetry_cell_setting 'orthorhombic'
loop_
_space_group_symop_operation_xyz
x,y,z
-x,-y,z
-x,y,z
x,-y,z
1/2+x,1/2+y,1/2+z
1/2-x,1/2-y,1/2+z
1/2-x,1/2+y,1/2+z
1/2+x,1/2-y,1/2+z
loop_
_atom_site_type_symbol
_atom_site_label
_atom_site_fract_x
_atom_site_fract_y
_atom_site_fract_z
Si Si1 0.319097 0.881757 0.756630
Si Si2 0.685110 0.450470 0.757308
Si Si3 0.816250 0.118236 0.473421
Si Si4 0.317738 0.718889 0.968095
Si Si5 0.682933 0.449122 0.459618
Si Si6 0.681708 0.286978 0.267856
O O1 0.500000 0.880726 0.752777
O O2 0.254113 0.891975 0.613392
O O3 0.261307 0.917117 0.859168
O O4 0.256244 0.833934 0.792626
O O5 0.500000 0.450525 0.758461
O O6 0.733645 0.500000 0.787610
O O7 0.735025 0.415316 0.862865
O O8 0.729361 0.440018 0.609068
O O9 0.778775 0.168376 0.440069
O O10 0.000000 0.115896 0.485013
O O11 0.500000 0.723728 0.954617
O O12 0.236616 0.751732 0.871224
O O13 0.277973 0.726492 0.119663
O O14 0.500000 0.443922 0.451080
O O15 0.716683 0.500000 0.433481
O O16 0.500000 0.291995 0.272407
#
# Coordination Sequence:
#
# PCOD9375383 Si02
#       6
#     8   8   8   8   8   8
#     4  11  22  35  52  76 107 139 174 215 257 304
#     4   8  15  30  54  81 104 130 170 215 254 299
#     4   9  18  34  54  77 106 137 171 212 258 308
#     4   9  19  34  51  76 107 136 171 214 258 305
#     4   9  18  34  55  78 105 138 176 215 257 308
#     4  10  21  37  56  77 103 136 174 213 258 313
#
# _framework density 17.268885000000001
#
# number of rings (size 3 to 8) (size 9 to 14) (size 15 to 20)
#    0.000    2.667    0.000    4.000    0.000    5.667 
#    0.000    4.167    0.000    1.000    0.000    0.000 
#    0.000    0.000    0.000    0.000    0.000    0.000 
#
# Total GULP energy -133870.791244 kJ/mol
# GULP energy per Si atom -5577.949635 kJ/mol
# Density = 1.722958 g / cm^3
# Si number density = 17.268885 Si / 1000 Ang^3
#
#
#
# Elastic Constant Matrix: (Units=GPa)
#
#
# Indices 1 2 3 4 5 6 
#
# 1 45.8440 59.2041 58.7389 0.0001 0.0004 0.0000
# 2 59.2041 139.9195 135.2398 0.0002 0.0001 0.0000
# 3 58.7389 135.2398 151.1475 -0.0016 -0.0011 0.0003
# 4 0.0001 0.0002 -0.0016 41.9623 -0.0001 0.0001
# 5 0.0004 0.0001 -0.0011 -0.0001 21.9839 -0.0001
# 6 0.0000 0.0000 0.0003 0.0001 -0.0001 24.6930
#
#
#
# Elastic Compliance Matrix: (Units=1/GPa)
#
#
# Indices 1 2 3 4 5 6 
#
# 1 0.048354 -0.016995 -0.003585 0.000000 -0.000001 0.000000
# 2 -0.016995 0.058847 -0.046049 -0.000002 -0.000002 0.000001
# 3 -0.003585 -0.046049 0.049212 0.000002 0.000003 -0.000001
# 4 0.000000 -0.000002 0.000002 0.023831 0.000000 0.000000
# 5 -0.000001 -0.000002 0.000003 0.000000 0.045488 0.000000
# 6 0.000000 0.000001 -0.000001 0.000000 0.000000 0.040497
#
#
# Mechanical properties :
#
#
# Convention : Reuss Voigt Hill
#
# Bulk Modulus (GPa) = 43.18727 93.69739 68.44233
# Shear Modulus (GPa) = 12.27885 23.30972 17.79428
#
# Velocity S-wave (km/s) = 2.66942 3.67796 3.21350
# Velocity P-wave (km/s) = 5.87912 8.50954 7.31356
#
# Compressibility (1/GPa) = 0.02315497
#
# Stress axis : x y z
#
# Youngs Moduli (GPa) = 20.68069 16.99335 20.32038
#
# Poissons Ratio (x) = 0.28880 0.07286
# Poissons Ratio (y) = 0.35146 0.93573
# Poissons Ratio (z) = 0.07415 0.78252
#
# Static dielectric constant tensor:
#      x y z
#    x 1.579700 0.000000 0.000000 
#    y 0.000000 1.566850 0.000000 
#    z 0.000000 0.000000 1.568300 
# 
# From -- ./inp_files/4918.got.cif
#   From: 2010.05.17/outbox.cif.g08.bks.cpg/sg44_3_cif.got.tgz:4918.got - 2010.06.03 19:37:08.
