data_PCOD9375009
_publ_section_title
;
Structure prediction by ZEFSAII (Michael W. Deem and Ramdas Pophale) SiO2 
 PCOD9375009
Probable space group: I M M 2
;
_chemical_formula_sum "Si O2"
_cell_formula_units_Z 64
_cell_length_a 18.926419
_cell_length_b 15.329318
_cell_length_c 11.893129
_cell_angle_alpha 90.000000
_cell_angle_beta 90.000000
_cell_angle_gamma 90.000000
_cell_volume 3450.542759
_symmetry_space_group_name_H-M "I M M 2"
_symmetry_group_IT_number 44
_symmetry_cell_setting 'orthorhombic'
loop_
_space_group_symop_operation_xyz
x,y,z
-x,-y,z
-x,y,z
x,-y,z
1/2+x,1/2+y,1/2+z
1/2-x,1/2-y,1/2+z
1/2-x,1/2+y,1/2+z
1/2+x,1/2-y,1/2+z
loop_
_atom_site_type_symbol
_atom_site_label
_atom_site_fract_x
_atom_site_fract_y
_atom_site_fract_z
Si Si1 0.417469 0.686094 0.919940
Si Si2 0.148224 0.746733 0.028601
Si Si3 0.170460 0.765526 0.775434
Si Si4 0.304004 0.196794 0.051181
Si Si5 0.085408 0.103090 0.178035
Si Si6 0.417850 0.406920 0.144252
Si Si7 0.788929 0.597579 0.345644
Si Si8 0.581503 0.899368 0.684490
O O1 0.500000 0.714991 0.916038
O O2 0.396876 0.650947 0.796887
O O3 0.365460 0.755844 0.978203
O O4 0.413993 0.607968 0.010626
O O5 0.138616 0.740219 0.895024
O O6 0.232808 0.745062 0.046286
O O7 0.120422 0.838301 0.080483
O O8 0.109442 0.669466 0.093984
O O9 0.181532 0.689638 0.683710
O O10 0.119705 0.830784 0.709492
O O11 0.240158 0.823763 0.800575
O O12 0.290084 0.110333 0.979803
O O13 0.000000 0.106937 0.167172
O O14 0.104975 0.000000 0.177620
O O15 0.500000 0.405839 0.174063
O O16 0.386496 0.500000 0.174324
O O17 0.763714 0.500000 0.316997
O O18 0.866059 0.607221 0.290301
O O19 0.500000 0.880580 0.712937
O O20 0.585669 0.000000 0.644533
#
# Coordination Sequence:
#
# PCOD9375009 Si02
#       8
#     8   8   8   8   8   8   8   8
#     4   9  18  34  57  82 110 146 188 238 288 331
#     4  11  22  36  56  79 117 153 188 231 284 342
#     4  10  21  36  54  76 114 152 184 220 280 347
#     4  10  21  36  57  81 113 148 189 234 283 343
#     4  10  21  36  57  87 120 151 187 233 290 351
#     4   9  17  30  50  78 109 143 185 225 267 332
#     4  10  20  36  59  84 110 142 188 242 292 334
#     4  10  21  39  63  87 109 144 198 251 292 331
#
# _framework density 18.547806999999999
#
# number of rings (size 3 to 8) (size 9 to 14) (size 15 to 20)
#    0.000    2.125    1.250    1.875    1.750    6.500 
#    0.000    2.500    0.000    0.000    0.000    1.750 
#    0.000    0.000    0.000    0.000    0.000    0.000 
#
# Total GULP energy -178314.845239 kJ/mol
# GULP energy per Si atom -5572.338914 kJ/mol
# Density = 1.850559 g / cm^3
# Si number density = 18.547807 Si / 1000 Ang^3
#
#
#
# Elastic Constant Matrix: (Units=GPa)
#
#
# Indices 1 2 3 4 5 6 
#
# 1 64.8179 25.4556 23.1661 0.0000 0.0000 0.0000
# 2 25.4556 56.5733 32.6622 0.0000 0.0000 0.0000
# 3 23.1661 32.6622 138.1363 0.0000 0.0000 0.0000
# 4 0.0000 0.0000 0.0000 12.1751 0.0000 0.0000
# 5 0.0000 0.0000 0.0000 0.0000 -16.4238 0.0000
# 6 0.0000 0.0000 0.0000 0.0000 0.0000 15.1258
#
#
#
# Elastic Compliance Matrix: (Units=1/GPa)
#
#
# Indices 1 2 3 4 5 6 
#
# 1 0.018953 -0.007751 -0.001346 0.000000 0.000000 0.000000
# 2 -0.007751 0.023641 -0.004290 0.000000 0.000000 0.000000
# 3 -0.001346 -0.004290 0.008479 0.000000 0.000000 0.000000
# 4 0.000000 0.000000 0.000000 0.082135 0.000000 0.000000
# 5 0.000000 0.000000 0.000000 0.000000 -0.060887 0.000000
# 6 0.000000 0.000000 0.000000 0.000000 0.000000 0.066112
#
#
# Mechanical properties :
#
#
# Convention : Reuss Voigt Hill
#
# Bulk Modulus (GPa) = 41.15347 46.89948 44.02648
# Shear Modulus (GPa) = 28.85074 14.05832 21.45453
#
# Velocity S-wave (km/s) = 3.94824 2.75608 3.40474
# Velocity P-wave (km/s) = 6.55902 5.95555 6.26455
#
# Compressibility (1/GPa) = 0.02429929
#
# Stress axis : x y z
#
# Youngs Moduli (GPa) = 52.76251 42.30020 117.93483
#
# Poissons Ratio (x) = 0.32787 0.15871
# Poissons Ratio (y) = 0.40896 0.50593
# Poissons Ratio (z) = 0.07101 0.18146
#
# Static dielectric constant tensor:
#      x y z
#    x 1.663560 0.000000 0.000000 
#    y 0.000000 1.656390 0.000000 
#    z 0.000000 0.000000 1.662360 
# 
# From -- ./inp_files/14013.got.cif
#   From: 2010.05.17/outbox.cif.g08.bks.cpg/sg44_8_cif.got.tgz:14013.got - 2010.06.03 19:37:08.
