data_PCOD9375006
_publ_section_title
;
Structure prediction by ZEFSAII (Michael W. Deem and Ramdas Pophale) SiO2 
 PCOD9375006
Probable space group: I M M 2
;
_chemical_formula_sum "Si O2"
_cell_formula_units_Z 64
_cell_length_a 7.638280
_cell_length_b 32.059981
_cell_length_c 12.303519
_cell_angle_alpha 90.000000
_cell_angle_beta 90.000000
_cell_angle_gamma 90.000000
_cell_volume 3012.924017
_symmetry_space_group_name_H-M "I M M 2"
_symmetry_group_IT_number 44
_symmetry_cell_setting 'orthorhombic'
loop_
_space_group_symop_operation_xyz
x,y,z
-x,-y,z
-x,y,z
x,-y,z
1/2+x,1/2+y,1/2+z
1/2-x,1/2-y,1/2+z
1/2-x,1/2+y,1/2+z
1/2+x,1/2-y,1/2+z
loop_
_atom_site_type_symbol
_atom_site_label
_atom_site_fract_x
_atom_site_fract_y
_atom_site_fract_z
Si Si1 0.285343 0.373986 0.553450
Si Si2 0.786738 0.164870 0.678818
Si Si3 0.205712 0.045369 0.921439
Si Si4 0.214656 0.873986 0.304186
Si Si5 0.290175 0.702118 0.406079
Si Si6 0.797433 0.432392 0.178818
Si Si7 0.205711 0.954631 0.436198
Si Si8 0.790175 0.202118 0.451557
O O1 0.500000 0.373963 0.551593
O O2 0.224034 0.414099 0.484134
O O3 0.231639 0.376276 0.678818
O O4 0.226895 0.331284 0.495198
O O5 0.726674 0.187887 0.787617
O O6 0.724694 0.117418 0.678819
O O7 0.726674 0.187886 0.570019
O O8 0.000000 0.163735 0.678818
O O9 0.219466 0.051482 0.791772
O O10 0.000000 0.044119 0.948488
O O11 0.281888 0.000000 0.950310
O O12 0.275965 0.914099 0.373503
O O13 0.273104 0.831283 0.362438
O O14 0.000000 0.873963 0.306043
O O15 0.500000 0.698277 0.404328
O O16 0.250001 0.750000 0.428818
O O17 0.000000 0.443987 0.178816
O O18 0.719462 0.448517 0.065864
O O19 0.000000 0.955881 0.409146
O O20 0.281888 0.000000 0.407328
O O21 0.000000 0.198278 0.453308
#
# Coordination Sequence:
#
# PCOD9375006 Si02
#       8
#     8   8   8   8   8   8   8   8
#     4   9  18  34  56  83 113 143 180 230 279 322
#     4  10  20  39  61  80 110 153 191 229 278 334
#     4  10  20  36  59  83 111 149 187 224 276 342
#     4   9  18  34  56  83 113 143 180 230 279 322
#     4  10  21  36  57  81 111 146 182 227 275 328
#     4  12  23  35  56  85 116 146 184 239 285 327
#     4  10  20  36  59  83 111 149 187 224 276 342
#     4  10  21  36  57  81 111 146 182 227 275 328
#
# _framework density 21.241821999999999
#
# number of rings (size 3 to 8) (size 9 to 14) (size 15 to 20)
#    0.000    2.000    2.500    1.500    1.750    3.500 
#    0.000    2.500    0.000    2.250    0.000    1.750 
#    0.000    0.000    0.000    0.000    0.000    0.000 
#
# Total GULP energy -178759.897939 kJ/mol
# GULP energy per Si atom -5586.246811 kJ/mol
# Density = 2.119347 g / cm^3
# Si number density = 21.241822 Si / 1000 Ang^3
#
#
#
# Elastic Constant Matrix: (Units=GPa)
#
#
# Indices 1 2 3 4 5 6 
#
# 1 39.3204 -0.9073 -1.2881 0.0000 0.0000 0.0000
# 2 -0.9073 221.2976 100.2210 0.0002 0.0001 0.0000
# 3 -1.2881 100.2210 160.4982 0.0005 0.0002 0.0000
# 4 0.0000 0.0002 0.0005 -13.1350 -0.0001 0.0000
# 5 0.0000 0.0001 0.0002 -0.0001 -10.4906 0.0000
# 6 0.0000 0.0000 0.0000 0.0000 0.0000 15.2128
#
#
#
# Elastic Compliance Matrix: (Units=1/GPa)
#
#
# Indices 1 2 3 4 5 6 
#
# 1 0.025439 0.000016 0.000194 0.000000 0.000000 0.000000
# 2 0.000016 0.006301 -0.003934 0.000000 0.000000 0.000000
# 3 0.000194 -0.003934 0.008689 0.000000 0.000000 0.000000
# 4 0.000000 0.000000 0.000000 -0.076133 0.000001 0.000000
# 5 0.000000 0.000000 0.000000 0.000001 -0.095323 0.000000
# 6 0.000000 0.000000 0.000000 0.000000 0.000000 0.065734
#
#
# Mechanical properties :
#
#
# Convention : Reuss Voigt Hill
#
# Bulk Modulus (GPa) = 30.32089 68.57415 49.44752
# Shear Modulus (GPa) = -106.71816 19.85682 -43.43067
#
# Velocity S-wave (km/s) = -7.09568 3.06076 -4.52661
# Velocity P-wave (km/s) = 7.26818 6.69655 1.99784
#
# Compressibility (1/GPa) = 0.03298056
#
# Stress axis : x y z
#
# Youngs Moduli (GPa) = 39.31001 158.71567 115.09070
#
# Poissons Ratio (x) = -0.00262 -0.02231
# Poissons Ratio (y) = -0.00065 0.45279
# Poissons Ratio (z) = -0.00762 0.62442
#
# Static dielectric constant tensor:
#      x y z
#    x 1.821800 0.000000 0.000000 
#    y 0.000000 1.755070 0.000000 
#    z 0.000000 0.000000 1.735400 
# 
# From -- ./inp_files/11478.got.cif
#   From: 2010.05.17/outbox.cif.g08.bks.cpg/sg44_6_cif.got.tgz:11478.got - 2010.06.03 19:37:08.
