data_PCOD9375094
_publ_section_title
;
Structure prediction by ZEFSAII (Michael W. Deem and Ramdas Pophale) SiO2 
 PCOD9375094
Probable space group: I M M 2
;
_chemical_formula_sum "Si O2"
_cell_formula_units_Z 64
_cell_length_a 25.450106
_cell_length_b 8.932814
_cell_length_c 15.230109
_cell_angle_alpha 90.000000
_cell_angle_beta 90.000000
_cell_angle_gamma 90.000000
_cell_volume 3462.429172
_symmetry_space_group_name_H-M "I M M 2"
_symmetry_group_IT_number 44
_symmetry_cell_setting 'orthorhombic'
loop_
_space_group_symop_operation_xyz
x,y,z
-x,-y,z
-x,y,z
x,-y,z
1/2+x,1/2+y,1/2+z
1/2-x,1/2-y,1/2+z
1/2-x,1/2+y,1/2+z
1/2+x,1/2-y,1/2+z
loop_
_atom_site_type_symbol
_atom_site_label
_atom_site_fract_x
_atom_site_fract_y
_atom_site_fract_z
Si Si1 0.440084 0.320902 0.564930
Si Si2 0.650951 0.820606 0.681524
Si Si3 0.605124 0.819996 0.392104
Si Si4 0.276922 0.823673 0.366248
Si Si5 0.937445 0.176532 0.714266
Si Si6 0.260327 0.823888 0.158451
Si Si7 0.630890 0.819535 0.064689
Si Si8 0.332643 0.179555 0.881920
O O1 0.500000 0.284139 0.590766
O O2 0.434809 0.500000 0.562259
O O3 0.396982 0.251915 0.629710
O O4 0.428405 0.254168 0.468879
O O5 0.707283 0.768510 0.643565
O O6 0.651061 0.771605 0.784163
O O7 0.647400 0.000000 0.677025
O O8 0.666537 0.776762 0.402525
O O9 0.585760 0.763899 0.297715
O O10 0.601877 0.000000 0.396227
O O11 0.277031 0.803990 0.260429
O O12 0.226280 0.736478 0.399509
O O13 0.270102 0.000000 0.383759
O O14 0.910613 0.238980 0.626532
O O15 0.000000 0.197209 0.711547
O O16 0.926247 0.000000 0.724000
O O17 0.310725 0.783517 0.100840
O O18 0.248861 0.000000 0.145225
O O19 0.624462 0.000000 0.072145
O O20 0.630316 0.774964 0.962486
O O21 0.331262 0.000000 0.881126
#
# Coordination Sequence:
#
# PCOD9375094 Si02
#       8
#     8   8   8   8   8   8   8   8
#     4  11  25  43  61  83 112 151 200 247 296 353
#     4  10  21  38  59  86 117 150 194 244 296 350
#     4  11  22  38  60  89 119 152 193 237 290 351
#     4   9  18  33  53  82 117 151 187 225 275 343
#     4  11  24  40  58  84 119 158 199 242 290 347
#     4   9  17  33  55  82 117 153 188 230 281 343
#     4  10  20  37  59  85 117 155 198 241 290 345
#     4   9  20  36  57  86 118 152 192 239 290 345
#
# _framework density 18.484133
#
# number of rings (size 3 to 8) (size 9 to 14) (size 15 to 20)
#    0.000    2.000    1.250    1.875    1.750    6.000 
#    0.000    0.625    0.000    3.750    0.000    0.000 
#    0.000    0.000    0.000    0.000    0.000    0.000 
#
# Total GULP energy -178717.858828 kJ/mol
# GULP energy per Si atom -5584.933088 kJ/mol
# Density = 1.844206 g / cm^3
# Si number density = 18.484133 Si / 1000 Ang^3
#
#
#
# Elastic Constant Matrix: (Units=GPa)
#
#
# Indices 1 2 3 4 5 6 
#
# 1 78.6889 35.2745 16.4127 0.0000 0.0000 0.0000
# 2 35.2745 35.1453 17.1512 0.0000 0.0000 0.0000
# 3 16.4127 17.1512 44.5680 0.0000 0.0000 0.0000
# 4 0.0000 0.0000 0.0000 23.0261 0.0000 0.0000
# 5 0.0000 0.0000 0.0000 0.0000 28.5870 0.0000
# 6 0.0000 0.0000 0.0000 0.0000 0.0000 27.5158
#
#
#
# Elastic Compliance Matrix: (Units=1/GPa)
#
#
# Indices 1 2 3 4 5 6 
#
# 1 0.023112 -0.023447 0.000512 0.000000 0.000000 0.000000
# 2 -0.023447 0.058819 -0.014001 0.000000 0.000000 0.000000
# 3 0.000512 -0.014001 0.027637 0.000000 0.000000 0.000000
# 4 0.000000 0.000000 0.000000 0.043429 0.000000 0.000000
# 5 0.000000 0.000000 0.000000 0.000000 0.034981 0.000000
# 6 0.000000 0.000000 0.000000 0.000000 0.000000 0.036343
#
#
# Mechanical properties :
#
#
# Convention : Reuss Voigt Hill
#
# Bulk Modulus (GPa) = 28.01405 32.89766 30.45586
# Shear Modulus (GPa) = 16.12425 21.79672 18.96049
#
# Velocity S-wave (km/s) = 2.95673 3.43769 3.20624
# Velocity P-wave (km/s) = 5.18121 5.79598 5.49720
#
# Compressibility (1/GPa) = 0.03569638
#
# Stress axis : x y z
#
# Youngs Moduli (GPa) = 43.26697 17.00130 36.18331
#
# Poissons Ratio (x) = 0.39863 -0.01852
# Poissons Ratio (y) = 1.01448 0.50659
# Poissons Ratio (z) = -0.02214 0.23803
#
# Static dielectric constant tensor:
#      x y z
#    x 1.607660 0.000000 0.000000 
#    y 0.000000 1.616790 0.000000 
#    z 0.000000 0.000000 1.655060 
# 
# From -- ./inp_files/16818.got.cif
#   From: 2010.05.17/outbox.cif.g08.bks.cpg/sg44_9_cif.got.tgz:16818.got - 2010.06.03 19:37:08.
