data_PCOD9375852
_publ_section_title
;
Structure prediction by ZEFSAII (Michael W. Deem and Ramdas Pophale) SiO2 
 PCOD9375852
Probable space group: I M M 2
;
_chemical_formula_sum "Si O2"
_cell_formula_units_Z 48
_cell_length_a 28.734893
_cell_length_b 10.242184
_cell_length_c 8.595022
_cell_angle_alpha 90.000000
_cell_angle_beta 90.000000
_cell_angle_gamma 90.000000
_cell_volume 2529.584262
_symmetry_space_group_name_H-M "I M M 2"
_symmetry_group_IT_number 44
_symmetry_cell_setting 'orthorhombic'
loop_
_space_group_symop_operation_xyz
x,y,z
-x,-y,z
-x,y,z
x,-y,z
1/2+x,1/2+y,1/2+z
1/2-x,1/2-y,1/2+z
1/2-x,1/2+y,1/2+z
1/2+x,1/2-y,1/2+z
loop_
_atom_site_type_symbol
_atom_site_label
_atom_site_fract_x
_atom_site_fract_y
_atom_site_fract_z
Si Si1 0.555881 0.500000 0.519670
Si Si2 0.111002 0.249953 0.147226
Si Si3 0.203722 0.346012 0.979942
Si Si4 0.945869 0.000000 0.646609
Si Si5 0.445857 0.000000 0.032206
Si Si6 0.552147 0.000000 0.653965
Si Si7 0.204147 0.846552 0.690585
Si Si8 0.389403 0.741967 0.020253
O O1 0.500000 0.500000 0.557375
O O2 0.583587 0.623812 0.587145
O O3 0.560280 0.500000 0.332753
O O4 0.079018 0.372311 0.103687
O O5 0.115824 0.245169 0.333895
O O6 0.160783 0.280636 0.072033
O O7 0.193866 0.500000 0.942527
O O8 0.211577 0.251763 0.833391
O O9 0.249943 0.345448 0.084721
O O10 0.922534 0.125095 0.570938
O O11 0.000000 0.000000 0.611993
O O12 0.448665 0.000000 0.843036
O O13 0.415438 0.126472 0.074887
O O14 0.500000 0.000000 0.087306
O O15 0.500000 0.000000 0.595242
O O16 0.160068 0.789085 0.597535
O O17 0.195150 0.000000 0.733942
#
# Coordination Sequence:
#
# PCOD9375852 Si02
#       8
#     4   8   8   4   4   4   8   8
#     4  11  25  41  62  93 132 175 219 266 322 385
#     4  11  22  40  65  95 128 169 216 266 323 380
#     4  11  25  45  68  97 131 168 214 263 322 387
#     4  11  23  41  60  89 132 171 217 268 322 383
#     4   9  20  36  60  93 126 165 213 262 310 367
#     4   9  18  36  60  89 126 161 209 264 312 367
#     4  11  25  45  67  96 131 168 213 265 322 383
#     4  11  22  40  65  94 128 171 214 268 322 379
#
# _framework density 18.975452000000001
#
# number of rings (size 3 to 8) (size 9 to 14) (size 15 to 20)
#    0.000    1.333    1.667    3.500    2.333    3.333 
#    0.000    0.000    0.000    4.000    0.000    0.000 
#    0.000    0.000    0.000    0.000    0.000    0.000 
#
# Total GULP energy -134052.872229 kJ/mol
# GULP energy per Si atom -5585.536343 kJ/mol
# Density = 1.893226 g / cm^3
# Si number density = 18.975452 Si / 1000 Ang^3
#
#
#
# Elastic Constant Matrix: (Units=GPa)
#
#
# Indices 1 2 3 4 5 6 
#
# 1 151.5714 90.2882 47.7980 0.0000 0.0000 0.0000
# 2 90.2882 211.4399 63.5797 0.0000 0.0000 0.0000
# 3 47.7980 63.5797 77.6335 0.0000 0.0000 0.0000
# 4 0.0000 0.0000 0.0000 20.0466 0.0000 0.0000
# 5 0.0000 0.0000 0.0000 0.0000 30.5398 0.0000
# 6 0.0000 0.0000 0.0000 0.0000 0.0000 5.2003
#
#
#
# Elastic Compliance Matrix: (Units=1/GPa)
#
#
# Indices 1 2 3 4 5 6 
#
# 1 0.009458 -0.003035 -0.003337 0.000000 0.000000 0.000000
# 2 -0.003035 0.007249 -0.004068 0.000000 0.000000 0.000000
# 3 -0.003337 -0.004068 0.018267 0.000000 0.000000 0.000000
# 4 0.000000 0.000000 0.000000 0.049884 0.000000 0.000000
# 5 0.000000 0.000000 0.000000 0.000000 0.032744 0.000000
# 6 0.000000 0.000000 0.000000 0.000000 0.000000 0.192296
#
#
# Mechanical properties :
#
#
# Convention : Reuss Voigt Hill
#
# Bulk Modulus (GPa) = 70.95637 93.77518 82.36577
# Shear Modulus (GPa) = 14.90419 27.08929 20.99674
#
# Velocity S-wave (km/s) = 2.80562 3.78245 3.33005
# Velocity P-wave (km/s) = 6.92606 8.28266 7.63455
#
# Compressibility (1/GPa) = 0.01409317
#
# Stress axis : x y z
#
# Youngs Moduli (GPa) = 105.73065 137.95570 54.74269
#
# Poissons Ratio (x) = 0.41871 0.18270
# Poissons Ratio (y) = 0.32091 0.22268
# Poissons Ratio (z) = 0.35287 0.56117
#
# Static dielectric constant tensor:
#      x y z
#    x 1.636090 0.000000 0.000000 
#    y 0.000000 1.753600 0.000000 
#    z 0.000000 0.000000 1.645820 
# 
# From -- ./inp_files/10032.got.cif
#   From: 2010.05.17/outbox.cif.g08.bks.cpg/sg44_6_cif.got.tgz:10032.got - 2010.06.03 19:37:08.
