data_PCOD9375097
_publ_section_title
;
Structure prediction by ZEFSAII (Michael W. Deem and Ramdas Pophale) SiO2 
 PCOD9375097
Probable space group: I M M 2
;
_chemical_formula_sum "Si O2"
_cell_formula_units_Z 58
_cell_length_a 14.202792
_cell_length_b 24.900344
_cell_length_c 8.105874
_cell_angle_alpha 90.000000
_cell_angle_beta 90.000000
_cell_angle_gamma 90.000000
_cell_volume 2866.678059
_symmetry_space_group_name_H-M "I M M 2"
_symmetry_group_IT_number 44
_symmetry_cell_setting 'orthorhombic'
loop_
_space_group_symop_operation_xyz
x,y,z
-x,-y,z
-x,y,z
x,-y,z
1/2+x,1/2+y,1/2+z
1/2-x,1/2-y,1/2+z
1/2-x,1/2+y,1/2+z
1/2+x,1/2-y,1/2+z
loop_
_atom_site_type_symbol
_atom_site_label
_atom_site_fract_x
_atom_site_fract_y
_atom_site_fract_z
Si Si1 0.000000 0.500000 0.650970
Si Si2 0.102488 0.169959 0.210799
Si Si3 0.888690 0.283946 0.609983
Si Si4 0.655297 0.907682 0.175833
Si Si5 0.249559 0.363430 0.981739
Si Si6 0.300366 0.751687 0.462576
Si Si7 0.393573 0.561714 0.164247
Si Si8 0.356457 0.560309 0.551046
O O1 0.080291 0.453141 0.653400
O O2 0.179044 0.164547 0.352733
O O3 0.096106 0.109073 0.145266
O O4 0.000000 0.188176 0.266761
O O5 0.141482 0.208367 0.067752
O O6 0.879860 0.348401 0.626990
O O7 0.809010 0.267558 0.475866
O O8 0.847038 0.258387 0.781337
O O9 0.000000 0.270211 0.587874
O O10 0.685678 0.901461 0.368001
O O11 0.746677 0.925020 0.071579
O O12 0.194427 0.311270 0.046045
O O13 0.313821 0.398254 0.100862
O O14 0.500000 0.577773 0.113827
O O15 0.377887 0.500000 0.107660
O O16 0.387595 0.561168 0.361857
O O17 0.373694 0.500000 0.616242
#
# Coordination Sequence:
#
# PCOD9375097 Si02
#       8
#     2   8   8   8   8   8   8   8
#     4  12  20  36  76  94 114 160 216 258 326 364
#     4  11  22  38  60  85 120 160 205 255 304 368
#     4  11  23  42  63  91 129 166 212 264 320 383
#     4  10  21  38  63  94 117 157 206 262 307 374
#     4  10  23  39  59  86 125 157 204 253 306 368
#     4  11  22  42  59  89 123 160 211 261 309 377
#     4  10  22  38  59  88 124 161 198 242 305 376
#     4  10  20  37  59  88 123 156 200 252 306 362
#
# _framework density 20.232478
#
# number of rings (size 3 to 8) (size 9 to 14) (size 15 to 20)
#    0.000    1.517    5.517    1.241    2.897    2.483 
#    0.000    0.000    0.000    1.655    0.000    0.000 
#    0.000    0.000    0.000    0.000    0.000    0.000 
#
# Total GULP energy -161541.675069 kJ/mol
# GULP energy per Si atom -5570.402589 kJ/mol
# Density = 2.018643 g / cm^3
# Si number density = 20.232478 Si / 1000 Ang^3
#
#
#
# Elastic Constant Matrix: (Units=GPa)
#
#
# Indices 1 2 3 4 5 6 
#
# 1 133.1920 22.6666 8.0481 0.0010 -0.0035 -0.0003
# 2 22.6666 114.2383 32.8435 -0.0007 -0.0007 0.0029
# 3 8.0481 32.8435 30.4326 -0.0103 0.0124 0.0177
# 4 0.0010 -0.0007 -0.0103 26.4654 0.0003 0.0174
# 5 -0.0035 -0.0007 0.0124 0.0003 -38.9260 -0.0044
# 6 -0.0003 0.0029 0.0177 0.0174 -0.0044 117.5919
#
#
#
# Elastic Compliance Matrix: (Units=1/GPa)
#
#
# Indices 1 2 3 4 5 6 
#
# 1 0.007777 -0.001380 -0.000567 -0.000001 -0.000001 0.000000
# 2 -0.001380 0.012936 -0.013596 -0.000005 -0.000004 0.000002
# 3 -0.000567 -0.013596 0.047683 0.000018 0.000015 -0.000007
# 4 -0.000001 -0.000005 0.000018 0.037785 0.000000 -0.000006
# 5 -0.000001 -0.000004 0.000015 0.000000 -0.025690 -0.000001
# 6 0.000000 0.000002 -0.000007 -0.000006 -0.000001 0.008504
#
#
# Mechanical properties :
#
#
# Convention : Reuss Voigt Hill
#
# Bulk Modulus (GPa) = 26.80308 44.99769 35.90039
# Shear Modulus (GPa) = 37.73022 35.31322 36.52172
#
# Velocity S-wave (km/s) = 4.32306 4.18230 4.25326
# Velocity P-wave (km/s) = 6.18019 6.75357 6.47323
#
# Compressibility (1/GPa) = 0.03730914
#
# Stress axis : x y z
#
# Youngs Moduli (GPa) = 128.58287 77.30135 20.97182
#
# Poissons Ratio (x) = 0.10667 0.01190
# Poissons Ratio (y) = 0.17744 0.28514
# Poissons Ratio (z) = 0.07296 1.05101
#
# Static dielectric constant tensor:
#      x y z
#    x 1.854930 -0.000010 -0.000010 
#    y -0.000010 1.745660 0.000000 
#    z -0.000010 0.000000 1.722800 
# 
# From -- ./inp_files/7512.got.cif
#   From: 2010.05.17/outbox.cif.g08.bks.cpg/sg44_4_cif.got.tgz:7512.got - 2010.06.03 19:37:08.
