data_PCOD9375035
_publ_section_title
;
Structure prediction by ZEFSAII (Michael W. Deem and Ramdas Pophale) SiO2 
 PCOD9375035
Probable space group: I M M 2
;
_chemical_formula_sum "Si O2"
_cell_formula_units_Z 52
_cell_length_a 33.886999
_cell_length_b 7.644691
_cell_length_c 7.971150
_cell_angle_alpha 90.000000
_cell_angle_beta 90.000000
_cell_angle_gamma 90.000000
_cell_volume 2064.971335
_symmetry_space_group_name_H-M "I M M 2"
_symmetry_group_IT_number 44
_symmetry_cell_setting 'orthorhombic'
loop_
_space_group_symop_operation_xyz
x,y,z
-x,-y,z
-x,y,z
x,-y,z
1/2+x,1/2+y,1/2+z
1/2-x,1/2-y,1/2+z
1/2-x,1/2+y,1/2+z
1/2+x,1/2-y,1/2+z
loop_
_atom_site_type_symbol
_atom_site_label
_atom_site_fract_x
_atom_site_fract_y
_atom_site_fract_z
Si Si1 0.617118 0.301779 0.543950
Si Si2 0.761916 0.788075 0.924870
Si Si3 0.688091 0.202785 0.751072
Si Si4 0.609734 0.000000 0.120535
Si Si5 0.664373 0.289520 0.209438
Si Si6 0.953537 0.804942 0.598874
Si Si7 0.956893 0.698426 0.228856
O O1 0.606455 0.500000 0.512181
O O2 0.647905 0.294213 0.698009
O O3 0.640226 0.236959 0.381258
O O4 0.577559 0.207479 0.595597
O O5 0.717462 0.723993 0.892376
O O6 0.790958 0.749209 0.767553
O O7 0.760953 0.000000 0.938385
O O8 0.783856 0.715572 0.086195
O O9 0.679519 0.000000 0.774510
O O10 0.643401 0.156833 0.083625
O O11 0.576114 0.154481 0.153773
O O12 0.660447 0.500000 0.181158
O O13 0.949611 0.808775 0.395393
O O14 0.000000 0.768563 0.633113
O O15 0.944081 0.000000 0.663565
O O16 0.957468 0.500000 0.294577
O O17 0.000000 0.741094 0.158351
#
# Coordination Sequence:
#
# PCOD9375035 Si02
#       7
#     8   8   8   4   8   8   8
#     4  10  21  38  59  87 119 153 191 245 305 360
#     4   9  20  39  56  83 118 157 197 248 304 359
#     4  10  20  36  61  85 115 155 202 248 300 363
#     4  12  21  36  60  88 110 160 206 246 289 364
#     4   9  21  39  58  83 121 159 200 245 303 356
#     4  10  21  39  61  85 119 158 196 248 308 359
#     4  10  20  37  62  89 116 150 195 245 302 362
#
# _framework density 25.181947000000001
#
# number of rings (size 3 to 8) (size 9 to 14) (size 15 to 20)
#    0.000    2.154    0.769    3.000    5.385    2.154 
#    2.769    1.538    0.000    1.846    0.000    0.000 
#    0.000    0.000    0.000    0.000    0.000    0.000 
#
# Total GULP energy -144898.196814 kJ/mol
# GULP energy per Si atom -5573.007570 kJ/mol
# Density = 2.512463 g / cm^3
# Si number density = 25.181947 Si / 1000 Ang^3
#
#
#
# Elastic Constant Matrix: (Units=GPa)
#
#
# Indices 1 2 3 4 5 6 
#
# 1 146.0386 50.8109 14.0453 0.0000 0.0000 0.0000
# 2 50.8109 96.5504 -0.1756 0.0000 0.0000 0.0000
# 3 14.0453 -0.1756 59.5514 0.0000 0.0000 0.0000
# 4 0.0000 0.0000 0.0000 30.6378 0.0000 0.0000
# 5 0.0000 0.0000 0.0000 0.0000 31.8368 0.0000
# 6 0.0000 0.0000 0.0000 0.0000 0.0000 49.7595
#
#
#
# Elastic Compliance Matrix: (Units=1/GPa)
#
#
# Indices 1 2 3 4 5 6 
#
# 1 0.008625 -0.004543 -0.002048 0.000000 0.000000 0.000000
# 2 -0.004543 0.012750 0.001109 0.000000 0.000000 0.000000
# 3 -0.002048 0.001109 0.017278 0.000000 0.000000 0.000000
# 4 0.000000 0.000000 0.000000 0.032639 0.000000 0.000000
# 5 0.000000 0.000000 0.000000 0.000000 0.031410 0.000000
# 6 0.000000 0.000000 0.000000 0.000000 0.000000 0.020097
#
#
# Mechanical properties :
#
#
# Convention : Reuss Voigt Hill
#
# Bulk Modulus (GPa) = 36.11323 47.94465 42.02894
# Shear Modulus (GPa) = 34.96685 38.27746 36.62215
#
# Velocity S-wave (km/s) = 3.73039 3.90299 3.81767
# Velocity P-wave (km/s) = 5.73816 6.27629 6.01325
#
# Compressibility (1/GPa) = 0.02769068
#
# Stress axis : x y z
#
# Youngs Moduli (GPa) = 115.94231 78.43152 57.87566
#
# Poissons Ratio (x) = 0.35629 0.11851
# Poissons Ratio (y) = 0.52670 -0.06418
# Poissons Ratio (z) = 0.23741 -0.08698
#
# Static dielectric constant tensor:
#      x y z
#    x 2.002070 0.000000 0.000000 
#    y 0.000000 1.742700 0.000000 
#    z 0.000000 0.000000 2.204070 
# 
# From -- ./inp_files/14810.got.cif
#   From: 2010.05.17/outbox.cif.g08.bks.cpg/sg44_8_cif.got.tgz:14810.got - 2010.06.03 19:37:08.
