data_PCOD9375519
_publ_section_title
;
Structure prediction by ZEFSAII (Michael W. Deem and Ramdas Pophale) SiO2 
 PCOD9375519
Probable space group: I M M 2
;
_chemical_formula_sum "Si O2"
_cell_formula_units_Z 40
_cell_length_a 16.923399
_cell_length_b 8.919444
_cell_length_c 12.878687
_cell_angle_alpha 90.000000
_cell_angle_beta 90.000000
_cell_angle_gamma 90.000000
_cell_volume 1944.003155
_symmetry_space_group_name_H-M "I M M 2"
_symmetry_group_IT_number 44
_symmetry_cell_setting 'orthorhombic'
loop_
_space_group_symop_operation_xyz
x,y,z
-x,-y,z
-x,y,z
x,-y,z
1/2+x,1/2+y,1/2+z
1/2-x,1/2-y,1/2+z
1/2-x,1/2+y,1/2+z
1/2+x,1/2-y,1/2+z
loop_
_atom_site_type_symbol
_atom_site_label
_atom_site_fract_x
_atom_site_fract_y
_atom_site_fract_z
Si Si1 0.825136 0.323768 0.555480
Si Si2 0.906293 0.666956 0.182718
Si Si3 0.405959 0.680235 0.257199
Si Si4 0.334820 0.179034 0.466022
Si Si5 0.405912 0.665463 0.878871
O O1 0.812936 0.500000 0.570572
O O2 0.858329 0.248991 0.660102
O O3 0.746964 0.246216 0.508795
O O4 0.887622 0.288128 0.464910
O O5 0.872394 0.500000 0.200362
O O6 0.873164 0.781491 0.267517
O O7 0.000000 0.659215 0.199433
O O8 0.892411 0.706603 0.063730
O O9 0.500000 0.718808 0.251612
O O10 0.399892 0.500000 0.254404
O O11 0.367684 0.743093 0.362960
O O12 0.329064 0.000000 0.449110
O O13 0.500000 0.653118 0.870819
O O14 0.375231 0.500000 0.907779
#
# Coordination Sequence:
#
# PCOD9375519 Si02
#       5
#     8   8   8   8   8
#     4  12  26  42  64  93 130 173 218 271 328 387
#     4   9  19  37  62  91 123 161 205 254 312 382
#     4  11  25  46  71  99 134 176 224 276 333 400
#     4  11  24  42  66  95 131 171 216 271 327 388
#     4  10  21  38  62  91 124 162 207 261 319 381
#
# _framework density 20.576098999999999
#
# number of rings (size 3 to 8) (size 9 to 14) (size 15 to 20)
#    0.000    1.400    0.000    4.800    2.800    7.600 
#    0.000    2.000    0.000    0.000    0.000    0.000 
#    0.000    0.000    0.000    0.000    0.000    0.000 
#
# Total GULP energy -111707.982653 kJ/mol
# GULP energy per Si atom -5585.399133 kJ/mol
# Density = 2.052927 g / cm^3
# Si number density = 20.576099 Si / 1000 Ang^3
#
#
#
# Elastic Constant Matrix: (Units=GPa)
#
#
# Indices 1 2 3 4 5 6 
#
# 1 68.8877 44.0815 42.2284 0.0000 0.0000 0.0000
# 2 44.0815 106.0904 64.7018 0.0000 0.0000 0.0000
# 3 42.2284 64.7018 142.4454 0.0000 0.0000 0.0000
# 4 0.0000 0.0000 0.0000 37.8930 0.0000 0.0000
# 5 0.0000 0.0000 0.0000 0.0000 33.9195 0.0000
# 6 0.0000 0.0000 0.0000 0.0000 0.0000 18.6099
#
#
#
# Elastic Compliance Matrix: (Units=1/GPa)
#
#
# Indices 1 2 3 4 5 6 
#
# 1 0.020710 -0.006723 -0.003086 0.000000 0.000000 0.000000
# 2 -0.006723 0.015220 -0.004920 0.000000 0.000000 0.000000
# 3 -0.003086 -0.004920 0.010170 0.000000 0.000000 0.000000
# 4 0.000000 0.000000 0.000000 0.026390 0.000000 0.000000
# 5 0.000000 0.000000 0.000000 0.000000 0.029482 0.000000
# 6 0.000000 0.000000 0.000000 0.000000 0.000000 0.053735
#
#
# Mechanical properties :
#
#
# Convention : Reuss Voigt Hill
#
# Bulk Modulus (GPa) = 60.08978 68.82744 64.45861
# Shear Modulus (GPa) = 26.21741 29.17858 27.69800
#
# Velocity S-wave (km/s) = 3.57342 3.76983 3.67294
# Velocity P-wave (km/s) = 6.80389 7.24373 7.02725
#
# Compressibility (1/GPa) = 0.01664176
#
# Stress axis : x y z
#
# Youngs Moduli (GPa) = 48.28521 65.70183 98.32974
#
# Poissons Ratio (x) = 0.44174 0.30342
# Poissons Ratio (y) = 0.32464 0.48380
# Poissons Ratio (z) = 0.14899 0.32327
#
# Static dielectric constant tensor:
#      x y z
#    x 1.658650 0.000000 0.000000 
#    y 0.000000 1.726300 0.000000 
#    z 0.000000 0.000000 1.722340 
# 
# From -- ./inp_files/10833.got.cif
#   From: 2010.05.17/outbox.cif.g08.bks.cpg/sg44_6_cif.got.tgz:10833.got - 2010.06.03 19:37:08.
