data_PCOD9375335
_publ_section_title
;
Structure prediction by ZEFSAII (Michael W. Deem and Ramdas Pophale) SiO2 
 PCOD9375335
Probable space group: I M M 2
;
_chemical_formula_sum "Si O2"
_cell_formula_units_Z 64
_cell_length_a 9.215853
_cell_length_b 22.215489
_cell_length_c 15.861993
_cell_angle_alpha 90.000000
_cell_angle_beta 90.000000
_cell_angle_gamma 90.000000
_cell_volume 3247.500076
_symmetry_space_group_name_H-M "I M M 2"
_symmetry_group_IT_number 44
_symmetry_cell_setting 'orthorhombic'
loop_
_space_group_symop_operation_xyz
x,y,z
-x,-y,z
-x,y,z
x,-y,z
1/2+x,1/2+y,1/2+z
1/2-x,1/2-y,1/2+z
1/2-x,1/2+y,1/2+z
1/2+x,1/2-y,1/2+z
loop_
_atom_site_type_symbol
_atom_site_label
_atom_site_fract_x
_atom_site_fract_y
_atom_site_fract_z
Si Si1 0.174858 0.067344 0.793580
Si Si2 0.333958 0.927072 0.266074
Si Si3 0.173597 0.691859 0.344045
Si Si4 0.174052 0.679330 0.529676
Si Si5 0.174454 0.569861 0.949857
Si Si6 0.332684 0.742824 0.188544
Si Si7 0.827940 0.929879 0.094945
Si Si8 0.164535 0.890867 0.611491
O O1 0.258240 0.124944 0.830680
O O2 0.205649 0.069707 0.692938
O O3 0.000000 0.076295 0.803368
O O4 0.210448 0.000000 0.825725
O O5 0.500000 0.906956 0.249500
O O6 0.282077 0.905465 0.357704
O O7 0.231432 0.913670 0.188006
O O8 0.339595 0.000000 0.272913
O O9 0.207264 0.710415 0.440395
O O10 0.241280 0.735635 0.273644
O O11 0.000000 0.688665 0.333736
O O12 0.222118 0.714068 0.614003
O O13 0.247471 0.614254 0.531657
O O14 0.000000 0.673656 0.534470
O O15 0.221399 0.500000 0.956436
O O16 0.000000 0.570678 0.949849
O O17 0.235701 0.602767 0.030772
O O18 0.500000 0.758417 0.209092
O O19 0.334105 0.676760 0.146627
O O20 0.000000 0.922444 0.090233
O O21 0.793275 0.000000 0.080022
O O22 0.000000 0.906781 0.587050
#
# Coordination Sequence:
#
# PCOD9375335 Si02
#       8
#     8   8   8   8   8   8   8   8
#     4   9  18  33  53  78 112 154 192 227 278 341
#     4   8  15  30  49  68 100 145 183 218 267 327
#     4  10  21  37  59  87 116 146 186 239 286 329
#     4  10  22  41  63  84 112 151 189 227 280 341
#     4   9  17  28  44  70 105 143 183 228 276 327
#     4   9  20  41  61  77 107 150 189 230 281 337
#     4  10  21  36  56  85 116 143 179 230 281 330
#     4   9  17  30  49  72 101 140 184 229 277 330
#
# _framework density 19.707467999999999
#
# number of rings (size 3 to 8) (size 9 to 14) (size 15 to 20)
#    0.000    2.750    0.000    2.625    0.000    6.250 
#    2.250    3.750    0.000    0.000    0.000    0.000 
#    0.000    0.000    0.000    0.000    0.000    0.000 
#
# Total GULP energy -178448.377762 kJ/mol
# GULP energy per Si atom -5576.511805 kJ/mol
# Density = 1.966261 g / cm^3
# Si number density = 19.707468 Si / 1000 Ang^3
#
#
#
# Elastic Constant Matrix: (Units=GPa)
#
#
# Indices 1 2 3 4 5 6 
#
# 1 28.5640 17.5711 48.0632 0.0000 0.0000 0.0000
# 2 17.5711 51.4094 35.1311 0.0000 0.0000 0.0000
# 3 48.0632 35.1311 128.7667 0.0000 0.0000 0.0000
# 4 0.0000 0.0000 0.0000 18.8880 0.0000 0.0000
# 5 0.0000 0.0000 0.0000 0.0000 27.2795 0.0000
# 6 0.0000 0.0000 0.0000 0.0000 0.0000 7.7202
#
#
#
# Elastic Compliance Matrix: (Units=1/GPa)
#
#
# Indices 1 2 3 4 5 6 
#
# 1 0.098534 -0.010503 -0.033913 0.000000 0.000000 0.000000
# 2 -0.010503 0.025029 -0.002908 0.000000 0.000000 0.000000
# 3 -0.033913 -0.002908 0.021218 0.000000 0.000000 0.000000
# 4 0.000000 0.000000 0.000000 0.052944 0.000000 0.000000
# 5 0.000000 0.000000 0.000000 0.000000 0.036658 0.000000
# 6 0.000000 0.000000 0.000000 0.000000 0.000000 0.129530
#
#
# Mechanical properties :
#
#
# Convention : Reuss Voigt Hill
#
# Bulk Modulus (GPa) = 19.94734 45.58566 32.76650
# Shear Modulus (GPa) = 10.52032 17.97586 14.24809
#
# Velocity S-wave (km/s) = 2.31297 3.02343 2.69174
# Velocity P-wave (km/s) = 4.15654 5.94723 5.13061
#
# Compressibility (1/GPa) = 0.05013199
#
# Stress axis : x y z
#
# Youngs Moduli (GPa) = 10.14883 39.95393 47.13033
#
# Poissons Ratio (x) = 0.41963 1.59833
# Poissons Ratio (y) = 0.10659 0.13707
# Poissons Ratio (z) = 0.34418 0.11620
#
# Static dielectric constant tensor:
#      x y z
#    x 1.658170 0.000000 0.000000 
#    y 0.000000 1.725720 0.000000 
#    z 0.000000 0.000000 1.713610 
# 
# From -- ./inp_files/16840.got.cif
#   From: 2010.05.17/outbox.cif.g08.bks.cpg/sg44_9_cif.got.tgz:16840.got - 2010.06.03 19:37:08.
