data_PCOD9375438
_publ_section_title
;
Structure prediction by ZEFSAII (Michael W. Deem and Ramdas Pophale) SiO2 
 PCOD9375438
Probable space group: I M M 2
;
_chemical_formula_sum "Si O2"
_cell_formula_units_Z 58
_cell_length_a 18.686576
_cell_length_b 14.607759
_cell_length_c 11.947853
_cell_angle_alpha 90.000000
_cell_angle_beta 90.000000
_cell_angle_gamma 90.000000
_cell_volume 3261.393471
_symmetry_space_group_name_H-M "I M M 2"
_symmetry_group_IT_number 44
_symmetry_cell_setting 'orthorhombic'
loop_
_space_group_symop_operation_xyz
x,y,z
-x,-y,z
-x,y,z
x,-y,z
1/2+x,1/2+y,1/2+z
1/2-x,1/2-y,1/2+z
1/2-x,1/2+y,1/2+z
1/2+x,1/2-y,1/2+z
loop_
_atom_site_type_symbol
_atom_site_label
_atom_site_fract_x
_atom_site_fract_y
_atom_site_fract_z
Si Si1 0.583854 0.153454 0.204850
Si Si2 0.916341 0.395384 0.960677
Si Si3 0.663958 0.751948 0.612553
Si Si4 0.374489 0.641436 0.269529
Si Si5 0.788544 0.602641 0.281928
Si Si6 0.286072 0.104907 0.049632
Si Si7 0.582893 0.395647 0.519254
Si Si8 0.000000 0.000000 0.714661
O O1 0.500000 0.147860 0.172927
O O2 0.591631 0.106657 0.326480
O O3 0.607587 0.257370 0.229398
O O4 0.638537 0.115137 0.113358
O O5 0.905536 0.500000 0.999295
O O6 0.000000 0.369059 0.983968
O O7 0.861541 0.324177 0.017033
O O8 0.672231 0.814338 0.720901
O O9 0.733284 0.687445 0.588667
O O10 0.602268 0.675487 0.614553
O O11 0.294058 0.611452 0.242098
O O12 0.378043 0.632338 0.404800
O O13 0.436701 0.577949 0.222384
O O14 0.814198 0.500000 0.253232
O O15 0.792971 0.612306 0.415727
O O16 0.259927 0.000000 0.072480
O O17 0.500000 0.391782 0.490223
O O18 0.599832 0.500000 0.547377
#
# Coordination Sequence:
#
# PCOD9375438 Si02
#       8
#     8   8   8   8   8   8   8   2
#     4  11  21  37  61  87 116 152 195 247 301 345
#     4  10  21  37  59  88 121 149 188 249 304 348
#     4  12  22  35  58  86 118 155 191 234 293 362
#     4  12  18  32  56  91 119 145 181 243 301 354
#     4  11  23  39  57  81 123 158 194 234 287 353
#     4  11  24  40  58  83 117 159 198 243 287 348
#     4  11  19  33  58  90 117 146 184 239 299 349
#     4  12  20  28  60  96 122 142 190 236 320 360
#
# _framework density 17.783809000000002
#
# number of rings (size 3 to 8) (size 9 to 14) (size 15 to 20)
#    0.000    0.828    6.897    1.655    0.000    0.828 
#    0.000    1.379    0.000    1.655    0.000    0.000 
#    0.000    0.000    0.000    0.000    0.000    0.000 
#
# Total GULP energy -161451.465868 kJ/mol
# GULP energy per Si atom -5567.291926 kJ/mol
# Density = 1.774333 g / cm^3
# Si number density = 17.783809 Si / 1000 Ang^3
#
#
#
# Elastic Constant Matrix: (Units=GPa)
#
#
# Indices 1 2 3 4 5 6 
#
# 1 59.0391 19.1782 22.9268 0.0000 0.0000 0.0000
# 2 19.1782 136.0526 32.1493 0.0000 0.0000 0.0000
# 3 22.9268 32.1493 43.6946 0.0000 0.0000 0.0000
# 4 0.0000 0.0000 0.0000 -43.6361 0.0000 0.0000
# 5 0.0000 0.0000 0.0000 0.0000 25.0317 0.0000
# 6 0.0000 0.0000 0.0000 0.0000 0.0000 38.6898
#
#
#
# Elastic Compliance Matrix: (Units=1/GPa)
#
#
# Indices 1 2 3 4 5 6 
#
# 1 0.021294 -0.000437 -0.010851 0.000000 0.000000 0.000000
# 2 -0.000437 0.008906 -0.006323 0.000000 0.000000 0.000000
# 3 -0.010851 -0.006323 0.033232 0.000000 0.000000 0.000000
# 4 0.000000 0.000000 0.000000 -0.022917 0.000000 0.000000
# 5 0.000000 0.000000 0.000000 0.000000 0.039949 0.000000
# 6 0.000000 0.000000 0.000000 0.000000 0.000000 0.025847
#
#
# Mechanical properties :
#
#
# Convention : Reuss Voigt Hill
#
# Bulk Modulus (GPa) = 35.45043 43.03277 39.24160
# Shear Modulus (GPa) = 33.12625 14.98588 24.05607
#
# Velocity S-wave (km/s) = 4.32061 2.90603 3.68189
# Velocity P-wave (km/s) = 6.69833 5.95905 6.33947
#
# Compressibility (1/GPa) = 0.02820840
#
# Stress axis : x y z
#
# Youngs Moduli (GPa) = 46.96178 112.28450 30.09128
#
# Poissons Ratio (x) = 0.04912 0.32652
# Poissons Ratio (y) = 0.02055 0.19027
# Poissons Ratio (z) = 0.50959 0.71000
#
# Static dielectric constant tensor:
#      x y z
#    x 1.628800 0.000000 0.000000 
#    y 0.000000 1.690500 0.000000 
#    z 0.000000 0.000000 1.590170 
# 
# From -- ./inp_files/13396.got.cif
#   From: 2010.05.17/outbox.cif.g08.bks.cpg/sg44_7_cif.got.tgz:13396.got - 2010.06.03 19:37:08.
