data_PCOD9375743
_publ_section_title
;
Structure prediction by ZEFSAII (Michael W. Deem and Ramdas Pophale) SiO2 
 PCOD9375743
Probable space group: I M M 2
;
_chemical_formula_sum "Si O2"
_cell_formula_units_Z 64
_cell_length_a 14.699185
_cell_length_b 22.334393
_cell_length_c 9.154395
_cell_angle_alpha 90.000000
_cell_angle_beta 90.000000
_cell_angle_gamma 90.000000
_cell_volume 3005.363844
_symmetry_space_group_name_H-M "I M M 2"
_symmetry_group_IT_number 44
_symmetry_cell_setting 'orthorhombic'
loop_
_space_group_symop_operation_xyz
x,y,z
-x,-y,z
-x,y,z
x,-y,z
1/2+x,1/2+y,1/2+z
1/2-x,1/2-y,1/2+z
1/2-x,1/2+y,1/2+z
1/2+x,1/2-y,1/2+z
loop_
_atom_site_type_symbol
_atom_site_label
_atom_site_fract_x
_atom_site_fract_y
_atom_site_fract_z
Si Si1 0.293320 0.928818 0.396200
Si Si2 0.330359 0.623452 0.478801
Si Si3 0.172756 0.672012 0.694778
Si Si4 0.397392 0.780548 0.766217
Si Si5 0.250408 0.127235 0.695157
Si Si6 0.602635 0.287091 0.040920
Si Si7 0.402192 0.570934 0.764202
Si Si8 0.101810 0.249777 0.927240
O O1 0.352481 0.889459 0.281299
O O2 0.299559 0.909112 0.565393
O O3 0.188883 0.912532 0.351491
O O4 0.307091 0.000000 0.379544
O O5 0.252666 0.652802 0.584401
O O6 0.294158 0.591791 0.331515
O O7 0.386632 0.585109 0.593939
O O8 0.387113 0.679157 0.416372
O O9 0.112911 0.718140 0.598597
O O10 0.179205 0.715896 0.836848
O O11 0.500000 0.802462 0.794118
O O12 0.322490 0.831187 0.779855
O O13 0.390431 0.763176 0.597320
O O14 0.384698 0.722871 0.868098
O O15 0.177201 0.170780 0.615475
O O16 0.500000 0.307356 0.072397
O O17 0.500000 0.596898 0.811287
O O18 0.406923 0.500000 0.782915
O O19 0.000000 0.268808 0.880552
#
# Coordination Sequence:
#
# PCOD9375743 Si02
#       8
#     8   8   8   8   8   8   8   8
#     4  10  24  42  63  88 117 167 221 261 309 377
#     4  11  23  33  58  89 120 162 202 250 310 376
#     4  11  21  36  61  83 125 159 200 253 309 364
#     4  10  23  39  58  88 126 168 204 245 316 383
#     4  12  23  38  62  88 130 168 208 261 315 374
#     4  11  24  38  59  96 135 166 201 252 322 392
#     4   9  20  41  63  85 118 161 210 260 308 367
#     4  11  22  35  56  87 123 157 197 247 309 374
#
# _framework density 21.295258
#
# number of rings (size 3 to 8) (size 9 to 14) (size 15 to 20)
#    0.000    1.375    3.750    1.500    5.250    1.500 
#    0.000    0.000    0.000    4.875    0.000    1.750 
#    0.000    0.000    0.000    0.000    0.000    0.000 
#
# Total GULP energy -178340.943082 kJ/mol
# GULP energy per Si atom -5573.154471 kJ/mol
# Density = 2.124679 g / cm^3
# Si number density = 21.295258 Si / 1000 Ang^3
#
#
#
# Elastic Constant Matrix: (Units=GPa)
#
#
# Indices 1 2 3 4 5 6 
#
# 1 55.4470 0.1816 15.6358 0.0000 0.0000 0.0000
# 2 0.1816 64.7312 16.8667 0.0000 0.0000 0.0000
# 3 15.6358 16.8667 110.6918 -0.0002 0.0000 0.0000
# 4 0.0000 0.0000 -0.0002 22.6341 0.0000 0.0000
# 5 0.0000 0.0000 0.0000 0.0000 11.6258 0.0000
# 6 0.0000 0.0000 0.0000 0.0000 0.0000 11.6330
#
#
#
# Elastic Compliance Matrix: (Units=1/GPa)
#
#
# Indices 1 2 3 4 5 6 
#
# 1 0.018811 0.000666 -0.002759 0.000000 0.000000 0.000000
# 2 0.000666 0.016111 -0.002549 0.000000 0.000000 0.000000
# 3 -0.002759 -0.002549 0.009812 0.000000 0.000000 0.000000
# 4 0.000000 0.000000 0.000000 0.044181 0.000000 0.000000
# 5 0.000000 0.000000 0.000000 0.000000 0.086015 0.000000
# 6 0.000000 0.000000 0.000000 0.000000 0.000000 0.085962
#
#
# Mechanical properties :
#
#
# Convention : Reuss Voigt Hill
#
# Bulk Modulus (GPa) = 28.20812 32.91537 30.56175
# Shear Modulus (GPa) = 17.73095 22.39097 20.06096
#
# Velocity S-wave (km/s) = 2.88865 3.24613 3.07259
# Velocity P-wave (km/s) = 4.93971 5.43507 5.19330
#
# Compressibility (1/GPa) = 0.03545079
#
# Stress axis : x y z
#
# Youngs Moduli (GPa) = 53.16039 62.07012 101.91429
#
# Poissons Ratio (x) = -0.04134 0.28114
# Poissons Ratio (y) = -0.03541 0.25978
# Poissons Ratio (z) = 0.14665 0.15822
#
# Static dielectric constant tensor:
#      x y z
#    x 1.842680 0.000000 0.000000 
#    y 0.000000 1.773400 0.000000 
#    z 0.000000 0.000000 1.851270 
# 
# From -- ./inp_files/7564.got.cif
#   From: 2010.05.17/outbox.cif.g08.bks.cpg/sg44_4_cif.got.tgz:7564.got - 2010.06.03 19:37:08.
