data_PCOD9375613
_publ_section_title
;
Structure prediction by ZEFSAII (Michael W. Deem and Ramdas Pophale) SiO2 
 PCOD9375613
Probable space group: I M M 2
;
_chemical_formula_sum "Si O2"
_cell_formula_units_Z 34
_cell_length_a 7.378635
_cell_length_b 7.762348
_cell_length_c 29.096162
_cell_angle_alpha 90.000000
_cell_angle_beta 90.000000
_cell_angle_gamma 90.000000
_cell_volume 1666.498176
_symmetry_space_group_name_H-M "I M M 2"
_symmetry_group_IT_number 44
_symmetry_cell_setting 'orthorhombic'
loop_
_space_group_symop_operation_xyz
x,y,z
-x,-y,z
-x,y,z
x,-y,z
1/2+x,1/2+y,1/2+z
1/2-x,1/2-y,1/2+z
1/2-x,1/2+y,1/2+z
1/2+x,1/2-y,1/2+z
loop_
_atom_site_type_symbol
_atom_site_label
_atom_site_fract_x
_atom_site_fract_y
_atom_site_fract_z
Si Si1 0.295061 0.793932 0.436270
Si Si2 0.292843 0.706897 0.535806
Si Si3 0.709324 0.000000 0.697780
Si Si4 0.000000 0.500000 0.286377
Si Si5 0.000000 0.790657 0.361706
Si Si6 0.277679 0.697057 0.635792
O O1 0.500000 0.722593 0.433608
O O2 0.213198 0.750739 0.486296
O O3 0.171603 0.742929 0.393623
O O4 0.305071 0.000000 0.434464
O O5 0.500000 0.773549 0.533359
O O6 0.297518 0.500000 0.538886
O O7 0.218201 0.762351 0.585187
O O8 0.784408 0.173290 0.675367
O O9 0.500000 0.000000 0.680603
O O10 0.675124 0.000000 0.752219
O O11 0.000000 0.671853 0.316927
O O12 0.000000 0.000000 0.353512
O O13 0.500000 0.689885 0.634265
O O14 0.218515 0.500000 0.642886
#
# Coordination Sequence:
#
# PCOD9375613 Si02
#       6
#     8   8   4   2   4   8
#     4   9  18  32  51  75 103 142 179 214 267 326
#     4   8  14  23  39  68 101 132 166 201 254 316
#     4   8  16  26  40  64  92 126 174 212 258 311
#     4  10  22  34  48  74  98 148 194 222 276 324
#     4  10  22  38  52  72 112 142 178 236 268 303
#     4   8  13  22  37  61  96 128 156 206 260 306
#
# _framework density 20.402062999999998
#
# number of rings (size 3 to 8) (size 9 to 14) (size 15 to 20)
#    0.353    3.059    0.000    1.412    3.294    0.941 
#    0.000    0.000    0.000    0.000    0.000    0.000 
#    7.059    0.000    1.412    0.000    0.000    0.000 
#
# Total GULP energy -94634.460591 kJ/mol
# GULP energy per Si atom -5566.732976 kJ/mol
# Density = 2.035563 g / cm^3
# Si number density = 20.402063 Si / 1000 Ang^3
#
#
#
# Elastic Constant Matrix: (Units=GPa)
#
#
# Indices 1 2 3 4 5 6 
#
# 1 76.8822 15.3660 33.1111 0.0000 0.0000 0.0000
# 2 15.3660 80.0701 75.6523 0.0000 -0.0014 0.0000
# 3 33.1111 75.6523 190.1206 0.0000 -0.0007 0.0000
# 4 0.0000 0.0000 0.0000 44.4048 -0.0008 0.0000
# 5 0.0000 -0.0014 -0.0007 -0.0008 9784.7270 0.0005
# 6 0.0000 0.0000 0.0000 0.0000 0.0005 -7.3341
#
#
#
# Elastic Compliance Matrix: (Units=1/GPa)
#
#
# Indices 1 2 3 4 5 6 
#
# 1 0.014081 -0.000617 -0.002207 0.000000 0.000000 0.000000
# 2 -0.000617 0.020040 -0.007867 0.000000 0.000000 0.000000
# 3 -0.002207 -0.007867 0.008774 0.000000 0.000000 0.000000
# 4 0.000000 0.000000 0.000000 0.022520 0.000000 0.000000
# 5 0.000000 0.000000 0.000000 0.000000 0.000102 0.000000
# 6 0.000000 0.000000 0.000000 0.000000 0.000000 -0.136349
#
#
# Mechanical properties :
#
#
# Convention : Reuss Voigt Hill
#
# Bulk Modulus (GPa) = 46.48170 66.14797 56.31484
# Shear Modulus (GPa) = -118.26288 1979.22244 930.47978
#
# Velocity S-wave (km/s) = -7.62181 31.18036 21.37900
# Velocity P-wave (km/s) = 7.39078 36.45242 25.24040
#
# Compressibility (1/GPa) = 0.02151384
#
# Stress axis : x y z
#
# Youngs Moduli (GPa) = 71.01961 49.89933 113.96661
#
# Poissons Ratio (x) = 0.03080 0.25148
# Poissons Ratio (y) = 0.04384 0.89656
# Poissons Ratio (z) = 0.15671 0.39255
#
# Static dielectric constant tensor:
#      x y z
#    x -2.213490 0.000000 0.000000 
#    y 0.000000 1.725090 0.000000 
#    z 0.000000 0.000000 1.720730 
# 
# From -- ./inp_files/25901.got.cif
#   From: 2010.05.17/outbox.cif.g08.bks.cpg/sg44_13_cif.got.tgz:25901.got - 2010.06.03 19:37:08.
