data_PCOD9375997
_publ_section_title
;
Structure prediction by ZEFSAII (Michael W. Deem and Ramdas Pophale) SiO2 
 PCOD9375997
Probable space group: I M M 2
;
_chemical_formula_sum "Si O2"
_cell_formula_units_Z 29
_cell_length_a 15.000000
_cell_length_b 9.000000
_cell_length_c 24.000000
_cell_angle_alpha 90.000000
_cell_angle_beta 90.000000
_cell_angle_gamma 90.000000
_cell_volume 3240.000000
_symmetry_space_group_name_H-M "I M M 2"
_symmetry_group_IT_number 44
_symmetry_cell_setting 'orthorhombic'
loop_
_space_group_symop_operation_xyz
x,y,z
-x,-y,z
-x,y,z
x,-y,z
1/2+x,1/2+y,1/2+z
1/2-x,1/2-y,1/2+z
1/2-x,1/2+y,1/2+z
1/2+x,1/2-y,1/2+z
loop_
_atom_site_type_symbol
_atom_site_label
_atom_site_fract_x
_atom_site_fract_y
_atom_site_fract_z
Si Si1 0.897315 0.678822 0.940570
Si Si2 0.316540 0.337736 0.637062
Si Si3 0.396755 0.321604 0.854584
Si Si4 0.744469 0.323210 0.761255
Si Si5 0.603235 0.323744 0.323597
Si Si6 0.603259 0.823665 0.971057
Si Si7 0.755596 0.674628 0.032845
Si Si8 0.500000 0.500000 0.633116
O O1 0.894711 0.500000 0.936368
O O2 0.869856 0.747537 0.881758
O O3 0.000000 0.723293 0.951785
O O4 0.831695 0.726558 0.989447
O O5 0.273824 0.500000 0.622583
O O6 0.288848 0.299007 0.699206
O O7 0.287637 0.215710 0.593740
O O8 0.421031 0.373257 0.634404
O O9 0.500000 0.281942 0.843284
O O10 0.392653 0.500000 0.860791
O O11 0.332258 0.277890 0.804704
O O12 0.368709 0.247203 0.912186
O O13 0.759072 0.500000 0.768638
O O14 0.833474 0.236954 0.775978
O O15 0.500000 0.285150 0.313697
O O16 0.610596 0.500000 0.329166
O O17 0.500000 0.783874 0.979608
O O18 0.610972 0.000000 0.967932
O O19 0.665392 0.757930 0.018119
O O20 0.743486 0.500000 0.025221
#
# Coordination Sequence:
#
# PCOD9375997 Si02
#       8
#     8   8   8   8   8   8   8   2
#     4   9  19  34  53  78 110 144 179 219 271 330
#     4   9  21  37  58  82 109 145 184 220 266 320
#     4   9  18  31  53  82 112 143 179 220 273 329
#     4  10  20  34  56  81 107 142 183 223 267 321
#     4  10  21  36  53  78 109 143 180 225 275 324
#     4  10  21  37  55  78 110 147 185 229 277 329
#     4  11  22  36  56  82 112 143 186 231 277 328
#     4   8  20  40  62  80 114 144 190 220 264 318
#
# _framework density 8.9506169999999994
#
# number of rings (size 3 to 8) (size 9 to 14) (size 15 to 20)
#    0.414    1.931    0.000    2.069    1.931    7.172 
#    0.000    0.690    0.000    0.828    0.000    0.000 
#    0.000    0.000    0.000    0.000    0.000    0.000 
#
# Total GULP energy -161435.444700 kJ/mol
# GULP energy per Si atom -5566.739472 kJ/mol
# Density = 0.893025 g / cm^3
# Si number density = 8.950617 Si / 1000 Ang^3
#
#
#
# Elastic Constant Matrix: (Units=GPa)
#
#
# Indices 1 2 3 4 5 6 
#
# 1 52.5535 27.3153 32.1380 0.0000 0.0000 0.0000
# 2 27.3153 -2.3153 19.8316 0.0000 0.0000 0.0000
# 3 32.1380 19.8316 27.9574 0.0000 0.0000 0.0000
# 4 0.0000 0.0000 0.0000 22.8027 0.0000 0.0000
# 5 0.0000 0.0000 0.0000 0.0000 -0.7504 0.0000
# 6 0.0000 0.0000 0.0000 0.0000 0.0000 20.6274
#
#
#
# Elastic Compliance Matrix: (Units=1/GPa)
#
#
# Indices 1 2 3 4 5 6 
#
# 1 0.059326 0.016362 -0.079803 0.000000 0.000000 0.000000
# 2 0.016362 -0.056527 0.021289 0.000000 0.000000 0.000000
# 3 -0.079803 0.021289 0.112404 0.000000 0.000000 0.000000
# 4 0.000000 0.000000 0.000000 0.043854 0.000000 0.000000
# 5 0.000000 0.000000 0.000000 0.000000 -1.332562 0.000000
# 6 0.000000 0.000000 0.000000 0.000000 0.000000 0.048479
#
#
# Mechanical properties :
#
#
# Convention : Reuss Voigt Hill
#
# Bulk Modulus (GPa) = 32.36484 26.30726 29.33605
# Shear Modulus (GPa) = -4.85239 8.46332 1.80547
#
# Velocity S-wave (km/s) = -1.64819 2.17671 1.00537
# Velocity P-wave (km/s) = 3.80748 4.58749 4.21556
#
# Compressibility (1/GPa) = 0.03089773
#
# Stress axis : x y z
#
# Youngs Moduli (GPa) = 16.85603 -17.69067 8.89650
#
# Poissons Ratio (x) = 0.28945 0.70997
# Poissons Ratio (y) = -0.27579 -0.18940
# Poissons Ratio (z) = 1.34517 0.37662
#
# Static dielectric constant tensor:
#      x y z
#    x 1.614390 0.000000 0.000000 
#    y 0.000000 1.603860 0.000000 
#    z 0.000000 0.000000 1.603250 
# 
# From -- ./inp_files/25721.got.cif
#   From: 2010.05.17/outbox.ucp.g08.bks.cvg/sg44_13_cif.got.tgz:25721.got - 2010.06.11 16:32:36.
