data_PCOD9375166
_publ_section_title
;
Structure prediction by ZEFSAII (Michael W. Deem and Ramdas Pophale) SiO2 
 PCOD9375166
Probable space group: I M M 2
;
_chemical_formula_sum "Si O2"
_cell_formula_units_Z 64
_cell_length_a 24.162482
_cell_length_b 14.506416
_cell_length_c 8.966225
_cell_angle_alpha 90.000000
_cell_angle_beta 90.000000
_cell_angle_gamma 90.000000
_cell_volume 3142.760630
_symmetry_space_group_name_H-M "I M M 2"
_symmetry_group_IT_number 44
_symmetry_cell_setting 'orthorhombic'
loop_
_space_group_symop_operation_xyz
x,y,z
-x,-y,z
-x,y,z
x,-y,z
1/2+x,1/2+y,1/2+z
1/2-x,1/2-y,1/2+z
1/2-x,1/2+y,1/2+z
1/2+x,1/2-y,1/2+z
loop_
_atom_site_type_symbol
_atom_site_label
_atom_site_fract_x
_atom_site_fract_y
_atom_site_fract_z
Si Si1 0.397952 0.605457 0.605910
Si Si2 0.831270 0.389875 0.466944
Si Si3 0.436256 0.227406 0.446198
Si Si4 0.437836 0.399900 0.929326
Si Si5 0.120826 0.229854 0.635315
Si Si6 0.778545 0.111410 0.145028
Si Si7 0.222545 0.887196 0.493788
Si Si8 0.845010 0.610548 0.120377
O O1 0.407725 0.500000 0.558545
O O2 0.439112 0.678770 0.541007
O O3 0.399658 0.606821 0.785340
O O4 0.336011 0.637543 0.568689
O O5 0.837485 0.500000 0.480692
O O6 0.872130 0.330864 0.566730
O O7 0.771874 0.363809 0.537813
O O8 0.840275 0.364290 0.295025
O O9 0.500000 0.196440 0.416325
O O10 0.400260 0.255933 0.301778
O O11 0.397231 0.157625 0.539907
O O12 0.500000 0.397300 0.871114
O O13 0.428621 0.500000 0.000627
O O14 0.426979 0.322240 0.046532
O O15 0.175554 0.167948 0.589400
O O16 0.776488 0.141431 0.318194
O O17 0.778894 0.000000 0.153724
O O18 0.284569 0.867478 0.552016
O O19 0.213543 0.000000 0.504062
O O20 0.851366 0.500000 0.109633
#
# Coordination Sequence:
#
# PCOD9375166 Si02
#       8
#     8   8   8   8   8   8   8   8
#     4  10  21  38  62  90 126 171 215 261 319 386
#     4  10  23  41  65  97 128 163 209 271 337 400
#     4  12  28  45  63  92 131 180 234 278 328 395
#     4  10  20  38  63  91 127 170 217 265 317 385
#     4  12  24  38  64  94 131 175 217 269 331 399
#     4   9  18  36  61  92 130 166 204 252 318 395
#     4  10  21  38  64 101 138 170 207 258 329 406
#     4  10  24  45  69  96 127 167 219 280 342 397
#
# _framework density 20.364260999999999
#
# number of rings (size 3 to 8) (size 9 to 14) (size 15 to 20)
#    0.000    1.625    1.250    2.625    3.500    3.500 
#    0.000    0.625    0.000    2.625    0.000    0.000 
#    0.000    0.000    0.000    0.000    0.000    0.000 
#
# Total GULP energy -178545.864006 kJ/mol
# GULP energy per Si atom -5579.558250 kJ/mol
# Density = 2.031791 g / cm^3
# Si number density = 20.364261 Si / 1000 Ang^3
#
#
#
# Elastic Constant Matrix: (Units=GPa)
#
#
# Indices 1 2 3 4 5 6 
#
# 1 107.7433 39.0843 61.6286 0.0000 0.0000 0.0000
# 2 39.0843 56.0211 33.3795 0.0000 0.0000 0.0000
# 3 61.6286 33.3795 91.9717 0.0000 0.0000 0.0000
# 4 0.0000 0.0000 0.0000 25.7922 0.0000 0.0000
# 5 0.0000 0.0000 0.0000 0.0000 20.1233 0.0000
# 6 0.0000 0.0000 0.0000 0.0000 0.0000 -16.0312
#
#
#
# Elastic Compliance Matrix: (Units=1/GPa)
#
#
# Indices 1 2 3 4 5 6 
#
# 1 0.016644 -0.006337 -0.008853 0.000000 0.000000 0.000000
# 2 -0.006337 0.025188 -0.004895 0.000000 0.000000 0.000000
# 3 -0.008853 -0.004895 0.018582 0.000000 0.000000 0.000000
# 4 0.000000 0.000000 0.000000 0.038771 0.000000 0.000000
# 5 0.000000 0.000000 0.000000 0.000000 0.049694 0.000000
# 6 0.000000 0.000000 0.000000 0.000000 0.000000 -0.062378
#
#
# Mechanical properties :
#
#
# Convention : Reuss Voigt Hill
#
# Bulk Modulus (GPa) = 49.39852 58.21344 53.80598
# Shear Modulus (GPa) = 37.47588 14.08644 25.78116
#
# Velocity S-wave (km/s) = 4.29450 2.63292 3.56195
# Velocity P-wave (km/s) = 6.99288 6.15558 6.58755
#
# Compressibility (1/GPa) = 0.02024352
#
# Stress axis : x y z
#
# Youngs Moduli (GPa) = 60.08210 39.70076 53.81641
#
# Poissons Ratio (x) = 0.25159 0.47643
# Poissons Ratio (y) = 0.38075 0.26345
# Poissons Ratio (z) = 0.53190 0.19435
#
# Static dielectric constant tensor:
#      x y z
#    x 1.764720 0.000000 0.000000 
#    y 0.000000 1.737360 0.000000 
#    z 0.000000 0.000000 1.721230 
# 
# From -- ./inp_files/7542.got.cif
#   From: 2010.05.17/outbox.cif.g08.bks.cpg/sg44_4_cif.got.tgz:7542.got - 2010.06.03 19:37:08.
