data_PCOD9375784
_publ_section_title
;
Structure prediction by ZEFSAII (Michael W. Deem and Ramdas Pophale) SiO2 
 PCOD9375784
Probable space group: I M M 2
;
_chemical_formula_sum "Si O2"
_cell_formula_units_Z 40
_cell_length_a 11.602908
_cell_length_b 23.544164
_cell_length_c 7.671999
_cell_angle_alpha 90.000000
_cell_angle_beta 90.000000
_cell_angle_gamma 90.000000
_cell_volume 2095.842585
_symmetry_space_group_name_H-M "I M M 2"
_symmetry_group_IT_number 44
_symmetry_cell_setting 'orthorhombic'
loop_
_space_group_symop_operation_xyz
x,y,z
-x,-y,z
-x,y,z
x,-y,z
1/2+x,1/2+y,1/2+z
1/2-x,1/2-y,1/2+z
1/2-x,1/2+y,1/2+z
1/2+x,1/2-y,1/2+z
loop_
_atom_site_type_symbol
_atom_site_label
_atom_site_fract_x
_atom_site_fract_y
_atom_site_fract_z
Si Si1 0.000000 0.500000 0.901870
Si Si2 0.257647 0.183625 0.443020
Si Si3 0.500000 0.874653 0.357266
Si Si4 0.500000 0.000000 0.892486
Si Si5 0.000000 0.374659 0.436923
Si Si6 0.242359 0.316392 0.351152
Si Si7 0.286381 0.000000 0.147188
Si Si8 0.635194 0.613422 0.647105
O O1 0.000000 0.565709 0.960776
O O2 0.123819 0.500000 0.805604
O O3 0.385801 0.160487 0.401658
O O4 0.250013 0.250011 0.397112
O O5 0.232678 0.175329 0.647082
O O6 0.172530 0.149394 0.316443
O O7 0.500000 0.887360 0.147097
O O8 0.500000 0.934307 0.833460
O O9 0.376204 0.000000 0.988797
O O10 0.885801 0.339523 0.392508
O O11 0.327467 0.350638 0.477705
O O12 0.208528 0.944331 0.147165
O O13 0.500000 0.602042 0.647113
#
# Coordination Sequence:
#
# PCOD9375784 Si02
#       8
#     2   8   4   2   4   8   4   8
#     4  11  16  36  75  98 131 169 220 277 339 392
#     4  12  25  43  66 100 135 177 224 275 337 402
#     4  12  20  41  70 100 136 172 217 281 336 395
#     4  11  16  36  75  98 131 169 220 277 339 392
#     4  12  20  41  70 100 136 172 217 281 336 395
#     4  12  25  43  66 100 135 177 224 275 337 402
#     4  11  19  44  70 100 129 175 224 274 338 399
#     4  12  26  45  68  97 135 185 224 274 333 397
#
# _framework density 19.085402999999999
#
# number of rings (size 3 to 8) (size 9 to 14) (size 15 to 20)
#    0.000    0.200   10.000    0.900    2.800    0.800 
#    0.000    5.000    0.000    2.400    0.000    0.000 
#    0.000    0.000    0.000    0.000    0.000    0.000 
#
# Total GULP energy -111682.458194 kJ/mol
# GULP energy per Si atom -5584.122910 kJ/mol
# Density = 1.904196 g / cm^3
# Si number density = 19.085403 Si / 1000 Ang^3
#
#
#
# Elastic Constant Matrix: (Units=GPa)
#
#
# Indices 1 2 3 4 5 6 
#
# 1 166.7734 79.1534 46.8303 0.0008 -0.0002 -0.0002
# 2 79.1534 191.9789 52.0926 0.0030 -0.0012 -0.0011
# 3 46.8303 52.0926 172.4684 0.0071 -0.0021 -0.0014
# 4 0.0008 0.0030 0.0071 6.2004 -0.0015 -0.0011
# 5 -0.0002 -0.0012 -0.0021 -0.0015 21.4147 0.0004
# 6 -0.0002 -0.0011 -0.0014 -0.0011 0.0004 16.2895
#
#
#
# Elastic Compliance Matrix: (Units=1/GPa)
#
#
# Indices 1 2 3 4 5 6 
#
# 1 0.007688 -0.002836 -0.001231 0.000002 0.000000 0.000000
# 2 -0.002836 0.006720 -0.001260 -0.000001 0.000000 0.000000
# 3 -0.001231 -0.001260 0.006513 -0.000007 0.000001 0.000000
# 4 0.000002 -0.000001 -0.000007 0.161280 0.000011 0.000010
# 5 0.000000 0.000000 0.000001 0.000011 0.046697 -0.000001
# 6 0.000000 0.000000 0.000000 0.000010 -0.000001 0.061389
#
#
# Mechanical properties :
#
#
# Convention : Reuss Voigt Hill
#
# Bulk Modulus (GPa) = 97.39174 98.59704 97.99439
# Shear Modulus (GPa) = 16.42783 32.32389 24.37586
#
# Velocity S-wave (km/s) = 2.93704 4.11986 3.57767
# Velocity P-wave (km/s) = 7.91466 8.62578 8.27786
#
# Compressibility (1/GPa) = 0.01026781
#
# Stress axis : x y z
#
# Youngs Moduli (GPa) = 130.07877 148.81260 153.54162
#
# Poissons Ratio (x) = 0.42198 0.18900
# Poissons Ratio (y) = 0.36885 0.19342
# Poissons Ratio (z) = 0.16012 0.18746
#
# Static dielectric constant tensor:
#      x y z
#    x 1.614660 0.000000 0.000000 
#    y 0.000000 1.653350 0.000000 
#    z 0.000000 0.000000 1.753790 
# 
# From -- ./inp_files/5912.got.cif
#   From: 2010.05.17/outbox.cif.g08.bks.cpg/sg44_3_cif.got.tgz:5912.got - 2010.06.03 19:37:08.
