data_PCOD9375364
_publ_section_title
;
Structure prediction by ZEFSAII (Michael W. Deem and Ramdas Pophale) SiO2 
 PCOD9375364
Probable space group: I M M 2
;
_chemical_formula_sum "Si O2"
_cell_formula_units_Z 58
_cell_length_a 17.836038
_cell_length_b 16.986223
_cell_length_c 10.035486
_cell_angle_alpha 90.000000
_cell_angle_beta 90.000000
_cell_angle_gamma 90.000000
_cell_volume 3040.420273
_symmetry_space_group_name_H-M "I M M 2"
_symmetry_group_IT_number 44
_symmetry_cell_setting 'orthorhombic'
loop_
_space_group_symop_operation_xyz
x,y,z
-x,-y,z
-x,y,z
x,-y,z
1/2+x,1/2+y,1/2+z
1/2-x,1/2-y,1/2+z
1/2-x,1/2+y,1/2+z
1/2+x,1/2-y,1/2+z
loop_
_atom_site_type_symbol
_atom_site_label
_atom_site_fract_x
_atom_site_fract_y
_atom_site_fract_z
Si Si1 0.911491 0.704496 0.886920
Si Si2 0.679890 0.653579 0.266562
Si Si3 0.000000 0.500000 0.546453
Si Si4 0.872920 0.622455 0.621749
Si Si5 0.171996 0.262982 0.151001
Si Si6 0.088629 0.086214 0.530062
Si Si7 0.411457 0.750285 0.915980
Si Si8 0.706354 0.588149 0.555765
O O1 0.882673 0.785197 0.819358
O O2 0.896215 0.639469 0.773815
O O3 0.000000 0.707501 0.917627
O O4 0.860718 0.696156 0.018532
O O5 0.747913 0.702583 0.198643
O O6 0.639980 0.598682 0.158838
O O7 0.707457 0.606561 0.396998
O O8 0.065441 0.432229 0.554999
O O9 0.873346 0.702878 0.536239
O O10 0.790634 0.587733 0.610781
O O11 0.117761 0.278672 0.274871
O O12 0.172861 0.168717 0.120113
O O13 0.106128 0.158137 0.432797
O O14 0.000000 0.092513 0.565733
O O15 0.100970 0.000000 0.471297
O O16 0.500000 0.760412 0.928242
O O17 0.673162 0.500000 0.577666
#
# Coordination Sequence:
#
# PCOD9375364 Si02
#       8
#     8   8   2   8   8   8   8   8
#     4  11  22  39  62  89 122 166 207 255 309 372
#     4  11  21  37  62  89 123 163 209 257 307 382
#     4  12  24  36  68 102 114 156 218 262 300 376
#     4  12  21  38  66  90 118 161 213 251 306 376
#     4  11  24  38  62  93 123 163 214 251 312 387
#     4  10  21  36  60  91 121 160 209 256 305 366
#     4  11  21  39  63  89 122 163 205 254 308 372
#     4  11  23  38  59  91 128 160 200 263 317 362
#
# _framework density 19.076309999999999
#
# number of rings (size 3 to 8) (size 9 to 14) (size 15 to 20)
#    0.000    0.966    6.207    1.241    1.931    0.552 
#    0.000    0.000    3.034    8.690    0.000    0.000 
#    0.000    0.000    0.000    0.000    0.000    0.000 
#
# Total GULP energy -161552.161669 kJ/mol
# GULP energy per Si atom -5570.764195 kJ/mol
# Density = 1.903289 g / cm^3
# Si number density = 19.076310 Si / 1000 Ang^3
#
#
#
# Elastic Constant Matrix: (Units=GPa)
#
#
# Indices 1 2 3 4 5 6 
#
# 1 22.7627 0.4546 2.5331 0.0000 0.0000 0.0000
# 2 0.4546 80.6948 11.9635 0.0000 0.0000 0.0000
# 3 2.5331 11.9635 76.1372 0.0000 0.0000 0.0000
# 4 0.0000 0.0000 0.0000 6.7933 0.0000 0.0000
# 5 0.0000 0.0000 0.0000 0.0000 23.9674 0.0000
# 6 0.0000 0.0000 0.0000 0.0000 0.0000 28.9437
#
#
#
# Elastic Compliance Matrix: (Units=1/GPa)
#
#
# Indices 1 2 3 4 5 6 
#
# 1 0.044095 -0.000032 -0.001462 0.000000 0.000000 0.000000
# 2 -0.000032 0.012688 -0.001993 0.000000 0.000000 0.000000
# 3 -0.001462 -0.001993 0.013496 0.000000 0.000000 0.000000
# 4 0.000000 0.000000 0.000000 0.147204 0.000000 0.000000
# 5 0.000000 0.000000 0.000000 0.000000 0.041723 0.000000
# 6 0.000000 0.000000 0.000000 0.000000 0.000000 0.034550
#
#
# Mechanical properties :
#
#
# Convention : Reuss Voigt Hill
#
# Bulk Modulus (GPa) = 15.79626 23.27744 19.53685
# Shear Modulus (GPa) = 15.53610 22.91711 19.22660
#
# Velocity S-wave (km/s) = 2.85690 3.46979 3.17815
# Velocity P-wave (km/s) = 4.37961 5.31802 4.87147
#
# Compressibility (1/GPa) = 0.06330614
#
# Stress axis : x y z
#
# Youngs Moduli (GPa) = 22.67836 78.81485 74.09642
#
# Poissons Ratio (x) = 0.00249 0.10833
# Poissons Ratio (y) = 0.00072 0.14765
# Poissons Ratio (z) = 0.03316 0.15705
#
# Static dielectric constant tensor:
#      x y z
#    x 1.648290 0.000000 0.000000 
#    y 0.000000 1.715970 0.000000 
#    z 0.000000 0.000000 1.645370 
# 
# From -- ./inp_files/8321.got.cif
#   From: 2010.05.17/outbox.cif.g08.bks.cpg/sg44_5_cif.got.tgz:8321.got - 2010.06.03 19:37:08.
