data_PCOD9375140
_publ_section_title
;
Structure prediction by ZEFSAII (Michael W. Deem and Ramdas Pophale) SiO2 
 PCOD9375140
Probable space group: I M M 2
;
_chemical_formula_sum "Si O2"
_cell_formula_units_Z 56
_cell_length_a 13.412980
_cell_length_b 20.442072
_cell_length_c 10.401229
_cell_angle_alpha 90.000000
_cell_angle_beta 90.000000
_cell_angle_gamma 90.000000
_cell_volume 2851.903649
_symmetry_space_group_name_H-M "I M M 2"
_symmetry_group_IT_number 44
_symmetry_cell_setting 'orthorhombic'
loop_
_space_group_symop_operation_xyz
x,y,z
-x,-y,z
-x,y,z
x,-y,z
1/2+x,1/2+y,1/2+z
1/2-x,1/2-y,1/2+z
1/2-x,1/2+y,1/2+z
1/2+x,1/2-y,1/2+z
loop_
_atom_site_type_symbol
_atom_site_label
_atom_site_fract_x
_atom_site_fract_y
_atom_site_fract_z
Si Si1 0.382686 0.000000 0.792531
Si Si2 0.688834 0.866510 0.670799
Si Si3 0.681323 0.142752 0.146291
Si Si4 0.388001 0.656465 0.520781
Si Si5 0.181200 0.705737 0.915139
Si Si6 0.884897 0.922394 0.764029
Si Si7 0.880267 0.500000 0.586011
Si Si8 0.115219 0.724991 0.400983
O O1 0.353383 0.064514 0.716680
O O2 0.500000 0.000000 0.807798
O O3 0.341571 0.000000 0.938081
O O4 0.659371 0.844657 0.529211
O O5 0.807518 0.877534 0.686702
O O6 0.648170 0.813280 0.771929
O O7 0.799659 0.150796 0.122491
O O8 0.652258 0.179606 0.275971
O O9 0.655662 0.066602 0.150714
O O10 0.629498 0.175139 0.021205
O O11 0.500000 0.653451 0.572870
O O12 0.371086 0.725605 0.448908
O O13 0.375128 0.600585 0.412303
O O14 0.300190 0.720371 0.919075
O O15 0.000000 0.911674 0.726954
O O16 0.863176 0.000000 0.751012
O O17 0.000000 0.500000 0.585547
O O18 0.000000 0.745260 0.393441
#
# Coordination Sequence:
#
# PCOD9375140 Si02
#       8
#     4   8   8   8   8   8   4   8
#     4  11  22  39  66  92 115 156 211 258 302 361
#     4  12  22  40  64  91 125 161 203 254 304 366
#     4  11  23  41  62  93 126 160 204 256 306 361
#     4  10  22  39  64  90 121 162 203 250 303 361
#     4  11  26  40  57  93 133 164 196 249 314 366
#     4  10  20  37  64  93 114 149 205 260 304 352
#     4  11  22  41  68  92 117 156 209 260 304 357
#     4  11  22  40  67  91 119 165 213 250 297 363
#
# _framework density 19.636006999999999
#
# number of rings (size 3 to 8) (size 9 to 14) (size 15 to 20)
#    0.000    1.143    5.000    2.571    1.000    5.143 
#    0.000    0.714    0.000    0.000    0.000    0.000 
#    0.000    0.000    0.000    0.000    0.000    0.000 
#
# Total GULP energy -156496.839232 kJ/mol
# GULP energy per Si atom -5589.172830 kJ/mol
# Density = 1.959131 g / cm^3
# Si number density = 19.636007 Si / 1000 Ang^3
#
#
#
# Elastic Constant Matrix: (Units=GPa)
#
#
# Indices 1 2 3 4 5 6 
#
# 1 75.8317 0.8261 5.4733 0.0000 0.0000 0.0000
# 2 0.8261 72.2701 17.6995 0.0000 0.0000 0.0000
# 3 5.4733 17.6995 72.3538 0.0002 0.0000 0.0000
# 4 0.0000 0.0000 0.0002 44.7436 0.0000 0.0000
# 5 0.0000 0.0000 0.0000 0.0000 -0.4210 0.0000
# 6 0.0000 0.0000 0.0000 0.0000 0.0000 9.0110
#
#
#
# Elastic Compliance Matrix: (Units=1/GPa)
#
#
# Indices 1 2 3 4 5 6 
#
# 1 0.013260 0.000100 -0.001028 0.000000 0.000000 0.000000
# 2 0.000100 0.014720 -0.003608 0.000000 0.000000 0.000000
# 3 -0.001028 -0.003608 0.014781 0.000000 0.000000 0.000000
# 4 0.000000 0.000000 0.000000 0.022350 0.000000 0.000000
# 5 0.000000 0.000000 0.000000 0.000000 -2.375173 0.000002
# 6 0.000000 0.000000 0.000000 0.000000 0.000002 0.110976
#
#
# Mechanical properties :
#
#
# Convention : Reuss Voigt Hill
#
# Bulk Modulus (GPa) = 29.68284 29.82814 29.75549
# Shear Modulus (GPa) = -2.29486 23.76383 10.73448
#
# Velocity S-wave (km/s) = -1.08224 3.48259 2.34064
# Velocity P-wave (km/s) = 3.68615 5.60310 4.74249
#
# Compressibility (1/GPa) = 0.03368950
#
# Stress axis : x y z
#
# Youngs Moduli (GPa) = 75.41382 67.93683 67.65261
#
# Poissons Ratio (x) = -0.00680 0.06952
# Poissons Ratio (y) = -0.00755 0.24411
# Poissons Ratio (z) = 0.07749 0.24514
#
# Static dielectric constant tensor:
#      x y z
#    x 1.730110 0.000000 0.000000 
#    y 0.000000 1.662690 0.000000 
#    z 0.000000 0.000000 1.659040 
# 
# From -- ./inp_files/7427.got.cif
#   From: 2010.05.17/outbox.cif.g08.bks.cpg/sg44_4_cif.got.tgz:7427.got - 2010.06.03 19:37:08.
