data_PCOD9375048
_publ_section_title
;
Structure prediction by ZEFSAII (Michael W. Deem and Ramdas Pophale) SiO2 
 PCOD9375048
Probable space group: I M M 2
;
_chemical_formula_sum "Si O2"
_cell_formula_units_Z 52
_cell_length_a 7.613337
_cell_length_b 14.003204
_cell_length_c 19.433912
_cell_angle_alpha 90.000000
_cell_angle_beta 90.000000
_cell_angle_gamma 90.000000
_cell_volume 2071.870952
_symmetry_space_group_name_H-M "I M M 2"
_symmetry_group_IT_number 44
_symmetry_cell_setting 'orthorhombic'
loop_
_space_group_symop_operation_xyz
x,y,z
-x,-y,z
-x,y,z
x,-y,z
1/2+x,1/2+y,1/2+z
1/2-x,1/2-y,1/2+z
1/2-x,1/2+y,1/2+z
1/2+x,1/2-y,1/2+z
loop_
_atom_site_type_symbol
_atom_site_label
_atom_site_fract_x
_atom_site_fract_y
_atom_site_fract_z
Si Si1 0.709342 0.108026 0.814170
Si Si2 0.786142 0.603769 0.473074
Si Si3 0.795863 0.188055 0.485343
Si Si4 0.702767 0.605586 0.685566
Si Si5 0.500000 0.124020 0.580346
Si Si6 0.291486 0.108720 0.344198
Si Si7 0.311338 0.688383 0.176786
O O1 0.500000 0.123863 0.815264
O O2 0.769610 0.109813 0.893053
O O3 0.792131 0.177717 0.759001
O O4 0.742007 0.000000 0.788923
O O5 0.727505 0.500000 0.500426
O O6 0.732938 0.704251 0.505352
O O7 0.000000 0.603352 0.474099
O O8 0.655878 0.120615 0.521480
O O9 0.783097 0.176662 0.402934
O O10 0.000000 0.175521 0.503664
O O11 0.500000 0.611242 0.663376
O O12 0.773657 0.500000 0.667888
O O13 0.708944 0.613087 0.768594
O O14 0.799580 0.699147 0.659304
O O15 0.652808 0.136147 0.639735
O O16 0.500000 0.123813 0.336725
O O17 0.261697 0.000000 0.368806
O O18 0.500000 0.649567 0.156917
#
# Coordination Sequence:
#
# PCOD9375048 Si02
#       7
#     8   8   8   8   4   8   8
#     4   9  17  35  64  95 127 158 194 251 316 372
#     4   8  16  33  61  95 125 154 192 245 312 371
#     4  11  22  40  65  87 119 166 210 257 304 357
#     4  10  20  37  63  95 128 159 200 258 320 379
#     4  12  26  46  60  86 128 168 224 254 292 372
#     4  10  20  36  61  95 130 159 197 256 321 379
#     4  12  24  41  64  87 122 168 210 259 310 363
#
# _framework density 25.098089999999999
#
# number of rings (size 3 to 8) (size 9 to 14) (size 15 to 20)
#    0.000    1.846    2.308    3.231    0.000    3.385 
#    1.385    3.462    0.000    3.692    0.000    0.000 
#    0.000    0.000    0.000    0.000    0.000    0.000 
#
# Total GULP energy -144950.858183 kJ/mol
# GULP energy per Si atom -5575.033007 kJ/mol
# Density = 2.504097 g / cm^3
# Si number density = 25.098090 Si / 1000 Ang^3
#
#
#
# Elastic Constant Matrix: (Units=GPa)
#
#
# Indices 1 2 3 4 5 6 
#
# 1 145.4752 15.0670 3.9584 0.0000 0.0000 0.0000
# 2 15.0670 91.4101 3.1301 0.0000 0.0000 0.0000
# 3 3.9584 3.1301 96.1236 0.0000 0.0000 0.0000
# 4 0.0000 0.0000 0.0000 -89.1859 0.0000 0.0000
# 5 0.0000 0.0000 0.0000 0.0000 19.0685 0.0000
# 6 0.0000 0.0000 0.0000 0.0000 0.0000 7.8235
#
#
#
# Elastic Compliance Matrix: (Units=1/GPa)
#
#
# Indices 1 2 3 4 5 6 
#
# 1 0.006999 -0.001145 -0.000251 0.000000 0.000000 0.000000
# 2 -0.001145 0.011139 -0.000316 0.000000 0.000000 0.000000
# 3 -0.000251 -0.000316 0.010424 0.000000 0.000000 0.000000
# 4 0.000000 0.000000 0.000000 -0.011213 0.000000 0.000000
# 5 0.000000 0.000000 0.000000 0.000000 0.052442 0.000000
# 6 0.000000 0.000000 0.000000 0.000000 0.000000 0.127821
#
#
# Mechanical properties :
#
#
# Convention : Reuss Voigt Hill
#
# Bulk Modulus (GPa) = 39.77834 41.92444 40.85139
# Shear Modulus (GPa) = 23.87591 8.26478 16.07035
#
# Velocity S-wave (km/s) = 3.08767 1.81663 2.53316
# Velocity P-wave (km/s) = 5.34744 4.59790 4.98677
#
# Compressibility (1/GPa) = 0.02513931
#
# Stress axis : x y z
#
# Youngs Moduli (GPa) = 142.86835 89.77255 95.93350
#
# Poissons Ratio (x) = 0.10280 0.02407
# Poissons Ratio (y) = 0.16360 0.03027
# Poissons Ratio (z) = 0.03585 0.02833
#
# Static dielectric constant tensor:
#      x y z
#    x 1.852240 0.000000 0.000000 
#    y 0.000000 2.067040 0.000000 
#    z 0.000000 0.000000 1.962450 
# 
# From -- ./inp_files/22969.got.cif
#   From: 2010.05.17/outbox.cif.g08.bks.cpg/sg44_12_cif.got.tgz:22969.got - 2010.06.03 19:37:08.
