data_PCOD9375052
_publ_section_title
;
Structure prediction by ZEFSAII (Michael W. Deem and Ramdas Pophale) SiO2 
 PCOD9375052
Probable space group: I M M 2
;
_chemical_formula_sum "Si O2"
_cell_formula_units_Z 58
_cell_length_a 18.651168
_cell_length_b 7.661390
_cell_length_c 17.572178
_cell_angle_alpha 90.000000
_cell_angle_beta 90.000000
_cell_angle_gamma 90.000000
_cell_volume 2510.956554
_symmetry_space_group_name_H-M "I M M 2"
_symmetry_group_IT_number 44
_symmetry_cell_setting 'orthorhombic'
loop_
_space_group_symop_operation_xyz
x,y,z
-x,-y,z
-x,y,z
x,-y,z
1/2+x,1/2+y,1/2+z
1/2-x,1/2-y,1/2+z
1/2-x,1/2+y,1/2+z
1/2+x,1/2-y,1/2+z
loop_
_atom_site_type_symbol
_atom_site_label
_atom_site_fract_x
_atom_site_fract_y
_atom_site_fract_z
Si Si1 0.892514 0.809129 0.074840
Si Si2 0.676203 0.289753 0.194648
Si Si3 0.661883 0.204981 0.728730
Si Si4 0.500000 0.000000 0.537561
Si Si5 0.920175 0.213273 0.556747
Si Si6 0.702739 0.210938 0.455942
Si Si7 0.357509 0.710890 0.898812
Si Si8 0.418735 0.209097 0.340096
O O1 0.886962 0.793121 0.165203
O O2 0.938803 0.652779 0.041963
O O3 0.918030 0.000000 0.053451
O O4 0.813529 0.779281 0.039776
O O5 0.680680 0.500000 0.191072
O O6 0.755666 0.228268 0.220016
O O7 0.618460 0.243142 0.259454
O O8 0.642005 0.228596 0.114761
O O9 0.631160 0.227930 0.813094
O O10 0.662482 0.000000 0.710236
O O11 0.906453 0.267434 0.469516
O O12 0.000000 0.266609 0.581878
O O13 0.918397 0.000000 0.557425
O O14 0.777418 0.268878 0.421314
O O15 0.637386 0.274112 0.402957
O O16 0.704717 0.000000 0.457159
O O17 0.359677 0.500000 0.896787
O O18 0.500000 0.277159 0.345278
O O19 0.423386 0.000000 0.351668
#
# Coordination Sequence:
#
# PCOD9375052 Si02
#       8
#     8   8   8   2   8   8   8   8
#     4  12  26  44  72  99 131 182 228 273 346 412
#     4  10  20  36  62  87 121 168 214 268 336 394
#     4  11  22  41  63  92 131 168 218 285 335 392
#     4  12  26  52  68  98 144 172 222 296 328 402
#     4   9  18  34  57  87 121 159 209 270 332 396
#     4  10  20  38  62  89 132 175 221 285 337 396
#     4  10  20  37  63  92 125 171 223 275 339 403
#     4  10  21  34  55  86 126 172 210 264 337 397
#
# _framework density 23.098766999999999
#
# number of rings (size 3 to 8) (size 9 to 14) (size 15 to 20)
#    0.000    1.655    2.759    1.862    0.966    4.690 
#    1.241    0.690    0.000    0.828    0.000    0.000 
#    0.000    0.000    0.000    0.000    0.000    0.000 
#
# Total GULP energy -161878.957969 kJ/mol
# GULP energy per Si atom -5582.033033 kJ/mol
# Density = 2.304619 g / cm^3
# Si number density = 23.098767 Si / 1000 Ang^3
#
#
#
# Elastic Constant Matrix: (Units=GPa)
#
#
# Indices 1 2 3 4 5 6 
#
# 1 43.0115 9.1414 -8.1767 0.0000 0.0000 0.0000
# 2 9.1414 87.5693 -4.0625 0.0000 0.0000 0.0000
# 3 -8.1767 -4.0625 99.8528 0.0000 0.0000 0.0000
# 4 0.0000 0.0000 0.0000 255.7945 0.0000 0.0000
# 5 0.0000 0.0000 0.0000 0.0000 4.6731 0.0000
# 6 0.0000 0.0000 0.0000 0.0000 0.0000 -14.9193
#
#
#
# Elastic Compliance Matrix: (Units=1/GPa)
#
#
# Indices 1 2 3 4 5 6 
#
# 1 0.024123 -0.002431 0.001876 0.000000 0.000000 0.000000
# 2 -0.002431 0.011686 0.000276 0.000000 0.000000 0.000000
# 3 0.001876 0.000276 0.010180 0.000000 0.000000 0.000000
# 4 0.000000 0.000000 0.000000 0.003909 0.000000 0.000000
# 5 0.000000 0.000000 0.000000 0.000000 0.213989 0.000000
# 6 0.000000 0.000000 0.000000 0.000000 0.000000 -0.067027
#
#
# Mechanical properties :
#
#
# Convention : Reuss Voigt Hill
#
# Bulk Modulus (GPa) = 22.01087 24.91535 23.46311
# Shear Modulus (GPa) = 23.52270 64.67845 44.10057
#
# Velocity S-wave (km/s) = 3.19463 5.29732 4.37420
# Velocity P-wave (km/s) = 4.81220 6.94445 5.97422
#
# Compressibility (1/GPa) = 0.04543210
#
# Stress axis : x y z
#
# Youngs Moduli (GPa) = 41.45421 85.57150 98.23530
#
# Poissons Ratio (x) = 0.20804 -0.18433
# Poissons Ratio (y) = 0.10078 -0.02715
# Poissons Ratio (z) = -0.07779 -0.02365
#
# Static dielectric constant tensor:
#      x y z
#    x 1.885270 0.000000 0.000000 
#    y 0.000000 1.693820 0.000000 
#    z 0.000000 0.000000 1.875870 
# 
# From -- ./inp_files/22121.got.cif
#   From: 2010.05.17/outbox.cif.g08.bks.cpg/sg44_12_cif.got.tgz:22121.got - 2010.06.03 19:37:08.
