data_PCOD9375256
_publ_section_title
;
Structure prediction by ZEFSAII (Michael W. Deem and Ramdas Pophale) SiO2 
 PCOD9375256
Probable space group: I M M 2
;
_chemical_formula_sum "Si O2"
_cell_formula_units_Z 56
_cell_length_a 13.620509
_cell_length_b 22.074839
_cell_length_c 11.332873
_cell_angle_alpha 90.000000
_cell_angle_beta 90.000000
_cell_angle_gamma 90.000000
_cell_volume 3407.461082
_symmetry_space_group_name_H-M "I M M 2"
_symmetry_group_IT_number 44
_symmetry_cell_setting 'orthorhombic'
loop_
_space_group_symop_operation_xyz
x,y,z
-x,-y,z
-x,y,z
x,-y,z
1/2+x,1/2+y,1/2+z
1/2-x,1/2-y,1/2+z
1/2-x,1/2+y,1/2+z
1/2+x,1/2-y,1/2+z
loop_
_atom_site_type_symbol
_atom_site_label
_atom_site_fract_x
_atom_site_fract_y
_atom_site_fract_z
Si Si1 0.884983 0.571849 0.940240
Si Si2 0.115740 0.635890 0.190484
Si Si3 0.789402 0.428309 0.405971
Si Si4 0.885003 0.246953 0.333413
Si Si5 0.112551 0.072832 0.066929
Si Si6 0.887177 0.667651 0.558708
Si Si7 0.243924 0.861475 0.259417
O O1 0.869907 0.500000 0.964364
O O2 0.810773 0.595860 0.841112
O O3 0.000000 0.578912 0.904929
O O4 0.870148 0.612247 0.058097
O O5 0.183189 0.597704 0.278998
O O6 0.133661 0.706155 0.224730
O O7 0.000000 0.625144 0.220269
O O8 0.799452 0.500000 0.407035
O O9 0.680898 0.411901 0.454172
O O10 0.863290 0.397024 0.498551
O O11 0.868605 0.284850 0.453359
O O12 0.816895 0.188808 0.329234
O O13 0.000000 0.230244 0.328349
O O14 0.167478 0.100882 0.179438
O O15 0.000000 0.093543 0.056868
O O16 0.112557 0.000000 0.077400
O O17 0.815861 0.673056 0.668771
O O18 0.000000 0.671711 0.593880
#
# Coordination Sequence:
#
# PCOD9375256 Si02
#       7
#     8   8   8   8   8   8   8
#     4  10  21  35  52  79 113 143 172 211 261 317
#     4   9  18  33  52  76 107 137 169 208 255 312
#     4   9  16  28  51  77  97 128 168 206 255 307
#     4   9  19  34  52  72  98 134 177 218 256 300
#     4   9  18  32  49  72 100 130 170 218 260 299
#     4   9  19  33  47  72 103 128 161 211 259 303
#     4  11  20  31  54  73 100 137 175 210 257 312
#
# _framework density 16.434524
#
# number of rings (size 3 to 8) (size 9 to 14) (size 15 to 20)
#    0.000    2.571    0.000    3.000    2.000    2.286 
#    0.000    0.000    0.000    5.143    0.000    2.000 
#    0.000    0.000    0.000    0.000    0.000    0.000 
#
# Total GULP energy -156012.931070 kJ/mol
# GULP energy per Si atom -5571.890395 kJ/mol
# Density = 1.639712 g / cm^3
# Si number density = 16.434524 Si / 1000 Ang^3
#
#
#
# Elastic Constant Matrix: (Units=GPa)
#
#
# Indices 1 2 3 4 5 6 
#
# 1 82.7872 29.7897 41.0752 0.0000 0.0000 0.0000
# 2 29.7897 38.2784 10.7452 0.0001 0.0000 0.0000
# 3 41.0752 10.7452 49.1199 0.0003 -0.0002 0.0000
# 4 0.0000 0.0001 0.0003 12.0182 -0.0001 0.0000
# 5 0.0000 0.0000 -0.0002 -0.0001 26.5654 0.0000
# 6 0.0000 0.0000 0.0000 0.0000 0.0000 29.0419
#
#
#
# Elastic Compliance Matrix: (Units=1/GPa)
#
#
# Indices 1 2 3 4 5 6 
#
# 1 0.027478 -0.015911 -0.019497 0.000001 0.000000 0.000000
# 2 -0.015911 0.037047 0.005201 0.000000 0.000000 0.000000
# 3 -0.019497 0.005201 0.035525 -0.000001 0.000000 0.000000
# 4 0.000001 0.000000 -0.000001 0.083207 0.000000 0.000000
# 5 0.000000 0.000000 0.000000 0.000000 0.037643 0.000000
# 6 0.000000 0.000000 0.000000 0.000000 0.000000 0.034433
#
#
# Mechanical properties :
#
#
# Convention : Reuss Voigt Hill
#
# Bulk Modulus (GPa) = 25.23012 37.04507 31.13760
# Shear Modulus (GPa) = 15.19943 19.43012 17.31478
#
# Velocity S-wave (km/s) = 3.04443 3.44215 3.24938
# Velocity P-wave (km/s) = 5.26719 6.19579 5.75027
#
# Compressibility (1/GPa) = 0.03963516
#
# Stress axis : x y z
#
# Youngs Moduli (GPa) = 36.39241 26.99259 28.14953
#
# Poissons Ratio (x) = 0.42949 0.54884
# Poissons Ratio (y) = 0.57906 -0.14641
# Poissons Ratio (z) = 0.70955 -0.14040
#
# Static dielectric constant tensor:
#      x y z
#    x 1.548070 0.000000 0.000000 
#    y 0.000000 1.540010 0.000000 
#    z 0.000000 0.000000 1.547060 
# 
# From -- ./inp_files/12430.got.cif
#   From: 2010.05.17/outbox.cif.g08.bks.cpg/sg44_7_cif.got.tgz:12430.got - 2010.06.03 19:37:08.
