data_PCOD9375705
_publ_section_title
;
Structure prediction by ZEFSAII (Michael W. Deem and Ramdas Pophale) SiO2 
 PCOD9375705
Probable space group: I M M 2
;
_chemical_formula_sum "Si O2"
_cell_formula_units_Z 56
_cell_length_a 22.032078
_cell_length_b 13.548338
_cell_length_c 8.196189
_cell_angle_alpha 90.000000
_cell_angle_beta 90.000000
_cell_angle_gamma 90.000000
_cell_volume 2446.546349
_symmetry_space_group_name_H-M "I M M 2"
_symmetry_group_IT_number 44
_symmetry_cell_setting 'orthorhombic'
loop_
_space_group_symop_operation_xyz
x,y,z
-x,-y,z
-x,y,z
x,-y,z
1/2+x,1/2+y,1/2+z
1/2-x,1/2-y,1/2+z
1/2-x,1/2+y,1/2+z
1/2+x,1/2-y,1/2+z
loop_
_atom_site_type_symbol
_atom_site_label
_atom_site_fract_x
_atom_site_fract_y
_atom_site_fract_z
Si Si1 0.818193 0.287417 0.190050
Si Si2 0.762700 0.150027 0.968898
Si Si3 0.867104 0.115463 0.406701
Si Si4 0.371675 0.674933 0.275753
Si Si5 0.000000 0.119456 0.286663
Si Si6 0.145028 0.390035 0.656181
Si Si7 0.000000 0.881736 0.910669
Si Si8 0.929898 0.617101 0.317366
O O1 0.776571 0.353306 0.305149
O O2 0.828550 0.184175 0.286764
O O3 0.885015 0.333787 0.184929
O O4 0.778849 0.259444 0.034555
O O5 0.829822 0.120470 0.911070
O O6 0.715445 0.107455 0.098486
O O7 0.855191 0.136039 0.596173
O O8 0.937353 0.145860 0.374527
O O9 0.859337 0.000000 0.369875
O O10 0.362768 0.793585 0.266781
O O11 0.440459 0.653921 0.319210
O O12 0.000000 0.000000 0.284445
O O13 0.000000 0.152265 0.098731
O O14 0.129193 0.500000 0.718706
O O15 0.103356 0.369921 0.494018
O O16 0.000000 0.000000 0.910114
O O17 0.930529 0.500000 0.288549
O O18 0.000000 0.651163 0.318156
#
# Coordination Sequence:
#
# PCOD9375705 Si02
#       8
#     8   8   8   8   4   8   4   8
#     4  11  21  39  62  91 125 166 216 269 329 394
#     4  11  22  43  64  91 131 170 221 276 333 393
#     4  11  22  37  61  93 127 168 215 270 333 396
#     4  12  23  42  66  99 136 173 220 283 335 403
#     4   9  21  41  61  91 132 172 217 262 325 409
#     4  10  22  40  65  94 127 178 228 269 326 396
#     4  11  25  43  66 103 140 176 218 270 346 417
#     4   9  19  37  63  93 122 163 216 266 318 385
#
# _framework density 22.889410000000002
#
# number of rings (size 3 to 8) (size 9 to 14) (size 15 to 20)
#    0.000    1.429    4.286    1.714    2.000    2.286 
#    1.286    4.286    0.000    0.000    0.000    1.000 
#    0.000    0.000    0.000    0.000    0.000    0.000 
#
# Total GULP energy -156324.616022 kJ/mol
# GULP energy per Si atom -5583.022001 kJ/mol
# Density = 2.283731 g / cm^3
# Si number density = 22.889410 Si / 1000 Ang^3
#
#
#
# Elastic Constant Matrix: (Units=GPa)
#
#
# Indices 1 2 3 4 5 6 
#
# 1 164.6771 30.4781 16.5432 0.0000 0.0000 0.0000
# 2 30.4781 102.3118 7.3779 0.0000 0.0000 0.0000
# 3 16.5432 7.3779 43.8364 0.0000 0.0000 0.0000
# 4 0.0000 0.0000 0.0000 6.8967 0.0000 0.0000
# 5 0.0000 0.0000 0.0000 0.0000 23.6465 0.0000
# 6 0.0000 0.0000 0.0000 0.0000 0.0000 17.0069
#
#
#
# Elastic Compliance Matrix: (Units=1/GPa)
#
#
# Indices 1 2 3 4 5 6 
#
# 1 0.006629 -0.001816 -0.002196 0.000000 0.000000 0.000000
# 2 -0.001816 0.010392 -0.001064 0.000000 0.000000 0.000000
# 3 -0.002196 -0.001064 0.023820 0.000000 0.000000 0.000000
# 4 0.000000 0.000000 0.000000 0.144996 0.000000 0.000000
# 5 0.000000 0.000000 0.000000 0.000000 0.042290 0.000000
# 6 0.000000 0.000000 0.000000 0.000000 0.000000 0.058800
#
#
# Mechanical properties :
#
#
# Convention : Reuss Voigt Hill
#
# Bulk Modulus (GPa) = 32.58505 46.62486 39.60496
# Shear Modulus (GPa) = 16.27032 26.60509 21.43770
#
# Velocity S-wave (km/s) = 2.66902 3.41300 3.06368
# Velocity P-wave (km/s) = 4.87493 5.99543 5.46398
#
# Compressibility (1/GPa) = 0.03068892
#
# Stress axis : x y z
#
# Youngs Moduli (GPa) = 150.84572 96.22926 41.98178
#
# Poissons Ratio (x) = 0.17480 0.09219
# Poissons Ratio (y) = 0.27401 0.04465
# Poissons Ratio (z) = 0.33127 0.10234
#
# Static dielectric constant tensor:
#      x y z
#    x 1.838530 0.000000 0.000000 
#    y 0.000000 1.885840 0.000000 
#    z 0.000000 0.000000 1.882740 
# 
# From -- ./inp_files/8934.got.cif
#   From: 2010.05.17/outbox.cif.g08.bks.cpg/sg44_5_cif.got.tgz:8934.got - 2010.06.03 19:37:08.
