data_PCOD9375123
_publ_section_title
;
Structure prediction by ZEFSAII (Michael W. Deem and Ramdas Pophale) SiO2 
 PCOD9375123
Probable space group: I M M 2
;
_chemical_formula_sum "Si O2"
_cell_formula_units_Z 40
_cell_length_a 11.973564
_cell_length_b 8.170463
_cell_length_c 20.744585
_cell_angle_alpha 90.000000
_cell_angle_beta 90.000000
_cell_angle_gamma 90.000000
_cell_volume 2029.433657
_symmetry_space_group_name_H-M "I M M 2"
_symmetry_group_IT_number 44
_symmetry_cell_setting 'orthorhombic'
loop_
_space_group_symop_operation_xyz
x,y,z
-x,-y,z
-x,y,z
x,-y,z
1/2+x,1/2+y,1/2+z
1/2-x,1/2-y,1/2+z
1/2-x,1/2+y,1/2+z
1/2+x,1/2-y,1/2+z
loop_
_atom_site_type_symbol
_atom_site_label
_atom_site_fract_x
_atom_site_fract_y
_atom_site_fract_z
Si Si1 0.629054 0.300306 0.272770
Si Si2 0.753485 0.304142 0.145119
Si Si3 0.500000 0.313674 0.631600
Si Si4 0.000000 0.313652 0.992062
Si Si5 0.629050 0.301960 0.016063
Si Si6 0.291781 0.694861 0.410821
O O1 0.500000 0.248448 0.279343
O O2 0.628439 0.500000 0.270680
O O3 0.683729 0.241670 0.206334
O O4 0.698564 0.253497 0.336339
O O5 0.740088 0.500000 0.143548
O O6 0.703625 0.243607 0.076894
O O7 0.883889 0.266586 0.152621
O O8 0.500000 0.500000 0.652910
O O9 0.500000 0.301171 0.553971
O O10 0.108474 0.281551 0.949428
O O11 0.000000 0.500000 0.016447
O O12 0.500000 0.255907 0.025326
O O13 0.635061 0.500000 0.014137
O O14 0.680094 0.236007 0.949677
O O15 0.311333 0.500000 0.413347
#
# Coordination Sequence:
#
# PCOD9375123 Si02
#       6
#     8   8   4   4   8   8
#     4   9  18  35  60  88 115 148 192 238 283 340
#     4  10  20  37  62  86 112 151 198 238 283 345
#     4  12  24  38  58  86 120 151 188 243 298 343
#     4  12  22  36  60  88 116 149 192 239 290 355
#     4  10  21  37  58  85 116 153 196 238 286 344
#     4  11  21  36  60  89 119 149 190 243 293 342
#
# _framework density 19.709934000000001
#
# number of rings (size 3 to 8) (size 9 to 14) (size 15 to 20)
#    0.000    1.600    3.000    3.000    0.000    2.800 
#    1.800    2.000    0.000    1.200    0.000    0.000 
#    0.000    0.000    0.000    0.000    0.000    0.000 
#
# Total GULP energy -111700.018745 kJ/mol
# GULP energy per Si atom -5585.000937 kJ/mol
# Density = 1.966507 g / cm^3
# Si number density = 19.709934 Si / 1000 Ang^3
#
#
#
# Elastic Constant Matrix: (Units=GPa)
#
#
# Indices 1 2 3 4 5 6 
#
# 1 114.0082 5.4074 57.2950 0.0000 0.0000 0.0000
# 2 5.4074 20.1332 6.4207 0.0000 0.0000 0.0000
# 3 57.2950 6.4207 135.2792 0.0000 0.0000 0.0000
# 4 0.0000 0.0000 0.0000 18.8257 0.0000 0.0000
# 5 0.0000 0.0000 0.0000 0.0000 37.5270 0.0000
# 6 0.0000 0.0000 0.0000 0.0000 0.0000 20.7522
#
#
#
# Elastic Compliance Matrix: (Units=1/GPa)
#
#
# Indices 1 2 3 4 5 6 
#
# 1 0.011188 -0.001517 -0.004667 0.000000 0.000000 0.000000
# 2 -0.001517 0.050638 -0.001761 0.000000 0.000000 0.000000
# 3 -0.004667 -0.001761 0.009452 0.000000 0.000000 0.000000
# 4 0.000000 0.000000 0.000000 0.053119 0.000000 0.000000
# 5 0.000000 0.000000 0.000000 0.000000 0.026647 0.000000
# 6 0.000000 0.000000 0.000000 0.000000 0.000000 0.048188
#
#
# Mechanical properties :
#
#
# Convention : Reuss Voigt Hill
#
# Bulk Modulus (GPa) = 18.05385 45.29629 31.67507
# Shear Modulus (GPa) = 21.40549 28.77416 25.08982
#
# Velocity S-wave (km/s) = 3.29907 3.82498 3.57172
# Velocity P-wave (km/s) = 4.86738 6.52217 5.75457
#
# Compressibility (1/GPa) = 0.05538986
#
# Stress axis : x y z
#
# Youngs Moduli (GPa) = 89.37758 19.74798 105.79556
#
# Poissons Ratio (x) = 0.02995 0.49371
# Poissons Ratio (y) = 0.13556 0.18631
# Poissons Ratio (z) = 0.41710 0.03478
#
# Static dielectric constant tensor:
#      x y z
#    x 1.678600 0.000000 0.000000 
#    y 0.000000 1.704390 0.000000 
#    z 0.000000 0.000000 1.681330 
# 
# From -- ./inp_files/22784.got.cif
#   From: 2010.05.17/outbox.cif.g08.bks.cpg/sg44_12_cif.got.tgz:22784.got - 2010.06.03 19:37:08.
