data_PCOD9375043
_publ_section_title
;
Structure prediction by ZEFSAII (Michael W. Deem and Ramdas Pophale) SiO2 
 PCOD9375043
Probable space group: I M M 2
;
_chemical_formula_sum "Si O2"
_cell_formula_units_Z 48
_cell_length_a 23.800981
_cell_length_b 8.406188
_cell_length_c 11.870725
_cell_angle_alpha 90.000000
_cell_angle_beta 90.000000
_cell_angle_gamma 90.000000
_cell_volume 2375.041487
_symmetry_space_group_name_H-M "I M M 2"
_symmetry_group_IT_number 44
_symmetry_cell_setting 'orthorhombic'
loop_
_space_group_symop_operation_xyz
x,y,z
-x,-y,z
-x,y,z
x,-y,z
1/2+x,1/2+y,1/2+z
1/2-x,1/2-y,1/2+z
1/2-x,1/2+y,1/2+z
1/2+x,1/2-y,1/2+z
loop_
_atom_site_type_symbol
_atom_site_label
_atom_site_fract_x
_atom_site_fract_y
_atom_site_fract_z
Si Si1 0.434990 0.808593 0.732110
Si Si2 0.156177 0.313829 0.403932
Si Si3 0.654257 0.688171 0.150434
Si Si4 0.359431 0.690950 0.525552
Si Si5 0.726088 0.185436 0.356387
Si Si6 0.062102 0.807002 0.818659
O O1 0.500000 0.749581 0.720882
O O2 0.403828 0.767830 0.849791
O O3 0.390543 0.749812 0.637770
O O4 0.437815 0.000000 0.723842
O O5 0.165174 0.500000 0.379325
O O6 0.160734 0.283563 0.536443
O O7 0.207784 0.216793 0.351892
O O8 0.656377 0.500000 0.125556
O O9 0.697568 0.724176 0.251527
O O10 0.594600 0.732539 0.205473
O O11 0.355077 0.500000 0.530115
O O12 0.300328 0.755931 0.476231
O O13 0.401687 0.742309 0.425581
O O14 0.713574 0.000000 0.345276
O O15 0.000000 0.742215 0.823885
O O16 0.060256 0.000000 0.823572
#
# Coordination Sequence:
#
# PCOD9375043 Si02
#       6
#     8   8   8   8   8   8
#     4  10  23  42  62  88 126 170 212 254 307 371
#     4  11  24  41  61  85 119 162 206 253 307 369
#     4  10  21  38  59  87 120 153 197 248 304 366
#     4  10  20  36  61  92 124 158 203 256 308 363
#     4  11  23  40  63  89 120 157 202 255 315 373
#     4   8  15  30  54  84 116 150 188 237 293 348
#
# _framework density 20.210173999999999
#
# number of rings (size 3 to 8) (size 9 to 14) (size 15 to 20)
#    0.000    2.000    0.000    4.500    2.333    3.000 
#    0.000    0.000    0.000    9.500    0.000    0.000 
#    0.000    0.000    0.000    0.000    0.000    0.000 
#
# Total GULP energy -133886.331137 kJ/mol
# GULP energy per Si atom -5578.597131 kJ/mol
# Density = 2.016417 g / cm^3
# Si number density = 20.210174 Si / 1000 Ang^3
#
#
#
# Elastic Constant Matrix: (Units=GPa)
#
#
# Indices 1 2 3 4 5 6 
#
# 1 83.5692 14.1770 14.9959 0.0000 0.0000 0.0000
# 2 14.1770 37.2900 -1.2742 0.0000 0.0000 0.0000
# 3 14.9959 -1.2742 65.7310 0.0000 0.0000 0.0000
# 4 0.0000 0.0000 0.0000 26.9869 0.0000 0.0000
# 5 0.0000 0.0000 0.0000 0.0000 15.8370 0.0000
# 6 0.0000 0.0000 0.0000 0.0000 0.0000 18.7969
#
#
#
# Elastic Compliance Matrix: (Units=1/GPa)
#
#
# Indices 1 2 3 4 5 6 
#
# 1 0.013417 -0.005209 -0.003162 0.000000 0.000000 0.000000
# 2 -0.005209 0.028857 0.001748 0.000000 0.000000 0.000000
# 3 -0.003162 0.001748 0.015969 0.000000 0.000000 0.000000
# 4 0.000000 0.000000 0.000000 0.037055 0.000000 0.000000
# 5 0.000000 0.000000 0.000000 0.000000 0.063143 0.000000
# 6 0.000000 0.000000 0.000000 0.000000 0.000000 0.053200
#
#
# Mechanical properties :
#
#
# Convention : Reuss Voigt Hill
#
# Bulk Modulus (GPa) = 22.22396 26.93196 24.57796
# Shear Modulus (GPa) = 20.84315 22.90359 21.87337
#
# Velocity S-wave (km/s) = 3.21490 3.37006 3.29339
# Velocity P-wave (km/s) = 4.98007 5.33835 5.16232
#
# Compressibility (1/GPa) = 0.04499648
#
# Stress axis : x y z
#
# Youngs Moduli (GPa) = 74.53107 34.65370 62.62220
#
# Poissons Ratio (x) = 0.18051 0.19801
# Poissons Ratio (y) = 0.38824 -0.10945
# Poissons Ratio (z) = 0.23567 -0.06057
#
# Static dielectric constant tensor:
#      x y z
#    x 1.744090 0.000000 0.000000 
#    y 0.000000 1.684340 0.000000 
#    z 0.000000 0.000000 1.709090 
# 
# From -- ./inp_files/14584.got.cif
#   From: 2010.05.17/outbox.cif.g08.bks.cpg/sg44_8_cif.got.tgz:14584.got - 2010.06.03 19:37:08.
