data_PCOD9375911
_publ_section_title
;
Structure prediction by ZEFSAII (Michael W. Deem and Ramdas Pophale) SiO2 
 PCOD9375911
Probable space group: I M M 2
;
_chemical_formula_sum "Si O2"
_cell_formula_units_Z 64
_cell_length_a 7.395872
_cell_length_b 14.689217
_cell_length_c 29.426046
_cell_angle_alpha 90.000000
_cell_angle_beta 90.000000
_cell_angle_gamma 90.000000
_cell_volume 3196.832946
_symmetry_space_group_name_H-M "I M M 2"
_symmetry_group_IT_number 44
_symmetry_cell_setting 'orthorhombic'
loop_
_space_group_symop_operation_xyz
x,y,z
-x,-y,z
-x,y,z
x,-y,z
1/2+x,1/2+y,1/2+z
1/2-x,1/2-y,1/2+z
1/2-x,1/2+y,1/2+z
1/2+x,1/2-y,1/2+z
loop_
_atom_site_type_symbol
_atom_site_label
_atom_site_fract_x
_atom_site_fract_y
_atom_site_fract_z
Si Si1 0.220622 0.249897 0.980180
Si Si2 0.715447 0.752357 0.730198
Si Si3 0.784553 0.252357 0.877167
Si Si4 0.720285 0.896325 0.553682
Si Si5 0.220436 0.103743 0.053682
Si Si6 0.782991 0.396763 0.303828
Si Si7 0.779378 0.249897 0.127185
Si Si8 0.717009 0.103237 0.303536
O O1 0.285065 0.250868 0.928476
O O2 0.000000 0.249141 0.979537
O O3 0.274713 0.338132 0.009514
O O4 0.275731 0.161838 0.009506
O O5 0.500000 0.765355 0.727053
O O6 0.785893 0.833763 0.762388
O O7 0.785065 0.750868 0.678888
O O8 0.745311 0.658914 0.757544
O O9 0.754689 0.158914 0.849820
O O10 0.714107 0.333763 0.844977
O O11 0.000000 0.265355 0.880312
O O12 0.500000 0.897689 0.553682
O O13 0.774713 0.838132 0.597851
O O14 0.782670 0.000000 0.553682
O O15 0.275731 0.161838 0.097859
O O16 0.000000 0.102661 0.053682
O O17 0.282289 0.000000 0.053682
O O18 0.714822 0.500000 0.303817
O O19 0.000000 0.400818 0.299487
O O20 0.000000 0.249141 0.127828
O O21 0.500000 0.099182 0.307878
O O22 0.785178 0.000000 0.303548
#
# Coordination Sequence:
#
# PCOD9375911 Si02
#       8
#     8   8   8   8   8   8   8   8
#     4   8  14  23  35  55  81 106 134 166 200 241
#     4   9  17  29  45  64  85 110 143 179 210 246
#     4   9  17  29  45  64  85 110 143 179 210 246
#     4   8  13  21  34  55  85 114 134 160 204 252
#     4   8  13  21  32  49  77 105 124 153 200 242
#     4   9  18  31  44  60  85 114 141 173 215 256
#     4   8  14  23  35  55  81 106 134 166 200 241
#     4   9  18  31  44  60  85 114 141 173 215 256
#
# _framework density 20.019815999999999
#
# number of rings (size 3 to 8) (size 9 to 14) (size 15 to 20)
#    0.000    3.500    0.000    1.500    0.000    2.500 
#    0.000    7.500    0.000    0.000    0.000    3.500 
#    0.000   10.000    0.000    0.000    0.000    0.000 
#
# Total GULP energy -178447.513731 kJ/mol
# GULP energy per Si atom -5576.484804 kJ/mol
# Density = 1.997425 g / cm^3
# Si number density = 20.019816 Si / 1000 Ang^3
#
#
#
# Elastic Constant Matrix: (Units=GPa)
#
#
# Indices 1 2 3 4 5 6 
#
# 1 67.5435 1.8078 7.7530 0.0000 0.0000 0.0000
# 2 1.8078 218.5935 128.1207 0.0000 0.0000 0.0000
# 3 7.7530 128.1207 223.5870 0.0000 0.0000 0.0000
# 4 0.0000 0.0000 0.0000 6.6154 0.0000 0.0000
# 5 0.0000 0.0000 0.0000 0.0000 158.6660 0.0000
# 6 0.0000 0.0000 0.0000 0.0000 0.0000 2.4921
#
#
#
# Elastic Compliance Matrix: (Units=1/GPa)
#
#
# Indices 1 2 3 4 5 6 
#
# 1 0.014875 0.000270 -0.000671 0.000000 0.000000 0.000000
# 2 0.000270 0.006893 -0.003959 0.000000 0.000000 0.000000
# 3 -0.000671 -0.003959 0.006765 0.000000 0.000000 0.000000
# 4 0.000000 0.000000 0.000000 0.151162 0.000000 0.000000
# 5 0.000000 0.000000 0.000000 0.000000 0.006303 0.000000
# 6 0.000000 0.000000 0.000000 0.000000 0.000000 0.401271
#
#
# Mechanical properties :
#
#
# Convention : Reuss Voigt Hill
#
# Bulk Modulus (GPa) = 50.47184 87.23190 68.85187
# Shear Modulus (GPa) = 8.29749 58.35753 33.32751
#
# Velocity S-wave (km/s) = 2.03805 5.40492 4.08453
# Velocity P-wave (km/s) = 5.55012 9.08946 7.53067
#
# Compressibility (1/GPa) = 0.01981303
#
# Stress axis : x y z
#
# Youngs Moduli (GPa) = 67.22686 145.07404 147.83016
#
# Poissons Ratio (x) = -0.03917 0.09912
# Poissons Ratio (y) = -0.01815 0.58529
# Poissons Ratio (z) = 0.04508 0.57438
#
# Static dielectric constant tensor:
#      x y z
#    x 1.792020 0.000000 0.000000 
#    y 0.000000 1.677430 0.000000 
#    z 0.000000 0.000000 1.680530 
# 
# From -- ./inp_files/27277.got.cif
#   From: 2010.05.17/outbox.cif.g08.bks.cpg/sg44_14_cif.got.tgz:27277.got - 2010.06.03 19:37:08.
