data_PCOD9375875
_publ_section_title
;
Structure prediction by ZEFSAII (Michael W. Deem and Ramdas Pophale) SiO2 
 PCOD9375875
Probable space group: I M M 2
;
_chemical_formula_sum "Si O2"
_cell_formula_units_Z 64
_cell_length_a 8.965126
_cell_length_b 14.029158
_cell_length_c 24.803992
_cell_angle_alpha 90.000000
_cell_angle_beta 90.000000
_cell_angle_gamma 90.000000
_cell_volume 3119.676681
_symmetry_space_group_name_H-M "I M M 2"
_symmetry_group_IT_number 44
_symmetry_cell_setting 'orthorhombic'
loop_
_space_group_symop_operation_xyz
x,y,z
-x,-y,z
-x,y,z
x,-y,z
1/2+x,1/2+y,1/2+z
1/2-x,1/2-y,1/2+z
1/2-x,1/2+y,1/2+z
1/2+x,1/2-y,1/2+z
loop_
_atom_site_type_symbol
_atom_site_label
_atom_site_fract_x
_atom_site_fract_y
_atom_site_fract_z
Si Si1 0.179114 0.608083 0.482170
Si Si2 0.322188 0.295493 0.925209
Si Si3 0.175296 0.114866 0.213544
Si Si4 0.827497 0.115906 0.094100
Si Si5 0.319949 0.887962 0.765797
Si Si6 0.176766 0.287489 0.815554
Si Si7 0.178441 0.385687 0.146133
Si Si8 0.674063 0.884958 0.528709
O O1 0.232098 0.500000 0.471749
O O2 0.221334 0.685653 0.437875
O O3 0.238917 0.641073 0.540443
O O4 0.000000 0.606120 0.484638
O O5 0.500000 0.301739 0.919238
O O6 0.243631 0.328756 0.870764
O O7 0.268639 0.350880 0.978205
O O8 0.225409 0.147187 0.153493
O O9 0.265333 0.155679 0.263411
O O10 0.000000 0.141491 0.218692
O O11 0.183090 0.000000 0.214652
O O12 0.000000 0.145148 0.088604
O O13 0.825145 0.000000 0.095732
O O14 0.500000 0.878404 0.769002
O O15 0.242323 0.818720 0.807644
O O16 0.270127 0.855263 0.705429
O O17 0.286300 0.000000 0.772611
O O18 0.000000 0.286915 0.817567
O O19 0.201557 0.500000 0.146547
O O20 0.000000 0.370612 0.145449
O O21 0.231584 0.350440 0.087703
O O22 0.500000 0.856022 0.522305
O O23 0.675523 0.000000 0.530332
#
# Coordination Sequence:
#
# PCOD9375875 Si02
#       8
#     8   8   8   8   8   8   8   8
#     4   9  19  36  57  81 110 143 178 220 271 324
#     4  11  24  40  56  76 105 144 192 235 272 323
#     4   9  19  38  62  85 111 145 184 225 271 328
#     4   8  15  30  55  86 114 140 174 216 265 324
#     4   9  18  36  62  87 113 148 186 223 268 325
#     4  12  26  40  55  79 111 146 189 237 281 327
#     4   7  12  27  54  85 111 138 175 215 261 324
#     4   9  18  35  59  85 113 143 176 219 271 325
#
# _framework density 20.514945999999998
#
# number of rings (size 3 to 8) (size 9 to 14) (size 15 to 20)
#    0.000    2.750    0.000    3.750    0.000    4.250 
#    0.000    6.875    0.000    2.250    0.000    0.000 
#    0.000    0.000    0.000    0.000    0.000    0.000 
#
# Total GULP energy -178591.391566 kJ/mol
# GULP energy per Si atom -5580.980986 kJ/mol
# Density = 2.046825 g / cm^3
# Si number density = 20.514946 Si / 1000 Ang^3
#
#
#
# Elastic Constant Matrix: (Units=GPa)
#
#
# Indices 1 2 3 4 5 6 
#
# 1 51.8789 -3.1138 33.3267 0.0000 0.0000 0.0000
# 2 -3.1138 47.9089 4.8467 0.0000 0.0000 0.0000
# 3 33.3267 4.8467 117.9431 0.0000 0.0000 0.0000
# 4 0.0000 0.0000 0.0000 26.1254 0.0000 0.0000
# 5 0.0000 0.0000 0.0000 0.0000 30.5837 0.0000
# 6 0.0000 0.0000 0.0000 0.0000 0.0000 21.4198
#
#
#
# Elastic Compliance Matrix: (Units=1/GPa)
#
#
# Indices 1 2 3 4 5 6 
#
# 1 0.023787 0.002235 -0.006813 0.000000 0.000000 0.000000
# 2 0.002235 0.021170 -0.001502 0.000000 0.000000 0.000000
# 3 -0.006813 -0.001502 0.010466 0.000000 0.000000 0.000000
# 4 0.000000 0.000000 0.000000 0.038277 0.000000 0.000000
# 5 0.000000 0.000000 0.000000 0.000000 0.032697 0.000000
# 6 0.000000 0.000000 0.000000 0.000000 0.000000 0.046686
#
#
# Mechanical properties :
#
#
# Convention : Reuss Voigt Hill
#
# Bulk Modulus (GPa) = 23.11427 31.98335 27.54881
# Shear Modulus (GPa) = 25.04231 27.80386 26.42308
#
# Velocity S-wave (km/s) = 3.49762 3.68543 3.59275
# Velocity P-wave (km/s) = 5.25382 5.80810 5.53790
#
# Compressibility (1/GPa) = 0.04326331
#
# Stress axis : x y z
#
# Youngs Moduli (GPa) = 42.04058 47.23634 95.55181
#
# Poissons Ratio (x) = -0.10558 0.65101
# Poissons Ratio (y) = -0.09397 0.14348
# Poissons Ratio (z) = 0.28643 0.07093
#
# Static dielectric constant tensor:
#      x y z
#    x 1.676800 0.000000 0.000000 
#    y 0.000000 1.795960 0.000000 
#    z 0.000000 0.000000 1.728610 
# 
# From -- ./inp_files/25105.got.cif
#   From: 2010.05.17/outbox.cif.g08.bks.cpg/sg44_13_cif.got.tgz:25105.got - 2010.06.03 19:37:08.
