data_PCOD9375234
_publ_section_title
;
Structure prediction by ZEFSAII (Michael W. Deem and Ramdas Pophale) SiO2 
 PCOD9375234
Probable space group: I M M 2
;
_chemical_formula_sum "Si O2"
_cell_formula_units_Z 48
_cell_length_a 9.550098
_cell_length_b 7.549906
_cell_length_c 36.028168
_cell_angle_alpha 90.000000
_cell_angle_beta 90.000000
_cell_angle_gamma 90.000000
_cell_volume 2597.715298
_symmetry_space_group_name_H-M "I M M 2"
_symmetry_group_IT_number 44
_symmetry_cell_setting 'orthorhombic'
loop_
_space_group_symop_operation_xyz
x,y,z
-x,-y,z
-x,y,z
x,-y,z
1/2+x,1/2+y,1/2+z
1/2-x,1/2-y,1/2+z
1/2-x,1/2+y,1/2+z
1/2+x,1/2-y,1/2+z
loop_
_atom_site_type_symbol
_atom_site_label
_atom_site_fract_x
_atom_site_fract_y
_atom_site_fract_z
Si Si1 0.342274 0.288997 0.505260
Si Si2 0.159551 0.786957 0.576914
Si Si3 0.162009 0.784546 0.659600
Si Si4 0.829671 0.000000 0.290249
Si Si5 0.830187 0.000000 0.374605
Si Si6 0.166566 0.710372 0.434031
Si Si7 0.167586 0.708093 0.231480
O O1 0.500000 0.216685 0.505757
O O2 0.351504 0.500000 0.500593
O O3 0.262238 0.259194 0.543739
O O4 0.250972 0.226854 0.470257
O O5 0.203794 0.725458 0.618126
O O6 0.000000 0.724054 0.569857
O O7 0.153696 0.000000 0.578437
O O8 0.257392 0.728793 0.693836
O O9 0.000000 0.733569 0.665210
O O10 0.166848 0.000000 0.659368
O O11 0.789110 0.171830 0.266249
O O12 0.777563 0.000000 0.332450
O O13 0.000000 0.000000 0.291791
O O14 0.791459 0.827348 0.398613
O O15 0.000000 0.000000 0.372671
O O16 0.189183 0.500000 0.428062
O O17 0.000000 0.735331 0.440507
O O18 0.199581 0.500000 0.237375
O O19 0.000000 0.723958 0.226936
#
# Coordination Sequence:
#
# PCOD9375234 Si02
#       7
#     8   8   8   4   4   8   8
#     4  10  21  35  49  70 102 136 169 207 255 309
#     4   9  18  32  51  74  99 130 170 215 257 300
#     4   8  15  30  50  71  97 130 168 208 250 295
#     4   9  18  32  49  77 109 129 161 215 259 301
#     4   9  18  32  53  79 103 129 167 213 259 307
#     4   9  18  33  53  75  99 131 170 212 256 304
#     4   9  17  30  50  73  99 135 169 201 251 306
#
# _framework density 18.477775999999999
#
# number of rings (size 3 to 8) (size 9 to 14) (size 15 to 20)
#    0.000    3.000    0.000    1.500    1.167    2.667 
#    1.500    5.417    0.000    2.000    0.000    4.667 
#    0.000    0.000    0.000    0.000    0.000    0.000 
#
# Total GULP energy -133782.681501 kJ/mol
# GULP energy per Si atom -5574.278396 kJ/mol
# Density = 1.843572 g / cm^3
# Si number density = 18.477776 Si / 1000 Ang^3
#
#
#
# Elastic Constant Matrix: (Units=GPa)
#
#
# Indices 1 2 3 4 5 6 
#
# 1 57.1739 33.1303 80.5529 0.0000 0.0000 0.0000
# 2 33.1303 68.4547 59.1975 0.0000 0.0000 0.0000
# 3 80.5529 59.1975 211.2742 0.0000 0.0000 0.0000
# 4 0.0000 0.0000 0.0000 40.6425 0.0000 0.0000
# 5 0.0000 0.0000 0.0000 0.0000 24.4084 0.0000
# 6 0.0000 0.0000 0.0000 0.0000 0.0000 11.1262
#
#
#
# Elastic Compliance Matrix: (Units=1/GPa)
#
#
# Indices 1 2 3 4 5 6 
#
# 1 0.041133 -0.008374 -0.013336 0.000000 0.000000 0.000000
# 2 -0.008374 0.020985 -0.002687 0.000000 0.000000 0.000000
# 3 -0.013336 -0.002687 0.010571 0.000000 0.000000 0.000000
# 4 0.000000 0.000000 0.000000 0.024605 0.000000 0.000000
# 5 0.000000 0.000000 0.000000 0.000000 0.040970 0.000000
# 6 0.000000 0.000000 0.000000 0.000000 0.000000 0.089878
#
#
# Mechanical properties :
#
#
# Convention : Reuss Voigt Hill
#
# Bulk Modulus (GPa) = 41.85290 75.85157 58.85223
# Shear Modulus (GPa) = 17.55001 26.17023 21.86012
#
# Velocity S-wave (km/s) = 3.08521 3.76747 3.44328
# Velocity P-wave (km/s) = 5.94903 7.75012 6.90852
#
# Compressibility (1/GPa) = 0.02389321
#
# Stress axis : x y z
#
# Youngs Moduli (GPa) = 24.31143 47.65386 94.60015
#
# Poissons Ratio (x) = 0.39907 1.26162
# Poissons Ratio (y) = 0.20359 0.25418
# Poissons Ratio (z) = 0.32423 0.12804
#
# Static dielectric constant tensor:
#      x y z
#    x 1.628610 0.000000 0.000000 
#    y 0.000000 1.673500 0.000000 
#    z 0.000000 0.000000 1.622420 
# 
# From -- ./inp_files/26922.got.cif
#   From: 2010.05.17/outbox.cif.g08.bks.cpg/sg44_14_cif.got.tgz:26922.got - 2010.06.03 19:37:08.
