data_PCOD9375594
_publ_section_title
;
Structure prediction by ZEFSAII (Michael W. Deem and Ramdas Pophale) SiO2 
 PCOD9375594
Probable space group: I M M 2
;
_chemical_formula_sum "Si O2"
_cell_formula_units_Z 40
_cell_length_a 12.049485
_cell_length_b 7.747221
_cell_length_c 22.383032
_cell_angle_alpha 90.000000
_cell_angle_beta 90.000000
_cell_angle_gamma 90.000000
_cell_volume 2089.456557
_symmetry_space_group_name_H-M "I M M 2"
_symmetry_group_IT_number 44
_symmetry_cell_setting 'orthorhombic'
loop_
_space_group_symop_operation_xyz
x,y,z
-x,-y,z
-x,y,z
x,-y,z
1/2+x,1/2+y,1/2+z
1/2-x,1/2-y,1/2+z
1/2-x,1/2+y,1/2+z
1/2+x,1/2-y,1/2+z
loop_
_atom_site_type_symbol
_atom_site_label
_atom_site_fract_x
_atom_site_fract_y
_atom_site_fract_z
Si Si1 0.288406 0.698988 0.317500
Si Si2 0.126951 0.791946 0.950525
Si Si3 0.629317 0.500000 0.776119
Si Si4 0.000000 0.792962 0.604290
Si Si5 0.500000 0.798698 0.242401
Si Si6 0.370722 0.500000 0.632987
Si Si7 0.742546 0.699254 0.065952
O O1 0.251022 0.500000 0.318320
O O2 0.336020 0.744428 0.382972
O O3 0.192991 0.831926 0.300036
O O4 0.390142 0.716763 0.271037
O O5 0.000000 0.734072 0.960003
O O6 0.128927 0.000000 0.957826
O O7 0.208742 0.714360 0.999487
O O8 0.500000 0.500000 0.792623
O O9 0.637997 0.500000 0.704283
O O10 0.000000 0.718829 0.671107
O O11 0.113687 0.747057 0.570838
O O12 0.000000 0.000000 0.610336
O O13 0.500000 0.000000 0.258686
O O14 0.500000 0.500000 0.615441
O O15 0.312160 0.330952 0.606328
O O16 0.752621 0.500000 0.086053
#
# Coordination Sequence:
#
# PCOD9375594 Si02
#       7
#     8   8   4   4   4   4   8
#     4  11  23  42  66  98 131 170 213 274 335 382
#     4  10  21  40  65  93 129 164 211 268 323 384
#     4  11  26  45  65  95 129 176 225 265 319 396
#     4  10  24  42  60  92 132 173 217 255 317 396
#     4  12  22  36  68 103 129 164 215 276 330 384
#     4  11  24  43  65  93 129 166 217 267 323 380
#     4  11  24  41  63  94 129 172 211 263 321 384
#
# _framework density 19.143733000000001
#
# number of rings (size 3 to 8) (size 9 to 14) (size 15 to 20)
#    0.000    1.200    3.000    2.700    2.800    4.400 
#    1.800    2.000    0.000    0.000    0.000    0.000 
#    0.000    0.000    0.000    0.000    0.000    0.000 
#
# Total GULP energy -111838.484514 kJ/mol
# GULP energy per Si atom -5591.924226 kJ/mol
# Density = 1.910016 g / cm^3
# Si number density = 19.143733 Si / 1000 Ang^3
#
#
#
# Elastic Constant Matrix: (Units=GPa)
#
#
# Indices 1 2 3 4 5 6 
#
# 1 187.3306 77.4809 78.3773 0.0000 0.0000 0.0000
# 2 77.4809 93.5132 37.1078 0.0000 0.0000 0.0000
# 3 78.3773 37.1078 98.4138 0.0000 0.0000 0.0000
# 4 0.0000 0.0000 0.0000 26.2092 0.0000 0.0000
# 5 0.0000 0.0000 0.0000 0.0000 27.4361 0.0000
# 6 0.0000 0.0000 0.0000 0.0000 0.0000 16.7658
#
#
#
# Elastic Compliance Matrix: (Units=1/GPa)
#
#
# Indices 1 2 3 4 5 6 
#
# 1 0.010414 -0.006277 -0.005927 0.000000 0.000000 0.000000
# 2 -0.006277 0.016358 -0.001169 0.000000 0.000000 0.000000
# 3 -0.005927 -0.001169 0.015322 0.000000 0.000000 0.000000
# 4 0.000000 0.000000 0.000000 0.038155 0.000000 0.000000
# 5 0.000000 0.000000 0.000000 0.000000 0.036448 0.000000
# 6 0.000000 0.000000 0.000000 0.000000 0.000000 0.059645
#
#
# Mechanical properties :
#
#
# Convention : Reuss Voigt Hill
#
# Bulk Modulus (GPa) = 65.15232 85.02106 75.08669
# Shear Modulus (GPa) = 24.01477 26.50166 25.25822
#
# Velocity S-wave (km/s) = 3.54566 3.72472 3.63629
# Velocity P-wave (km/s) = 7.13228 7.93766 7.54572
#
# Compressibility (1/GPa) = 0.01534865
#
# Stress axis : x y z
#
# Youngs Moduli (GPa) = 96.02397 61.13144 65.26357
#
# Poissons Ratio (x) = 0.38370 0.38683
# Poissons Ratio (y) = 0.60271 0.07631
# Poissons Ratio (z) = 0.56915 0.07148
#
# Static dielectric constant tensor:
#      x y z
#    x 1.657990 0.000000 0.000000 
#    y 0.000000 1.672230 0.000000 
#    z 0.000000 0.000000 1.646250 
# 
# From -- ./inp_files/23636.got.cif
#   From: 2010.05.17/outbox.cif.g08.bks.cpg/sg44_12_cif.got.tgz:23636.got - 2010.06.03 19:37:08.
