data_PCOD9375287
_publ_section_title
;
Structure prediction by ZEFSAII (Michael W. Deem and Ramdas Pophale) SiO2 
 PCOD9375287
Probable space group: I M M 2
;
_chemical_formula_sum "Si O2"
_cell_formula_units_Z 64
_cell_length_a 18.190075
_cell_length_b 9.582015
_cell_length_c 21.130129
_cell_angle_alpha 90.000000
_cell_angle_beta 90.000000
_cell_angle_gamma 90.000000
_cell_volume 3682.930170
_symmetry_space_group_name_H-M "I M M 2"
_symmetry_group_IT_number 44
_symmetry_cell_setting 'orthorhombic'
loop_
_space_group_symop_operation_xyz
x,y,z
-x,-y,z
-x,y,z
x,-y,z
1/2+x,1/2+y,1/2+z
1/2-x,1/2-y,1/2+z
1/2-x,1/2+y,1/2+z
1/2+x,1/2-y,1/2+z
loop_
_atom_site_type_symbol
_atom_site_label
_atom_site_fract_x
_atom_site_fract_y
_atom_site_fract_z
Si Si1 0.587222 0.836406 0.870970
Si Si2 0.589599 0.660589 0.992850
Si Si3 0.410612 0.339207 0.497271
Si Si4 0.911520 0.835575 0.854569
Si Si5 0.170457 0.333314 0.746285
Si Si6 0.912563 0.336410 0.614595
Si Si7 0.678748 0.166094 0.743497
Si Si8 0.086219 0.665852 0.117986
O O1 0.500000 0.813140 0.860430
O O2 0.630955 0.809453 0.806588
O O3 0.596193 0.000000 0.887615
O O4 0.612346 0.741586 0.929447
O O5 0.500000 0.663151 0.992947
O O6 0.613230 0.500000 0.992889
O O7 0.612725 0.741438 0.056202
O O8 0.500000 0.334809 0.496721
O O9 0.389051 0.500000 0.507296
O O10 0.387835 0.297566 0.426304
O O11 0.386072 0.245183 0.555629
O O12 0.874803 0.738648 0.802652
O O13 0.000000 0.823700 0.851025
O O14 0.893532 0.000000 0.844720
O O15 0.175417 0.500000 0.755055
O O16 0.129461 0.307301 0.679591
O O17 0.249311 0.260043 0.744569
O O18 0.902823 0.500000 0.598444
O O19 0.000000 0.313687 0.624298
O O20 0.631283 0.198534 0.681049
O O21 0.696870 0.000000 0.741961
O O22 0.090369 0.500000 0.107342
O O23 0.000000 0.701221 0.127655
#
# Coordination Sequence:
#
# PCOD9375287 Si02
#       8
#     8   8   8   8   8   8   8   8
#     4   9  17  32  55  78 100 131 169 207 250 302
#     4   9  17  29  49  79 107 127 156 204 255 299
#     4   8  15  29  50  77 105 130 160 201 249 301
#     4   9  18  34  56  79 103 134 171 208 249 301
#     4  11  23  36  51  74 104 136 172 213 254 297
#     4   9  18  34  54  74  98 130 167 205 247 298
#     4  10  21  36  52  72 102 138 173 208 250 302
#     4   9  17  31  53  79 103 129 166 211 254 297
#
# _framework density 17.377468
#
# number of rings (size 3 to 8) (size 9 to 14) (size 15 to 20)
#    0.000    2.750    0.000    2.250    0.000    6.250 
#    0.000    3.750    0.000    5.250    0.000    0.000 
#    0.000    0.000    0.000    0.000    0.000    0.000 
#
# Total GULP energy -178435.329690 kJ/mol
# GULP energy per Si atom -5576.104053 kJ/mol
# Density = 1.733792 g / cm^3
# Si number density = 17.377468 Si / 1000 Ang^3
#
#
#
# Elastic Constant Matrix: (Units=GPa)
#
#
# Indices 1 2 3 4 5 6 
#
# 1 46.3882 56.0010 62.9484 0.0000 0.0000 0.0000
# 2 56.0010 98.7232 117.3702 0.0000 0.0000 0.0000
# 3 62.9484 117.3702 192.3079 0.0000 0.0000 0.0000
# 4 0.0000 0.0000 0.0000 32.3627 0.0000 0.0000
# 5 0.0000 0.0000 0.0000 0.0000 -7.7205 0.0000
# 6 0.0000 0.0000 0.0000 0.0000 0.0000 22.1831
#
#
#
# Elastic Compliance Matrix: (Units=1/GPa)
#
#
# Indices 1 2 3 4 5 6 
#
# 1 0.069581 -0.045161 0.004787 0.000000 0.000000 0.000000
# 2 -0.045161 0.066226 -0.025637 0.000000 0.000000 0.000000
# 3 0.004787 -0.025637 0.019280 0.000000 0.000000 0.000000
# 4 0.000000 0.000000 0.000000 0.030900 0.000000 0.000000
# 5 0.000000 0.000000 0.000000 0.000000 -0.129526 0.000000
# 6 0.000000 0.000000 0.000000 0.000000 0.000000 0.045079
#
#
# Mechanical properties :
#
#
# Convention : Reuss Voigt Hill
#
# Bulk Modulus (GPa) = 43.35557 90.00648 66.68103
# Shear Modulus (GPa) = 20.72546 16.10505 18.41525
#
# Velocity S-wave (km/s) = 3.45724 3.04761 3.25887
# Velocity P-wave (km/s) = 6.39845 8.01818 7.25367
#
# Compressibility (1/GPa) = 0.02306509
#
# Stress axis : x y z
#
# Youngs Moduli (GPa) = 14.37179 15.09986 51.86751
#
# Poissons Ratio (x) = 0.68192 -0.24827
# Poissons Ratio (y) = 0.64904 1.32971
# Poissons Ratio (z) = -0.06879 0.38711
#
# Static dielectric constant tensor:
#      x y z
#    x 1.573160 0.000000 0.000000 
#    y 0.000000 1.578770 0.000000 
#    z 0.000000 0.000000 1.573720 
# 
# From -- ./inp_files/24358.got.cif
#   From: 2010.05.17/outbox.cif.g08.bks.cpg/sg44_13_cif.got.tgz:24358.got - 2010.06.03 19:37:08.
