data_PCOD9375774
_publ_section_title
;
Structure prediction by ZEFSAII (Michael W. Deem and Ramdas Pophale) SiO2 
 PCOD9375774
Probable space group: I M M 2
;
_chemical_formula_sum "Si O2"
_cell_formula_units_Z 48
_cell_length_a 27.807599
_cell_length_b 8.629519
_cell_length_c 9.866290
_cell_angle_alpha 90.000000
_cell_angle_beta 90.000000
_cell_angle_gamma 90.000000
_cell_volume 2367.576158
_symmetry_space_group_name_H-M "I M M 2"
_symmetry_group_IT_number 44
_symmetry_cell_setting 'orthorhombic'
loop_
_space_group_symop_operation_xyz
x,y,z
-x,-y,z
-x,y,z
x,-y,z
1/2+x,1/2+y,1/2+z
1/2-x,1/2-y,1/2+z
1/2-x,1/2+y,1/2+z
1/2+x,1/2-y,1/2+z
loop_
_atom_site_type_symbol
_atom_site_label
_atom_site_fract_x
_atom_site_fract_y
_atom_site_fract_z
Si Si1 0.086313 0.684962 0.830410
Si Si2 0.197486 0.313608 0.771907
Si Si3 0.945427 0.820719 0.559570
Si Si4 0.123307 0.319082 0.349686
Si Si5 0.780870 0.185551 0.473174
Si Si6 0.944805 0.185310 0.118627
O O1 0.080587 0.500000 0.812709
O O2 0.142451 0.725843 0.807089
O O3 0.057338 0.777631 0.716595
O O4 0.068629 0.734532 0.977601
O O5 0.200186 0.500000 0.762672
O O6 0.213140 0.248328 0.625780
O O7 0.232918 0.263367 0.893183
O O8 0.909359 0.708505 0.482217
O O9 0.000000 0.803020 0.510211
O O10 0.930996 0.000000 0.537489
O O11 0.129716 0.500000 0.321822
O O12 0.174157 0.242389 0.383572
O O13 0.093332 0.240125 0.230009
O O14 0.781123 0.000000 0.480140
O O15 0.000000 0.225490 0.156430
O O16 0.942236 0.000000 0.104551
#
# Coordination Sequence:
#
# PCOD9375774 Si02
#       6
#     8   8   8   8   8   8
#     4  11  23  41  65  95 131 167 209 263 317 378
#     4  10  24  44  65  97 131 165 212 263 316 381
#     4  11  23  40  64  94 127 165 210 260 318 384
#     4  12  25  42  65  94 129 167 215 268 320 380
#     4  11  24  43  68  97 130 169 213 260 321 386
#     4  11  25  44  65  93 130 172 218 266 320 384
#
# _framework density 20.273900000000001
#
# number of rings (size 3 to 8) (size 9 to 14) (size 15 to 20)
#    0.000    1.000    1.667    4.500    2.333    8.667 
#    0.000    0.000    0.000    0.000    0.000    0.000 
#    0.000    0.000    0.000    0.000    0.000    0.000 
#
# Total GULP energy -134270.558550 kJ/mol
# GULP energy per Si atom -5594.606606 kJ/mol
# Density = 2.022776 g / cm^3
# Si number density = 20.273900 Si / 1000 Ang^3
#
#
#
# Elastic Constant Matrix: (Units=GPa)
#
#
# Indices 1 2 3 4 5 6 
#
# 1 72.1187 16.6523 3.9950 0.0000 0.0000 0.0000
# 2 16.6523 37.9293 1.1523 0.0000 0.0000 0.0000
# 3 3.9950 1.1523 60.4835 0.0000 0.0000 0.0000
# 4 0.0000 0.0000 0.0000 40.8516 0.0000 0.0000
# 5 0.0000 0.0000 0.0000 0.0000 42.4064 0.0000
# 6 0.0000 0.0000 0.0000 0.0000 0.0000 17.4057
#
#
#
# Elastic Compliance Matrix: (Units=1/GPa)
#
#
# Indices 1 2 3 4 5 6 
#
# 1 0.015478 -0.006768 -0.000893 0.000000 0.000000 0.000000
# 2 -0.006768 0.029340 -0.000112 0.000000 0.000000 0.000000
# 3 -0.000893 -0.000112 0.016595 0.000000 0.000000 0.000000
# 4 0.000000 0.000000 0.000000 0.024479 0.000000 0.000000
# 5 0.000000 0.000000 0.000000 0.000000 0.023581 0.000000
# 6 0.000000 0.000000 0.000000 0.000000 0.000000 0.057453
#
#
# Mechanical properties :
#
#
# Convention : Reuss Voigt Hill
#
# Bulk Modulus (GPa) = 21.80297 23.79230 22.79763
# Shear Modulus (GPa) = 25.28300 30.04821 27.66561
#
# Velocity S-wave (km/s) = 3.53522 3.85400 3.69805
# Velocity P-wave (km/s) = 5.23844 5.61830 5.43169
#
# Compressibility (1/GPa) = 0.04586531
#
# Stress axis : x y z
#
# Youngs Moduli (GPa) = 64.60634 34.08338 60.26068
#
# Poissons Ratio (x) = 0.23069 0.05384
# Poissons Ratio (y) = 0.43728 0.00674
# Poissons Ratio (z) = 0.05772 0.00381
#
# Static dielectric constant tensor:
#      x y z
#    x 1.709530 0.000000 0.000000 
#    y 0.000000 1.678090 0.000000 
#    z 0.000000 0.000000 1.700110 
# 
# From -- ./inp_files/4885.got.cif
#   From: 2010.05.17/outbox.cif.g08.bks.cpg/sg44_3_cif.got.tgz:4885.got - 2010.06.03 19:37:08.
