data_PCOD9375713
_publ_section_title
;
Structure prediction by ZEFSAII (Michael W. Deem and Ramdas Pophale) SiO2 
 PCOD9375713
Probable space group: I M M 2
;
_chemical_formula_sum "Si O2"
_cell_formula_units_Z 34
_cell_length_a 7.296996
_cell_length_b 10.996895
_cell_length_c 19.643890
_cell_angle_alpha 90.000000
_cell_angle_beta 90.000000
_cell_angle_gamma 90.000000
_cell_volume 1576.310179
_symmetry_space_group_name_H-M "I M M 2"
_symmetry_group_IT_number 44
_symmetry_cell_setting 'orthorhombic'
loop_
_space_group_symop_operation_xyz
x,y,z
-x,-y,z
-x,y,z
x,-y,z
1/2+x,1/2+y,1/2+z
1/2-x,1/2-y,1/2+z
1/2-x,1/2+y,1/2+z
1/2+x,1/2-y,1/2+z
loop_
_atom_site_type_symbol
_atom_site_label
_atom_site_fract_x
_atom_site_fract_y
_atom_site_fract_z
Si Si1 0.779380 0.635957 0.781330
Si Si2 0.000000 0.500000 0.122889
Si Si3 0.279901 0.134458 0.022629
Si Si4 0.213877 0.865070 0.440512
Si Si5 0.281077 0.283098 0.152833
O O1 0.716866 0.500000 0.761879
O O2 0.724878 0.654996 0.859532
O O3 0.723218 0.737953 0.727772
O O4 0.000000 0.634795 0.779613
O O5 0.160262 0.393908 0.127471
O O6 0.500000 0.130433 0.011232
O O7 0.253394 0.171123 0.100939
O O8 0.209408 0.000000 0.006721
O O9 0.208271 0.248242 0.978786
O O10 0.000000 0.871846 0.459640
O O11 0.293328 0.000000 0.455625
O O12 0.500000 0.311105 0.152522
#
# Coordination Sequence:
#
# PCOD9375713 Si02
#       5
#     8   2   8   8   8
#     4   9  18  36  60  86 114 157 201 248 307 362
#     4  12  26  40  58  98 116 168 204 250 320 366
#     4   9  18  36  61  88 117 161 204 249 308 364
#     4   9  18  32  55  85 119 159 205 250 297 360
#     4  10  22  41  63  87 124 158 207 256 304 366
#
# _framework density 21.569361000000001
#
# number of rings (size 3 to 8) (size 9 to 14) (size 15 to 20)
#    0.000    2.588    0.000    1.059    3.294    2.824 
#    4.235    1.765    0.000    0.000    0.000    0.000 
#    0.000    0.000    0.000    0.000    0.000    0.000 
#
# Total GULP energy -94648.701976 kJ/mol
# GULP energy per Si atom -5567.570704 kJ/mol
# Density = 2.152027 g / cm^3
# Si number density = 21.569361 Si / 1000 Ang^3
#
#
#
# Elastic Constant Matrix: (Units=GPa)
#
#
# Indices 1 2 3 4 5 6 
#
# 1 107.5113 31.6737 2.6366 0.0000 0.0000 0.0000
# 2 31.6737 182.8277 61.8707 0.0000 0.0000 0.0000
# 3 2.6366 61.8707 60.2201 0.0000 0.0000 0.0000
# 4 0.0000 0.0000 0.0000 9.1933 0.0000 0.0000
# 5 0.0000 0.0000 0.0000 0.0000 11.1462 0.0000
# 6 0.0000 0.0000 0.0000 0.0000 0.0000 -56.9029
#
#
#
# Elastic Compliance Matrix: (Units=1/GPa)
#
#
# Indices 1 2 3 4 5 6 
#
# 1 0.009964 -0.002420 0.002050 0.000000 0.000000 0.000000
# 2 -0.002420 0.008973 -0.009113 0.000000 0.000000 0.000000
# 3 0.002050 -0.009113 0.025878 0.000000 0.000000 0.000000
# 4 0.000000 0.000000 0.000000 0.108774 0.000000 0.000000
# 5 0.000000 0.000000 0.000000 0.000000 0.089717 0.000000
# 6 0.000000 0.000000 0.000000 0.000000 0.000000 -0.017574
#
#
# Mechanical properties :
#
#
# Convention : Reuss Voigt Hill
#
# Bulk Modulus (GPa) = 38.68478 60.32456 49.50467
# Shear Modulus (GPa) = 19.73834 9.64587 14.69210
#
# Velocity S-wave (km/s) = 3.02836 2.11701 2.61273
# Velocity P-wave (km/s) = 5.49563 5.83130 5.66595
#
# Compressibility (1/GPa) = 0.02584996
#
# Stress axis : x y z
#
# Youngs Moduli (GPa) = 100.36120 111.44923 38.64217
#
# Poissons Ratio (x) = 0.26970 -0.07922
# Poissons Ratio (y) = 0.24287 0.35213
# Poissons Ratio (z) = -0.20574 1.01560
#
# Static dielectric constant tensor:
#      x y z
#    x 1.825020 0.000000 0.000000 
#    y 0.000000 1.771640 0.000000 
#    z 0.000000 0.000000 1.770950 
# 
# From -- ./inp_files/22556.got.cif
#   From: 2010.05.17/outbox.cif.g08.bks.cpg/sg44_12_cif.got.tgz:22556.got - 2010.06.03 19:37:08.
