data_PCOD9375867
_publ_section_title
;
Structure prediction by ZEFSAII (Michael W. Deem and Ramdas Pophale) SiO2 
 PCOD9375867
Probable space group: I M M 2
;
_chemical_formula_sum "Si O2"
_cell_formula_units_Z 56
_cell_length_a 27.744752
_cell_length_b 14.133457
_cell_length_c 6.793348
_cell_angle_alpha 90.000000
_cell_angle_beta 90.000000
_cell_angle_gamma 90.000000
_cell_volume 2663.870520
_symmetry_space_group_name_H-M "I M M 2"
_symmetry_group_IT_number 44
_symmetry_cell_setting 'orthorhombic'
loop_
_space_group_symop_operation_xyz
x,y,z
-x,-y,z
-x,y,z
x,-y,z
1/2+x,1/2+y,1/2+z
1/2-x,1/2-y,1/2+z
1/2-x,1/2+y,1/2+z
1/2+x,1/2-y,1/2+z
loop_
_atom_site_type_symbol
_atom_site_label
_atom_site_fract_x
_atom_site_fract_y
_atom_site_fract_z
Si Si1 0.347401 0.110078 0.897020
Si Si2 0.873544 0.892746 0.325918
Si Si3 0.948420 0.602323 0.186663
Si Si4 0.636112 0.736920 0.206840
Si Si5 0.055209 0.802015 0.000928
Si Si6 0.236826 0.105125 0.224908
Si Si7 0.710768 0.213512 0.545092
O O1 0.402116 0.110997 0.819479
O O2 0.315986 0.169579 0.736518
O O3 0.332496 0.000000 0.900097
O O4 0.353821 0.160477 0.107578
O O5 0.861231 0.831837 0.518916
O O6 0.913573 0.848811 0.178751
O O7 0.821155 0.897166 0.224474
O O8 0.887924 0.000000 0.376704
O O9 0.945776 0.500000 0.085018
O O10 0.947689 0.690619 0.045606
O O11 0.000000 0.606106 0.295484
O O12 0.586201 0.699797 0.302692
O O13 0.672582 0.742002 0.391204
O O14 0.000000 0.838688 0.990006
O O15 0.259360 0.131402 0.436023
O O16 0.246372 0.199645 0.098406
O O17 0.252789 0.000000 0.165674
#
# Coordination Sequence:
#
# PCOD9375867 Si02
#       7
#     8   8   8   8   8   8   8
#     4  11  23  40  65  99 140 183 223 278 348 412
#     4  11  24  46  68  94 132 179 229 282 348 416
#     4   9  17  34  60  88 125 171 213 257 317 392
#     4  12  22  42  65 102 133 178 226 283 348 412
#     4  11  23  42  69  97 135 178 226 286 348 411
#     4  11  24  44  72  98 131 184 230 280 352 420
#     4  12  24  46  67 100 144 174 234 296 346 420
#
# _framework density 21.022044999999999
#
# number of rings (size 3 to 8) (size 9 to 14) (size 15 to 20)
#    0.000    1.000    5.714    1.286    0.000    4.286 
#    0.000    0.714    0.000    0.000    0.000    0.000 
#    0.000    0.000    0.000    0.000    0.000    0.000 
#
# Total GULP energy -155996.093055 kJ/mol
# GULP energy per Si atom -5571.289038 kJ/mol
# Density = 2.097420 g / cm^3
# Si number density = 21.022045 Si / 1000 Ang^3
#
#
#
# Elastic Constant Matrix: (Units=GPa)
#
#
# Indices 1 2 3 4 5 6 
#
# 1 108.9916 12.2968 31.7833 0.0000 0.0000 0.0000
# 2 12.2968 124.3150 38.1412 0.0000 0.0000 0.0000
# 3 31.7833 38.1412 87.5308 0.0000 0.0000 0.0000
# 4 0.0000 0.0000 0.0000 10.4795 0.0000 0.0000
# 5 0.0000 0.0000 0.0000 0.0000 22.6016 0.0000
# 6 0.0000 0.0000 0.0000 0.0000 0.0000 -0.9169
#
#
#
# Elastic Compliance Matrix: (Units=1/GPa)
#
#
# Indices 1 2 3 4 5 6 
#
# 1 0.010264 0.000148 -0.003791 0.000000 0.000000 0.000000
# 2 0.000148 0.009288 -0.004101 0.000000 0.000000 0.000000
# 3 -0.003791 -0.004101 0.014588 0.000000 0.000000 0.000000
# 4 0.000000 0.000000 0.000000 0.095425 0.000000 0.000000
# 5 0.000000 0.000000 0.000000 0.000000 0.044245 0.000000
# 6 0.000000 0.000000 0.000000 0.000000 0.000000 -1.090667
#
#
# Mechanical properties :
#
#
# Convention : Reuss Voigt Hill
#
# Bulk Modulus (GPa) = 53.61564 53.91999 53.76782
# Shear Modulus (GPa) = -5.58564 22.34058 8.37747
#
# Velocity S-wave (km/s) = -1.63181 3.26348 1.99843
# Velocity P-wave (km/s) = 4.69142 6.31707 5.56394
#
# Compressibility (1/GPa) = 0.01865127
#
# Stress axis : x y z
#
# Youngs Moduli (GPa) = 97.42835 107.67046 68.54880
#
# Poissons Ratio (x) = -0.01593 0.25990
# Poissons Ratio (y) = -0.01442 0.28110
# Poissons Ratio (z) = 0.36939 0.44153
#
# Static dielectric constant tensor:
#      x y z
#    x 1.824650 0.000000 0.000000 
#    y 0.000000 1.797690 0.000000 
#    z 0.000000 0.000000 1.796160 
# 
# From -- ./inp_files/3306.got.cif
#   From: 2010.05.17/outbox.cif.g08.bks.cpg/sg44_2_cif.got.tgz:3306.got - 2010.06.03 19:37:08.
