data_PCOD9375298
_publ_section_title
;
Structure prediction by ZEFSAII (Michael W. Deem and Ramdas Pophale) SiO2 
 PCOD9375298
Probable space group: I M M 2
;
_chemical_formula_sum "Si O2"
_cell_formula_units_Z 56
_cell_length_a 7.708063
_cell_length_b 24.177868
_cell_length_c 14.428267
_cell_angle_alpha 90.000000
_cell_angle_beta 90.000000
_cell_angle_gamma 90.000000
_cell_volume 2688.917195
_symmetry_space_group_name_H-M "I M M 2"
_symmetry_group_IT_number 44
_symmetry_cell_setting 'orthorhombic'
loop_
_space_group_symop_operation_xyz
x,y,z
-x,-y,z
-x,y,z
x,-y,z
1/2+x,1/2+y,1/2+z
1/2-x,1/2-y,1/2+z
1/2-x,1/2+y,1/2+z
1/2+x,1/2-y,1/2+z
loop_
_atom_site_type_symbol
_atom_site_label
_atom_site_fract_x
_atom_site_fract_y
_atom_site_fract_z
Si Si1 0.295517 0.325927 0.626620
Si Si2 0.209949 0.623493 0.911911
Si Si3 0.796804 0.161821 0.923891
Si Si4 0.209056 0.563392 0.094636
Si Si5 0.709810 0.062096 0.226015
Si Si6 0.291627 0.437337 0.303593
Si Si7 0.296468 0.265896 0.807952
O O1 0.500000 0.312336 0.623138
O O2 0.220826 0.321151 0.523539
O O3 0.276680 0.389376 0.659904
O O4 0.222882 0.287855 0.709627
O O5 0.257561 0.580178 0.830695
O O6 0.275580 0.682848 0.878628
O O7 0.000000 0.626629 0.913758
O O8 0.271510 0.602140 0.011429
O O9 0.721701 0.106711 0.877072
O O10 0.785697 0.211742 0.851609
O O11 0.000000 0.150316 0.941440
O O12 0.271377 0.500000 0.082647
O O13 0.255382 0.581296 0.198320
O O14 0.000000 0.562065 0.088632
O O15 0.500000 0.062759 0.220981
O O16 0.769516 0.000000 0.204896
O O17 0.500000 0.439530 0.313141
O O18 0.224139 0.500000 0.314372
O O19 0.500000 0.254333 0.796935
#
# Coordination Sequence:
#
# PCOD9375298 Si02
#       7
#     8   8   8   8   8   8   8
#     4   9  20  37  54  74 101 133 170 210 250 299
#     4   9  17  31  51  74 104 141 175 206 247 302
#     4  10  21  38  58  76  98 134 172 202 246 307
#     4   9  17  30  50  76 105 138 174 210 250 297
#     4   9  17  30  50  77 107 137 170 209 252 298
#     4   9  19  35  53  75 103 133 168 210 251 295
#     4  10  21  36  53  76 104 130 165 214 258 295
#
# _framework density 20.826228
#
# number of rings (size 3 to 8) (size 9 to 14) (size 15 to 20)
#    0.000    2.714    0.000    0.857    0.000    6.000 
#    0.000    5.714    0.000    4.286    0.000    0.000 
#    0.000    0.000    0.000    0.000    0.000    0.000 
#
# Total GULP energy -156222.320354 kJ/mol
# GULP energy per Si atom -5579.368584 kJ/mol
# Density = 2.077883 g / cm^3
# Si number density = 20.826228 Si / 1000 Ang^3
#
#
#
# Elastic Constant Matrix: (Units=GPa)
#
#
# Indices 1 2 3 4 5 6 
#
# 1 32.3270 -9.3385 3.6871 0.0000 0.0000 0.0000
# 2 -9.3385 69.2536 68.5554 0.0001 0.0000 0.0000
# 3 3.6871 68.5554 153.8341 0.0003 0.0001 -0.0002
# 4 0.0000 0.0001 0.0003 14.9234 0.0000 -0.0001
# 5 0.0000 0.0000 0.0001 0.0000 10.8239 0.0000
# 6 0.0000 0.0000 -0.0002 -0.0001 0.0000 4.3554
#
#
#
# Elastic Compliance Matrix: (Units=1/GPa)
#
#
# Indices 1 2 3 4 5 6 
#
# 1 0.034338 0.009743 -0.005165 0.000000 0.000000 0.000000
# 2 0.009743 0.028603 -0.012980 0.000000 0.000000 -0.000001
# 3 -0.005165 -0.012980 0.012409 0.000000 0.000000 0.000000
# 4 0.000000 0.000000 0.000000 0.067009 0.000000 0.000001
# 5 0.000000 0.000000 0.000000 0.000000 0.092388 0.000000
# 6 0.000000 -0.000001 0.000000 0.000001 0.000000 0.229598
#
#
# Mechanical properties :
#
#
# Convention : Reuss Voigt Hill
#
# Bulk Modulus (GPa) = 17.08083 42.35808 29.71945
# Shear Modulus (GPa) = 9.98674 18.85459 14.42067
#
# Velocity S-wave (km/s) = 2.19219 3.01213 2.63426
# Velocity P-wave (km/s) = 3.82452 5.69914 4.85321
#
# Compressibility (1/GPa) = 0.05854517
#
# Stress axis : x y z
#
# Youngs Moduli (GPa) = 29.12264 34.96144 80.58727
#
# Poissons Ratio (x) = -0.34064 0.41623
# Poissons Ratio (y) = -0.28375 1.04605
# Poissons Ratio (z) = 0.15042 0.45381
#
# Static dielectric constant tensor:
#      x y z
#    x 1.787570 0.000000 0.000000 
#    y 0.000000 1.720850 0.000000 
#    z 0.000000 0.000000 1.753860 
# 
# From -- ./inp_files/16477.got.cif
#   From: 2010.05.17/outbox.cif.g08.bks.cpg/sg44_9_cif.got.tgz:16477.got - 2010.06.03 19:37:08.
