data_PCOD9375445
_publ_section_title
;
Structure prediction by ZEFSAII (Michael W. Deem and Ramdas Pophale) SiO2 
 PCOD9375445
Probable space group: I M M 2
;
_chemical_formula_sum "Si O2"
_cell_formula_units_Z 40
_cell_length_a 15.939580
_cell_length_b 9.566590
_cell_length_c 12.792926
_cell_angle_alpha 90.000000
_cell_angle_beta 90.000000
_cell_angle_gamma 90.000000
_cell_volume 1950.760365
_symmetry_space_group_name_H-M "I M M 2"
_symmetry_group_IT_number 44
_symmetry_cell_setting 'orthorhombic'
loop_
_space_group_symop_operation_xyz
x,y,z
-x,-y,z
-x,y,z
x,-y,z
1/2+x,1/2+y,1/2+z
1/2-x,1/2-y,1/2+z
1/2-x,1/2+y,1/2+z
1/2+x,1/2-y,1/2+z
loop_
_atom_site_type_symbol
_atom_site_label
_atom_site_fract_x
_atom_site_fract_y
_atom_site_fract_z
Si Si1 0.155971 0.339308 0.128880
Si Si2 0.649648 0.341815 0.194861
Si Si3 0.599163 0.844049 0.007702
Si Si4 0.900497 0.843079 0.320428
Si Si5 0.100950 0.163424 0.933615
O O1 0.125911 0.500000 0.127938
O O2 0.252761 0.340817 0.164265
O O3 0.110826 0.245277 0.215744
O O4 0.142093 0.265321 0.017999
O O5 0.616898 0.500000 0.174889
O O6 0.608419 0.229657 0.118848
O O7 0.633936 0.311396 0.316331
O O8 0.500000 0.856635 0.986303
O O9 0.636050 0.000000 0.005112
O O10 0.635962 0.744166 0.917778
O O11 0.000000 0.856954 0.338347
O O12 0.865043 0.000000 0.312608
O O13 0.000000 0.181755 0.935093
O O14 0.118103 0.000000 0.959596
#
# Coordination Sequence:
#
# PCOD9375445 Si02
#       5
#     8   8   8   8   8
#     4  11  24  39  59  91 126 158 200 255 311 361
#     4  10  23  41  61  88 122 161 204 250 305 365
#     4  10  21  37  60  90 121 154 196 249 304 356
#     4  10  21  38  61  87 118 159 202 243 296 364
#     4  10  22  42  66  89 119 165 214 256 305 370
#
# _framework density 20.504825
#
# number of rings (size 3 to 8) (size 9 to 14) (size 15 to 20)
#    0.000    1.800    0.000    3.000    2.800    8.400 
#    0.000    0.000    0.000    0.000    0.000    0.000 
#    0.000    0.000    0.000    0.000    0.000    0.000 
#
# Total GULP energy -111743.245481 kJ/mol
# GULP energy per Si atom -5587.162274 kJ/mol
# Density = 2.045815 g / cm^3
# Si number density = 20.504825 Si / 1000 Ang^3
#
#
#
# Elastic Constant Matrix: (Units=GPa)
#
#
# Indices 1 2 3 4 5 6 
#
# 1 34.7722 24.6526 16.7987 0.0000 0.0000 0.0000
# 2 24.6526 200.3517 117.9828 0.0000 0.0000 0.0000
# 3 16.7987 117.9828 143.5998 0.0000 0.0000 0.0000
# 4 0.0000 0.0000 0.0000 -5.7134 0.0000 0.0000
# 5 0.0000 0.0000 0.0000 0.0000 -31.4843 0.0000
# 6 0.0000 0.0000 0.0000 0.0000 0.0000 -1.7617
#
#
#
# Elastic Compliance Matrix: (Units=1/GPa)
#
#
# Indices 1 2 3 4 5 6 
#
# 1 0.031577 -0.003313 -0.000972 0.000000 0.000000 0.000000
# 2 -0.003313 0.010017 -0.007843 0.000000 0.000000 0.000000
# 3 -0.000972 -0.007843 0.013521 0.000000 0.000000 0.000000
# 4 0.000000 0.000000 0.000000 -0.175028 0.000000 0.000000
# 5 0.000000 0.000000 0.000000 0.000000 -0.031762 0.000000
# 6 0.000000 0.000000 0.000000 0.000000 0.000000 -0.567624
#
#
# Mechanical properties :
#
#
# Convention : Reuss Voigt Hill
#
# Bulk Modulus (GPa) = 32.40439 77.51019 54.95729
# Shear Modulus (GPa) = -7.30187 6.82743 -0.23722
#
# Velocity S-wave (km/s) = -1.88912 1.82672 -0.34050
# Velocity P-wave (km/s) = 3.32855 6.50632 5.16776
#
# Compressibility (1/GPa) = 0.03086001
#
# Stress axis : x y z
#
# Youngs Moduli (GPa) = 31.66861 99.82733 73.95835
#
# Poissons Ratio (x) = 0.33074 0.07188
# Poissons Ratio (y) = 0.10492 0.58003
# Poissons Ratio (z) = 0.03078 0.78292
#
# Static dielectric constant tensor:
#      x y z
#    x 4.297350 0.000000 0.000000 
#    y 0.000000 1.742350 0.000000 
#    z 0.000000 0.000000 1.692730 
# 
# From -- ./inp_files/10828.got.cif
#   From: 2010.05.17/outbox.cif.g08.bks.cpg/sg44_6_cif.got.tgz:10828.got - 2010.06.03 19:37:08.
