data_PCOD9375681
_publ_section_title
;
Structure prediction by ZEFSAII (Michael W. Deem and Ramdas Pophale) SiO2 
 PCOD9375681
Probable space group: I M M 2
;
_chemical_formula_sum "Si O2"
_cell_formula_units_Z 40
_cell_length_a 7.633171
_cell_length_b 8.738508
_cell_length_c 30.934770
_cell_angle_alpha 90.000000
_cell_angle_beta 90.000000
_cell_angle_gamma 90.000000
_cell_volume 2063.427296
_symmetry_space_group_name_H-M "I M M 2"
_symmetry_group_IT_number 44
_symmetry_cell_setting 'orthorhombic'
loop_
_space_group_symop_operation_xyz
x,y,z
-x,-y,z
-x,y,z
x,-y,z
1/2+x,1/2+y,1/2+z
1/2-x,1/2-y,1/2+z
1/2-x,1/2+y,1/2+z
1/2+x,1/2-y,1/2+z
loop_
_atom_site_type_symbol
_atom_site_label
_atom_site_fract_x
_atom_site_fract_y
_atom_site_fract_z
Si Si1 0.500000 0.816864 0.073830
Si Si2 0.209664 0.825193 0.224959
Si Si3 0.795090 0.314221 0.912571
Si Si4 0.000000 0.316385 0.473604
Si Si5 0.794761 0.682518 0.134528
Si Si6 0.790467 0.674558 0.818244
O O1 0.670302 0.755292 0.098765
O O2 0.500000 0.000000 0.075743
O O3 0.500000 0.769107 0.023749
O O4 0.266137 0.737049 0.182126
O O5 0.251817 0.753467 0.271734
O O6 0.000000 0.832735 0.222935
O O7 0.279586 0.000000 0.223749
O O8 0.784738 0.500000 0.912202
O O9 0.669566 0.247787 0.948801
O O10 0.734203 0.260242 0.864525
O O11 0.000000 0.273889 0.918920
O O12 0.000000 0.500000 0.471589
O O13 0.783848 0.500000 0.132272
O O14 0.000000 0.726571 0.129056
O O15 0.719595 0.500000 0.815573
O O16 0.000000 0.664937 0.821767
#
# Coordination Sequence:
#
# PCOD9375681 Si02
#       6
#     4   8   8   4   8   8
#     4  11  25  43  63  85 111 149 201 249 292 349
#     4   9  17  29  50  81 113 150 194 232 275 333
#     4   9  19  37  61  87 117 153 195 242 287 339
#     4  11  25  41  59  87 117 151 193 243 304 355
#     4  10  22  40  60  85 120 153 186 237 297 354
#     4   8  15  28  49  80 112 145 191 237 274 321
#
# _framework density 19.385223
#
# number of rings (size 3 to 8) (size 9 to 14) (size 15 to 20)
#    0.000    2.600    0.000    2.400    2.800    4.000 
#    0.000    5.000    0.000    1.200    0.000    0.000 
#    0.000    0.000    0.000    0.000    0.000    0.000 
#
# Total GULP energy -111533.453574 kJ/mol
# GULP energy per Si atom -5576.672679 kJ/mol
# Density = 1.934110 g / cm^3
# Si number density = 19.385223 Si / 1000 Ang^3
#
#
#
# Elastic Constant Matrix: (Units=GPa)
#
#
# Indices 1 2 3 4 5 6 
#
# 1 93.3298 31.8513 85.4468 0.0000 0.0000 0.0000
# 2 31.8513 29.7612 50.1256 0.0000 0.0000 0.0000
# 3 85.4468 50.1256 229.8064 0.0000 0.0000 0.0000
# 4 0.0000 0.0000 0.0000 27.8365 0.0000 0.0000
# 5 0.0000 0.0000 0.0000 0.0000 34.7879 0.0000
# 6 0.0000 0.0000 0.0000 0.0000 0.0000 18.6975
#
#
#
# Elastic Compliance Matrix: (Units=1/GPa)
#
#
# Indices 1 2 3 4 5 6 
#
# 1 0.019126 -0.013423 -0.004184 0.000000 0.000000 0.000000
# 2 -0.013423 0.062533 -0.008649 0.000000 0.000000 0.000000
# 3 -0.004184 -0.008649 0.007794 0.000000 0.000000 0.000000
# 4 0.000000 0.000000 0.000000 0.035924 0.000000 0.000000
# 5 0.000000 0.000000 0.000000 0.000000 0.028746 0.000000
# 6 0.000000 0.000000 0.000000 0.000000 0.000000 0.053483
#
#
# Mechanical properties :
#
#
# Convention : Reuss Voigt Hill
#
# Bulk Modulus (GPa) = 27.06936 76.41609 51.74272
# Shear Modulus (GPa) = 18.35333 28.62930 23.49131
#
# Velocity S-wave (km/s) = 3.08030 3.84717 3.48489
# Velocity P-wave (km/s) = 5.16190 7.69673 6.55305
#
# Compressibility (1/GPa) = 0.03694214
#
# Stress axis : x y z
#
# Youngs Moduli (GPa) = 52.28545 15.99144 128.31111
#
# Poissons Ratio (x) = 0.21465 0.53680
# Poissons Ratio (y) = 0.70181 1.10976
# Poissons Ratio (z) = 0.21874 0.13831
#
# Static dielectric constant tensor:
#      x y z
#    x 1.679950 0.000000 0.000000 
#    y 0.000000 1.670380 0.000000 
#    z 0.000000 0.000000 1.696450 
# 
# From -- ./inp_files/25955.got.cif
#   From: 2010.05.17/outbox.cif.g08.bks.cpg/sg44_13_cif.got.tgz:25955.got - 2010.06.03 19:37:08.
