data_PCOD9375864
_publ_section_title
;
Structure prediction by ZEFSAII (Michael W. Deem and Ramdas Pophale) SiO2 
 PCOD9375864
Probable space group: I M M 2
;
_chemical_formula_sum "Si O2"
_cell_formula_units_Z 34
_cell_length_a 10.914275
_cell_length_b 7.376317
_cell_length_c 19.878561
_cell_angle_alpha 90.000000
_cell_angle_beta 90.000000
_cell_angle_gamma 90.000000
_cell_volume 1600.366336
_symmetry_space_group_name_H-M "I M M 2"
_symmetry_group_IT_number 44
_symmetry_cell_setting 'orthorhombic'
loop_
_space_group_symop_operation_xyz
x,y,z
-x,-y,z
-x,y,z
x,-y,z
1/2+x,1/2+y,1/2+z
1/2-x,1/2-y,1/2+z
1/2-x,1/2+y,1/2+z
1/2+x,1/2-y,1/2+z
loop_
_atom_site_type_symbol
_atom_site_label
_atom_site_fract_x
_atom_site_fract_y
_atom_site_fract_z
Si Si1 0.362245 0.218932 0.480710
Si Si2 0.715071 0.205791 0.109328
Si Si3 0.635632 0.718997 0.735245
Si Si4 0.500000 0.500000 0.125971
Si Si5 0.862970 0.720639 0.825050
O O1 0.500000 0.275903 0.500171
O O2 0.262830 0.286828 0.533074
O O3 0.344310 0.272496 0.402952
O O4 0.358301 0.000000 0.482314
O O5 0.828115 0.255545 0.158297
O O6 0.606691 0.342741 0.122405
O O7 0.678672 0.000000 0.126648
O O8 0.500000 0.786645 0.752385
O O9 0.632050 0.500000 0.743324
O O10 0.749963 0.783786 0.780044
O O11 0.864638 0.500000 0.822818
O O12 0.000000 0.780594 0.803250
#
# Coordination Sequence:
#
# PCOD9375864 Si02
#       5
#     8   8   8   2   8
#     4   9  17  34  59  89 123 164 208 255 307 366
#     4  11  23  40  64  89 124 161 210 262 314 370
#     4   9  18  33  56  91 124 162 207 255 309 367
#     4  12  26  44  58  94 120 168 208 258 320 386
#     4   8  15  29  53  84 124 165 211 252 298 365
#
# _framework density 21.245135000000001
#
# number of rings (size 3 to 8) (size 9 to 14) (size 15 to 20)
#    0.000    2.588    1.176    2.471    1.647    1.412 
#    2.118    0.000    2.588    0.000    0.000    0.000 
#    0.000    0.000    0.000    0.000    0.000    0.000 
#
# Total GULP energy -94689.583336 kJ/mol
# GULP energy per Si atom -5569.975490 kJ/mol
# Density = 2.119678 g / cm^3
# Si number density = 21.245135 Si / 1000 Ang^3
#
#
#
# Elastic Constant Matrix: (Units=GPa)
#
#
# Indices 1 2 3 4 5 6 
#
# 1 180.7335 34.3873 64.7580 0.0000 0.0000 0.0000
# 2 34.3873 103.8809 4.4382 0.0000 0.0000 0.0000
# 3 64.7580 4.4382 71.4941 0.0000 0.0000 0.0000
# 4 0.0000 0.0000 0.0000 8.8838 0.0000 0.0000
# 5 0.0000 0.0000 0.0000 0.0000 4.9394 0.0000
# 6 0.0000 0.0000 0.0000 0.0000 0.0000 19.7617
#
#
#
# Elastic Compliance Matrix: (Units=1/GPa)
#
#
# Indices 1 2 3 4 5 6 
#
# 1 0.008836 -0.002590 -0.007843 0.000000 0.000000 0.000000
# 2 -0.002590 0.010411 0.001700 0.000000 0.000000 0.000000
# 3 -0.007843 0.001700 0.020985 0.000000 0.000000 0.000000
# 4 0.000000 0.000000 0.000000 0.112564 0.000000 0.000000
# 5 0.000000 0.000000 0.000000 0.000000 0.202453 0.000000
# 6 0.000000 0.000000 0.000000 0.000000 0.000000 0.050603
#
#
# Mechanical properties :
#
#
# Convention : Reuss Voigt Hill
#
# Bulk Modulus (GPa) = 43.92414 62.58617 53.25516
# Shear Modulus (GPa) = 11.60343 23.55198 17.57770
#
# Velocity S-wave (km/s) = 2.33956 3.33315 2.87953
# Velocity P-wave (km/s) = 5.29319 6.65854 6.01473
#
# Compressibility (1/GPa) = 0.02276652
#
# Stress axis : x y z
#
# Youngs Moduli (GPa) = 113.17604 96.05133 47.65242
#
# Poissons Ratio (x) = 0.24876 0.37372
# Poissons Ratio (y) = 0.29311 -0.08099
# Poissons Ratio (z) = 0.88759 -0.16324
#
# Static dielectric constant tensor:
#      x y z
#    x 1.729100 0.000000 0.000000 
#    y 0.000000 1.800810 0.000000 
#    z 0.000000 0.000000 1.752910 
# 
# From -- ./inp_files/21002.got.cif
#   From: 2010.05.17/outbox.cif.g08.bks.cpg/sg44_11_cif.got.tgz:21002.got - 2010.06.03 19:37:08.
