data_PCOD9375855
_publ_section_title
;
Structure prediction by ZEFSAII (Michael W. Deem and Ramdas Pophale) SiO2 
 PCOD9375855
Probable space group: I M M 2
;
_chemical_formula_sum "Si O2"
_cell_formula_units_Z 34
_cell_length_a 7.821802
_cell_length_b 23.059536
_cell_length_c 8.619689
_cell_angle_alpha 90.000000
_cell_angle_beta 90.000000
_cell_angle_gamma 90.000000
_cell_volume 1554.708522
_symmetry_space_group_name_H-M "I M M 2"
_symmetry_group_IT_number 44
_symmetry_cell_setting 'orthorhombic'
loop_
_space_group_symop_operation_xyz
x,y,z
-x,-y,z
-x,y,z
x,-y,z
1/2+x,1/2+y,1/2+z
1/2-x,1/2-y,1/2+z
1/2-x,1/2+y,1/2+z
1/2+x,1/2-y,1/2+z
loop_
_atom_site_type_symbol
_atom_site_label
_atom_site_fract_x
_atom_site_fract_y
_atom_site_fract_z
Si Si1 0.705152 0.822355 0.988390
Si Si2 0.799103 0.063648 0.807844
Si Si3 0.189429 0.415876 0.962293
Si Si4 0.701390 0.296315 0.840371
Si Si5 0.000000 0.000000 0.373879
O O1 0.500000 0.823819 0.988918
O O2 0.766088 0.883482 0.921600
O O3 0.763442 0.768065 0.883259
O O4 0.768282 0.810469 0.161180
O O5 0.702645 0.071042 0.645532
O O6 0.000000 0.063462 0.766565
O O7 0.758473 0.000000 0.875180
O O8 0.211655 0.347262 0.937609
O O9 0.346914 0.449740 0.883700
O O10 0.000000 0.432248 0.905260
O O11 0.500000 0.298166 0.874713
#
# Coordination Sequence:
#
# PCOD9375855 Si02
#       5
#     8   8   8   8   2
#     4  11  25  42  67  97 131 173 228 280 337 403
#     4  11  22  42  65  96 135 178 221 275 335 397
#     4  12  23  41  71  99 136 179 226 271 329 398
#     4  11  24  45  66  96 133 174 222 281 338 395
#     4  12  22  44  64 104 140 176 220 278 320 406
#
# _framework density 21.869052
#
# number of rings (size 3 to 8) (size 9 to 14) (size 15 to 20)
#    0.000    0.706    3.529    3.882    0.000    8.941 
#    2.118    0.000    0.000    0.000    0.000    0.000 
#    0.000    0.000    0.000    0.000    0.000    0.000 
#
# Total GULP energy -94860.830558 kJ/mol
# GULP energy per Si atom -5580.048856 kJ/mol
# Density = 2.181928 g / cm^3
# Si number density = 21.869052 Si / 1000 Ang^3
#
#
#
# Elastic Constant Matrix: (Units=GPa)
#
#
# Indices 1 2 3 4 5 6 
#
# 1 146.8850 46.4539 6.6065 0.0002 0.0002 -0.0001
# 2 46.4539 215.5326 47.5494 0.0012 0.0001 -0.0002
# 3 6.6065 47.5494 39.5244 -0.0043 -0.0011 0.0013
# 4 0.0002 0.0012 -0.0043 21.4675 -0.0004 0.0002
# 5 0.0002 0.0001 -0.0011 -0.0004 25.9815 0.0003
# 6 -0.0001 -0.0002 0.0013 0.0002 0.0003 21.8908
#
#
#
# Elastic Compliance Matrix: (Units=1/GPa)
#
#
# Indices 1 2 3 4 5 6 
#
# 1 0.007331 -0.001783 0.000919 0.000000 0.000000 0.000000
# 2 -0.001783 0.006750 -0.007822 -0.000002 0.000000 0.000001
# 3 0.000919 -0.007822 0.034557 0.000007 0.000001 -0.000002
# 4 0.000000 -0.000002 0.000007 0.046582 0.000001 0.000000
# 5 0.000000 0.000000 0.000001 0.000001 0.038489 -0.000001
# 6 0.000000 0.000001 -0.000002 0.000000 -0.000001 0.045681
#
#
# Mechanical properties :
#
#
# Convention : Reuss Voigt Hill
#
# Bulk Modulus (GPa) = 31.98285 67.01795 49.50040
# Shear Modulus (GPa) = 24.13333 33.95678 29.04505
#
# Velocity S-wave (km/s) = 3.32556 3.94475 3.64831
# Velocity P-wave (km/s) = 5.42238 7.17354 6.35853
#
# Compressibility (1/GPa) = 0.03126676
#
# Stress axis : x y z
#
# Youngs Moduli (GPa) = 136.41600 148.15806 28.93747
#
# Poissons Ratio (x) = 0.26414 -0.02661
# Poissons Ratio (y) = 0.24320 0.22635
# Poissons Ratio (z) = -0.12543 1.15889
#
# Static dielectric constant tensor:
#      x y z
#    x 1.804600 0.000000 0.000000 
#    y 0.000000 1.806720 0.000000 
#    z 0.000000 0.000000 1.768600 
# 
# From -- ./inp_files/4308.got.cif
#   From: 2010.05.17/outbox.cif.g08.bks.cpg/sg44_3_cif.got.tgz:4308.got - 2010.06.03 19:37:08.
