data_PCOD9375869
_publ_section_title
;
Structure prediction by ZEFSAII (Michael W. Deem and Ramdas Pophale) SiO2 
 PCOD9375869
Probable space group: I M M 2
;
_chemical_formula_sum "Si O2"
_cell_formula_units_Z 58
_cell_length_a 15.967817
_cell_length_b 26.185541
_cell_length_c 6.759979
_cell_angle_alpha 90.000000
_cell_angle_beta 90.000000
_cell_angle_gamma 90.000000
_cell_volume 2826.522484
_symmetry_space_group_name_H-M "I M M 2"
_symmetry_group_IT_number 44
_symmetry_cell_setting 'orthorhombic'
loop_
_space_group_symop_operation_xyz
x,y,z
-x,-y,z
-x,y,z
x,-y,z
1/2+x,1/2+y,1/2+z
1/2-x,1/2-y,1/2+z
1/2-x,1/2+y,1/2+z
1/2+x,1/2-y,1/2+z
loop_
_atom_site_type_symbol
_atom_site_label
_atom_site_fract_x
_atom_site_fract_y
_atom_site_fract_z
Si Si1 0.268879 0.398943 0.547690
Si Si2 0.320361 0.558580 0.951350
Si Si3 0.839458 0.575714 0.209752
Si Si4 0.357281 0.272353 0.977371
Si Si5 0.406187 0.637594 0.244093
Si Si6 0.596884 0.811165 0.652769
Si Si7 0.795292 0.690394 0.768024
Si Si8 0.000000 0.500000 0.195655
O O1 0.318637 0.427035 0.720948
O O2 0.216714 0.435561 0.403052
O O3 0.334452 0.366576 0.412705
O O4 0.200161 0.362342 0.651785
O O5 0.344424 0.500000 0.980256
O O6 0.224520 0.565638 0.029830
O O7 0.378456 0.595254 0.082964
O O8 0.858562 0.636374 0.218565
O O9 0.924792 0.544217 0.196805
O O10 0.406700 0.308197 0.128858
O O11 0.301055 0.235846 0.113172
O O12 0.396478 0.234230 0.814723
O O13 0.296104 0.310189 0.862816
O O14 0.500000 0.628087 0.320778
O O15 0.500000 0.821967 0.621635
O O16 0.639104 0.799433 0.441761
#
# Coordination Sequence:
#
# PCOD9375869 Si02
#       8
#     8   8   8   8   8   8   8   2
#     4  11  23  44  70  97 135 180 229 278 338 420
#     4  11  24  45  73  97 129 182 230 279 344 411
#     4  11  23  44  66 100 137 182 225 278 339 404
#     4  12  23  42  67  98 134 180 221 272 338 408
#     4  11  26  45  68 102 138 172 229 289 347 406
#     4  12  25  40  64  97 138 175 225 278 332 398
#     4  12  22  41  67  94 131 181 224 266 335 408
#     4  12  24  44  74 100 146 178 232 292 336 388
#
# _framework density 20.519914
#
# number of rings (size 3 to 8) (size 9 to 14) (size 15 to 20)
#    0.000    0.552    6.897    2.069    0.966    2.483 
#    1.241    1.379    0.000    0.000    0.000    0.000 
#    0.000    0.000    0.000    0.000    0.000    0.000 
#
# Total GULP energy -161622.570317 kJ/mol
# GULP energy per Si atom -5573.192080 kJ/mol
# Density = 2.047321 g / cm^3
# Si number density = 20.519914 Si / 1000 Ang^3
#
#
#
# Elastic Constant Matrix: (Units=GPa)
#
#
# Indices 1 2 3 4 5 6 
#
# 1 78.7719 -3.3543 15.1728 0.0001 -0.0003 -0.0002
# 2 -3.3543 84.3648 22.4296 -0.0001 -0.0006 -0.0004
# 3 15.1728 22.4296 95.0366 -0.0023 -0.0016 -0.0019
# 4 0.0001 -0.0001 -0.0023 11.2129 0.0000 -0.0003
# 5 -0.0003 -0.0006 -0.0016 0.0000 10.4563 0.0000
# 6 -0.0002 -0.0004 -0.0019 -0.0003 0.0000 26.4242
#
#
#
# Elastic Compliance Matrix: (Units=1/GPa)
#
#
# Indices 1 2 3 4 5 6 
#
# 1 0.013203 0.001158 -0.002381 -0.000001 0.000000 0.000000
# 2 0.001158 0.012748 -0.003194 -0.000001 0.000000 0.000000
# 3 -0.002381 -0.003194 0.011656 0.000002 0.000001 0.000001
# 4 -0.000001 -0.000001 0.000002 0.089183 0.000000 0.000001
# 5 0.000000 0.000000 0.000001 0.000000 0.095636 0.000000
# 6 0.000000 0.000000 0.000001 0.000001 0.000000 0.037844
#
#
# Mechanical properties :
#
#
# Convention : Reuss Voigt Hill
#
# Bulk Modulus (GPa) = 34.75383 36.29662 35.52523
# Shear Modulus (GPa) = 17.94072 24.54703 21.24387
#
# Velocity S-wave (km/s) = 2.96008 3.46244 3.22107
# Velocity P-wave (km/s) = 5.35314 5.80617 5.58425
#
# Compressibility (1/GPa) = 0.02877381
#
# Stress axis : x y z
#
# Youngs Moduli (GPa) = 75.74128 78.44125 85.79162
#
# Poissons Ratio (x) = -0.09084 0.20428
# Poissons Ratio (y) = -0.08771 0.27399
# Poissons Ratio (z) = 0.18035 0.25051
#
# Static dielectric constant tensor:
#      x y z
#    x 1.710130 0.000000 0.000000 
#    y 0.000000 1.757580 0.000000 
#    z 0.000000 0.000000 1.759050 
# 
# From -- ./inp_files/2108.got.cif
#   From: 2010.05.17/outbox.cif.g08.bks.cpg/sg44_2_cif.got.tgz:2108.got - 2010.06.03 19:37:08.
