data_PCOD9375688
_publ_section_title
;
Structure prediction by ZEFSAII (Michael W. Deem and Ramdas Pophale) SiO2 
 PCOD9375688
Probable space group: I M M 2
;
_chemical_formula_sum "Si O2"
_cell_formula_units_Z 64
_cell_length_a 8.510936
_cell_length_b 15.927776
_cell_length_c 24.413999
_cell_angle_alpha 90.000000
_cell_angle_beta 90.000000
_cell_angle_gamma 90.000000
_cell_volume 3309.568593
_symmetry_space_group_name_H-M "I M M 2"
_symmetry_group_IT_number 44
_symmetry_cell_setting 'orthorhombic'
loop_
_space_group_symop_operation_xyz
x,y,z
-x,-y,z
-x,y,z
x,-y,z
1/2+x,1/2+y,1/2+z
1/2-x,1/2-y,1/2+z
1/2-x,1/2+y,1/2+z
1/2+x,1/2-y,1/2+z
loop_
_atom_site_type_symbol
_atom_site_label
_atom_site_fract_x
_atom_site_fract_y
_atom_site_fract_z
Si Si1 0.812668 0.648142 0.523040
Si Si2 0.311996 0.750026 0.217293
Si Si3 0.810415 0.906187 0.416578
Si Si4 0.308499 0.093159 0.144240
Si Si5 0.687932 0.836611 0.528711
Si Si6 0.310457 0.094589 0.648040
Si Si7 0.812658 0.906194 0.906938
Si Si8 0.812244 0.247827 0.340225
O O1 0.762352 0.609669 0.581239
O O2 0.771410 0.746578 0.524584
O O3 0.731287 0.608118 0.470376
O O4 0.000000 0.637241 0.517428
O O5 0.500000 0.750946 0.215750
O O6 0.253733 0.830774 0.182564
O O7 0.254078 0.665337 0.188217
O O8 0.256294 0.754127 0.279539
O O9 0.737623 0.889811 0.476067
O O10 0.757864 0.832403 0.375853
O O11 0.000000 0.900753 0.421449
O O12 0.770441 0.000000 0.397238
O O13 0.500000 0.094502 0.145029
O O14 0.257721 0.000000 0.161638
O O15 0.500000 0.824181 0.528449
O O16 0.732350 0.880764 0.585719
O O17 0.500000 0.095672 0.651124
O O18 0.256507 0.000000 0.660596
O O19 0.736135 0.832419 0.871682
O O20 0.000000 0.900627 0.900869
O O21 0.761404 0.000000 0.890426
O O22 0.000000 0.244367 0.336902
#
# Coordination Sequence:
#
# PCOD9375688 Si02
#       8
#     8   8   8   8   8   8   8   8
#     4  11  20  35  61  91 124 162 198 237 294 357
#     4  11  23  40  62  87 117 154 202 253 298 345
#     4  10  22  40  62  89 121 157 198 244 296 358
#     4   9  19  36  59  88 121 156 195 238 288 351
#     4  11  21  35  60  91 125 159 196 243 297 356
#     4  10  22  40  61  87 121 159 197 240 296 360
#     4  11  24  41  62  91 124 156 196 248 301 354
#     4  11  24  42  63  86 117 159 203 246 299 358
#
# _framework density 19.337869000000001
#
# number of rings (size 3 to 8) (size 9 to 14) (size 15 to 20)
#    0.000    1.500    2.500    2.625    0.000    4.500 
#    0.000    0.000    0.000    3.375    0.000    0.000 
#    0.000    0.000    0.000    0.000    0.000    0.000 
#
# Total GULP energy -178857.748150 kJ/mol
# GULP energy per Si atom -5589.304630 kJ/mol
# Density = 1.929386 g / cm^3
# Si number density = 19.337869 Si / 1000 Ang^3
#
#
#
# Elastic Constant Matrix: (Units=GPa)
#
#
# Indices 1 2 3 4 5 6 
#
# 1 15.0529 9.8301 9.1062 0.0000 0.0000 0.0000
# 2 9.8301 145.9197 52.9103 0.0000 0.0000 0.0000
# 3 9.1062 52.9103 123.3391 0.0000 0.0000 0.0000
# 4 0.0000 0.0000 0.0000 -1.5048 0.0000 0.0000
# 5 0.0000 0.0000 0.0000 0.0000 31.7576 0.0000
# 6 0.0000 0.0000 0.0000 0.0000 0.0000 18.0484
#
#
#
# Elastic Compliance Matrix: (Units=1/GPa)
#
#
# Indices 1 2 3 4 5 6 
#
# 1 0.070943 -0.003410 -0.003775 0.000000 0.000000 0.000000
# 2 -0.003410 0.008279 -0.003300 0.000000 0.000000 0.000000
# 3 -0.003775 -0.003300 0.009802 0.000000 0.000000 0.000000
# 4 0.000000 0.000000 0.000000 -0.664550 0.000000 0.000000
# 5 0.000000 0.000000 0.000000 0.000000 0.031489 0.000000
# 6 0.000000 0.000000 0.000000 0.000000 0.000000 0.055407
#
#
# Mechanical properties :
#
#
# Convention : Reuss Voigt Hill
#
# Bulk Modulus (GPa) = 14.69419 47.55609 31.12514
# Shear Modulus (GPa) = -11.23656 23.82460 6.29402
#
# Velocity S-wave (km/s) = -2.41314 3.51382 1.80605
# Velocity P-wave (km/s) = 0.38626 6.41156 4.52543
#
# Compressibility (1/GPa) = 0.06805409
#
# Stress axis : x y z
#
# Youngs Moduli (GPa) = 14.09585 120.78207 102.01985
#
# Poissons Ratio (x) = 0.41192 0.38510
# Poissons Ratio (y) = 0.04807 0.33666
# Poissons Ratio (z) = 0.05321 0.39857
#
# Static dielectric constant tensor:
#      x y z
#    x 1.663460 0.000000 0.000000 
#    y 0.000000 1.680530 0.000000 
#    z 0.000000 0.000000 1.639220 
# 
# From -- ./inp_files/25075.got.cif
#   From: 2010.05.17/outbox.cif.g08.bks.cpg/sg44_13_cif.got.tgz:25075.got - 2010.06.03 19:37:08.
