data_PCOD9375793
_publ_section_title
;
Structure prediction by ZEFSAII (Michael W. Deem and Ramdas Pophale) SiO2 
 PCOD9375793
Probable space group: I M M 2
;
_chemical_formula_sum "Si O2"
_cell_formula_units_Z 64
_cell_length_a 9.002752
_cell_length_b 27.022901
_cell_length_c 18.913188
_cell_angle_alpha 90.000000
_cell_angle_beta 90.000000
_cell_angle_gamma 90.000000
_cell_volume 4601.209380
_symmetry_space_group_name_H-M "I M M 2"
_symmetry_group_IT_number 44
_symmetry_cell_setting 'orthorhombic'
loop_
_space_group_symop_operation_xyz
x,y,z
-x,-y,z
-x,y,z
x,-y,z
1/2+x,1/2+y,1/2+z
1/2-x,1/2-y,1/2+z
1/2-x,1/2+y,1/2+z
1/2+x,1/2-y,1/2+z
loop_
_atom_site_type_symbol
_atom_site_label
_atom_site_fract_x
_atom_site_fract_y
_atom_site_fract_z
Si Si1 0.680886 0.055885 0.922180
Si Si2 0.677209 0.648255 0.181348
Si Si3 0.678291 0.248195 0.929540
Si Si4 0.321809 0.852087 0.013009
Si Si5 0.822247 0.441879 0.258508
Si Si6 0.180141 0.260590 0.265445
Si Si7 0.171344 0.697800 0.052714
Si Si8 0.829470 0.197768 0.137922
O O1 0.500000 0.055770 0.923907
O O2 0.719721 0.067419 0.840726
O O3 0.730138 0.000000 0.938789
O O4 0.733077 0.097837 0.975985
O O5 0.500000 0.651012 0.182294
O O6 0.735734 0.595683 0.208798
O O7 0.745201 0.690321 0.233432
O O8 0.738589 0.660964 0.103221
O O9 0.500000 0.253731 0.935677
O O10 0.717528 0.247976 0.847051
O O11 0.717551 0.194707 0.963144
O O12 0.756405 0.289667 0.977357
O O13 0.500000 0.853910 0.016136
O O14 0.260960 0.840566 0.090792
O O15 0.794990 0.500000 0.244217
O O16 0.000000 0.433405 0.252169
O O17 0.223567 0.214358 0.215417
O O18 0.000000 0.266374 0.259484
O O19 0.174310 0.750277 0.094810
O O20 0.000000 0.682586 0.046397
O O21 0.000000 0.181488 0.142460
#
# Coordination Sequence:
#
# PCOD9375793 Si02
#       8
#     8   8   8   8   8   8   8   8
#     4   8  14  25  41  59  77 101 136 171 199 232
#     4  11  20  28  41  60  83 110 140 172 203 237
#     4   9  16  26  41  60  80 102 132 168 204 241
#     4   9  15  23  38  57  76 100 129 163 198 231
#     4   9  17  30  46  60  77 105 139 172 207 247
#     4   9  17  29  43  58  80 110 140 168 201 244
#     4   9  17  29  42  56  78 106 135 165 199 242
#     4   8  15  26  38  53  75 104 133 160 191 231
#
# _framework density 13.909387000000001
#
# number of rings (size 3 to 8) (size 9 to 14) (size 15 to 20)
#    0.000    3.000    0.000    3.750    0.000    5.750 
#    0.000    3.125    0.000    1.125    0.000    0.000 
#    0.000    1.000    0.000    8.000    0.000    2.625 
#
# Total GULP energy -178165.477188 kJ/mol
# GULP energy per Si atom -5567.671162 kJ/mol
# Density = 1.387773 g / cm^3
# Si number density = 13.909387 Si / 1000 Ang^3
#
#
#
# Elastic Constant Matrix: (Units=GPa)
#
#
# Indices 1 2 3 4 5 6 
#
# 1 40.8919 35.8247 40.8643 0.0000 0.0000 0.0000
# 2 35.8247 71.4784 50.2288 0.0000 0.0000 0.0000
# 3 40.8643 50.2288 107.5820 -0.0001 0.0000 0.0000
# 4 0.0000 0.0000 -0.0001 25.8981 0.0000 0.0000
# 5 0.0000 0.0000 0.0000 0.0000 21.0525 0.0000
# 6 0.0000 0.0000 0.0000 0.0000 0.0000 16.2538
#
#
#
# Elastic Compliance Matrix: (Units=1/GPa)
#
#
# Indices 1 2 3 4 5 6 
#
# 1 0.051200 -0.017852 -0.011113 0.000000 0.000000 0.000000
# 2 -0.017852 0.027046 -0.005846 0.000000 0.000000 0.000000
# 3 -0.011113 -0.005846 0.016246 0.000000 0.000000 0.000000
# 4 0.000000 0.000000 0.000000 0.038613 0.000000 0.000000
# 5 0.000000 0.000000 0.000000 0.000000 0.047500 0.000000
# 6 0.000000 0.000000 0.000000 0.000000 0.000000 0.061524
#
#
# Mechanical properties :
#
#
# Convention : Reuss Voigt Hill
#
# Bulk Modulus (GPa) = 40.21064 52.64312 46.42688
# Shear Modulus (GPa) = 15.62292 18.84318 17.23305
#
# Velocity S-wave (km/s) = 3.35504 3.68463 3.52369
# Velocity P-wave (km/s) = 6.63175 7.48541 7.07148
#
# Compressibility (1/GPa) = 0.02486904
#
# Stress axis : x y z
#
# Youngs Moduli (GPa) = 19.53116 36.97406 61.55298
#
# Poissons Ratio (x) = 0.66006 0.68405
# Poissons Ratio (y) = 0.34867 0.35987
# Poissons Ratio (z) = 0.21705 0.21617
#
# Static dielectric constant tensor:
#      x y z
#    x 1.469870 0.000000 0.000000 
#    y 0.000000 1.445090 0.000000 
#    z 0.000000 0.000000 1.459790 
# 
# From -- ./inp_files/20891.got.cif
#   From: 2010.05.17/outbox.cif.g08.bks.cpg/sg44_11_cif.got.tgz:20891.got - 2010.06.03 19:37:08.
