data_PCOD9375769
_publ_section_title
;
Structure prediction by ZEFSAII (Michael W. Deem and Ramdas Pophale) SiO2 
 PCOD9375769
Probable space group: I M M 2
;
_chemical_formula_sum "Si O2"
_cell_formula_units_Z 48
_cell_length_a 14.587554
_cell_length_b 21.317806
_cell_length_c 7.333346
_cell_angle_alpha 90.000000
_cell_angle_beta 90.000000
_cell_angle_gamma 90.000000
_cell_volume 2280.484678
_symmetry_space_group_name_H-M "I M M 2"
_symmetry_group_IT_number 44
_symmetry_cell_setting 'orthorhombic'
loop_
_space_group_symop_operation_xyz
x,y,z
-x,-y,z
-x,y,z
x,-y,z
1/2+x,1/2+y,1/2+z
1/2-x,1/2-y,1/2+z
1/2-x,1/2+y,1/2+z
1/2+x,1/2-y,1/2+z
loop_
_atom_site_type_symbol
_atom_site_label
_atom_site_fract_x
_atom_site_fract_y
_atom_site_fract_z
Si Si1 0.104086 0.206174 0.972180
Si Si2 0.295633 0.830389 0.490275
Si Si3 0.101472 0.207304 0.415588
Si Si4 0.703368 0.929097 0.182829
Si Si5 0.393862 0.569063 0.504341
Si Si6 0.106773 0.648476 0.374075
O O1 0.120641 0.135490 0.902974
O O2 0.000000 0.225058 0.926100
O O3 0.186291 0.172588 0.503969
O O4 0.108944 0.202015 0.194356
O O5 0.321337 0.882947 0.345206
O O6 0.345273 0.844697 0.678891
O O7 0.327467 0.761461 0.419964
O O8 0.109142 0.281379 0.458328
O O9 0.000000 0.185263 0.468041
O O10 0.672264 0.000000 0.212826
O O11 0.813568 0.930339 0.153948
O O12 0.659523 0.900138 0.000834
O O13 0.500000 0.572372 0.570197
O O14 0.384774 0.500000 0.411804
O O15 0.000000 0.631692 0.352989
#
# Coordination Sequence:
#
# PCOD9375769 Si02
#       6
#     8   8   8   8   8   8
#     4   9  17  32  55  87 124 159 199 257 314 368
#     4  11  21  37  66  91 125 164 214 267 315 375
#     4   9  18  34  58  90 125 159 204 257 320 381
#     4  11  24  41  64  93 124 170 222 262 315 386
#     4   9  17  33  59  91 128 166 202 249 316 385
#     4  10  24  43  60  88 129 166 206 267 324 373
#
# _framework density 21.048158000000001
#
# number of rings (size 3 to 8) (size 9 to 14) (size 15 to 20)
#    0.000    2.167    1.667    2.500    2.333    2.333 
#    0.000    0.833    0.000    0.000    0.000    4.667 
#    0.000    0.000    0.000    0.000    0.000    0.000 
#
# Total GULP energy -133989.370453 kJ/mol
# GULP energy per Si atom -5582.890436 kJ/mol
# Density = 2.100025 g / cm^3
# Si number density = 21.048158 Si / 1000 Ang^3
#
#
#
# Elastic Constant Matrix: (Units=GPa)
#
#
# Indices 1 2 3 4 5 6 
#
# 1 115.2110 47.2202 44.0384 0.0000 0.0000 0.0000
# 2 47.2202 166.1377 41.3480 0.0000 0.0000 0.0000
# 3 44.0384 41.3480 71.0587 0.0000 0.0000 0.0000
# 4 0.0000 0.0000 0.0000 9.6977 0.0000 0.0000
# 5 0.0000 0.0000 0.0000 0.0000 6.5408 0.0000
# 6 0.0000 0.0000 0.0000 0.0000 0.0000 9.1169
#
#
#
# Elastic Compliance Matrix: (Units=1/GPa)
#
#
# Indices 1 2 3 4 5 6 
#
# 1 0.011815 -0.001796 -0.006278 0.000000 0.000000 0.000000
# 2 -0.001796 0.007311 -0.003141 0.000000 0.000000 0.000000
# 3 -0.006278 -0.003141 0.019791 0.000000 0.000000 0.000000
# 4 0.000000 0.000000 0.000000 0.103117 0.000000 0.000000
# 5 0.000000 0.000000 0.000000 0.000000 0.152887 0.000000
# 6 0.000000 0.000000 0.000000 0.000000 0.000000 0.109686
#
#
# Mechanical properties :
#
#
# Convention : Reuss Voigt Hill
#
# Bulk Modulus (GPa) = 60.64867 68.62449 64.63658
# Shear Modulus (GPa) = 11.55980 19.72448 15.64214
#
# Velocity S-wave (km/s) = 2.34606 3.06455 2.72905
# Velocity P-wave (km/s) = 6.01793 6.72282 6.38012
#
# Compressibility (1/GPa) = 0.01648841
#
# Stress axis : x y z
#
# Youngs Moduli (GPa) = 84.63602 136.77367 50.52730
#
# Poissons Ratio (x) = 0.24562 0.31719
# Poissons Ratio (y) = 0.15199 0.15873
# Poissons Ratio (z) = 0.53130 0.42966
#
# Static dielectric constant tensor:
#      x y z
#    x 1.774200 0.000000 0.000000 
#    y 0.000000 1.777500 0.000000 
#    z 0.000000 0.000000 1.759760 
# 
# From -- ./inp_files/1586.got.cif
#   From: 2010.05.17/outbox.cif.g08.bks.cpg/sg44_1_cif.got.tgz:1586.got - 2010.06.03 19:37:08.
