data_PCOD9375739
_publ_section_title
;
Structure prediction by ZEFSAII (Michael W. Deem and Ramdas Pophale) SiO2 
 PCOD9375739
Probable space group: I M M 2
;
_chemical_formula_sum "Si O2"
_cell_formula_units_Z 30
_cell_length_a 13.676957
_cell_length_b 16.338292
_cell_length_c 5.044000
_cell_angle_alpha 90.000000
_cell_angle_beta 90.000000
_cell_angle_gamma 90.000000
_cell_volume 1127.122743
_symmetry_space_group_name_H-M "I M M 2"
_symmetry_group_IT_number 44
_symmetry_cell_setting 'orthorhombic'
loop_
_space_group_symop_operation_xyz
x,y,z
-x,-y,z
-x,y,z
x,-y,z
1/2+x,1/2+y,1/2+z
1/2-x,1/2-y,1/2+z
1/2-x,1/2+y,1/2+z
1/2+x,1/2-y,1/2+z
loop_
_atom_site_type_symbol
_atom_site_label
_atom_site_fract_x
_atom_site_fract_y
_atom_site_fract_z
Si Si1 0.606292 0.588324 0.036230
Si Si2 0.500000 0.000000 0.727483
Si Si3 0.350807 0.000000 0.228886
Si Si4 0.764910 0.640444 0.436974
Si Si5 0.392987 0.254797 0.653784
O O1 0.500000 0.592178 0.181094
O O2 0.607351 0.500000 0.896269
O O3 0.695175 0.591518 0.239171
O O4 0.605159 0.666232 0.845020
O O5 0.583830 0.000000 0.963348
O O6 0.585580 0.000000 0.492106
O O7 0.288978 0.083907 0.188489
O O8 0.698133 0.722324 0.471015
O O9 0.865348 0.673980 0.314441
O O10 0.500000 0.244582 0.528244
#
# Coordination Sequence:
#
# PCOD9375739 Si02
#       5
#     8   2   4   8   8
#     4  10  22  43  68  98 139 184 244 309 375 446
#     4  10  28  54  68 122 146 202 262 310 380 454
#     4  11  28  48  83 108 158 204 257 314 385 454
#     4  12  24  44  71 105 144 198 248 318 376 464
#     4  11  26  44  67 103 143 192 251 315 383 451
#
# _framework density 26.616447000000001
#
# number of rings (size 3 to 8) (size 9 to 14) (size 15 to 20)
#    0.000    1.067    4.000    0.800    9.333    0.000 
#    0.000    0.000    0.000    0.000    0.000    0.000 
#    0.000    0.000    0.000    0.000    0.000    0.000 
#
# Total GULP energy -83739.644600 kJ/mol
# GULP energy per Si atom -5582.642973 kJ/mol
# Density = 2.655587 g / cm^3
# Si number density = 26.616447 Si / 1000 Ang^3
#
#
#
# Elastic Constant Matrix: (Units=GPa)
#
#
# Indices 1 2 3 4 5 6 
#
# 1 150.5434 22.2631 36.1458 0.0000 0.0000 0.0000
# 2 22.2631 126.8769 2.2174 0.0000 0.0000 0.0000
# 3 36.1458 2.2174 105.5688 0.0000 0.0000 0.0000
# 4 0.0000 0.0000 0.0000 39.4408 0.0000 0.0000
# 5 0.0000 0.0000 0.0000 0.0000 42.2247 0.0000
# 6 0.0000 0.0000 0.0000 0.0000 0.0000 30.1395
#
#
#
# Elastic Compliance Matrix: (Units=1/GPa)
#
#
# Indices 1 2 3 4 5 6 
#
# 1 0.007434 -0.001260 -0.002519 0.000000 0.000000 0.000000
# 2 -0.001260 0.008098 0.000261 0.000000 0.000000 0.000000
# 3 -0.002519 0.000261 0.010329 0.000000 0.000000 0.000000
# 4 0.000000 0.000000 0.000000 0.025354 0.000000 0.000000
# 5 0.000000 0.000000 0.000000 0.000000 0.023683 0.000000
# 6 0.000000 0.000000 0.000000 0.000000 0.000000 0.033179
#
#
# Mechanical properties :
#
#
# Convention : Reuss Voigt Hill
#
# Bulk Modulus (GPa) = 53.11807 56.02686 54.57246
# Shear Modulus (GPa) = 41.19004 43.85184 42.52094
#
# Velocity S-wave (km/s) = 3.93815 4.06340 4.00126
# Velocity P-wave (km/s) = 6.37800 6.56585 6.47261
#
# Compressibility (1/GPa) = 0.01882599
#
# Stress axis : x y z
#
# Youngs Moduli (GPa) = 134.52143 123.48357 96.81090
#
# Poissons Ratio (x) = 0.15564 0.24385
# Poissons Ratio (y) = 0.16955 -0.02531
# Poissons Ratio (z) = 0.33883 -0.03228
#
# Static dielectric constant tensor:
#      x y z
#    x 2.197010 0.000000 0.000000 
#    y 0.000000 2.067100 0.000000 
#    z 0.000000 0.000000 2.065080 
# 
# From -- ./inp_files/1327.got.cif
#   From: 2010.05.17/outbox.cif.g08.bks.cpg/sg44_1_cif.got.tgz:1327.got - 2010.06.03 19:37:08.
