data_PCOD9375575
_publ_section_title
;
Structure prediction by ZEFSAII (Michael W. Deem and Ramdas Pophale) SiO2 
 PCOD9375575
Probable space group: I M M 2
;
_chemical_formula_sum "Si O2"
_cell_formula_units_Z 64
_cell_length_a 14.415544
_cell_length_b 16.338666
_cell_length_c 12.327548
_cell_angle_alpha 90.000000
_cell_angle_beta 90.000000
_cell_angle_gamma 90.000000
_cell_volume 2903.516732
_symmetry_space_group_name_H-M "I M M 2"
_symmetry_group_IT_number 44
_symmetry_cell_setting 'orthorhombic'
loop_
_space_group_symop_operation_xyz
x,y,z
-x,-y,z
-x,y,z
x,-y,z
1/2+x,1/2+y,1/2+z
1/2-x,1/2-y,1/2+z
1/2-x,1/2+y,1/2+z
1/2+x,1/2-y,1/2+z
loop_
_atom_site_type_symbol
_atom_site_label
_atom_site_fract_x
_atom_site_fract_y
_atom_site_fract_z
Si Si1 0.249695 0.095554 0.912240
Si Si2 0.632470 0.405265 0.075144
Si Si3 0.398173 0.349097 0.835156
Si Si4 0.811286 0.632606 0.798577
Si Si5 0.147740 0.591923 0.042114
Si Si6 0.600479 0.161573 0.757626
Si Si7 0.102288 0.594068 0.576779
Si Si8 0.605354 0.693145 0.295028
O O1 0.316170 0.109410 0.808262
O O2 0.154051 0.140873 0.889172
O O3 0.231629 0.000000 0.929538
O O4 0.313505 0.132104 0.008409
O O5 0.601902 0.500000 0.074684
O O6 0.743329 0.406741 0.068617
O O7 0.604825 0.359328 0.184552
O O8 0.601694 0.360275 0.965215
O O9 0.500000 0.380540 0.796595
O O10 0.299048 0.387428 0.798457
O O11 0.392614 0.254468 0.799070
O O12 0.866645 0.592393 0.700806
O O13 0.828741 0.728788 0.780408
O O14 0.855541 0.611575 0.914887
O O15 0.112018 0.500000 0.061650
O O16 0.104329 0.654069 0.127822
O O17 0.500000 0.129092 0.794884
O O18 0.095976 0.500000 0.538167
O O19 0.000000 0.632480 0.565484
O O20 0.500000 0.717904 0.319693
#
# Coordination Sequence:
#
# PCOD9375575 Si02
#       8
#     8   8   8   8   8   8   8   8
#     4  11  23  42  64  91 128 165 208 269 329 391
#     4  10  21  40  65  95 132 172 219 271 319 380
#     4  10  22  39  63  95 131 172 215 265 327 391
#     4  11  23  42  64  94 133 175 222 274 327 387
#     4  10  21  39  65  95 132 174 214 267 330 387
#     4  11  22  38  63  95 128 167 211 264 330 395
#     4  10  23  43  68  95 124 167 222 276 331 394
#     4  12  25  39  62  95 130 175 221 270 329 392
#
# _framework density 22.042235000000002
#
# number of rings (size 3 to 8) (size 9 to 14) (size 15 to 20)
#    0.000    1.375    2.500    2.250    1.750    5.750 
#    0.000    1.875    0.000    0.750    0.000    0.000 
#    0.000    0.000    0.000    0.000    0.000    0.000 
#
# Total GULP energy -178734.799001 kJ/mol
# GULP energy per Si atom -5585.462469 kJ/mol
# Density = 2.199207 g / cm^3
# Si number density = 22.042235 Si / 1000 Ang^3
#
#
#
# Elastic Constant Matrix: (Units=GPa)
#
#
# Indices 1 2 3 4 5 6 
#
# 1 126.4832 1.8639 22.0024 0.0000 0.0000 0.0000
# 2 1.8639 65.5853 19.0961 0.0000 0.0000 0.0000
# 3 22.0024 19.0961 112.4052 0.0000 0.0000 0.0000
# 4 0.0000 0.0000 0.0000 39.4309 0.0000 0.0000
# 5 0.0000 0.0000 0.0000 0.0000 145.9635 0.0000
# 6 0.0000 0.0000 0.0000 0.0000 0.0000 8.9951
#
#
#
# Elastic Compliance Matrix: (Units=1/GPa)
#
#
# Indices 1 2 3 4 5 6 
#
# 1 0.008189 0.000246 -0.001645 0.000000 0.000000 0.000000
# 2 0.000246 0.016048 -0.002775 0.000000 0.000000 0.000000
# 3 -0.001645 -0.002775 0.009690 0.000000 0.000000 0.000000
# 4 0.000000 0.000000 0.000000 0.025361 0.000000 0.000000
# 5 0.000000 0.000000 0.000000 0.000000 0.006851 0.000000
# 6 0.000000 0.000000 0.000000 0.000000 0.000000 0.111172
#
#
# Mechanical properties :
#
#
# Convention : Reuss Voigt Hill
#
# Bulk Modulus (GPa) = 39.09250 43.37762 41.23506
# Shear Modulus (GPa) = 25.74888 56.31198 41.03043
#
# Velocity S-wave (km/s) = 3.42154 5.05992 4.31913
# Velocity P-wave (km/s) = 5.77781 7.33887 6.60462
#
# Compressibility (1/GPa) = 0.02558035
#
# Stress axis : x y z
#
# Youngs Moduli (GPa) = 122.12002 62.31244 103.20263
#
# Poissons Ratio (x) = -0.01534 0.16974
# Poissons Ratio (y) = -0.03006 0.28634
# Poissons Ratio (z) = 0.20085 0.17289
#
# Static dielectric constant tensor:
#      x y z
#    x 1.833930 0.000000 0.000000 
#    y 0.000000 1.796950 0.000000 
#    z 0.000000 0.000000 1.807670 
# 
# From -- ./inp_files/13446.got.cif
#   From: 2010.05.17/outbox.cif.g08.bks.cpg/sg44_7_cif.got.tgz:13446.got - 2010.06.03 19:37:08.
