data_PCOD9375151
_publ_section_title
;
Structure prediction by ZEFSAII (Michael W. Deem and Ramdas Pophale) SiO2 
 PCOD9375151
Probable space group: I M M 2
;
_chemical_formula_sum "Si O2"
_cell_formula_units_Z 40
_cell_length_a 26.183903
_cell_length_b 8.993234
_cell_length_c 9.416804
_cell_angle_alpha 90.000000
_cell_angle_beta 90.000000
_cell_angle_gamma 90.000000
_cell_volume 2217.449859
_symmetry_space_group_name_H-M "I M M 2"
_symmetry_group_IT_number 44
_symmetry_cell_setting 'orthorhombic'
loop_
_space_group_symop_operation_xyz
x,y,z
-x,-y,z
-x,y,z
x,-y,z
1/2+x,1/2+y,1/2+z
1/2-x,1/2-y,1/2+z
1/2-x,1/2+y,1/2+z
1/2+x,1/2-y,1/2+z
loop_
_atom_site_type_symbol
_atom_site_label
_atom_site_fract_x
_atom_site_fract_y
_atom_site_fract_z
Si Si1 0.406694 0.177293 0.254420
Si Si2 0.294286 0.325323 0.588779
Si Si3 0.598604 0.822722 0.589048
Si Si4 0.701011 0.324925 0.249787
Si Si5 0.000000 0.822431 0.586494
Si Si6 0.500000 0.821031 0.777418
O O1 0.413120 0.207912 0.423112
O O2 0.350781 0.237141 0.213322
O O3 0.450439 0.258501 0.166680
O O4 0.409940 0.000000 0.233288
O O5 0.290795 0.500000 0.621273
O O6 0.349884 0.262647 0.629859
O O7 0.290087 0.305931 0.418621
O O8 0.249150 0.238248 0.665745
O O9 0.550349 0.784358 0.686006
O O10 0.607797 0.000000 0.600563
O O11 0.694114 0.500000 0.221951
O O12 0.000000 0.762245 0.426205
O O13 0.000000 0.000000 0.589747
O O14 0.500000 0.000000 0.800628
#
# Coordination Sequence:
#
# PCOD9375151 Si02
#       6
#     8   8   8   8   4   4
#     4  10  20  38  62  84 108 143 185 227 275 329
#     4  10  21  36  56  83 113 147 185 225 273 327
#     4   9  19  37  61  84 107 141 185 230 276 328
#     4  10  21  37  57  83 113 145 184 228 273 324
#     4  12  25  38  54  82 116 148 183 224 272 324
#     4  10  21  38  58  82 112 144 181 228 280 328
#
# _framework density 18.038741000000002
#
# number of rings (size 3 to 8) (size 9 to 14) (size 15 to 20)
#    0.000    2.000    0.000    3.300    0.000    7.200 
#    0.000    3.000    0.000    0.000    0.000    0.000 
#    0.000    0.000    0.000    0.000    0.000    0.000 
#
# Total GULP energy -111738.124923 kJ/mol
# GULP energy per Si atom -5586.906246 kJ/mol
# Density = 1.799768 g / cm^3
# Si number density = 18.038741 Si / 1000 Ang^3
#
#
#
# Elastic Constant Matrix: (Units=GPa)
#
#
# Indices 1 2 3 4 5 6 
#
# 1 172.1225 93.7177 87.1640 0.0000 0.0000 0.0000
# 2 93.7177 99.8759 69.2537 0.0000 0.0000 0.0000
# 3 87.1640 69.2537 71.2671 0.0000 0.0000 0.0000
# 4 0.0000 0.0000 0.0000 25.8866 0.0000 0.0000
# 5 0.0000 0.0000 0.0000 0.0000 34.2049 0.0000
# 6 0.0000 0.0000 0.0000 0.0000 0.0000 449.1000
#
#
#
# Elastic Compliance Matrix: (Units=1/GPa)
#
#
# Indices 1 2 3 4 5 6 
#
# 1 0.015868 -0.004391 -0.015140 0.000000 0.000000 0.000000
# 2 -0.004391 0.031910 -0.025638 0.000000 0.000000 0.000000
# 3 -0.015140 -0.025638 0.057462 0.000000 0.000000 0.000000
# 4 0.000000 0.000000 0.000000 0.038630 0.000000 0.000000
# 5 0.000000 0.000000 0.000000 0.000000 0.029236 0.000000
# 6 0.000000 0.000000 0.000000 0.000000 0.000000 0.002227
#
#
# Mechanical properties :
#
#
# Convention : Reuss Voigt Hill
#
# Bulk Modulus (GPa) = 67.10478 93.72624 80.41551
# Shear Modulus (GPa) = 18.47486 108.04698 63.26092
#
# Velocity S-wave (km/s) = 3.20375 7.74772 5.92837
# Velocity P-wave (km/s) = 7.13908 11.49380 9.56749
#
# Compressibility (1/GPa) = 0.01490207
#
# Stress axis : x y z
#
# Youngs Moduli (GPa) = 63.02030 31.33799 17.40275
#
# Poissons Ratio (x) = 0.13762 0.26348
# Poissons Ratio (y) = 0.27675 0.44616
# Poissons Ratio (z) = 0.95413 0.80343
#
# Static dielectric constant tensor:
#      x y z
#    x 1.581680 0.000000 0.000000 
#    y 0.000000 1.599420 0.000000 
#    z 0.000000 0.000000 1.599230 
# 
# From -- ./inp_files/9630.got.cif
#   From: 2010.05.17/outbox.cif.g08.bks.cpg/sg44_5_cif.got.tgz:9630.got - 2010.06.03 19:37:08.
