data_PCOD9375919
_publ_section_title
;
Structure prediction by ZEFSAII (Michael W. Deem and Ramdas Pophale) SiO2 
 PCOD9375919
Probable space group: I M M 2
;
_chemical_formula_sum "Si O2"
_cell_formula_units_Z 64
_cell_length_a 7.486583
_cell_length_b 23.238133
_cell_length_c 16.017201
_cell_angle_alpha 90.000000
_cell_angle_beta 90.000000
_cell_angle_gamma 90.000000
_cell_volume 2786.579914
_symmetry_space_group_name_H-M "I M M 2"
_symmetry_group_IT_number 44
_symmetry_cell_setting 'orthorhombic'
loop_
_space_group_symop_operation_xyz
x,y,z
-x,-y,z
-x,y,z
x,-y,z
1/2+x,1/2+y,1/2+z
1/2-x,1/2-y,1/2+z
1/2-x,1/2+y,1/2+z
1/2+x,1/2-y,1/2+z
loop_
_atom_site_type_symbol
_atom_site_label
_atom_site_fract_x
_atom_site_fract_y
_atom_site_fract_z
Si Si1 0.783211 0.610461 0.260000
Si Si2 0.719466 0.316728 0.670387
Si Si3 0.795707 0.936569 0.216855
Si Si4 0.218338 0.566840 0.081285
Si Si5 0.212869 0.735836 0.316267
Si Si6 0.204865 0.569727 0.902396
Si Si7 0.290923 0.436855 0.435072
Si Si8 0.786107 0.809794 0.989089
O O1 0.723947 0.595952 0.166743
O O2 0.720636 0.673911 0.284926
O O3 0.723803 0.568768 0.334495
O O4 0.000000 0.609053 0.260176
O O5 0.500000 0.317825 0.673428
O O6 0.784520 0.382505 0.670503
O O7 0.781933 0.284141 0.753312
O O8 0.771473 0.290660 0.581254
O O9 0.798575 0.919445 0.314895
O O10 0.000000 0.941362 0.188316
O O11 0.713148 0.000000 0.209499
O O12 0.269885 0.500000 0.087116
O O13 0.000000 0.568678 0.078103
O O14 0.278188 0.590923 0.991227
O O15 0.245501 0.734691 0.415008
O O16 0.000000 0.735862 0.306175
O O17 0.203534 0.500000 0.910542
O O18 0.000000 0.588955 0.892935
O O19 0.500000 0.437528 0.458224
O O20 0.217184 0.500000 0.460662
O O21 0.217549 0.374983 0.467713
O O22 0.000000 0.814729 0.990562
#
# Coordination Sequence:
#
# PCOD9375919 Si02
#       8
#     8   8   8   8   8   8   8   8
#     4   9  16  27  45  66  89 123 165 202 236 283
#     4   9  18  34  54  74  99 130 162 200 247 292
#     4   9  17  30  49  71  94 123 160 197 235 287
#     4   8  13  22  38  61  88 118 154 194 233 276
#     4   9  18  34  52  70  97 130 161 202 251 289
#     4   8  14  26  42  61  91 125 152 189 240 281
#     4   9  17  28  44  69 100 129 156 193 243 289
#     4   9  18  34  54  74  99 130 165 204 241 287
#
# _framework density 22.967223000000001
#
# number of rings (size 3 to 8) (size 9 to 14) (size 15 to 20)
#    0.000    3.250    0.000    1.125    0.000    1.250 
#    2.250    5.000    0.000    2.250    0.000    1.750 
#    0.000    0.000    0.000    0.000    0.000    0.000 
#
# Total GULP energy -178368.035861 kJ/mol
# GULP energy per Si atom -5574.001121 kJ/mol
# Density = 2.291495 g / cm^3
# Si number density = 22.967223 Si / 1000 Ang^3
#
#
#
# Elastic Constant Matrix: (Units=GPa)
#
#
# Indices 1 2 3 4 5 6 
#
# 1 63.2896 2.2755 -3.5004 0.0000 0.0000 0.0000
# 2 2.2755 67.4832 46.3654 -0.0001 0.0000 0.0000
# 3 -3.5004 46.3654 136.7232 -0.0003 0.0001 0.0000
# 4 0.0000 -0.0001 -0.0003 23.0428 0.0000 0.0000
# 5 0.0000 0.0000 0.0001 0.0000 15.6054 0.0000
# 6 0.0000 0.0000 0.0000 0.0000 0.0000 4.5813
#
#
#
# Elastic Compliance Matrix: (Units=1/GPa)
#
#
# Indices 1 2 3 4 5 6 
#
# 1 0.015881 -0.001062 0.000767 0.000000 0.000000 0.000000
# 2 -0.001062 0.019391 -0.006603 0.000000 0.000000 0.000000
# 3 0.000767 -0.006603 0.009573 0.000000 0.000000 0.000000
# 4 0.000000 0.000000 0.000000 0.043398 0.000000 0.000000
# 5 0.000000 0.000000 0.000000 0.000000 0.064081 0.000000
# 6 0.000000 0.000000 0.000000 0.000000 0.000000 0.218281
#
#
# Mechanical properties :
#
#
# Convention : Reuss Voigt Hill
#
# Bulk Modulus (GPa) = 32.20843 39.75299 35.98071
# Shear Modulus (GPa) = 12.66624 23.46959 18.06791
#
# Velocity S-wave (km/s) = 2.35093 3.20014 2.80783
# Velocity P-wave (km/s) = 4.62853 5.56783 5.11977
#
# Compressibility (1/GPa) = 0.03104777
#
# Stress axis : x y z
#
# Youngs Moduli (GPa) = 62.96837 51.57018 104.46155
#
# Poissons Ratio (x) = 0.05479 -0.08011
# Poissons Ratio (y) = 0.06690 0.68977
# Poissons Ratio (z) = -0.04829 0.34052
#
# Static dielectric constant tensor:
#      x y z
#    x 1.871070 0.000000 0.000000 
#    y 0.000000 1.862090 0.000000 
#    z 0.000000 0.000000 1.886130 
# 
# From -- ./inp_files/16774.got.cif
#   From: 2010.05.17/outbox.cif.g08.bks.cpg/sg44_9_cif.got.tgz:16774.got - 2010.06.03 19:37:08.
