data_PCOD9375967
_publ_section_title
;
Structure prediction by ZEFSAII (Michael W. Deem and Ramdas Pophale) SiO2 
 PCOD9375967
Probable space group: I M M 2
;
_chemical_formula_sum "Si O2"
_cell_formula_units_Z 28
_cell_length_a 9.000000
_cell_length_b 21.000000
_cell_length_c 15.000000
_cell_angle_alpha 90.000000
_cell_angle_beta 90.000000
_cell_angle_gamma 90.000000
_cell_volume 2835.000000
_symmetry_space_group_name_H-M "I M M 2"
_symmetry_group_IT_number 44
_symmetry_cell_setting 'orthorhombic'
loop_
_space_group_symop_operation_xyz
x,y,z
-x,-y,z
-x,y,z
x,-y,z
1/2+x,1/2+y,1/2+z
1/2-x,1/2-y,1/2+z
1/2-x,1/2+y,1/2+z
1/2+x,1/2-y,1/2+z
loop_
_atom_site_type_symbol
_atom_site_label
_atom_site_fract_x
_atom_site_fract_y
_atom_site_fract_z
Si Si1 0.330952 0.716406 0.429430
Si Si2 0.828142 0.925976 0.431782
Si Si3 0.674647 0.923408 0.612620
Si Si4 0.181936 0.854713 0.111937
Si Si5 0.326300 0.315489 0.803531
Si Si6 0.171519 0.500000 0.391262
Si Si7 0.177993 0.000000 0.080552
Si Si8 0.168299 0.105612 0.784225
O O1 0.500000 0.737258 0.449177
O O2 0.273978 0.681334 0.519776
O O3 0.242580 0.772841 0.381948
O O4 0.336269 0.665349 0.349339
O O5 0.723136 0.905847 0.512892
O O6 0.810591 0.886461 0.342200
O O7 0.000000 0.918255 0.461440
O O8 0.801873 0.000000 0.414380
O O9 0.500000 0.913115 0.626496
O O10 0.771842 0.885691 0.684633
O O11 0.704355 0.000000 0.623062
O O12 0.231554 0.817686 0.201687
O O13 0.229409 0.929685 0.114278
O O14 0.000000 0.855791 0.111686
O O15 0.500000 0.298471 0.798007
O O16 0.276671 0.500000 0.476903
O O17 0.214304 0.440739 0.330433
O O18 0.000000 0.500000 0.417447
O O19 0.000000 0.000000 0.090499
O O20 0.000000 0.079120 0.781340
#
# Coordination Sequence:
#
# PCOD9375967 Si02
#       8
#     8   8   8   8   8   4   4   8
#     4  10  22  40  59  83 116 156 200 241 294 364
#     4   9  19  36  57  83 114 150 193 242 299 361
#     4  10  20  33  52  82 116 150 191 239 289 342
#     4   9  19  37  63  91 116 150 203 254 301 356
#     4  10  22  39  61  89 117 150 196 250 304 358
#     4  12  22  32  52  87 124 153 190 243 308 364
#     4  10  18  36  64  89 116 155 202 253 304 356
#     4  11  21  35  57  83 115 157 202 245 295 356
#
# _framework density 9.8765429999999999
#
# number of rings (size 3 to 8) (size 9 to 14) (size 15 to 20)
#    0.000    2.000    2.143    1.500    1.000    3.429 
#    0.000    4.286    0.000    0.000    0.000    0.000 
#    0.000    0.000    0.000    0.000    0.000    0.000 
#
# Total GULP energy -156052.558324 kJ/mol
# GULP energy per Si atom -5573.305654 kJ/mol
# Density = 0.985406 g / cm^3
# Si number density = 9.876543 Si / 1000 Ang^3
#
#
#
# Elastic Constant Matrix: (Units=GPa)
#
#
# Indices 1 2 3 4 5 6 
#
# 1 25.8148 21.0183 29.9597 0.0000 0.0000 0.0000
# 2 21.0183 54.8426 36.9087 0.0000 0.0000 0.0000
# 3 29.9597 36.9087 102.5006 0.0000 0.0000 -0.0001
# 4 0.0000 0.0000 0.0000 9.4372 0.0000 -0.0001
# 5 0.0000 0.0000 0.0000 0.0000 19.5258 0.0000
# 6 0.0000 0.0000 -0.0001 -0.0001 0.0000 -108.1493
#
#
#
# Elastic Compliance Matrix: (Units=1/GPa)
#
#
# Indices 1 2 3 4 5 6 
#
# 1 0.068780 -0.016934 -0.014006 0.000000 0.000000 0.000000
# 2 -0.016934 0.028235 -0.005217 0.000000 0.000000 0.000000
# 3 -0.014006 -0.005217 0.015729 0.000000 0.000000 0.000000
# 4 0.000000 0.000000 0.000000 0.105963 0.000000 0.000000
# 5 0.000000 0.000000 0.000000 0.000000 0.051214 0.000000
# 6 0.000000 0.000000 0.000000 0.000000 0.000000 -0.009246
#
#
# Mechanical properties :
#
#
# Convention : Reuss Voigt Hill
#
# Bulk Modulus (GPa) = 24.73465 39.88126 32.30795
# Shear Modulus (GPa) = 14.43147 -9.48585 2.47281
#
# Velocity S-wave (km/s) = 2.70588 -2.19377 1.12008
# Velocity P-wave (km/s) = 4.72350 3.71711 4.25020
#
# Compressibility (1/GPa) = 0.04042911
#
# Stress axis : x y z
#
# Youngs Moduli (GPa) = 14.53919 35.41688 63.57877
#
# Poissons Ratio (x) = 0.59974 0.89048
# Poissons Ratio (y) = 0.24620 0.33172
# Poissons Ratio (z) = 0.20363 0.18479
#
# Static dielectric constant tensor:
#      x y z
#    x 1.699840 0.000000 0.000000 
#    y 0.000000 2.570780 0.000000 
#    z 0.000000 0.000000 1.681840 
# 
# From -- ./inp_files/16515.got.cif
#   From: 2010.05.17/outbox.ucp.g08.bks.cvg/sg44_9_cif.got.tgz:16515.got - 2010.06.11 16:32:36.
