data_PCOD9375458
_publ_section_title
;
Structure prediction by ZEFSAII (Michael W. Deem and Ramdas Pophale) SiO2 
 PCOD9375458
Probable space group: I M M 2
;
_chemical_formula_sum "Si O2"
_cell_formula_units_Z 64
_cell_length_a 24.587153
_cell_length_b 23.116130
_cell_length_c 5.768045
_cell_angle_alpha 90.000000
_cell_angle_beta 90.000000
_cell_angle_gamma 90.000000
_cell_volume 3278.325047
_symmetry_space_group_name_H-M "I M M 2"
_symmetry_group_IT_number 44
_symmetry_cell_setting 'orthorhombic'
loop_
_space_group_symop_operation_xyz
x,y,z
-x,-y,z
-x,y,z
x,-y,z
1/2+x,1/2+y,1/2+z
1/2-x,1/2-y,1/2+z
1/2-x,1/2+y,1/2+z
1/2+x,1/2-y,1/2+z
loop_
_atom_site_type_symbol
_atom_site_label
_atom_site_fract_x
_atom_site_fract_y
_atom_site_fract_z
Si Si1 0.227487 0.588703 0.728870
Si Si2 0.562221 0.250412 0.453298
Si Si3 0.382733 0.062047 0.408205
Si Si4 0.727695 0.208346 0.029182
Si Si5 0.786482 0.066153 0.726639
Si Si6 0.137080 0.329862 0.237334
Si Si7 0.943488 0.639818 0.620184
Si Si8 0.666728 0.308902 0.275243
O O1 0.168575 0.560310 0.737379
O O2 0.220834 0.658521 0.720735
O O3 0.255451 0.572705 0.479432
O O4 0.255363 0.571333 0.975636
O O5 0.500000 0.269635 0.510619
O O6 0.598880 0.223241 0.658440
O O7 0.555662 0.195468 0.284805
O O8 0.604103 0.294615 0.330943
O O9 0.368277 0.115824 0.570225
O O10 0.435554 0.082407 0.269860
O O11 0.388741 0.000000 0.524863
O O12 0.692716 0.265274 0.085116
O O13 0.698989 0.184579 0.795969
O O14 0.791969 0.209649 0.983546
O O15 0.824692 0.123265 0.726700
O O16 0.808683 0.000000 0.729519
O O17 0.109178 0.351494 0.469955
O O18 0.000000 0.638215 0.482472
#
# Coordination Sequence:
#
# PCOD9375458 Si02
#       8
#     8   8   8   8   8   8   8   8
#     4  11  22  40  61  88 122 165 208 251 303 378
#     4  10  21  38  59  85 115 156 204 253 316 383
#     4  11  22  35  53  78 111 155 210 258 299 353
#     4  11  20  36  59  95 122 154 198 253 331 370
#     4  11  24  40  61  89 128 169 204 243 310 387
#     4  11  20  38  58  83 116 158 203 258 322 375
#     4  10  21  38  55  73 107 152 199 253 307 364
#     4  11  21  35  60  91 126 154 196 260 314 378
#
# _framework density 19.522164
#
# number of rings (size 3 to 8) (size 9 to 14) (size 15 to 20)
#    0.000    1.250    2.500    5.250    0.000    2.250 
#    0.000    0.000    0.000    0.375    0.000    0.000 
#    0.000    4.000    0.000    0.000    0.000    0.500 
#
# Total GULP energy -178147.106995 kJ/mol
# GULP energy per Si atom -5567.097094 kJ/mol
# Density = 1.947773 g / cm^3
# Si number density = 19.522164 Si / 1000 Ang^3
#
#
#
# Elastic Constant Matrix: (Units=GPa)
#
#
# Indices 1 2 3 4 5 6 
#
# 1 114.2813 39.2711 17.4311 0.0000 0.0000 0.0000
# 2 39.2711 129.8362 20.5791 0.0000 0.0000 0.0000
# 3 17.4311 20.5791 68.8595 0.0000 0.0000 0.0000
# 4 0.0000 0.0000 0.0000 23.3707 0.0000 0.0000
# 5 0.0000 0.0000 0.0000 0.0000 17.2011 0.0000
# 6 0.0000 0.0000 0.0000 0.0000 0.0000 17.6877
#
#
#
# Elastic Compliance Matrix: (Units=1/GPa)
#
#
# Indices 1 2 3 4 5 6 
#
# 1 0.009951 -0.002740 -0.001700 0.000000 0.000000 0.000000
# 2 -0.002740 0.008840 -0.001948 0.000000 0.000000 0.000000
# 3 -0.001700 -0.001948 0.015535 0.000000 0.000000 0.000000
# 4 0.000000 0.000000 0.000000 0.042789 0.000000 0.000000
# 5 0.000000 0.000000 0.000000 0.000000 0.058136 0.000000
# 6 0.000000 0.000000 0.000000 0.000000 0.000000 0.056536
#
#
# Mechanical properties :
#
#
# Convention : Reuss Voigt Hill
#
# Bulk Modulus (GPa) = 46.40659 51.94883 49.17771
# Shear Modulus (GPa) = 23.61311 27.36497 25.48904
#
# Velocity S-wave (km/s) = 3.48164 3.74804 3.61729
# Velocity P-wave (km/s) = 6.32339 6.73783 6.53390
#
# Compressibility (1/GPa) = 0.02154866
#
# Stress axis : x y z
#
# Youngs Moduli (GPa) = 100.48864 113.12611 64.37129
#
# Poissons Ratio (x) = 0.31002 0.10944
# Poissons Ratio (y) = 0.27539 0.12540
# Poissons Ratio (z) = 0.17084 0.22038
#
# Static dielectric constant tensor:
#      x y z
#    x 1.691310 0.000000 0.000000 
#    y 0.000000 1.739130 0.000000 
#    z 0.000000 0.000000 1.794620 
# 
# From -- ./inp_files/2841.got.cif
#   From: 2010.05.17/outbox.cif.g08.bks.cpg/sg44_2_cif.got.tgz:2841.got - 2010.06.03 19:37:08.
