data_PCOD9375999
_publ_section_title
;
Structure prediction by ZEFSAII (Michael W. Deem and Ramdas Pophale) SiO2 
 PCOD9375999
Probable space group: I M M 2
;
_chemical_formula_sum "Si O2"
_cell_formula_units_Z 32
_cell_length_a 9.000000
_cell_length_b 18.000000
_cell_length_c 21.000000
_cell_angle_alpha 90.000000
_cell_angle_beta 90.000000
_cell_angle_gamma 90.000000
_cell_volume 3402.000000
_symmetry_space_group_name_H-M "I M M 2"
_symmetry_group_IT_number 44
_symmetry_cell_setting 'orthorhombic'
loop_
_space_group_symop_operation_xyz
x,y,z
-x,-y,z
-x,y,z
x,-y,z
1/2+x,1/2+y,1/2+z
1/2-x,1/2-y,1/2+z
1/2-x,1/2+y,1/2+z
1/2+x,1/2-y,1/2+z
loop_
_atom_site_type_symbol
_atom_site_label
_atom_site_fract_x
_atom_site_fract_y
_atom_site_fract_z
Si Si1 0.674622 0.270545 0.076840
Si Si2 0.326397 0.915062 0.736696
Si Si3 0.673222 0.915697 0.540190
Si Si4 0.826218 0.221706 0.948076
Si Si5 0.326836 0.878556 0.392826
Si Si6 0.178406 0.243534 0.205017
Si Si7 0.177682 0.083517 0.265588
Si Si8 0.828960 0.583775 0.389878
O O1 0.500000 0.261715 0.086934
O O2 0.720793 0.357251 0.073611
O O3 0.769943 0.234371 0.132617
O O4 0.726757 0.237550 0.009599
O O5 0.500000 0.915015 0.715808
O O6 0.268935 0.829858 0.721263
O O7 0.321624 0.916294 0.813402
O O8 0.268961 0.000000 0.717489
O O9 0.500000 0.895019 0.551469
O O10 0.696493 0.909511 0.464046
O O11 0.695357 0.000000 0.560508
O O12 0.801044 0.290050 0.899501
O O13 0.780600 0.144448 0.917583
O O14 0.000000 0.224702 0.965683
O O15 0.500000 0.891664 0.376537
O O16 0.223974 0.912749 0.339449
O O17 0.229813 0.165401 0.238753
O O18 0.000000 0.245891 0.213006
O O19 0.000000 0.083853 0.258027
O O20 0.228466 0.000000 0.241737
O O21 0.797023 0.500000 0.411981
O O22 0.000000 0.602253 0.407122
#
# Coordination Sequence:
#
# PCOD9375999 Si02
#       8
#     8   8   8   8   8   8   8   8
#     4  11  23  37  53  74 101 134 178 228 272 313
#     4   8  15  29  52  81 108 137 173 208 250 313
#     4   9  18  34  55  79 109 143 174 205 251 316
#     4  10  20  35  54  76 104 139 178 215 260 320
#     4   9  18  32  52  79 108 137 170 210 257 311
#     4  10  20  36  55  73 101 141 181 221 265 315
#     4  10  21  35  53  79 107 137 176 219 264 317
#     4   9  17  31  53  82 112 137 167 211 261 314
#
# _framework density 9.4062319999999993
#
# number of rings (size 3 to 8) (size 9 to 14) (size 15 to 20)
#    0.000    2.500    0.000    4.125    0.000    5.750 
#    0.000    2.500    0.000    3.000    0.000    0.000 
#    0.000    0.000    0.000    0.000    0.000    0.000 
#
# Total GULP energy -178167.147282 kJ/mol
# GULP energy per Si atom -5567.723353 kJ/mol
# Density = 0.938482 g / cm^3
# Si number density = 9.406232 Si / 1000 Ang^3
#
#
#
# Elastic Constant Matrix: (Units=GPa)
#
#
# Indices 1 2 3 4 5 6 
#
# 1 -1.8289 17.5913 -0.3112 0.0000 0.0000 0.0000
# 2 17.5913 126.6428 29.0442 0.0000 0.0000 0.0000
# 3 -0.3112 29.0442 40.6965 0.0000 0.0000 0.0000
# 4 0.0000 0.0000 0.0000 6.0114 0.0000 0.0000
# 5 0.0000 0.0000 0.0000 0.0000 17.8409 0.0000
# 6 0.0000 0.0000 0.0000 0.0000 0.0000 24.5996
#
#
#
# Elastic Compliance Matrix: (Units=1/GPa)
#
#
# Indices 1 2 3 4 5 6 
#
# 1 -0.207157 0.034841 -0.026449 0.000000 0.000000 0.000000
# 2 0.034841 0.003582 -0.002290 0.000000 0.000000 0.000000
# 3 -0.026449 -0.002290 0.026004 0.000000 0.000000 0.000000
# 4 0.000000 0.000000 0.000000 0.166352 0.000000 0.000000
# 5 0.000000 0.000000 0.000000 0.000000 0.056051 0.000000
# 6 0.000000 0.000000 0.000000 0.000000 0.000000 0.040651
#
#
# Mechanical properties :
#
#
# Convention : Reuss Voigt Hill
#
# Bulk Modulus (GPa) = -6.04714 28.68434 11.31860
# Shear Modulus (GPa) = 275.38595 17.63612 146.51103
#
# Velocity S-wave (km/s) = 12.11209 3.06513 8.83453
# Velocity P-wave (km/s) = 13.87019 5.27327 10.49260
#
# Compressibility (1/GPa) = -0.16536753
#
# Stress axis : x y z
#
# Youngs Moduli (GPa) = -4.82726 279.19166 38.45556
#
# Poissons Ratio (x) = -9.72733 1.01713
# Poissons Ratio (y) = 0.16819 0.08806
# Poissons Ratio (z) = -0.12768 0.63929
#
# Static dielectric constant tensor:
#      x y z
#    x 1.629210 0.000000 0.000000 
#    y 0.000000 1.710280 0.000000 
#    z 0.000000 0.000000 1.654280 
# 
# From -- ./inp_files/23292.got.cif
#   From: 2010.05.17/outbox.ucp.g08.bks.cvg/sg44_12_cif.got.tgz:23292.got - 2010.06.11 16:32:36.
