data_PCOD9375879
_publ_section_title
;
Structure prediction by ZEFSAII (Michael W. Deem and Ramdas Pophale) SiO2 
 PCOD9375879
Probable space group: I M M 2
;
_chemical_formula_sum "Si O2"
_cell_formula_units_Z 40
_cell_length_a 23.473770
_cell_length_b 11.455590
_cell_length_c 7.575762
_cell_angle_alpha 90.000000
_cell_angle_beta 90.000000
_cell_angle_gamma 90.000000
_cell_volume 2037.166984
_symmetry_space_group_name_H-M "I M M 2"
_symmetry_group_IT_number 44
_symmetry_cell_setting 'orthorhombic'
loop_
_space_group_symop_operation_xyz
x,y,z
-x,-y,z
-x,y,z
x,-y,z
1/2+x,1/2+y,1/2+z
1/2-x,1/2-y,1/2+z
1/2-x,1/2+y,1/2+z
1/2+x,1/2-y,1/2+z
loop_
_atom_site_type_symbol
_atom_site_label
_atom_site_fract_x
_atom_site_fract_y
_atom_site_fract_z
Si Si1 0.726635 0.368309 0.685450
Si Si2 0.933436 0.369704 0.986626
Si Si3 0.627262 0.372306 0.394728
Si Si4 0.435966 0.864685 0.913363
Si Si5 0.330060 0.715564 0.046689
O O1 0.747991 0.500000 0.697111
O O2 0.679969 0.362055 0.530028
O O3 0.779485 0.287464 0.638677
O O4 0.695717 0.335804 0.867340
O O5 0.910025 0.500000 0.936719
O O6 0.930128 0.362567 0.200248
O O7 0.000000 0.370224 0.937935
O O8 0.906444 0.249899 0.915944
O O9 0.850757 0.126640 0.694819
O O10 0.500000 0.821313 0.956734
O O11 0.384510 0.793682 0.995811
O O12 0.432800 0.000000 0.967922
O O13 0.400751 0.500000 0.432579
#
# Coordination Sequence:
#
# PCOD9375879 Si02
#       5
#     8   8   8   8   8
#     4  11  24  41  60  89 128 167 212 264 321 380
#     4   9  19  39  66  95 128 169 216 265 319 382
#     4  11  24  41  62  92 129 167 212 266 321 381
#     4   9  19  37  64  97 130 164 211 268 322 381
#     4  12  22  42  64  92 124 174 213 265 318 383
#
# _framework density 19.635109
#
# number of rings (size 3 to 8) (size 9 to 14) (size 15 to 20)
#    0.000    1.600    4.000    2.400    0.000    2.800 
#    0.000    2.000    0.000    1.800    0.000    0.000 
#    0.000    0.000    0.000    0.000    0.000    0.000 
#
# Total GULP energy -111588.945497 kJ/mol
# GULP energy per Si atom -5579.447275 kJ/mol
# Density = 1.959042 g / cm^3
# Si number density = 19.635109 Si / 1000 Ang^3
#
#
#
# Elastic Constant Matrix: (Units=GPa)
#
#
# Indices 1 2 3 4 5 6 
#
# 1 47.0156 45.9181 22.9141 0.0000 0.0000 0.0000
# 2 45.9181 151.5525 30.3411 0.0000 0.0000 0.0000
# 3 22.9141 30.3411 94.9668 0.0000 0.0000 0.0000
# 4 0.0000 0.0000 0.0000 -61.8477 0.0000 0.0000
# 5 0.0000 0.0000 0.0000 0.0000 19.5809 0.0000
# 6 0.0000 0.0000 0.0000 0.0000 0.0000 -216.4171
#
#
#
# Elastic Compliance Matrix: (Units=1/GPa)
#
#
# Indices 1 2 3 4 5 6 
#
# 1 0.032273 -0.008781 -0.004982 0.000000 0.000000 0.000000
# 2 -0.008781 0.009438 -0.000897 0.000000 0.000000 0.000000
# 3 -0.004982 -0.000897 0.012018 0.000000 0.000000 0.000000
# 4 0.000000 0.000000 0.000000 -0.016169 0.000000 0.000000
# 5 0.000000 0.000000 0.000000 0.000000 0.051070 0.000000
# 6 0.000000 0.000000 0.000000 0.000000 0.000000 -0.004621
#
#
# Mechanical properties :
#
#
# Convention : Reuss Voigt Hill
#
# Bulk Modulus (GPa) = 40.96427 54.65350 47.80888
# Shear Modulus (GPa) = 41.16340 -38.77934 1.19203
#
# Velocity S-wave (km/s) = 4.58363 -4.44892 0.78000
# Velocity P-wave (km/s) = 6.99435 1.22658 5.02123
#
# Compressibility (1/GPa) = 0.02441152
#
# Stress axis : x y z
#
# Youngs Moduli (GPa) = 30.98521 105.94982 83.20511
#
# Poissons Ratio (x) = 0.93035 0.41450
# Poissons Ratio (y) = 0.27208 0.07462
# Poissons Ratio (z) = 0.15436 0.09501
#
# Static dielectric constant tensor:
#      x y z
#    x 1.663690 0.000000 0.000000 
#    y 0.000000 1.714410 0.000000 
#    z 0.000000 0.000000 1.711350 
# 
# From -- ./inp_files/8765.got.cif
#   From: 2010.05.17/outbox.cif.g08.bks.cpg/sg44_5_cif.got.tgz:8765.got - 2010.06.03 19:37:08.
