data_PCOD9375845
_publ_section_title
;
Structure prediction by ZEFSAII (Michael W. Deem and Ramdas Pophale) SiO2 
 PCOD9375845
Probable space group: I M M 2
;
_chemical_formula_sum "Si O2"
_cell_formula_units_Z 48
_cell_length_a 31.327615
_cell_length_b 8.692455
_cell_length_c 9.302739
_cell_angle_alpha 90.000000
_cell_angle_beta 90.000000
_cell_angle_gamma 90.000000
_cell_volume 2533.264986
_symmetry_space_group_name_H-M "I M M 2"
_symmetry_group_IT_number 44
_symmetry_cell_setting 'orthorhombic'
loop_
_space_group_symop_operation_xyz
x,y,z
-x,-y,z
-x,y,z
x,-y,z
1/2+x,1/2+y,1/2+z
1/2-x,1/2-y,1/2+z
1/2-x,1/2+y,1/2+z
1/2+x,1/2-y,1/2+z
loop_
_atom_site_type_symbol
_atom_site_label
_atom_site_fract_x
_atom_site_fract_y
_atom_site_fract_z
Si Si1 0.129622 0.185131 0.357100
Si Si2 0.628335 0.817265 0.176327
Si Si3 0.206498 0.815739 0.857808
Si Si4 0.548067 0.312942 0.675891
Si Si5 0.791424 0.315769 0.177809
Si Si6 0.450359 0.684857 0.343218
O O1 0.133453 0.251774 0.516330
O O2 0.085369 0.237067 0.282120
O O3 0.168734 0.241238 0.259865
O O4 0.129729 0.000000 0.363816
O O5 0.664658 0.746392 0.278308
O O6 0.582716 0.767614 0.240259
O O7 0.632462 0.000000 0.174436
O O8 0.248010 0.776756 0.762744
O O9 0.203716 0.000000 0.869918
O O10 0.210550 0.744526 0.015588
O O11 0.500000 0.261028 0.713145
O O12 0.547470 0.500000 0.678214
O O13 0.557229 0.270414 0.510104
O O14 0.796072 0.500000 0.177916
O O15 0.500000 0.717272 0.310513
O O16 0.444403 0.500000 0.332309
#
# Coordination Sequence:
#
# PCOD9375845 Si02
#       6
#     8   8   8   8   8   8
#     4  11  22  37  60  87 118 157 199 242 292 353
#     4  12  25  39  57  84 121 158 197 249 301 347
#     4  11  24  42  64  88 117 155 197 238 289 357
#     4   8  16  33  58  86 112 143 189 240 285 337
#     4  11  24  41  63  91 121 152 191 243 298 348
#     4   9  18  36  62  88 115 151 197 245 295 357
#
# _framework density 18.947879
#
# number of rings (size 3 to 8) (size 9 to 14) (size 15 to 20)
#    0.000    1.667    0.000    6.000    0.000    7.667 
#    0.000    2.500    0.000    3.500    0.000    0.000 
#    0.000    0.000    0.000    0.000    0.000    0.000 
#
# Total GULP energy -134171.997369 kJ/mol
# GULP energy per Si atom -5590.499890 kJ/mol
# Density = 1.890475 g / cm^3
# Si number density = 18.947879 Si / 1000 Ang^3
#
#
#
# Elastic Constant Matrix: (Units=GPa)
#
#
# Indices 1 2 3 4 5 6 
#
# 1 87.7192 26.9583 59.8733 0.0000 0.0000 0.0000
# 2 26.9583 33.0200 23.8129 0.0000 0.0000 0.0000
# 3 59.8733 23.8129 133.6006 0.0000 0.0000 0.0000
# 4 0.0000 0.0000 0.0000 31.2653 0.0000 0.0000
# 5 0.0000 0.0000 0.0000 0.0000 37.4477 0.0000
# 6 0.0000 0.0000 0.0000 0.0000 0.0000 23.5449
#
#
#
# Elastic Compliance Matrix: (Units=1/GPa)
#
#
# Indices 1 2 3 4 5 6 
#
# 1 0.019354 -0.010954 -0.006721 0.000000 0.000000 0.000000
# 2 -0.010954 0.040951 -0.002390 0.000000 0.000000 0.000000
# 3 -0.006721 -0.002390 0.010923 0.000000 0.000000 0.000000
# 4 0.000000 0.000000 0.000000 0.031984 0.000000 0.000000
# 5 0.000000 0.000000 0.000000 0.000000 0.026704 0.000000
# 6 0.000000 0.000000 0.000000 0.000000 0.000000 0.042472
#
#
# Mechanical properties :
#
#
# Convention : Reuss Voigt Hill
#
# Bulk Modulus (GPa) = 32.15632 52.84764 42.50198
# Shear Modulus (GPa) = 22.43307 28.03126 25.23216
#
# Velocity S-wave (km/s) = 3.44457 3.85045 3.65315
# Velocity P-wave (km/s) = 5.72956 6.90794 6.34616
#
# Compressibility (1/GPa) = 0.03109809
#
# Stress axis : x y z
#
# Youngs Moduli (GPa) = 51.66900 24.41916 91.54942
#
# Poissons Ratio (x) = 0.26749 0.61531
# Poissons Ratio (y) = 0.56598 0.21881
# Poissons Ratio (z) = 0.34727 0.05836
#
# Static dielectric constant tensor:
#      x y z
#    x 1.644300 0.000000 0.000000 
#    y 0.000000 1.640120 0.000000 
#    z 0.000000 0.000000 1.619790 
# 
# From -- ./inp_files/9962.got.cif
#   From: 2010.05.17/outbox.cif.g08.bks.cpg/sg44_5_cif.got.tgz:9962.got - 2010.06.03 19:37:08.
