data_PCOD9375285
_publ_section_title
;
Structure prediction by ZEFSAII (Michael W. Deem and Ramdas Pophale) SiO2 
 PCOD9375285
Probable space group: I M M 2
;
_chemical_formula_sum "Si O2"
_cell_formula_units_Z 64
_cell_length_a 7.877847
_cell_length_b 15.192368
_cell_length_c 28.871442
_cell_angle_alpha 90.000000
_cell_angle_beta 90.000000
_cell_angle_gamma 90.000000
_cell_volume 3455.425143
_symmetry_space_group_name_H-M "I M M 2"
_symmetry_group_IT_number 44
_symmetry_cell_setting 'orthorhombic'
loop_
_space_group_symop_operation_xyz
x,y,z
-x,-y,z
-x,y,z
x,-y,z
1/2+x,1/2+y,1/2+z
1/2-x,1/2-y,1/2+z
1/2-x,1/2+y,1/2+z
1/2+x,1/2-y,1/2+z
loop_
_atom_site_type_symbol
_atom_site_label
_atom_site_fract_x
_atom_site_fract_y
_atom_site_fract_z
Si Si1 0.296569 0.900925 0.276290
Si Si2 0.704965 0.399714 0.881892
Si Si3 0.301098 0.723914 0.235583
Si Si4 0.792769 0.400972 0.426387
Si Si5 0.200264 0.599034 0.152382
Si Si6 0.794838 0.398711 0.319904
Si Si7 0.791834 0.222083 0.466949
Si Si8 0.201409 0.099431 0.548981
O O1 0.500000 0.904257 0.270278
O O2 0.263613 0.878292 0.330112
O O3 0.228310 0.821453 0.244944
O O4 0.229290 0.000000 0.268051
O O5 0.500000 0.398297 0.881465
O O6 0.759185 0.500000 0.892396
O O7 0.760742 0.333350 0.921670
O O8 0.500000 0.733542 0.226807
O O9 0.230963 0.667723 0.193109
O O10 0.276106 0.667936 0.282437
O O11 0.735961 0.500000 0.437820
O O12 0.743973 0.380935 0.373038
O O13 0.736261 0.322530 0.459636
O O14 0.000000 0.402253 0.426594
O O15 0.264270 0.500000 0.164480
O O16 0.274953 0.624252 0.102544
O O17 0.000000 0.592903 0.145696
O O18 0.747693 0.500000 0.309075
O O19 0.000000 0.393362 0.317860
O O20 0.731791 0.170437 0.512444
O O21 0.000000 0.223155 0.467563
O O22 0.000000 0.093618 0.540316
O O23 0.271581 0.000000 0.542599
#
# Coordination Sequence:
#
# PCOD9375285 Si02
#       8
#     8   8   8   8   8   8   8   8
#     4   9  19  34  47  63  93 128 157 188 227 268
#     4   9  16  26  43  68  94 120 153 189 223 263
#     4  11  21  31  48  71  92 119 155 192 230 272
#     4   8  14  24  39  62  92 124 156 186 215 253
#     4  10  21  36  52  70  93 119 146 181 229 282
#     4   9  17  29  45  67  97 130 159 188 225 268
#     4   9  15  24  42  66  91 119 150 186 225 262
#     4   9  17  30  48  69  92 116 144 182 228 274
#
# _framework density 18.521598999999998
#
# number of rings (size 3 to 8) (size 9 to 14) (size 15 to 20)
#    0.000    2.750    0.000    3.000    0.000    6.000 
#    0.000    0.625    0.000    4.500    0.000    3.500 
#    0.000    0.000    0.000    0.000    0.000    0.000 
#
# Total GULP energy -178456.365328 kJ/mol
# GULP energy per Si atom -5576.761417 kJ/mol
# Density = 1.847944 g / cm^3
# Si number density = 18.521599 Si / 1000 Ang^3
#
#
#
# Elastic Constant Matrix: (Units=GPa)
#
#
# Indices 1 2 3 4 5 6 
#
# 1 15.3835 3.2589 -0.2010 0.0000 0.0000 0.0000
# 2 3.2589 132.6495 95.8636 0.0000 0.0000 0.0000
# 3 -0.2010 95.8636 95.5351 0.0000 0.0000 0.0000
# 4 0.0000 0.0000 0.0000 28.6934 0.0000 0.0000
# 5 0.0000 0.0000 0.0000 0.0000 16.3422 0.0000
# 6 0.0000 0.0000 0.0000 0.0000 0.0000 10.3452
#
#
#
# Elastic Compliance Matrix: (Units=1/GPa)
#
#
# Indices 1 2 3 4 5 6 
#
# 1 0.066425 -0.006305 0.006467 0.000000 0.000000 0.000000
# 2 -0.006305 0.028029 -0.028138 0.000000 0.000000 0.000000
# 3 0.006467 -0.028138 0.038716 0.000000 0.000000 0.000000
# 4 0.000000 0.000000 0.000000 0.034851 0.000000 0.000000
# 5 0.000000 0.000000 0.000000 0.000000 0.061191 0.000000
# 6 0.000000 0.000000 0.000000 0.000000 0.000000 0.096663
#
#
# Mechanical properties :
#
#
# Convention : Reuss Voigt Hill
#
# Bulk Modulus (GPa) = 12.95071 49.04570 30.99820
# Shear Modulus (GPa) = 12.26790 20.71926 16.49358
#
# Velocity S-wave (km/s) = 2.57642 3.34826 2.98737
# Velocity P-wave (km/s) = 3.98221 6.44093 5.35460
#
# Compressibility (1/GPa) = 0.07721585
#
# Stress axis : x y z
#
# Youngs Moduli (GPa) = 15.05460 35.67777 25.82910
#
# Poissons Ratio (x) = 0.22496 -0.16703
# Poissons Ratio (y) = 0.09493 0.72679
# Poissons Ratio (z) = -0.09736 1.00391
#
# Static dielectric constant tensor:
#      x y z
#    x 1.679940 0.000000 0.000000 
#    y 0.000000 1.681180 0.000000 
#    z 0.000000 0.000000 1.606790 
# 
# From -- ./inp_files/27342.got.cif
#   From: 2010.05.17/outbox.cif.g08.bks.cpg/sg44_14_cif.got.tgz:27342.got - 2010.06.03 19:37:08.
