data_PCOD9375431
_publ_section_title
;
Structure prediction by ZEFSAII (Michael W. Deem and Ramdas Pophale) SiO2 
 PCOD9375431
Probable space group: I M M 2
;
_chemical_formula_sum "Si O2"
_cell_formula_units_Z 58
_cell_length_a 16.233218
_cell_length_b 7.388618
_cell_length_c 19.241075
_cell_angle_alpha 90.000000
_cell_angle_beta 90.000000
_cell_angle_gamma 90.000000
_cell_volume 2307.794675
_symmetry_space_group_name_H-M "I M M 2"
_symmetry_group_IT_number 44
_symmetry_cell_setting 'orthorhombic'
loop_
_space_group_symop_operation_xyz
x,y,z
-x,-y,z
-x,y,z
x,-y,z
1/2+x,1/2+y,1/2+z
1/2-x,1/2-y,1/2+z
1/2-x,1/2+y,1/2+z
1/2+x,1/2-y,1/2+z
loop_
_atom_site_type_symbol
_atom_site_label
_atom_site_fract_x
_atom_site_fract_y
_atom_site_fract_z
Si Si1 0.273592 0.201696 0.469600
Si Si2 0.091115 0.219910 0.857264
Si Si3 0.411916 0.217100 0.109019
Si Si4 0.407747 0.219135 0.576463
Si Si5 0.500000 0.500000 0.804705
Si Si6 0.876813 0.719367 0.239618
Si Si7 0.807126 0.209292 0.732373
Si Si8 0.589944 0.785247 0.947067
O O1 0.341777 0.209762 0.410167
O O2 0.327050 0.288158 0.533869
O O3 0.187437 0.258519 0.432674
O O4 0.255150 0.000000 0.493773
O O5 0.120699 0.280531 0.781109
O O6 0.000000 0.283852 0.873305
O O7 0.090339 0.000000 0.861160
O O8 0.500000 0.281846 0.137937
O O9 0.335655 0.279884 0.153432
O O10 0.408938 0.266742 0.028723
O O11 0.411273 0.000000 0.110922
O O12 0.500000 0.280868 0.552857
O O13 0.401696 0.255073 0.659071
O O14 0.407237 0.000000 0.568753
O O15 0.428986 0.339994 0.791551
O O16 0.885910 0.500000 0.251085
O O17 0.782697 0.781886 0.245230
O O18 0.799082 0.000000 0.750581
O O19 0.500000 0.703566 0.921985
O O20 0.580753 0.000000 0.939261
#
# Coordination Sequence:
#
# PCOD9375431 Si02
#       8
#     8   8   8   8   2   8   8   8
#     4  11  22  36  58  86 114 150 195 242 295 346
#     4  10  22  41  61  85 115 153 196 237 282 347
#     4   9  18  32  53  86 121 150 185 232 284 342
#     4   9  17  33  54  79 119 157 186 231 292 352
#     4  12  22  36  60  90 118 160 202 236 308 368
#     4  10  21  38  58  86 123 159 195 249 299 358
#     4  10  21  37  59  82 114 153 194 239 291 346
#     4   9  19  37  58  81 115 153 188 233 287 344
#
# _framework density 25.132217000000001
#
# number of rings (size 3 to 8) (size 9 to 14) (size 15 to 20)
#    0.000    2.207    0.690    3.103    0.966    4.138 
#    2.483    1.379    1.517    0.000    0.000    0.000 
#    0.000    0.000    0.000    0.000    0.000    0.000 
#
# Total GULP energy -161582.526471 kJ/mol
# GULP energy per Si atom -5571.811258 kJ/mol
# Density = 2.507501 g / cm^3
# Si number density = 25.132217 Si / 1000 Ang^3
#
#
#
# Elastic Constant Matrix: (Units=GPa)
#
#
# Indices 1 2 3 4 5 6 
#
# 1 247.5549 16.9420 31.4292 0.0000 0.0000 0.0000
# 2 16.9420 87.7921 -20.7589 0.0000 0.0000 0.0000
# 3 31.4292 -20.7589 57.8867 0.0000 0.0000 0.0000
# 4 0.0000 0.0000 0.0000 100.7252 0.0000 0.0000
# 5 0.0000 0.0000 0.0000 0.0000 45.0623 0.0000
# 6 0.0000 0.0000 0.0000 0.0000 0.0000 38.2582
#
#
#
# Elastic Compliance Matrix: (Units=1/GPa)
#
#
# Indices 1 2 3 4 5 6 
#
# 1 0.004533 -0.001592 -0.003032 0.000000 0.000000 0.000000
# 2 -0.001592 0.013005 0.005528 0.000000 0.000000 0.000000
# 3 -0.003032 0.005528 0.020904 0.000000 0.000000 0.000000
# 4 0.000000 0.000000 0.000000 0.009928 0.000000 0.000000
# 5 0.000000 0.000000 0.000000 0.000000 0.022191 0.000000
# 6 0.000000 0.000000 0.000000 0.000000 0.000000 0.026138
#
#
# Mechanical properties :
#
#
# Convention : Reuss Voigt Hill
#
# Bulk Modulus (GPa) = 24.84473 49.82870 37.33672
# Shear Modulus (GPa) = 46.16434 61.18389 53.67412
#
# Velocity S-wave (km/s) = 4.29051 4.93940 4.62634
# Velocity P-wave (km/s) = 5.86956 7.23878 6.58982
#
# Compressibility (1/GPa) = 0.04024999
#
# Stress axis : x y z
#
# Youngs Moduli (GPa) = 220.58397 76.89431 47.83798
#
# Poissons Ratio (x) = 0.12240 0.14506
# Poissons Ratio (y) = 0.35114 -0.26445
# Poissons Ratio (z) = 0.66887 -0.42507
#
# Static dielectric constant tensor:
#      x y z
#    x 2.040720 0.000000 0.000000 
#    y 0.000000 2.024940 0.000000 
#    z 0.000000 0.000000 2.024370 
# 
# From -- ./inp_files/25727.got.cif
#   From: 2010.05.17/outbox.cif.g08.bks.cpg/sg44_13_cif.got.tgz:25727.got - 2010.06.03 19:37:08.
