data_PCOD9375550
_publ_section_title
;
Structure prediction by ZEFSAII (Michael W. Deem and Ramdas Pophale) SiO2 
 PCOD9375550
Probable space group: I M M 2
;
_chemical_formula_sum "Si O2"
_cell_formula_units_Z 48
_cell_length_a 18.660394
_cell_length_b 8.052152
_cell_length_c 16.728419
_cell_angle_alpha 90.000000
_cell_angle_beta 90.000000
_cell_angle_gamma 90.000000
_cell_volume 2513.550827
_symmetry_space_group_name_H-M "I M M 2"
_symmetry_group_IT_number 44
_symmetry_cell_setting 'orthorhombic'
loop_
_space_group_symop_operation_xyz
x,y,z
-x,-y,z
-x,y,z
x,-y,z
1/2+x,1/2+y,1/2+z
1/2-x,1/2-y,1/2+z
1/2-x,1/2+y,1/2+z
1/2+x,1/2-y,1/2+z
loop_
_atom_site_type_symbol
_atom_site_label
_atom_site_fract_x
_atom_site_fract_y
_atom_site_fract_z
Si Si1 0.671341 0.305435 0.895020
Si Si2 0.414577 0.500000 0.330910
Si Si3 0.661426 0.809479 0.409376
Si Si4 0.914835 0.000000 0.649083
Si Si5 0.417199 0.200955 0.739357
Si Si6 0.311899 0.803854 0.596955
Si Si7 0.844808 0.317900 0.570443
O O1 0.661235 0.500000 0.914734
O O2 0.756379 0.283578 0.880633
O O3 0.623582 0.259371 0.819083
O O4 0.653687 0.202087 0.974391
O O5 0.500000 0.500000 0.331787
O O6 0.386217 0.333836 0.372562
O O7 0.387917 0.500000 0.239871
O O8 0.661019 0.792871 0.505732
O O9 0.640846 0.000000 0.389706
O O10 0.887855 0.834581 0.606369
O O11 0.000000 0.000000 0.649476
O O12 0.500000 0.258345 0.736445
O O13 0.370236 0.251211 0.661998
O O14 0.418462 0.000000 0.739832
O O15 0.237405 0.705724 0.598890
O O16 0.295714 0.000000 0.611108
O O17 0.871111 0.500000 0.593676
#
# Coordination Sequence:
#
# PCOD9375550 Si02
#       7
#     8   4   8   4   8   8   8
#     4  10  21  39  61  91 127 167 210 255 306 368
#     4  11  26  42  64  93 121 165 209 255 326 372
#     4   9  21  40  65  94 122 161 214 260 306 365
#     4  11  26  46  62  89 127 161 205 263 322 374
#     4  10  22  37  58  93 133 173 209 249 312 379
#     4   9  19  38  63  92 128 168 209 254 303 366
#     4  11  22  40  68  94 119 163 213 259 311 367
#
# _framework density 19.096492000000001
#
# number of rings (size 3 to 8) (size 9 to 14) (size 15 to 20)
#    0.000    2.000    1.667    1.500    8.167    3.667 
#    0.000    3.333    0.000    0.000    0.000    0.000 
#    0.000    0.000    0.000    0.000    0.000    0.000 
#
# Total GULP energy -134024.205914 kJ/mol
# GULP energy per Si atom -5584.341913 kJ/mol
# Density = 1.905303 g / cm^3
# Si number density = 19.096492 Si / 1000 Ang^3
#
#
#
# Elastic Constant Matrix: (Units=GPa)
#
#
# Indices 1 2 3 4 5 6 
#
# 1 81.7326 43.2595 69.4416 0.0000 0.0000 0.0000
# 2 43.2595 117.6626 38.7424 0.0000 0.0000 0.0000
# 3 69.4416 38.7424 81.7545 0.0000 0.0000 0.0000
# 4 0.0000 0.0000 0.0000 23.9826 0.0000 0.0000
# 5 0.0000 0.0000 0.0000 0.0000 53.9593 0.0000
# 6 0.0000 0.0000 0.0000 0.0000 0.0000 18.0184
#
#
#
# Elastic Compliance Matrix: (Units=1/GPa)
#
#
# Indices 1 2 3 4 5 6 
#
# 1 0.046146 -0.004811 -0.036917 0.000000 0.000000 0.000000
# 2 -0.004811 0.010572 -0.000924 0.000000 0.000000 0.000000
# 3 -0.036917 -0.000924 0.044026 0.000000 0.000000 0.000000
# 4 0.000000 0.000000 0.000000 0.041697 0.000000 0.000000
# 5 0.000000 0.000000 0.000000 0.000000 0.018532 0.000000
# 6 0.000000 0.000000 0.000000 0.000000 0.000000 0.055499
#
#
# Mechanical properties :
#
#
# Convention : Reuss Voigt Hill
#
# Bulk Modulus (GPa) = 64.75719 64.89296 64.82507
# Shear Modulus (GPa) = 16.29082 27.83913 22.06497
#
# Velocity S-wave (km/s) = 2.92392 3.82227 3.40287
# Velocity P-wave (km/s) = 6.73671 7.31677 7.03272
#
# Compressibility (1/GPa) = 0.01544230
#
# Stress axis : x y z
#
# Youngs Moduli (GPa) = 21.67026 94.59248 22.71380
#
# Poissons Ratio (x) = 0.45504 0.83851
# Poissons Ratio (y) = 0.10425 0.02098
# Poissons Ratio (z) = 0.79999 0.08738
#
# Static dielectric constant tensor:
#      x y z
#    x 1.642230 0.000000 0.000000 
#    y 0.000000 1.581520 0.000000 
#    z 0.000000 0.000000 1.649320 
# 
# From -- ./inp_files/18842.got.cif
#   From: 2010.05.17/outbox.cif.g08.bks.cpg/sg44_10_cif.got.tgz:18842.got - 2010.06.03 19:37:08.
