data_PCOD9375630
_publ_section_title
;
Structure prediction by ZEFSAII (Michael W. Deem and Ramdas Pophale) SiO2 
 PCOD9375630
Probable space group: I M M 2
;
_chemical_formula_sum "Si O2"
_cell_formula_units_Z 48
_cell_length_a 7.673902
_cell_length_b 7.729752
_cell_length_c 36.840457
_cell_angle_alpha 90.000000
_cell_angle_beta 90.000000
_cell_angle_gamma 90.000000
_cell_volume 2185.278626
_symmetry_space_group_name_H-M "I M M 2"
_symmetry_group_IT_number 44
_symmetry_cell_setting 'orthorhombic'
loop_
_space_group_symop_operation_xyz
x,y,z
-x,-y,z
-x,y,z
x,-y,z
1/2+x,1/2+y,1/2+z
1/2-x,1/2-y,1/2+z
1/2-x,1/2+y,1/2+z
1/2+x,1/2-y,1/2+z
loop_
_atom_site_type_symbol
_atom_site_label
_atom_site_fract_x
_atom_site_fract_y
_atom_site_fract_z
Si Si1 0.708002 0.302572 0.602300
Si Si2 0.299246 0.792320 0.259040
Si Si3 0.710127 0.500000 0.966432
Si Si4 0.289493 0.799495 0.181746
Si Si5 0.210035 0.500000 0.051102
Si Si6 0.199280 0.792279 0.836751
Si Si7 0.705646 0.194895 0.916671
O O1 0.500000 0.314933 0.597995
O O2 0.778620 0.500000 0.600106
O O3 0.740241 0.226838 0.642668
O O4 0.775629 0.170953 0.572018
O O5 0.500000 0.726719 0.261379
O O6 0.225797 0.726730 0.220505
O O7 0.216860 0.755925 0.298153
O O8 0.305918 0.000000 0.255442
O O9 0.500000 0.500000 0.962325
O O10 0.778284 0.330598 0.945436
O O11 0.748680 0.500000 0.008807
O O12 0.500000 0.798581 0.183941
O O13 0.229661 0.000000 0.179895
O O14 0.000000 0.500000 0.054682
O O15 0.276164 0.738103 0.875302
O O16 0.000000 0.727176 0.836318
O O17 0.198855 0.000000 0.837391
O O18 0.500000 0.180132 0.923554
O O19 0.780458 0.000000 0.918958
#
# Coordination Sequence:
#
# PCOD9375630 Si02
#       7
#     8   8   4   8   4   8   8
#     4   9  18  34  54  73  99 134 164 198 248 297
#     4   8  14  25  42  66  97 130 163 205 250 286
#     4  10  22  38  56  78 102 128 164 206 248 302
#     4   8  14  27  47  70  97 130 169 207 244 289
#     4  10  22  38  54  78 106 128 160 206 252 302
#     4   9  17  29  46  70  98 128 167 208 244 289
#     4   9  19  36  54  72 100 134 162 198 250 298
#
# _framework density 21.965161999999999
#
# number of rings (size 3 to 8) (size 9 to 14) (size 15 to 20)
#    0.000    3.167    0.000    1.000    1.167    2.000 
#    1.500    0.833    0.000    1.000    0.000    0.000 
#    0.000    0.000    0.000    0.000    0.000    0.000 
#
# Total GULP energy -133735.711850 kJ/mol
# GULP energy per Si atom -5572.321327 kJ/mol
# Density = 2.191517 g / cm^3
# Si number density = 21.965162 Si / 1000 Ang^3
#
#
#
# Elastic Constant Matrix: (Units=GPa)
#
#
# Indices 1 2 3 4 5 6 
#
# 1 35.7182 8.2900 -0.8745 0.0000 0.0000 0.0000
# 2 8.2900 89.9681 91.0133 0.0000 0.0000 0.0000
# 3 -0.8745 91.0133 239.6158 0.0000 0.0000 0.0000
# 4 0.0000 0.0000 0.0000 52.3241 0.0000 0.0000
# 5 0.0000 0.0000 0.0000 0.0000 22.2568 0.0000
# 6 0.0000 0.0000 0.0000 0.0000 0.0000 -4.7375
#
#
#
# Elastic Compliance Matrix: (Units=1/GPa)
#
#
# Indices 1 2 3 4 5 6 
#
# 1 0.029093 -0.004528 0.001826 0.000000 0.000000 0.000000
# 2 -0.004528 0.018756 -0.007141 0.000000 0.000000 0.000000
# 3 0.001826 -0.007141 0.006892 0.000000 0.000000 0.000000
# 4 0.000000 0.000000 0.000000 0.019112 0.000000 0.000000
# 5 0.000000 0.000000 0.000000 0.000000 0.044930 0.000000
# 6 0.000000 0.000000 0.000000 0.000000 0.000000 -0.211083
#
#
# Mechanical properties :
#
#
# Convention : Reuss Voigt Hill
#
# Bulk Modulus (GPa) = 28.52608 62.46220 45.49414
# Shear Modulus (GPa) = -82.06008 31.76023 -25.14993
#
# Velocity S-wave (km/s) = -6.11885 3.80667 -3.38744
# Velocity P-wave (km/s) = 6.07497 6.91518 2.33607
#
# Compressibility (1/GPa) = 0.03505564
#
# Stress axis : x y z
#
# Youngs Moduli (GPa) = 34.37302 53.31698 145.09152
#
# Poissons Ratio (x) = 0.24142 -0.26494
# Poissons Ratio (y) = 0.15564 1.03603
# Poissons Ratio (z) = -0.06277 0.38071
#
# Static dielectric constant tensor:
#      x y z
#    x 1.825670 0.000000 0.000000 
#    y 0.000000 1.829140 0.000000 
#    z 0.000000 0.000000 1.820650 
# 
# From -- ./inp_files/26934.got.cif
#   From: 2010.05.17/outbox.cif.g08.bks.cpg/sg44_14_cif.got.tgz:26934.got - 2010.06.03 19:37:08.
