data_PCOD9375015
_publ_section_title
;
Structure prediction by ZEFSAII (Michael W. Deem and Ramdas Pophale) SiO2 
 PCOD9375015
Probable space group: I M M 2
;
_chemical_formula_sum "Si O2"
_cell_formula_units_Z 48
_cell_length_a 7.774899
_cell_length_b 23.350908
_cell_length_c 12.194642
_cell_angle_alpha 90.000000
_cell_angle_beta 90.000000
_cell_angle_gamma 90.000000
_cell_volume 2213.948855
_symmetry_space_group_name_H-M "I M M 2"
_symmetry_group_IT_number 44
_symmetry_cell_setting 'orthorhombic'
loop_
_space_group_symop_operation_xyz
x,y,z
-x,-y,z
-x,y,z
x,-y,z
1/2+x,1/2+y,1/2+z
1/2-x,1/2-y,1/2+z
1/2-x,1/2+y,1/2+z
1/2+x,1/2-y,1/2+z
loop_
_atom_site_type_symbol
_atom_site_label
_atom_site_fract_x
_atom_site_fract_y
_atom_site_fract_z
Si Si1 0.704695 0.857217 0.733030
Si Si2 0.708063 0.065511 0.528653
Si Si3 0.206919 0.934842 0.938749
Si Si4 0.203900 0.760440 0.570676
Si Si5 0.301430 0.339264 0.872056
Si Si6 0.800466 0.138475 0.135068
O O1 0.500000 0.851871 0.733884
O O2 0.759110 0.902735 0.640120
O O3 0.754670 0.886712 0.847055
O O4 0.769891 0.796982 0.683009
O O5 0.500000 0.069617 0.518999
O O6 0.792453 0.099295 0.429629
O O7 0.757331 0.000000 0.532114
O O8 0.000000 0.937821 0.945173
O O9 0.269062 0.000000 0.914373
O O10 0.272970 0.910059 0.055057
O O11 0.270319 0.796915 0.465896
O O12 0.292340 0.699301 0.574317
O O13 0.000000 0.752134 0.557891
O O14 0.500000 0.320937 0.855666
O O15 0.218865 0.347366 0.753202
O O16 0.000000 0.122561 0.155334
#
# Coordination Sequence:
#
# PCOD9375015 Si02
#       6
#     8   8   8   8   8   8
#     4  10  20  36  59  85 115 151 192 239 290 344
#     4   9  18  33  54  81 111 143 181 228 281 332
#     4  10  22  39  58  84 120 160 201 242 288 346
#     4  10  21  37  58  86 115 145 188 241 294 347
#     4   9  20  37  55  79 110 143 185 229 277 340
#     4  10  22  39  58  82 114 154 191 233 289 347
#
# _framework density 21.680716
#
# number of rings (size 3 to 8) (size 9 to 14) (size 15 to 20)
#    0.000    2.333    0.000    1.500    2.333    4.667 
#    0.000    1.667    0.000    0.000    0.000    0.000 
#    0.000    0.000    0.000    0.000    0.000    0.000 
#
# Total GULP energy -133872.818779 kJ/mol
# GULP energy per Si atom -5578.034116 kJ/mol
# Density = 2.163137 g / cm^3
# Si number density = 21.680716 Si / 1000 Ang^3
#
#
#
# Elastic Constant Matrix: (Units=GPa)
#
#
# Indices 1 2 3 4 5 6 
#
# 1 33.1853 -7.4356 0.8155 0.0000 0.0000 0.0000
# 2 -7.4356 45.1619 11.7360 0.0000 0.0000 0.0000
# 3 0.8155 11.7360 110.5128 0.0002 0.0000 0.0000
# 4 0.0000 0.0000 0.0002 12.3906 0.0000 0.0000
# 5 0.0000 0.0000 0.0000 0.0000 6.4825 0.0000
# 6 0.0000 0.0000 0.0000 0.0000 0.0000 21.2069
#
#
#
# Elastic Compliance Matrix: (Units=1/GPa)
#
#
# Indices 1 2 3 4 5 6 
#
# 1 0.031357 0.005371 -0.000802 0.000000 0.000000 0.000000
# 2 0.005371 0.023691 -0.002556 0.000000 0.000000 0.000000
# 3 -0.000802 -0.002556 0.009326 0.000000 0.000000 0.000000
# 4 0.000000 0.000000 0.000000 0.080706 0.000000 0.000000
# 5 0.000000 0.000000 0.000000 0.000000 0.154260 0.000000
# 6 0.000000 0.000000 0.000000 0.000000 0.000000 0.047154
#
#
# Mechanical properties :
#
#
# Convention : Reuss Voigt Hill
#
# Bulk Modulus (GPa) = 14.61953 22.12130 18.37042
# Shear Modulus (GPa) = 13.68858 20.26562 16.97710
#
# Velocity S-wave (km/s) = 2.51544 3.06065 2.80134
# Velocity P-wave (km/s) = 3.89799 4.76608 4.35372
#
# Compressibility (1/GPa) = 0.06840163
#
# Stress axis : x y z
#
# Youngs Moduli (GPa) = 31.89080 42.21013 107.22673
#
# Poissons Ratio (x) = -0.22672 0.08597
# Poissons Ratio (y) = -0.17129 0.27402
# Poissons Ratio (z) = 0.02557 0.10787
#
# Static dielectric constant tensor:
#      x y z
#    x 1.791530 0.000000 0.000000 
#    y 0.000000 1.774570 0.000000 
#    z 0.000000 0.000000 1.832390 
# 
# From -- ./inp_files/11153.got.cif
#   From: 2010.05.17/outbox.cif.g08.bks.cpg/sg44_6_cif.got.tgz:11153.got - 2010.06.03 19:37:08.
