data_PCOD9375844
_publ_section_title
;
Structure prediction by ZEFSAII (Michael W. Deem and Ramdas Pophale) SiO2 
 PCOD9375844
Probable space group: I M M 2
;
_chemical_formula_sum "Si O2"
_cell_formula_units_Z 40
_cell_length_a 16.910939
_cell_length_b 23.793025
_cell_length_c 5.063885
_cell_angle_alpha 90.000000
_cell_angle_beta 90.000000
_cell_angle_gamma 90.000000
_cell_volume 2037.516894
_symmetry_space_group_name_H-M "I M M 2"
_symmetry_group_IT_number 44
_symmetry_cell_setting 'orthorhombic'
loop_
_space_group_symop_operation_xyz
x,y,z
-x,-y,z
-x,y,z
x,-y,z
1/2+x,1/2+y,1/2+z
1/2-x,1/2-y,1/2+z
1/2-x,1/2+y,1/2+z
1/2+x,1/2-y,1/2+z
loop_
_atom_site_type_symbol
_atom_site_label
_atom_site_fract_x
_atom_site_fract_y
_atom_site_fract_z
Si Si1 0.907615 0.065307 0.784760
Si Si2 0.858318 0.564928 0.626134
Si Si3 0.184861 0.102891 0.272581
Si Si4 0.909568 0.364670 0.116536
Si Si5 0.265782 0.785887 0.486125
O O1 0.859987 0.074005 0.515108
O O2 0.000000 0.077554 0.744034
O O3 0.900387 0.000000 0.867818
O O4 0.870269 0.102489 0.016278
O O5 0.878730 0.500000 0.582116
O O6 0.765424 0.570903 0.693571
O O7 0.877679 0.602614 0.372509
O O8 0.903402 0.591913 0.873559
O O9 0.211879 0.163999 0.371631
O O10 0.850511 0.313649 0.050899
O O11 0.000000 0.347130 0.156234
O O12 0.268854 0.739960 0.254481
#
# Coordination Sequence:
#
# PCOD9375844 Si02
#       5
#     8   8   8   8   8
#     4  11  22  37  59  89 127 162 191 238 302 357
#     4  11  22  37  62  92 123 162 197 232 288 361
#     4  11  22  39  61  87 118 156 207 249 287 357
#     4  11  24  41  61  90 125 156 195 246 297 351
#     4  11  23  43  65  84 112 156 206 253 301 346
#
# _framework density 19.631737999999999
#
# number of rings (size 3 to 8) (size 9 to 14) (size 15 to 20)
#    0.000    1.000    0.000    9.600    0.000    4.000 
#    0.000    6.000    0.000    0.000    0.000    0.000 
#    0.000    0.000    0.000    0.000    0.000    0.000 
#
# Total GULP energy -111881.142211 kJ/mol
# GULP energy per Si atom -5594.057111 kJ/mol
# Density = 1.958706 g / cm^3
# Si number density = 19.631738 Si / 1000 Ang^3
#
#
#
# Elastic Constant Matrix: (Units=GPa)
#
#
# Indices 1 2 3 4 5 6 
#
# 1 156.8787 62.3744 70.6304 0.0000 0.0000 0.0000
# 2 62.3744 80.9671 43.3372 0.0000 0.0000 0.0000
# 3 70.6304 43.3372 153.5595 0.0000 0.0000 0.0000
# 4 0.0000 0.0000 0.0000 27.2824 0.0000 0.0000
# 5 0.0000 0.0000 0.0000 0.0000 59.1931 0.0000
# 6 0.0000 0.0000 0.0000 0.0000 0.0000 0.8787
#
#
#
# Elastic Compliance Matrix: (Units=1/GPa)
#
#
# Indices 1 2 3 4 5 6 
#
# 1 0.010185 -0.006289 -0.002910 0.000000 0.000000 0.000000
# 2 -0.006289 0.018431 -0.002309 0.000000 0.000000 0.000000
# 3 -0.002910 -0.002309 0.008502 0.000000 0.000000 0.000000
# 4 0.000000 0.000000 0.000000 0.036654 0.000000 0.000000
# 5 0.000000 0.000000 0.000000 0.000000 0.016894 0.000000
# 6 0.000000 0.000000 0.000000 0.000000 0.000000 1.138072
#
#
# Mechanical properties :
#
#
# Convention : Reuss Voigt Hill
#
# Bulk Modulus (GPa) = 70.90626 82.67656 76.79141
# Shear Modulus (GPa) = 3.97946 31.80841 17.89393
#
# Velocity S-wave (km/s) = 1.42529 4.02961 3.02235
# Velocity P-wave (km/s) = 6.23740 7.99096 7.16801
#
# Compressibility (1/GPa) = 0.01410313
#
# Stress axis : x y z
#
# Youngs Moduli (GPa) = 98.18664 54.25603 117.61694
#
# Poissons Ratio (x) = 0.34119 0.34224
# Poissons Ratio (y) = 0.61745 0.27160
# Poissons Ratio (z) = 0.28570 0.12529
#
# Static dielectric constant tensor:
#      x y z
#    x 1.681680 0.000000 0.000000 
#    y 0.000000 1.691690 0.000000 
#    z 0.000000 0.000000 1.675330 
# 
# From -- ./inp_files/1480.got.cif
#   From: 2010.05.17/outbox.cif.g08.bks.cpg/sg44_1_cif.got.tgz:1480.got - 2010.06.03 19:37:08.
