data_PCOD9375589
_publ_section_title
;
Structure prediction by ZEFSAII (Michael W. Deem and Ramdas Pophale) SiO2 
 PCOD9375589
Probable space group: I M M 2
;
_chemical_formula_sum "Si O2"
_cell_formula_units_Z 48
_cell_length_a 18.697602
_cell_length_b 8.044432
_cell_length_c 15.649422
_cell_angle_alpha 90.000000
_cell_angle_beta 90.000000
_cell_angle_gamma 90.000000
_cell_volume 2353.854412
_symmetry_space_group_name_H-M "I M M 2"
_symmetry_group_IT_number 44
_symmetry_cell_setting 'orthorhombic'
loop_
_space_group_symop_operation_xyz
x,y,z
-x,-y,z
-x,y,z
x,-y,z
1/2+x,1/2+y,1/2+z
1/2-x,1/2-y,1/2+z
1/2-x,1/2+y,1/2+z
1/2+x,1/2-y,1/2+z
loop_
_atom_site_type_symbol
_atom_site_label
_atom_site_fract_x
_atom_site_fract_y
_atom_site_fract_z
Si Si1 0.578264 0.698013 0.728660
Si Si2 0.153266 0.699924 0.653199
Si Si3 0.500000 0.797840 0.222473
Si Si4 0.770506 0.693846 0.487531
Si Si5 0.731261 0.195408 0.795932
Si Si6 0.000000 0.803256 0.918195
Si Si7 0.880408 0.694978 0.043583
O O1 0.500000 0.754516 0.761267
O O2 0.583157 0.500000 0.741063
O O3 0.649405 0.778843 0.766975
O O4 0.581725 0.737894 0.628143
O O5 0.150763 0.500000 0.646304
O O6 0.074142 0.757710 0.679088
O O7 0.177660 0.766641 0.560348
O O8 0.212587 0.735883 0.726360
O O9 0.500000 0.733338 0.318740
O O10 0.500000 0.000000 0.223841
O O11 0.790255 0.500000 0.475948
O O12 0.764568 0.767841 0.392256
O O13 0.692596 0.707821 0.529093
O O14 0.747615 0.000000 0.800264
O O15 0.068734 0.723860 0.963169
O O16 0.000000 0.000000 0.934466
O O17 0.865135 0.500000 0.054477
#
# Coordination Sequence:
#
# PCOD9375589 Si02
#       7
#     8   8   4   8   8   4   8
#     4  11  23  40  62  87 122 163 199 245 312 372
#     4  10  21  40  64  87 122 166 207 254 310 367
#     4  10  22  40  62  91 120 159 214 259 302 360
#     4  10  22  40  61  89 124 165 204 248 308 369
#     4  11  23  39  62  93 123 159 210 257 304 365
#     4  12  24  38  58  87 124 163 196 247 318 376
#     4  12  23  36  60  91 121 155 201 254 302 363
#
# _framework density 20.392085000000002
#
# number of rings (size 3 to 8) (size 9 to 14) (size 15 to 20)
#    0.000    1.167    2.500    4.250    0.000    5.667 
#    1.500    0.000    0.000    0.000    0.000    0.000 
#    0.000    0.000    0.000    0.000    0.000    0.000 
#
# Total GULP energy -134051.338813 kJ/mol
# GULP energy per Si atom -5585.472451 kJ/mol
# Density = 2.034567 g / cm^3
# Si number density = 20.392085 Si / 1000 Ang^3
#
#
#
# Elastic Constant Matrix: (Units=GPa)
#
#
# Indices 1 2 3 4 5 6 
#
# 1 113.6330 -14.5745 39.9190 0.0000 0.0000 0.0000
# 2 -14.5745 24.4234 -1.9805 0.0000 0.0000 0.0000
# 3 39.9190 -1.9805 89.7276 0.0000 0.0000 0.0000
# 4 0.0000 0.0000 0.0000 22.2333 0.0000 0.0000
# 5 0.0000 0.0000 0.0000 0.0000 29.2191 0.0000
# 6 0.0000 0.0000 0.0000 0.0000 0.0000 -24.3509
#
#
#
# Elastic Compliance Matrix: (Units=1/GPa)
#
#
# Indices 1 2 3 4 5 6 
#
# 1 0.011340 0.006369 -0.004905 0.000000 0.000000 0.000000
# 2 0.006369 0.044595 -0.001849 0.000000 0.000000 0.000000
# 3 -0.004905 -0.001849 0.013286 0.000000 0.000000 0.000000
# 4 0.000000 0.000000 0.000000 0.044978 0.000000 0.000000
# 5 0.000000 0.000000 0.000000 0.000000 0.034224 0.000000
# 6 0.000000 0.000000 0.000000 0.000000 0.000000 -0.041066
#
#
# Mechanical properties :
#
#
# Convention : Reuss Voigt Hill
#
# Bulk Modulus (GPa) = 14.60866 30.50134 22.55500
# Shear Modulus (GPa) = 38.18445 19.04831 28.61638
#
# Velocity S-wave (km/s) = 4.33195 3.05963 3.75014
# Velocity P-wave (km/s) = 5.67455 5.24134 5.46224
#
# Compressibility (1/GPa) = 0.06845253
#
# Stress axis : x y z
#
# Youngs Moduli (GPa) = 88.18224 22.42388 75.26710
#
# Poissons Ratio (x) = -0.14283 0.36915
# Poissons Ratio (y) = -0.56167 0.13920
# Poissons Ratio (z) = 0.43249 0.04147
#
# Static dielectric constant tensor:
#      x y z
#    x 1.723500 0.000000 0.000000 
#    y 0.000000 1.726450 0.000000 
#    z 0.000000 0.000000 1.735790 
# 
# From -- ./inp_files/16161.got.cif
#   From: 2010.05.17/outbox.cif.g08.bks.cpg/sg44_9_cif.got.tgz:16161.got - 2010.06.03 19:37:08.
