data_PCOD9375814
_publ_section_title
;
Structure prediction by ZEFSAII (Michael W. Deem and Ramdas Pophale) SiO2 
 PCOD9375814
Probable space group: I M M 2
;
_chemical_formula_sum "Si O2"
_cell_formula_units_Z 48
_cell_length_a 17.141206
_cell_length_b 8.383670
_cell_length_c 19.111260
_cell_angle_alpha 90.000000
_cell_angle_beta 90.000000
_cell_angle_gamma 90.000000
_cell_volume 2746.406829
_symmetry_space_group_name_H-M "I M M 2"
_symmetry_group_IT_number 44
_symmetry_cell_setting 'orthorhombic'
loop_
_space_group_symop_operation_xyz
x,y,z
-x,-y,z
-x,y,z
x,-y,z
1/2+x,1/2+y,1/2+z
1/2-x,1/2-y,1/2+z
1/2-x,1/2+y,1/2+z
1/2+x,1/2-y,1/2+z
loop_
_atom_site_type_symbol
_atom_site_label
_atom_site_fract_x
_atom_site_fract_y
_atom_site_fract_z
Si Si1 0.911508 0.694813 0.925610
Si Si2 0.738231 0.805752 0.508461
Si Si3 0.500000 0.808776 0.057774
Si Si4 0.000000 0.689824 0.397075
Si Si5 0.156454 0.809127 0.632533
Si Si6 0.316947 0.192443 0.288491
Si Si7 0.166644 0.808024 0.371336
O O1 0.912207 0.500000 0.926456
O O2 0.877419 0.741989 0.849554
O O3 0.000000 0.749563 0.936400
O O4 0.847547 0.746262 0.983196
O O5 0.772315 0.752410 0.582641
O O6 0.798635 0.757698 0.447005
O O7 0.736944 0.000000 0.508623
O O8 0.423177 0.750540 0.097528
O O9 0.500000 0.000000 0.056614
O O10 0.500000 0.748773 0.977546
O O11 0.079799 0.746205 0.361834
O O12 0.000000 0.500000 0.399330
O O13 0.163677 0.753231 0.711945
O O14 0.156129 0.000000 0.631234
O O15 0.231017 0.243525 0.314709
O O16 0.318073 0.000000 0.287378
O O17 0.164919 0.000000 0.371338
#
# Coordination Sequence:
#
# PCOD9375814 Si02
#       7
#     8   8   4   4   8   8   8
#     4   8  14  27  49  74  96 123 165 210 244 285
#     4   8  15  28  47  70  95 129 171 206 240 293
#     4  11  23  35  49  75 107 134 167 210 261 317
#     4  11  21  31  51  81 105 124 165 226 271 299
#     4  11  21  33  51  74 105 138 168 208 255 304
#     4   9  19  33  51  76 103 135 170 205 251 308
#     4   9  17  33  53  71  99 139 177 206 243 309
#
# _framework density 17.477381999999999
#
# number of rings (size 3 to 8) (size 9 to 14) (size 15 to 20)
#    0.000    2.667    1.667    3.000    1.167    1.333 
#    0.000    0.000    1.833    0.000    0.000    0.000 
#    0.000    0.000    0.000    0.000    0.000    0.000 
#
# Total GULP energy -133789.020001 kJ/mol
# GULP energy per Si atom -5574.542500 kJ/mol
# Density = 1.743760 g / cm^3
# Si number density = 17.477382 Si / 1000 Ang^3
#
#
#
# Elastic Constant Matrix: (Units=GPa)
#
#
# Indices 1 2 3 4 5 6 
#
# 1 160.3331 13.7289 48.8702 0.0000 0.0000 0.0000
# 2 13.7289 11.9143 9.6880 0.0000 0.0000 0.0000
# 3 48.8702 9.6880 79.8704 0.0000 0.0000 0.0000
# 4 0.0000 0.0000 0.0000 19.2472 0.0000 0.0000
# 5 0.0000 0.0000 0.0000 0.0000 14.6888 0.0000
# 6 0.0000 0.0000 0.0000 0.0000 0.0000 8.0063
#
#
#
# Elastic Compliance Matrix: (Units=1/GPa)
#
#
# Indices 1 2 3 4 5 6 
#
# 1 0.008015 -0.005822 -0.004198 0.000000 0.000000 0.000000
# 2 -0.005822 0.097347 -0.008245 0.000000 0.000000 0.000000
# 3 -0.004198 -0.008245 0.016089 0.000000 0.000000 0.000000
# 4 0.000000 0.000000 0.000000 0.051956 0.000000 0.000000
# 5 0.000000 0.000000 0.000000 0.000000 0.068079 0.000000
# 6 0.000000 0.000000 0.000000 0.000000 0.000000 0.124902
#
#
# Mechanical properties :
#
#
# Convention : Reuss Voigt Hill
#
# Bulk Modulus (GPa) = 11.77585 44.07688 27.92636
# Shear Modulus (GPa) = 11.59485 20.37715 15.98600
#
# Velocity S-wave (km/s) = 2.57849 3.41825 3.02763
# Velocity P-wave (km/s) = 3.95186 6.39167 5.31369
#
# Compressibility (1/GPa) = 0.08491956
#
# Stress axis : x y z
#
# Youngs Moduli (GPa) = 124.76418 10.27256 62.15411
#
# Poissons Ratio (x) = 0.05981 0.26092
# Poissons Ratio (y) = 0.72641 0.51248
# Poissons Ratio (z) = 0.52376 0.08470
#
# Static dielectric constant tensor:
#      x y z
#    x 1.597030 0.000000 0.000000 
#    y 0.000000 1.599860 0.000000 
#    z 0.000000 0.000000 1.580700 
# 
# From -- ./inp_files/18840.got.cif
#   From: 2010.05.17/outbox.cif.g08.bks.cpg/sg44_10_cif.got.tgz:18840.got - 2010.06.03 19:37:08.
