data_PCOD9375416
_publ_section_title
;
Structure prediction by ZEFSAII (Michael W. Deem and Ramdas Pophale) SiO2 
 PCOD9375416
Probable space group: I M M 2
;
_chemical_formula_sum "Si O2"
_cell_formula_units_Z 64
_cell_length_a 29.989929
_cell_length_b 8.078845
_cell_length_c 13.275875
_cell_angle_alpha 90.000000
_cell_angle_beta 90.000000
_cell_angle_gamma 90.000000
_cell_volume 3216.531939
_symmetry_space_group_name_H-M "I M M 2"
_symmetry_group_IT_number 44
_symmetry_cell_setting 'orthorhombic'
loop_
_space_group_symop_operation_xyz
x,y,z
-x,-y,z
-x,y,z
x,-y,z
1/2+x,1/2+y,1/2+z
1/2-x,1/2-y,1/2+z
1/2-x,1/2+y,1/2+z
1/2+x,1/2-y,1/2+z
loop_
_atom_site_type_symbol
_atom_site_label
_atom_site_fract_x
_atom_site_fract_y
_atom_site_fract_z
Si Si1 0.621791 0.297676 0.655990
Si Si2 0.449104 0.301139 0.492305
Si Si3 0.356854 0.298946 0.879785
Si Si4 0.245421 0.810272 0.341547
Si Si5 0.295440 0.312373 0.519862
Si Si6 0.382534 0.698946 0.098456
Si Si7 0.782229 0.812017 0.642281
Si Si8 0.949127 0.696753 0.772364
O O1 0.621138 0.500000 0.659444
O O2 0.581245 0.241654 0.584856
O O3 0.623827 0.241259 0.772040
O O4 0.666796 0.251259 0.596195
O O5 0.500000 0.237821 0.498104
O O6 0.450430 0.500000 0.499662
O O7 0.431250 0.260460 0.380398
O O8 0.359808 0.500000 0.880716
O O9 0.303769 0.261491 0.881271
O O10 0.381028 0.240717 0.982053
O O11 0.284273 0.796999 0.423830
O O12 0.260842 0.694451 0.251776
O O13 0.241230 0.000000 0.305836
O O14 0.306870 0.500000 0.489501
O O15 0.248751 0.306874 0.578100
O O16 0.386503 0.500000 0.095688
O O17 0.333554 0.738634 0.142076
O O18 0.419726 0.760439 0.175448
O O19 0.779919 0.000000 0.600232
O O20 0.951064 0.500000 0.780278
O O21 0.000000 0.761869 0.761567
#
# Coordination Sequence:
#
# PCOD9375416 Si02
#       8
#     8   8   8   8   8   8   8   8
#     4   9  18  33  55  81 111 144 180 225 277 328
#     4   9  18  35  60  86 110 140 180 226 277 332
#     4   9  17  34  55  77 109 148 182 222 275 324
#     4  11  21  36  53  74 110 153 191 234 281 328
#     4  11  21  34  53  78 110 151 190 230 280 332
#     4  10  21  37  58  81 110 147 186 228 275 331
#     4  11  22  36  53  79 112 148 192 236 277 330
#     4  10  22  40  60  83 112 142 176 226 282 333
#
# _framework density 19.897206000000001
#
# number of rings (size 3 to 8) (size 9 to 14) (size 15 to 20)
#    0.000    2.000    2.500    1.500    1.750    1.750 
#    0.000    1.250    0.000    2.250    0.000    1.750 
#    0.000    0.000    0.000    0.000    0.000    0.000 
#
# Total GULP energy -178475.948082 kJ/mol
# GULP energy per Si atom -5577.373378 kJ/mol
# Density = 1.985192 g / cm^3
# Si number density = 19.897206 Si / 1000 Ang^3
#
#
#
# Elastic Constant Matrix: (Units=GPa)
#
#
# Indices 1 2 3 4 5 6 
#
# 1 81.7342 9.3394 62.4670 0.0000 0.0000 0.0000
# 2 9.3394 22.3965 10.4790 0.0000 0.0000 0.0000
# 3 62.4670 10.4790 144.4732 0.0000 0.0000 0.0000
# 4 0.0000 0.0000 0.0000 10.2784 0.0000 0.0000
# 5 0.0000 0.0000 0.0000 0.0000 36.0647 0.0000
# 6 0.0000 0.0000 0.0000 0.0000 0.0000 17.7770
#
#
#
# Elastic Compliance Matrix: (Units=1/GPa)
#
#
# Indices 1 2 3 4 5 6 
#
# 1 0.018637 -0.004142 -0.007758 0.000000 0.000000 0.000000
# 2 -0.004142 0.047139 -0.001628 0.000000 0.000000 0.000000
# 3 -0.007758 -0.001628 0.010394 0.000000 0.000000 0.000000
# 4 0.000000 0.000000 0.000000 0.097291 0.000000 0.000000
# 5 0.000000 0.000000 0.000000 0.000000 0.027728 0.000000
# 6 0.000000 0.000000 0.000000 0.000000 0.000000 0.056253
#
#
# Mechanical properties :
#
#
# Convention : Reuss Voigt Hill
#
# Bulk Modulus (GPa) = 20.36077 45.90829 33.13453
# Shear Modulus (GPa) = 16.61853 23.91192 20.26522
#
# Velocity S-wave (km/s) = 2.89315 3.47042 3.19485
# Velocity P-wave (km/s) = 4.62770 6.25949 5.50440
#
# Compressibility (1/GPa) = 0.04911405
#
# Stress axis : x y z
#
# Youngs Moduli (GPa) = 53.65621 21.21396 96.20818
#
# Poissons Ratio (x) = 0.08787 0.74637
# Poissons Ratio (y) = 0.22224 0.15665
# Poissons Ratio (z) = 0.41626 0.03454
#
# Static dielectric constant tensor:
#      x y z
#    x 1.687270 0.000000 0.000000 
#    y 0.000000 1.688920 0.000000 
#    z 0.000000 0.000000 1.741800 
# 
# From -- ./inp_files/15029.got.cif
#   From: 2010.05.17/outbox.cif.g08.bks.cpg/sg44_8_cif.got.tgz:15029.got - 2010.06.03 19:37:08.
