data_PCOD9375891
_publ_section_title
;
Structure prediction by ZEFSAII (Michael W. Deem and Ramdas Pophale) SiO2 
 PCOD9375891
Probable space group: I M M 2
;
_chemical_formula_sum "Si O2"
_cell_formula_units_Z 34
_cell_length_a 14.244315
_cell_length_b 7.483854
_cell_length_c 12.553458
_cell_angle_alpha 90.000000
_cell_angle_beta 90.000000
_cell_angle_gamma 90.000000
_cell_volume 1338.228422
_symmetry_space_group_name_H-M "I M M 2"
_symmetry_group_IT_number 44
_symmetry_cell_setting 'orthorhombic'
loop_
_space_group_symop_operation_xyz
x,y,z
-x,-y,z
-x,y,z
x,-y,z
1/2+x,1/2+y,1/2+z
1/2-x,1/2-y,1/2+z
1/2-x,1/2+y,1/2+z
1/2+x,1/2-y,1/2+z
loop_
_atom_site_type_symbol
_atom_site_label
_atom_site_fract_x
_atom_site_fract_y
_atom_site_fract_z
Si Si1 0.000000 0.000000 0.609951
Si Si2 0.312598 0.792216 0.420342
Si Si3 0.397527 0.720260 0.883800
Si Si4 0.356606 0.704478 0.648287
Si Si5 0.635491 0.206888 0.194237
O O1 0.080884 0.156076 0.621655
O O2 0.204926 0.718837 0.426829
O O3 0.368071 0.780457 0.530552
O O4 0.368848 0.724990 0.317274
O O5 0.298516 0.000000 0.394588
O O6 0.500000 0.778880 0.925014
O O7 0.399690 0.500000 0.890558
O O8 0.396409 0.775398 0.758880
O O9 0.387347 0.500000 0.642211
O O10 0.245097 0.711168 0.667405
O O11 0.604903 0.000000 0.185816
#
# Coordination Sequence:
#
# PCOD9375891 Si02
#       5
#     2   8   8   8   8
#     4  12  22  36  64  82 106 154 206 228 284 346
#     4   9  18  34  56  79 113 150 181 227 291 338
#     4   8  15  32  54  79 106 139 182 232 275 327
#     4   9  18  34  56  79 113 150 181 227 291 338
#     4   9  21  39  54  83 121 150 184 241 290 336
#
# _framework density 25.406721999999998
#
# number of rings (size 3 to 8) (size 9 to 14) (size 15 to 20)
#    0.000    3.059    0.000    3.176    3.294    0.000 
#    4.235    0.000    0.000    1.412    0.000    0.000 
#    0.000    0.000    0.000    0.000    0.000    0.941 
#
# Total GULP energy -94676.553412 kJ/mol
# GULP energy per Si atom -5569.209024 kJ/mol
# Density = 2.534890 g / cm^3
# Si number density = 25.406722 Si / 1000 Ang^3
#
#
#
# Elastic Constant Matrix: (Units=GPa)
#
#
# Indices 1 2 3 4 5 6 
#
# 1 111.7394 22.4937 7.5394 0.0000 0.0000 0.0000
# 2 22.4937 99.7569 0.3719 0.0000 0.0000 0.0000
# 3 7.5394 0.3719 147.8014 0.0000 0.0000 0.0000
# 4 0.0000 0.0000 0.0000 20.7707 0.0000 0.0000
# 5 0.0000 0.0000 0.0000 0.0000 14.7008 0.0000
# 6 0.0000 0.0000 0.0000 0.0000 0.0000 12.4825
#
#
#
# Elastic Compliance Matrix: (Units=1/GPa)
#
#
# Indices 1 2 3 4 5 6 
#
# 1 0.009408 -0.002120 -0.000475 0.000000 0.000000 0.000000
# 2 -0.002120 0.010502 0.000082 0.000000 0.000000 0.000000
# 3 -0.000475 0.000082 0.006790 0.000000 0.000000 0.000000
# 4 0.000000 0.000000 0.000000 0.048145 0.000000 0.000000
# 5 0.000000 0.000000 0.000000 0.000000 0.068023 0.000000
# 6 0.000000 0.000000 0.000000 0.000000 0.000000 0.080112
#
#
# Mechanical properties :
#
#
# Convention : Reuss Voigt Hill
#
# Bulk Modulus (GPa) = 46.13619 46.67862 46.40740
# Shear Modulus (GPa) = 21.25580 31.51701 26.38640
#
# Velocity S-wave (km/s) = 2.89558 3.52589 3.22617
# Velocity P-wave (km/s) = 5.42011 5.91509 5.67300
#
# Compressibility (1/GPa) = 0.02167496
#
# Stress axis : x y z
#
# Youngs Moduli (GPa) = 106.29137 95.21990 147.27894
#
# Poissons Ratio (x) = 0.20183 0.06990
# Poissons Ratio (y) = 0.22530 -0.01203
# Poissons Ratio (z) = 0.05044 -0.00778
#
# Static dielectric constant tensor:
#      x y z
#    x 1.980060 0.000000 0.000000 
#    y 0.000000 1.960630 0.000000 
#    z 0.000000 0.000000 2.131180 
# 
# From -- ./inp_files/15883.got.cif
#   From: 2010.05.17/outbox.cif.g08.bks.cpg/sg44_8_cif.got.tgz:15883.got - 2010.06.03 19:37:08.
