data_PCOD9375202
_publ_section_title
;
Structure prediction by ZEFSAII (Michael W. Deem and Ramdas Pophale) SiO2 
 PCOD9375202
Probable space group: I M M 2
;
_chemical_formula_sum "Si O2"
_cell_formula_units_Z 52
_cell_length_a 26.313044
_cell_length_b 7.719780
_cell_length_c 11.517106
_cell_angle_alpha 90.000000
_cell_angle_beta 90.000000
_cell_angle_gamma 90.000000
_cell_volume 2339.480232
_symmetry_space_group_name_H-M "I M M 2"
_symmetry_group_IT_number 44
_symmetry_cell_setting 'orthorhombic'
loop_
_space_group_symop_operation_xyz
x,y,z
-x,-y,z
-x,y,z
x,-y,z
1/2+x,1/2+y,1/2+z
1/2-x,1/2-y,1/2+z
1/2-x,1/2+y,1/2+z
1/2+x,1/2-y,1/2+z
loop_
_atom_site_type_symbol
_atom_site_label
_atom_site_fract_x
_atom_site_fract_y
_atom_site_fract_z
Si Si1 0.421324 0.191334 0.481070
Si Si2 0.740550 0.294047 0.471407
Si Si3 0.000000 0.500000 0.288528
Si Si4 0.500000 0.500000 0.528867
Si Si5 0.668240 0.806406 0.668127
Si Si6 0.149177 0.705126 0.523406
Si Si7 0.417826 0.691232 0.830847
Si Si8 0.845660 0.208738 0.792742
O O1 0.456512 0.346902 0.520252
O O2 0.373277 0.187216 0.565826
O O3 0.396858 0.226595 0.355665
O O4 0.444786 0.000000 0.486873
O O5 0.743099 0.500000 0.456468
O O6 0.716919 0.263024 0.599724
O O7 0.797686 0.225660 0.470772
O O8 0.702648 0.228685 0.370284
O O9 0.955316 0.345819 0.293766
O O10 0.636167 0.708010 0.764601
O O11 0.679738 0.000000 0.711153
O O12 0.145437 0.500000 0.499538
O O13 0.099604 0.788184 0.464562
O O14 0.153919 0.732652 0.660608
O O15 0.439298 0.500000 0.807391
O O16 0.845485 0.000000 0.797229
#
# Coordination Sequence:
#
# PCOD9375202 Si02
#       8
#     8   8   2   2   8   8   8   8
#     4  10  22  40  62  94 130 170 214 273 333 392
#     4   9  21  38  65 100 139 182 219 271 343 413
#     4  12  26  54  70  98 136 184 244 302 346 394
#     4  12  22  38  66  94 128 164 224 270 334 398
#     4  10  21  41  64  99 142 176 219 281 339 411
#     4  11  23  42  66 100 139 178 226 280 333 414
#     4  12  26  46  73  99 138 182 235 290 351 410
#     4  10  20  40  65  91 132 174 219 266 332 398
#
# _framework density 22.227160999999999
#
# number of rings (size 3 to 8) (size 9 to 14) (size 15 to 20)
#    0.000    1.538    2.308    1.846    4.308    2.462 
#    0.000    0.769    0.000    0.000    0.000    0.000 
#    0.000    0.000    0.000    0.000    0.000    0.000 
#
# Total GULP energy -144756.047982 kJ/mol
# GULP energy per Si atom -5567.540307 kJ/mol
# Density = 2.217657 g / cm^3
# Si number density = 22.227161 Si / 1000 Ang^3
#
#
#
# Elastic Constant Matrix: (Units=GPa)
#
#
# Indices 1 2 3 4 5 6 
#
# 1 74.4169 28.5367 9.3905 0.0000 0.0000 0.0000
# 2 28.5367 152.9922 3.8125 0.0000 0.0000 0.0000
# 3 9.3905 3.8125 80.0931 0.0000 0.0000 0.0000
# 4 0.0000 0.0000 0.0000 21.3505 0.0000 0.0000
# 5 0.0000 0.0000 0.0000 0.0000 31.9021 0.0000
# 6 0.0000 0.0000 0.0000 0.0000 0.0000 6.8479
#
#
#
# Elastic Compliance Matrix: (Units=1/GPa)
#
#
# Indices 1 2 3 4 5 6 
#
# 1 0.014673 -0.002697 -0.001592 0.000000 0.000000 0.000000
# 2 -0.002697 0.007040 -0.000019 0.000000 0.000000 0.000000
# 3 -0.001592 -0.000019 0.012673 0.000000 0.000000 0.000000
# 4 0.000000 0.000000 0.000000 0.046837 0.000000 0.000000
# 5 0.000000 0.000000 0.000000 0.000000 0.031346 0.000000
# 6 0.000000 0.000000 0.000000 0.000000 0.000000 0.146030
#
#
# Mechanical properties :
#
#
# Convention : Reuss Voigt Hill
#
# Bulk Modulus (GPa) = 38.80503 43.44238 41.12371
# Shear Modulus (GPa) = 18.12877 29.73761 23.93319
#
# Velocity S-wave (km/s) = 2.85899 3.66169 3.28495
# Velocity P-wave (km/s) = 5.32867 6.12082 5.73843
#
# Compressibility (1/GPa) = 0.02576985
#
# Stress axis : x y z
#
# Youngs Moduli (GPa) = 68.15249 142.04871 78.90778
#
# Poissons Ratio (x) = 0.38313 0.12562
# Poissons Ratio (y) = 0.18382 0.00149
# Poissons Ratio (z) = 0.10849 0.00268
#
# Static dielectric constant tensor:
#      x y z
#    x 1.804350 0.000000 0.000000 
#    y 0.000000 1.830480 0.000000 
#    z 0.000000 0.000000 1.873150 
# 
# From -- ./inp_files/14820.got.cif
#   From: 2010.05.17/outbox.cif.g08.bks.cpg/sg44_8_cif.got.tgz:14820.got - 2010.06.03 19:37:08.
