data_PCOD9375586
_publ_section_title
;
Structure prediction by ZEFSAII (Michael W. Deem and Ramdas Pophale) SiO2 
 PCOD9375586
Probable space group: I M M 2
;
_chemical_formula_sum "Si O2"
_cell_formula_units_Z 48
_cell_length_a 18.866237
_cell_length_b 7.995108
_cell_length_c 15.321475
_cell_angle_alpha 90.000000
_cell_angle_beta 90.000000
_cell_angle_gamma 90.000000
_cell_volume 2311.054554
_symmetry_space_group_name_H-M "I M M 2"
_symmetry_group_IT_number 44
_symmetry_cell_setting 'orthorhombic'
loop_
_space_group_symop_operation_xyz
x,y,z
-x,-y,z
-x,y,z
x,-y,z
1/2+x,1/2+y,1/2+z
1/2-x,1/2-y,1/2+z
1/2-x,1/2+y,1/2+z
1/2+x,1/2-y,1/2+z
loop_
_atom_site_type_symbol
_atom_site_label
_atom_site_fract_x
_atom_site_fract_y
_atom_site_fract_z
Si Si1 0.345897 0.296865 0.110370
Si Si2 0.744501 0.799754 0.267412
Si Si3 0.500000 0.798881 0.858186
Si Si4 0.394598 0.805174 0.708881
Si Si5 0.000000 0.804366 0.554913
Si Si6 0.923048 0.193268 0.020626
Si Si7 0.767935 0.301831 0.965570
O O1 0.345549 0.500000 0.107091
O O2 0.321917 0.242779 0.206572
O O3 0.424967 0.234741 0.088335
O O4 0.287786 0.236038 0.038121
O O5 0.811521 0.717975 0.220158
O O6 0.741959 0.736807 0.367030
O O7 0.753889 0.000000 0.268262
O O8 0.432844 0.753826 0.798217
O O9 0.500000 0.000000 0.871601
O O10 0.500000 0.712422 0.950632
O O11 0.420690 0.705161 0.625514
O O12 0.411714 0.000000 0.693438
O O13 0.000000 0.000000 0.578945
O O14 0.000000 0.263409 0.992070
O O15 0.920213 0.000000 0.993775
O O16 0.850013 0.276124 0.990580
O O17 0.755144 0.500000 0.962079
#
# Coordination Sequence:
#
# PCOD9375586 Si02
#       7
#     8   8   4   8   4   8   8
#     4  10  21  40  63  87 119 162 203 247 303 359
#     4  11  23  39  61  91 119 156 206 252 296 354
#     4  10  22  36  56  89 122 155 196 243 302 364
#     4  11  21  36  58  86 122 159 193 239 302 363
#     4  10  22  40  62  87 120 161 202 247 300 354
#     4  11  23  38  59  89 121 155 199 248 296 352
#     4  10  22  40  62  87 120 160 203 247 303 364
#
# _framework density 20.769739000000001
#
# number of rings (size 3 to 8) (size 9 to 14) (size 15 to 20)
#    0.000    1.500    2.500    2.500    0.000    5.667 
#    1.500    0.000    0.000    0.000    0.000    0.000 
#    0.000    0.000    0.000    0.000    0.000    0.000 
#
# Total GULP energy -134028.428516 kJ/mol
# GULP energy per Si atom -5584.517855 kJ/mol
# Density = 2.072247 g / cm^3
# Si number density = 20.769739 Si / 1000 Ang^3
#
#
#
# Elastic Constant Matrix: (Units=GPa)
#
#
# Indices 1 2 3 4 5 6 
#
# 1 118.0954 1.0946 22.3189 0.0000 0.0000 0.0000
# 2 1.0946 24.3205 2.5525 0.0000 0.0000 0.0000
# 3 22.3189 2.5525 68.8743 0.0000 0.0000 0.0000
# 4 0.0000 0.0000 0.0000 25.4782 0.0000 0.0000
# 5 0.0000 0.0000 0.0000 0.0000 23.9446 0.0000
# 6 0.0000 0.0000 0.0000 0.0000 0.0000 11.7142
#
#
#
# Elastic Compliance Matrix: (Units=1/GPa)
#
#
# Indices 1 2 3 4 5 6 
#
# 1 0.009020 -0.000100 -0.002919 0.000000 0.000000 0.000000
# 2 -0.000100 0.041279 -0.001498 0.000000 0.000000 0.000000
# 3 -0.002919 -0.001498 0.015521 0.000000 0.000000 0.000000
# 4 0.000000 0.000000 0.000000 0.039249 0.000000 0.000000
# 5 0.000000 0.000000 0.000000 0.000000 0.041763 0.000000
# 6 0.000000 0.000000 0.000000 0.000000 0.000000 0.085366
#
#
# Mechanical properties :
#
#
# Convention : Reuss Voigt Hill
#
# Bulk Modulus (GPa) = 17.60956 29.24691 23.42823
# Shear Modulus (GPa) = 19.21885 24.58234 21.90060
#
# Velocity S-wave (km/s) = 3.04522 3.44403 3.25075
# Velocity P-wave (km/s) = 4.56743 5.47058 5.03927
#
# Compressibility (1/GPa) = 0.05678733
#
# Stress axis : x y z
#
# Youngs Moduli (GPa) = 110.85992 24.22525 64.42990
#
# Poissons Ratio (x) = 0.00241 0.18810
# Poissons Ratio (y) = 0.01104 0.09649
# Poissons Ratio (z) = 0.32364 0.03628
#
# Static dielectric constant tensor:
#      x y z
#    x 1.778150 0.000000 0.000000 
#    y 0.000000 1.741490 0.000000 
#    z 0.000000 0.000000 1.721230 
# 
# From -- ./inp_files/16126.got.cif
#   From: 2010.05.17/outbox.cif.g08.bks.cpg/sg44_9_cif.got.tgz:16126.got - 2010.06.03 19:37:08.
