data_PCOD9375671
_publ_section_title
;
Structure prediction by ZEFSAII (Michael W. Deem and Ramdas Pophale) SiO2 
 PCOD9375671
Probable space group: I M M 2
;
_chemical_formula_sum "Si O2"
_cell_formula_units_Z 40
_cell_length_a 16.156627
_cell_length_b 15.439059
_cell_length_c 7.294218
_cell_angle_alpha 90.000000
_cell_angle_beta 90.000000
_cell_angle_gamma 90.000000
_cell_volume 1819.492478
_symmetry_space_group_name_H-M "I M M 2"
_symmetry_group_IT_number 44
_symmetry_cell_setting 'orthorhombic'
loop_
_space_group_symop_operation_xyz
x,y,z
-x,-y,z
-x,y,z
x,-y,z
1/2+x,1/2+y,1/2+z
1/2-x,1/2-y,1/2+z
1/2-x,1/2+y,1/2+z
1/2+x,1/2-y,1/2+z
loop_
_atom_site_type_symbol
_atom_site_label
_atom_site_fract_x
_atom_site_fract_y
_atom_site_fract_z
Si Si1 0.593869 0.906167 0.756260
Si Si2 0.598929 0.723539 0.686957
Si Si3 0.634857 0.905785 0.337188
Si Si4 0.324839 0.400330 0.965296
Si Si5 0.402451 0.278588 0.261200
O O1 0.500000 0.906726 0.829400
O O2 0.633712 0.811341 0.783698
O O3 0.588832 0.905487 0.533062
O O4 0.633654 0.000000 0.802625
O O5 0.500000 0.733724 0.688687
O O6 0.623143 0.715002 0.474816
O O7 0.623060 0.639812 0.799682
O O8 0.730228 0.896563 0.398247
O O9 0.608074 0.823644 0.219902
O O10 0.621844 0.000000 0.250077
O O11 0.344890 0.500000 0.005333
O O12 0.346784 0.339798 0.136845
O O13 0.500000 0.300867 0.240610
#
# Coordination Sequence:
#
# PCOD9375671 Si02
#       5
#     8   8   8   8   8
#     4   8  14  29  55  83 111 145 186 232 287 351
#     4   9  19  36  58  84 116 157 199 242 293 350
#     4   9  19  35  57  87 118 151 191 242 303 355
#     4  11  24  39  58  87 122 159 200 248 300 351
#     4  10  22  39  63  90 117 159 203 244 299 361
#
# _framework density 21.984152999999999
#
# number of rings (size 3 to 8) (size 9 to 14) (size 15 to 20)
#    0.000    2.600    0.000    2.400    5.600    3.600 
#    0.000    3.000    0.000    2.400    0.000    0.000 
#    0.000    0.000    0.000    0.000    0.000    0.000 
#
# Total GULP energy -111589.316781 kJ/mol
# GULP energy per Si atom -5579.465839 kJ/mol
# Density = 2.193412 g / cm^3
# Si number density = 21.984153 Si / 1000 Ang^3
#
#
#
# Elastic Constant Matrix: (Units=GPa)
#
#
# Indices 1 2 3 4 5 6 
#
# 1 25.3849 25.5727 14.6404 0.0000 0.0000 0.0000
# 2 25.5727 133.6329 25.8279 0.0000 0.0000 0.0000
# 3 14.6404 25.8279 74.5203 0.0000 0.0000 0.0000
# 4 0.0000 0.0000 0.0000 -52.1092 0.0000 0.0000
# 5 0.0000 0.0000 0.0000 0.0000 2.2137 0.0000
# 6 0.0000 0.0000 0.0000 0.0000 0.0000 26.5998
#
#
#
# Elastic Compliance Matrix: (Units=1/GPa)
#
#
# Indices 1 2 3 4 5 6 
#
# 1 0.052251 -0.008590 -0.007288 0.000000 0.000000 0.000000
# 2 -0.008590 0.009433 -0.001582 0.000000 0.000000 0.000000
# 3 -0.007288 -0.001582 0.015399 0.000000 0.000000 0.000000
# 4 0.000000 0.000000 0.000000 -0.019190 0.000000 0.000000
# 5 0.000000 0.000000 0.000000 0.000000 0.451739 0.000000
# 6 0.000000 0.000000 0.000000 0.000000 0.000000 0.037594
#
#
# Mechanical properties :
#
#
# Convention : Reuss Voigt Hill
#
# Bulk Modulus (GPa) = 23.71762 40.62446 32.17104
# Shear Modulus (GPa) = 8.38645 6.50733 7.44689
#
# Velocity S-wave (km/s) = 1.95526 1.72233 1.84248
# Velocity P-wave (km/s) = 3.98865 4.74071 4.38085
#
# Compressibility (1/GPa) = 0.04216274
#
# Stress axis : x y z
#
# Youngs Moduli (GPa) = 19.13850 106.01330 64.93877
#
# Poissons Ratio (x) = 0.91070 0.47327
# Poissons Ratio (y) = 0.16441 0.10271
# Poissons Ratio (z) = 0.13948 0.16767
#
# Static dielectric constant tensor:
#      x y z
#    x 1.853480 0.000000 0.000000 
#    y 0.000000 1.884750 0.000000 
#    z 0.000000 0.000000 1.816020 
# 
# From -- ./inp_files/6820.got.cif
#   From: 2010.05.17/outbox.cif.g08.bks.cpg/sg44_4_cif.got.tgz:6820.got - 2010.06.03 19:37:08.
