data_PCOD9375333
_publ_section_title
;
Structure prediction by ZEFSAII (Michael W. Deem and Ramdas Pophale) SiO2 
 PCOD9375333
Probable space group: I M M 2
;
_chemical_formula_sum "Si O2"
_cell_formula_units_Z 48
_cell_length_a 9.024164
_cell_length_b 18.880920
_cell_length_c 15.036356
_cell_angle_alpha 90.000000
_cell_angle_beta 90.000000
_cell_angle_gamma 90.000000
_cell_volume 2561.962278
_symmetry_space_group_name_H-M "I M M 2"
_symmetry_group_IT_number 44
_symmetry_cell_setting 'orthorhombic'
loop_
_space_group_symop_operation_xyz
x,y,z
-x,-y,z
-x,y,z
x,-y,z
1/2+x,1/2+y,1/2+z
1/2-x,1/2-y,1/2+z
1/2-x,1/2+y,1/2+z
1/2+x,1/2-y,1/2+z
loop_
_atom_site_type_symbol
_atom_site_label
_atom_site_fract_x
_atom_site_fract_y
_atom_site_fract_z
Si Si1 0.676532 0.148121 0.693390
Si Si2 0.174450 0.300051 0.699740
Si Si3 0.324218 0.580647 0.360478
Si Si4 0.326167 0.191138 0.990034
Si Si5 0.176691 0.145858 0.505184
Si Si6 0.322811 0.580582 0.818525
O O1 0.500000 0.147881 0.695195
O O2 0.737688 0.227036 0.714411
O O3 0.742746 0.097108 0.768060
O O4 0.736561 0.129714 0.595241
O O5 0.192013 0.319944 0.595695
O O6 0.236684 0.362194 0.760632
O O7 0.000000 0.287692 0.715691
O O8 0.500000 0.588175 0.347796
O O9 0.293028 0.500000 0.389133
O O10 0.267748 0.637173 0.432262
O O11 0.500000 0.182334 0.967445
O O12 0.286810 0.273645 0.974949
O O13 0.206682 0.094925 0.422695
O O14 0.000000 0.145350 0.524959
O O15 0.500000 0.590272 0.805877
O O16 0.284425 0.500000 0.794982
#
# Coordination Sequence:
#
# PCOD9375333 Si02
#       6
#     8   8   8   8   8   8
#     4  11  22  37  60  86 111 143 185 234 282 329
#     4  10  21  38  60  84 112 148 188 231 278 329
#     4  11  24  39  56  81 114 151 187 226 276 333
#     4   9  19  36  58  82 108 143 188 234 278 326
#     4   9  19  37  58  82 113 148 186 228 277 331
#     4  10  21  36  56  84 118 154 188 226 275 329
#
# _framework density 18.73564
#
# number of rings (size 3 to 8) (size 9 to 14) (size 15 to 20)
#    0.000    2.000    0.000    4.500    0.000    8.333 
#    0.000    5.000    0.000    0.000    0.000    0.000 
#    0.000    0.000    0.000    0.000    0.000    0.000 
#
# Total GULP energy -134103.197331 kJ/mol
# GULP energy per Si atom -5587.633222 kJ/mol
# Density = 1.869300 g / cm^3
# Si number density = 18.735640 Si / 1000 Ang^3
#
#
#
# Elastic Constant Matrix: (Units=GPa)
#
#
# Indices 1 2 3 4 5 6 
#
# 1 61.7332 16.4344 19.6199 0.0000 0.0000 0.0000
# 2 16.4344 20.0132 11.1600 0.0000 0.0000 0.0000
# 3 19.6199 11.1600 21.5797 0.0000 0.0000 0.0000
# 4 0.0000 0.0000 0.0000 -7.4850 0.0000 0.0000
# 5 0.0000 0.0000 0.0000 0.0000 38.8026 0.0000
# 6 0.0000 0.0000 0.0000 0.0000 0.0000 27.3651
#
#
#
# Elastic Compliance Matrix: (Units=1/GPa)
#
#
# Indices 1 2 3 4 5 6 
#
# 1 0.024320 -0.010737 -0.016558 0.000000 0.000000 0.000000
# 2 -0.010737 0.074956 -0.029002 0.000000 0.000000 0.000000
# 3 -0.016558 -0.029002 0.076393 0.000000 0.000000 0.000000
# 4 0.000000 0.000000 0.000000 -0.133600 0.000000 0.000000
# 5 0.000000 0.000000 0.000000 0.000000 0.025771 0.000000
# 6 0.000000 0.000000 0.000000 0.000000 0.000000 0.036543
#
#
# Mechanical properties :
#
#
# Convention : Reuss Voigt Hill
#
# Bulk Modulus (GPa) = 15.85432 21.97275 18.91353
# Shear Modulus (GPa) = 21.00820 15.47733 18.24276
#
# Velocity S-wave (km/s) = 3.35221 2.87730 3.12379
# Velocity P-wave (km/s) = 4.84392 4.77406 4.80912
#
# Compressibility (1/GPa) = 0.06307429
#
# Stress axis : x y z
#
# Youngs Moduli (GPa) = 41.11885 13.34110 13.09027
#
# Poissons Ratio (x) = 0.14325 0.21675
# Poissons Ratio (y) = 0.44151 0.37964
# Poissons Ratio (z) = 0.68086 0.38691
#
# Static dielectric constant tensor:
#      x y z
#    x 1.626010 0.000000 0.000000 
#    y 0.000000 1.631390 0.000000 
#    z 0.000000 0.000000 1.634530 
# 
# From -- ./inp_files/16081.got.cif
#   From: 2010.05.17/outbox.cif.g08.bks.cpg/sg44_9_cif.got.tgz:16081.got - 2010.06.03 19:37:08.
