data_PCOD9375212
_publ_section_title
;
Structure prediction by ZEFSAII (Michael W. Deem and Ramdas Pophale) SiO2 
 PCOD9375212
Probable space group: I M M 2
;
_chemical_formula_sum "Si O2"
_cell_formula_units_Z 58
_cell_length_a 22.838516
_cell_length_b 7.670625
_cell_length_c 15.400460
_cell_angle_alpha 90.000000
_cell_angle_beta 90.000000
_cell_angle_gamma 90.000000
_cell_volume 2697.940239
_symmetry_space_group_name_H-M "I M M 2"
_symmetry_group_IT_number 44
_symmetry_cell_setting 'orthorhombic'
loop_
_space_group_symop_operation_xyz
x,y,z
-x,-y,z
-x,y,z
x,-y,z
1/2+x,1/2+y,1/2+z
1/2-x,1/2-y,1/2+z
1/2-x,1/2+y,1/2+z
1/2+x,1/2-y,1/2+z
loop_
_atom_site_type_symbol
_atom_site_label
_atom_site_fract_x
_atom_site_fract_y
_atom_site_fract_z
Si Si1 0.500000 0.500000 0.845201
Si Si2 0.596024 0.795481 0.800118
Si Si3 0.434455 0.794799 0.253858
Si Si4 0.227502 0.201488 0.328798
Si Si5 0.930215 0.198104 0.947779
Si Si6 0.184250 0.715200 0.677002
Si Si7 0.364311 0.803652 0.611365
Si Si8 0.751150 0.198163 0.015859
O O1 0.551652 0.656148 0.841099
O O2 0.663139 0.785408 0.834251
O O3 0.603656 0.742670 0.698083
O O4 0.577136 0.000000 0.805167
O O5 0.500000 0.719378 0.243209
O O6 0.415928 0.775635 0.354293
O O7 0.380896 0.723004 0.198972
O O8 0.438618 0.000000 0.234913
O O9 0.269865 0.270710 0.252289
O O10 0.258024 0.211932 0.423122
O O11 0.216795 0.000000 0.307345
O O12 0.907237 0.300473 0.029831
O O13 0.000000 0.193220 0.952163
O O14 0.907448 0.000000 0.952013
O O15 0.184747 0.500000 0.677768
O O16 0.203002 0.773096 0.581282
O O17 0.308550 0.701066 0.576302
O O18 0.344091 0.000000 0.629743
O O19 0.736094 0.000000 0.994586
#
# Coordination Sequence:
#
# PCOD9375212 Si02
#       8
#     2   8   8   8   8   8   8   8
#     4  12  26  44  72  94 132 188 218 288 340 406
#     4  11  25  43  67  97 131 175 230 278 340 409
#     4   9  17  33  56  82 116 158 204 255 313 379
#     4  11  21  40  65  92 130 173 217 282 341 393
#     4  10  21  33  51  79 115 156 197 242 307 383
#     4   9  19  35  59  87 120 165 212 258 326 397
#     4  11  23  37  55  86 123 160 210 265 321 398
#     4  11  22  37  61  90 123 163 214 270 334 397
#
# _framework density 21.497882000000001
#
# number of rings (size 3 to 8) (size 9 to 14) (size 15 to 20)
#    0.000    1.655    2.069    2.690    2.897    1.931 
#    0.000    2.069    1.517    0.000    0.000    0.000 
#    0.000    0.000    0.000    0.000    0.000    0.000 
#
# Total GULP energy -161604.777248 kJ/mol
# GULP energy per Si atom -5572.578526 kJ/mol
# Density = 2.144895 g / cm^3
# Si number density = 21.497882 Si / 1000 Ang^3
#
#
#
# Elastic Constant Matrix: (Units=GPa)
#
#
# Indices 1 2 3 4 5 6 
#
# 1 60.3790 20.2375 0.5736 0.0000 0.0000 0.0000
# 2 20.2375 78.8094 -1.0531 0.0000 0.0000 0.0000
# 3 0.5736 -1.0531 47.9019 0.0000 0.0000 0.0000
# 4 0.0000 0.0000 0.0000 12.8346 0.0000 0.0000
# 5 0.0000 0.0000 0.0000 0.0000 29.9218 0.0000
# 6 0.0000 0.0000 0.0000 0.0000 0.0000 4.8791
#
#
#
# Elastic Compliance Matrix: (Units=1/GPa)
#
#
# Indices 1 2 3 4 5 6 
#
# 1 0.018127 -0.004659 -0.000320 0.000000 0.000000 0.000000
# 2 -0.004659 0.013890 0.000361 0.000000 0.000000 0.000000
# 3 -0.000320 0.000361 0.020888 0.000000 0.000000 0.000000
# 4 0.000000 0.000000 0.000000 0.077914 0.000000 0.000000
# 5 0.000000 0.000000 0.000000 0.000000 0.033420 0.000000
# 6 0.000000 0.000000 0.000000 0.000000 0.000000 0.204956
#
#
# Mechanical properties :
#
#
# Convention : Reuss Voigt Hill
#
# Bulk Modulus (GPa) = 22.89914 25.17850 24.03882
# Shear Modulus (GPa) = 12.72309 20.68259 16.70284
#
# Velocity S-wave (km/s) = 2.43539 3.10510 2.79041
# Velocity P-wave (km/s) = 4.31082 4.95914 4.64630
#
# Compressibility (1/GPa) = 0.04366975
#
# Stress axis : x y z
#
# Youngs Moduli (GPa) = 55.16733 71.99391 47.87490
#
# Poissons Ratio (x) = 0.33542 0.01530
# Poissons Ratio (y) = 0.25703 -0.01729
# Poissons Ratio (z) = 0.01763 -0.02600
#
# Static dielectric constant tensor:
#      x y z
#    x 1.827280 0.000000 0.000000 
#    y 0.000000 1.811650 0.000000 
#    z 0.000000 0.000000 1.774790 
# 
# From -- ./inp_files/16721.got.cif
#   From: 2010.05.17/outbox.cif.g08.bks.cpg/sg44_9_cif.got.tgz:16721.got - 2010.06.03 19:37:08.
