data_PCOD9375355
_publ_section_title
;
Structure prediction by ZEFSAII (Michael W. Deem and Ramdas Pophale) SiO2 
 PCOD9375355
Probable space group: I M M 2
;
_chemical_formula_sum "Si O2"
_cell_formula_units_Z 64
_cell_length_a 14.387515
_cell_length_b 7.807086
_cell_length_c 24.769838
_cell_angle_alpha 90.000000
_cell_angle_beta 90.000000
_cell_angle_gamma 90.000000
_cell_volume 2782.261326
_symmetry_space_group_name_H-M "I M M 2"
_symmetry_group_IT_number 44
_symmetry_cell_setting 'orthorhombic'
loop_
_space_group_symop_operation_xyz
x,y,z
-x,-y,z
-x,y,z
x,-y,z
1/2+x,1/2+y,1/2+z
1/2-x,1/2-y,1/2+z
1/2-x,1/2+y,1/2+z
1/2+x,1/2-y,1/2+z
loop_
_atom_site_type_symbol
_atom_site_label
_atom_site_fract_x
_atom_site_fract_y
_atom_site_fract_z
Si Si1 0.398041 0.206053 0.150180
Si Si2 0.199991 0.792914 0.546331
Si Si3 0.396250 0.202133 0.816862
Si Si4 0.396496 0.805393 0.560175
Si Si5 0.744398 0.807010 0.233750
Si Si6 0.889608 0.806632 0.942302
Si Si7 0.606923 0.295841 0.937093
Si Si8 0.108993 0.792239 0.825600
O O1 0.500000 0.269857 0.167665
O O2 0.380973 0.246201 0.087726
O O3 0.310733 0.278078 0.184101
O O4 0.397965 0.000000 0.157609
O O5 0.296699 0.722989 0.572756
O O6 0.172548 0.732277 0.485969
O O7 0.209282 0.000000 0.544962
O O8 0.500000 0.275171 0.809318
O O9 0.333003 0.233516 0.764746
O O10 0.361620 0.264402 0.875549
O O11 0.402249 0.000000 0.822894
O O12 0.500000 0.728690 0.570640
O O13 0.383762 0.807092 0.495067
O O14 0.399520 0.000000 0.581037
O O15 0.666245 0.800461 0.280069
O O16 0.769226 0.000000 0.218291
O O17 0.855280 0.740522 0.885082
O O18 0.000000 0.823876 0.932758
O O19 0.855173 0.000000 0.953190
O O20 0.500000 0.229529 0.941862
O O21 0.602541 0.500000 0.944270
O O22 0.000000 0.755219 0.819559
O O23 0.121253 0.000000 0.821953
#
# Coordination Sequence:
#
# PCOD9375355 Si02
#       8
#     8   8   8   8   8   8   8   8
#     4  10  23  43  63  86 117 150 190 242 296 352
#     4  10  21  36  58  87 117 154 201 245 292 348
#     4  10  22  40  61  87 119 154 196 245 296 354
#     4   9  18  32  49  74 112 152 189 231 277 329
#     4  11  23  38  59  84 114 152 194 240 295 355
#     4   8  15  28  45  68 102 142 181 222 269 322
#     4   9  18  34  56  84 118 153 192 242 299 356
#     4   9  18  32  50  77 113 149 188 234 283 340
#
# _framework density 23.002872
#
# number of rings (size 3 to 8) (size 9 to 14) (size 15 to 20)
#    0.000    2.500    0.000    2.250    1.750    4.750 
#    0.000    3.125    0.000    2.250    0.000    0.000 
#    0.000    0.000    0.000    0.000    0.000    0.000 
#
# Total GULP energy -178385.466786 kJ/mol
# GULP energy per Si atom -5574.545837 kJ/mol
# Density = 2.295052 g / cm^3
# Si number density = 23.002872 Si / 1000 Ang^3
#
#
#
# Elastic Constant Matrix: (Units=GPa)
#
#
# Indices 1 2 3 4 5 6 
#
# 1 138.5071 7.2922 32.8136 0.0000 0.0000 0.0000
# 2 7.2922 33.2505 -1.8719 0.0000 0.0000 0.0000
# 3 32.8136 -1.8719 74.3163 0.0000 0.0000 0.0000
# 4 0.0000 0.0000 0.0000 15.1295 0.0000 0.0000
# 5 0.0000 0.0000 0.0000 0.0000 29.7770 0.0000
# 6 0.0000 0.0000 0.0000 0.0000 0.0000 16.6474
#
#
#
# Elastic Compliance Matrix: (Units=1/GPa)
#
#
# Indices 1 2 3 4 5 6 
#
# 1 0.008194 -0.002004 -0.003669 0.000000 0.000000 0.000000
# 2 -0.002004 0.030607 0.001656 0.000000 0.000000 0.000000
# 3 -0.003669 0.001656 0.015118 0.000000 0.000000 0.000000
# 4 0.000000 0.000000 0.000000 0.066096 0.000000 0.000000
# 5 0.000000 0.000000 0.000000 0.000000 0.033583 0.000000
# 6 0.000000 0.000000 0.000000 0.000000 0.000000 0.060070
#
#
# Mechanical properties :
#
#
# Convention : Reuss Voigt Hill
#
# Bulk Modulus (GPa) = 21.79310 35.83796 28.81553
# Shear Modulus (GPa) = 21.09736 26.16678 23.63207
#
# Velocity S-wave (km/s) = 3.03175 3.37641 3.20871
# Velocity P-wave (km/s) = 4.66369 5.55102 5.12659
#
# Compressibility (1/GPa) = 0.04588609
#
# Stress axis : x y z
#
# Youngs Moduli (GPa) = 122.03341 32.67185 66.14821
#
# Poissons Ratio (x) = 0.06546 0.24268
# Poissons Ratio (y) = 0.24452 -0.10952
# Poissons Ratio (z) = 0.44770 -0.05409
#
# Static dielectric constant tensor:
#      x y z
#    x 2.124200 0.000000 0.000000 
#    y 0.000000 1.839160 0.000000 
#    z 0.000000 0.000000 1.859460 
# 
# From -- ./inp_files/25751.got.cif
#   From: 2010.05.17/outbox.cif.g08.bks.cpg/sg44_13_cif.got.tgz:25751.got - 2010.06.03 19:37:08.
