data_PCOD9375469
_publ_section_title
;
Structure prediction by ZEFSAII (Michael W. Deem and Ramdas Pophale) SiO2 
 PCOD9375469
Probable space group: I M M 2
;
_chemical_formula_sum "Si O2"
_cell_formula_units_Z 48
_cell_length_a 7.803825
_cell_length_b 17.435695
_cell_length_c 17.249265
_cell_angle_alpha 90.000000
_cell_angle_beta 90.000000
_cell_angle_gamma 90.000000
_cell_volume 2347.023183
_symmetry_space_group_name_H-M "I M M 2"
_symmetry_group_IT_number 44
_symmetry_cell_setting 'orthorhombic'
loop_
_space_group_symop_operation_xyz
x,y,z
-x,-y,z
-x,y,z
x,-y,z
1/2+x,1/2+y,1/2+z
1/2-x,1/2-y,1/2+z
1/2-x,1/2+y,1/2+z
1/2+x,1/2-y,1/2+z
loop_
_atom_site_type_symbol
_atom_site_label
_atom_site_fract_x
_atom_site_fract_y
_atom_site_fract_z
Si Si1 0.207846 0.316926 0.039690
Si Si2 0.302262 0.500000 0.290270
Si Si3 0.202859 0.143188 0.062109
Si Si4 0.296606 0.347147 0.212579
Si Si5 0.790337 0.411960 0.889852
Si Si6 0.691398 0.000000 0.960221
Si Si7 0.292167 0.174714 0.235097
O O1 0.265741 0.228129 0.038099
O O2 0.268600 0.353111 0.120476
O O3 0.000000 0.316325 0.041211
O O4 0.264684 0.364011 0.964899
O O5 0.500000 0.500000 0.262553
O O6 0.224940 0.421072 0.256988
O O7 0.303538 0.500000 0.382993
O O8 0.236712 0.137436 0.153936
O O9 0.000000 0.140481 0.048652
O O10 0.281240 0.074579 0.013085
O O11 0.500000 0.343721 0.228630
O O12 0.228588 0.262975 0.236122
O O13 0.734998 0.500000 0.893683
O O14 0.735017 0.371556 0.810386
O O15 0.000000 0.411515 0.889892
O O16 0.500000 0.000000 0.929299
O O17 0.500000 0.175819 0.234860
#
# Coordination Sequence:
#
# PCOD9375469 Si02
#       7
#     8   4   8   8   8   4   8
#     4   9  19  35  58  83 111 149 190 230 277 332
#     4  10  22  38  58  83 112 151 190 231 286 341
#     4  10  21  38  59  82 112 147 185 230 285 341
#     4   9  19  35  56  80 110 147 186 230 284 338
#     4   9  18  31  52  83 112 144 186 228 271 323
#     4  12  26  40  58  85 112 143 188 237 286 339
#     4   9  18  34  57  81 109 146 189 233 277 332
#
# _framework density 20.451438
#
# number of rings (size 3 to 8) (size 9 to 14) (size 15 to 20)
#    0.000    2.500    0.000    1.250    4.667    1.333 
#    0.000    0.833    0.000    1.000    0.000    0.000 
#    0.000    0.000    0.000    0.000    0.000    0.000 
#
# Total GULP energy -133985.397995 kJ/mol
# GULP energy per Si atom -5582.724916 kJ/mol
# Density = 2.040489 g / cm^3
# Si number density = 20.451438 Si / 1000 Ang^3
#
#
#
# Elastic Constant Matrix: (Units=GPa)
#
#
# Indices 1 2 3 4 5 6 
#
# 1 27.5308 -2.3437 -16.6808 0.0000 0.0000 0.0000
# 2 -2.3437 127.2460 99.5460 0.0000 0.0000 0.0000
# 3 -16.6808 99.5460 125.9305 0.0000 0.0000 0.0000
# 4 0.0000 0.0000 0.0000 30.5495 0.0000 0.0000
# 5 0.0000 0.0000 0.0000 0.0000 25.0849 0.0000
# 6 0.0000 0.0000 0.0000 0.0000 0.0000 3.1563
#
#
#
# Elastic Compliance Matrix: (Units=1/GPa)
#
#
# Indices 1 2 3 4 5 6 
#
# 1 0.043668 -0.009751 0.013492 0.000000 0.000000 0.000000
# 2 -0.009751 0.022772 -0.019292 0.000000 0.000000 0.000000
# 3 0.013492 -0.019292 0.024978 0.000000 0.000000 0.000000
# 4 0.000000 0.000000 0.000000 0.032734 0.000000 0.000000
# 5 0.000000 0.000000 0.000000 0.000000 0.039865 0.000000
# 6 0.000000 0.000000 0.000000 0.000000 0.000000 0.316827
#
#
# Mechanical properties :
#
#
# Convention : Reuss Voigt Hill
#
# Bulk Modulus (GPa) = 16.57941 49.08335 32.83138
# Shear Modulus (GPa) = 9.39761 25.10386 17.25074
#
# Velocity S-wave (km/s) = 2.14594 3.50735 2.90745
# Velocity P-wave (km/s) = 3.77682 6.36035 5.23061
#
# Compressibility (1/GPa) = 0.06031579
#
# Stress axis : x y z
#
# Youngs Moduli (GPa) = 22.90026 43.91406 40.03482
#
# Poissons Ratio (x) = 0.42819 -0.54015
# Poissons Ratio (y) = 0.22329 0.77236
# Poissons Ratio (z) = -0.30897 0.84720
#
# Static dielectric constant tensor:
#      x y z
#    x 1.745490 0.000000 0.000000 
#    y 0.000000 1.728540 0.000000 
#    z 0.000000 0.000000 1.669790 
# 
# From -- ./inp_files/16182.got.cif
#   From: 2010.05.17/outbox.cif.g08.bks.cpg/sg44_9_cif.got.tgz:16182.got - 2010.06.03 19:37:08.
