data_PCOD9375676
_publ_section_title
;
Structure prediction by ZEFSAII (Michael W. Deem and Ramdas Pophale) SiO2 
 PCOD9375676
Probable space group: I M M 2
;
_chemical_formula_sum "Si O2"
_cell_formula_units_Z 40
_cell_length_a 8.956533
_cell_length_b 7.627565
_cell_length_c 30.762898
_cell_angle_alpha 90.000000
_cell_angle_beta 90.000000
_cell_angle_gamma 90.000000
_cell_volume 2101.614679
_symmetry_space_group_name_H-M "I M M 2"
_symmetry_group_IT_number 44
_symmetry_cell_setting 'orthorhombic'
loop_
_space_group_symop_operation_xyz
x,y,z
-x,-y,z
-x,y,z
x,-y,z
1/2+x,1/2+y,1/2+z
1/2-x,1/2-y,1/2+z
1/2-x,1/2+y,1/2+z
1/2+x,1/2-y,1/2+z
loop_
_atom_site_type_symbol
_atom_site_label
_atom_site_fract_x
_atom_site_fract_y
_atom_site_fract_z
Si Si1 0.177706 0.208311 0.107010
Si Si2 0.318242 0.500000 0.946852
Si Si3 0.679725 0.500000 0.047138
Si Si4 0.670132 0.290025 0.291729
Si Si5 0.179680 0.296722 0.380613
Si Si6 0.670391 0.209533 0.196374
O O1 0.258002 0.329151 0.071730
O O2 0.235783 0.265960 0.154698
O O3 0.000000 0.230550 0.104500
O O4 0.210893 0.000000 0.101436
O O5 0.500000 0.500000 0.947108
O O6 0.270631 0.329327 0.919533
O O7 0.271239 0.500000 0.996804
O O8 0.500000 0.500000 0.049081
O O9 0.500000 0.221263 0.292593
O O10 0.664304 0.500000 0.294610
O O11 0.758139 0.231236 0.334294
O O12 0.734064 0.249773 0.244084
O O13 0.224822 0.500000 0.387259
O O14 0.000000 0.292608 0.378641
O O15 0.500000 0.280021 0.194283
O O16 0.661652 0.000000 0.193646
#
# Coordination Sequence:
#
# PCOD9375676 Si02
#       6
#     8   4   4   8   8   8
#     4  10  22  40  59  83 118 153 189 238 293 350
#     4   9  20  37  57  83 107 137 185 235 280 335
#     4  11  23  39  63  89 113 147 197 247 296 349
#     4   9  18  31  48  75 109 143 181 223 270 325
#     4   9  18  34  54  76 106 141 178 223 273 326
#     4   9  18  32  51  77 108 145 189 230 274 332
#
# _framework density 19.032986999999999
#
# number of rings (size 3 to 8) (size 9 to 14) (size 15 to 20)
#    0.000    2.600    0.000    0.900    2.800    2.800 
#    0.000    4.000    0.000    2.400    0.000    0.000 
#    0.000    0.000    0.000    0.000    0.000    0.000 
#
# Total GULP energy -111549.006634 kJ/mol
# GULP energy per Si atom -5577.450332 kJ/mol
# Density = 1.898967 g / cm^3
# Si number density = 19.032987 Si / 1000 Ang^3
#
#
#
# Elastic Constant Matrix: (Units=GPa)
#
#
# Indices 1 2 3 4 5 6 
#
# 1 41.5441 37.1197 55.6745 0.0000 0.0000 0.0000
# 2 37.1197 85.3041 78.6109 0.0000 0.0000 0.0000
# 3 55.6745 78.6109 217.1194 0.0000 0.0000 0.0000
# 4 0.0000 0.0000 0.0000 32.7204 0.0000 0.0000
# 5 0.0000 0.0000 0.0000 0.0000 28.5161 0.0000
# 6 0.0000 0.0000 0.0000 0.0000 0.0000 18.5240
#
#
#
# Elastic Compliance Matrix: (Units=1/GPa)
#
#
# Indices 1 2 3 4 5 6 
#
# 1 0.045032 -0.013438 -0.006682 0.000000 0.000000 0.000000
# 2 -0.013438 0.021603 -0.004376 0.000000 0.000000 0.000000
# 3 -0.006682 -0.004376 0.007903 0.000000 0.000000 0.000000
# 4 0.000000 0.000000 0.000000 0.030562 0.000000 0.000000
# 5 0.000000 0.000000 0.000000 0.000000 0.035068 0.000000
# 6 0.000000 0.000000 0.000000 0.000000 0.000000 0.053984
#
#
# Mechanical properties :
#
#
# Convention : Reuss Voigt Hill
#
# Bulk Modulus (GPa) = 39.14326 76.30865 57.72596
# Shear Modulus (GPa) = 19.86814 27.45627 23.66221
#
# Velocity S-wave (km/s) = 3.23442 3.80223 3.52976
# Velocity P-wave (km/s) = 5.87871 7.71076 6.85620
#
# Compressibility (1/GPa) = 0.02554718
#
# Stress axis : x y z
#
# Youngs Moduli (GPa) = 22.20625 46.29071 126.52686
#
# Poissons Ratio (x) = 0.62205 0.84545
# Poissons Ratio (y) = 0.29841 0.55364
# Poissons Ratio (z) = 0.14838 0.20255
#
# Static dielectric constant tensor:
#      x y z
#    x 1.655820 0.000000 0.000000 
#    y 0.000000 1.679850 0.000000 
#    z 0.000000 0.000000 1.649410 
# 
# From -- ./inp_files/25930.got.cif
#   From: 2010.05.17/outbox.cif.g08.bks.cpg/sg44_13_cif.got.tgz:25930.got - 2010.06.03 19:37:08.
