data_PCOD9375005
_publ_section_title
;
Structure prediction by ZEFSAII (Michael W. Deem and Ramdas Pophale) SiO2 
 PCOD9375005
Probable space group: I M M 2
;
_chemical_formula_sum "Si O2"
_cell_formula_units_Z 48
_cell_length_a 14.931587
_cell_length_b 8.439799
_cell_length_c 20.998519
_cell_angle_alpha 90.000000
_cell_angle_beta 90.000000
_cell_angle_gamma 90.000000
_cell_volume 2646.224819
_symmetry_space_group_name_H-M "I M M 2"
_symmetry_group_IT_number 44
_symmetry_cell_setting 'orthorhombic'
loop_
_space_group_symop_operation_xyz
x,y,z
-x,-y,z
-x,y,z
x,-y,z
1/2+x,1/2+y,1/2+z
1/2-x,1/2-y,1/2+z
1/2-x,1/2+y,1/2+z
1/2+x,1/2-y,1/2+z
loop_
_atom_site_type_symbol
_atom_site_label
_atom_site_fract_x
_atom_site_fract_y
_atom_site_fract_z
Si Si1 0.804882 0.807989 0.217220
Si Si2 0.311284 0.810343 0.337666
Si Si3 0.500000 0.306873 0.529897
Si Si4 0.691950 0.689757 0.477159
Si Si5 0.000000 0.193025 0.178038
Si Si6 0.694242 0.309823 0.095116
Si Si7 0.500000 0.692917 0.138831
Si Si8 0.500000 0.690164 0.286918
O O1 0.755251 0.755449 0.281462
O O2 0.750938 0.747928 0.155881
O O3 0.907941 0.755650 0.210962
O O4 0.803552 0.000000 0.215620
O O5 0.284854 0.750205 0.407170
O O6 0.410532 0.750439 0.320645
O O7 0.311530 0.000000 0.337723
O O8 0.500000 0.500000 0.529151
O O9 0.408574 0.254317 0.496135
O O10 0.500000 0.257800 0.603892
O O11 0.690560 0.500000 0.477055
O O12 0.759793 0.746892 0.531351
O O13 0.000000 0.000000 0.178053
O O14 0.695237 0.500000 0.094037
O O15 0.591717 0.255590 0.105343
O O16 0.500000 0.500000 0.139146
O O17 0.500000 0.742887 0.212921
O O18 0.500000 0.500000 0.288416
#
# Coordination Sequence:
#
# PCOD9375005 Si02
#       8
#     8   8   4   8   4   8   4   4
#     4  10  20  36  59  83 111 147 189 233 282 340
#     4  11  23  37  55  86 119 151 193 242 287 338
#     4   9  17  31  56  82 108 142 184 222 269 343
#     4  11  22  38  58  83 115 156 192 229 288 350
#     4   9  16  33  58  83 109 140 184 228 273 336
#     4  11  21  37  59  84 114 148 191 239 283 339
#     4   9  20  36  57  84 114 150 190 232 289 350
#     4  11  20  36  59  85 117 156 192 232 295 359
#
# _framework density 18.139047000000001
#
# number of rings (size 3 to 8) (size 9 to 14) (size 15 to 20)
#    0.000    1.667    3.333    2.250    0.000    1.333 
#    0.000    5.000    0.000    3.000    0.000    0.000 
#    0.000    0.000    0.000    0.000    0.000    0.000 
#
# Total GULP energy -134058.259026 kJ/mol
# GULP energy per Si atom -5585.760793 kJ/mol
# Density = 1.809776 g / cm^3
# Si number density = 18.139047 Si / 1000 Ang^3
#
#
#
# Elastic Constant Matrix: (Units=GPa)
#
#
# Indices 1 2 3 4 5 6 
#
# 1 159.1172 26.0568 96.0003 0.0000 0.0000 0.0000
# 2 26.0568 28.8946 30.4812 0.0000 0.0000 0.0000
# 3 96.0003 30.4812 185.1356 0.0000 0.0000 0.0000
# 4 0.0000 0.0000 0.0000 30.5228 0.0000 0.0000
# 5 0.0000 0.0000 0.0000 0.0000 47.0313 0.0000
# 6 0.0000 0.0000 0.0000 0.0000 0.0000 0.4424
#
#
#
# Elastic Compliance Matrix: (Units=1/GPa)
#
#
# Indices 1 2 3 4 5 6 
#
# 1 0.009530 -0.004091 -0.004268 0.000000 0.000000 0.000000
# 2 -0.004091 0.043640 -0.005063 0.000000 0.000000 0.000000
# 3 -0.004268 -0.005063 0.008448 0.000000 0.000000 0.000000
# 4 0.000000 0.000000 0.000000 0.032762 0.000000 0.000000
# 5 0.000000 0.000000 0.000000 0.000000 0.021262 0.000000
# 6 0.000000 0.000000 0.000000 0.000000 0.000000 2.260467
#
#
# Mechanical properties :
#
#
# Convention : Reuss Voigt Hill
#
# Bulk Modulus (GPa) = 28.75880 75.35822 52.05851
# Shear Modulus (GPa) = 2.07078 30.30655 16.18867
#
# Velocity S-wave (km/s) = 1.06962 4.09197 2.99068
# Velocity P-wave (km/s) = 4.17307 7.99753 6.37868
#
# Compressibility (1/GPa) = 0.03477197
#
# Stress axis : x y z
#
# Youngs Moduli (GPa) = 104.93590 22.91500 118.36909
#
# Poissons Ratio (x) = 0.09376 0.50518
# Poissons Ratio (y) = 0.42934 0.59934
# Poissons Ratio (z) = 0.44785 0.11603
#
# Static dielectric constant tensor:
#      x y z
#    x 1.616820 0.000000 0.000000 
#    y 0.000000 1.623520 0.000000 
#    z 0.000000 0.000000 1.596050 
# 
# From -- ./inp_files/21753.got.cif
#   From: 2010.05.17/outbox.cif.g08.bks.cpg/sg44_11_cif.got.tgz:21753.got - 2010.06.03 19:37:08.
