data_PCOD9375741
_publ_section_title
;
Structure prediction by ZEFSAII (Michael W. Deem and Ramdas Pophale) SiO2 
 PCOD9375741
Probable space group: I M M 2
;
_chemical_formula_sum "Si O2"
_cell_formula_units_Z 56
_cell_length_a 21.947708
_cell_length_b 17.457963
_cell_length_c 7.619117
_cell_angle_alpha 90.000000
_cell_angle_beta 90.000000
_cell_angle_gamma 90.000000
_cell_volume 2919.358197
_symmetry_space_group_name_H-M "I M M 2"
_symmetry_group_IT_number 44
_symmetry_cell_setting 'orthorhombic'
loop_
_space_group_symop_operation_xyz
x,y,z
-x,-y,z
-x,y,z
x,-y,z
1/2+x,1/2+y,1/2+z
1/2-x,1/2-y,1/2+z
1/2-x,1/2+y,1/2+z
1/2+x,1/2-y,1/2+z
loop_
_atom_site_type_symbol
_atom_site_label
_atom_site_fract_x
_atom_site_fract_y
_atom_site_fract_z
Si Si1 0.147327 0.918360 0.463760
Si Si2 0.211789 0.414801 0.881969
Si Si3 0.854057 0.687789 0.141295
Si Si4 0.745115 0.805908 0.087837
Si Si5 0.071517 0.778470 0.868419
Si Si6 0.335254 0.411702 0.383021
Si Si7 0.622373 0.742868 0.981257
O O1 0.214826 0.918610 0.385936
O O2 0.160661 0.914725 0.672186
O O3 0.111214 0.842891 0.408128
O O4 0.117248 0.000000 0.423896
O O5 0.189373 0.500000 0.838726
O O6 0.205565 0.350804 0.732981
O O7 0.180842 0.385675 0.062022
O O8 0.801558 0.753525 0.145467
O O9 0.885222 0.692274 0.332817
O O10 0.903147 0.713593 0.997721
O O11 0.775275 0.867417 0.954518
O O12 0.694943 0.747449 0.016797
O O13 0.107978 0.855822 0.923402
O O14 0.088413 0.755422 0.667416
O O15 0.000000 0.789482 0.882789
O O16 0.337474 0.500000 0.447514
#
# Coordination Sequence:
#
# PCOD9375741 Si02
#       7
#     8   8   8   8   8   8   8
#     4   9  17  29  46  77 117 151 182 225 282 344
#     4  11  20  31  51  84 122 150 177 226 293 360
#     4  11  20  35  57  82 112 150 188 241 292 347
#     4  11  18  31  53  86 119 148 186 231 297 356
#     4  10  23  39  56  82 113 155 208 245 280 339
#     4   9  19  33  53  81 116 157 192 233 288 346
#     4  11  20  34  58  81 113 153 192 241 287 346
#
# _framework density 19.182300000000001
#
# number of rings (size 3 to 8) (size 9 to 14) (size 15 to 20)
#    0.000    1.714    4.286    1.286    2.000    0.857 
#    0.000    0.714    0.000    0.429    0.000    4.000 
#    0.000    0.000    0.000    0.000    0.000    0.000 
#
# Total GULP energy -155925.930803 kJ/mol
# GULP energy per Si atom -5568.783243 kJ/mol
# Density = 1.913864 g / cm^3
# Si number density = 19.182300 Si / 1000 Ang^3
#
#
#
# Elastic Constant Matrix: (Units=GPa)
#
#
# Indices 1 2 3 4 5 6 
#
# 1 55.9528 7.5709 3.9409 0.0000 0.0000 0.0000
# 2 7.5709 63.2709 6.8777 0.0000 0.0000 0.0000
# 3 3.9409 6.8777 46.8192 0.0000 0.0000 0.0000
# 4 0.0000 0.0000 0.0000 21.1107 0.0000 0.0000
# 5 0.0000 0.0000 0.0000 0.0000 13.1504 0.0000
# 6 0.0000 0.0000 0.0000 0.0000 0.0000 11.1455
#
#
#
# Elastic Compliance Matrix: (Units=1/GPa)
#
#
# Indices 1 2 3 4 5 6 
#
# 1 0.018236 -0.002048 -0.001234 0.000000 0.000000 0.000000
# 2 -0.002048 0.016292 -0.002221 0.000000 0.000000 0.000000
# 3 -0.001234 -0.002221 0.021789 0.000000 0.000000 0.000000
# 4 0.000000 0.000000 0.000000 0.047369 0.000000 0.000000
# 5 0.000000 0.000000 0.000000 0.000000 0.076043 0.000000
# 6 0.000000 0.000000 0.000000 0.000000 0.000000 0.089723
#
#
# Mechanical properties :
#
#
# Convention : Reuss Voigt Hill
#
# Bulk Modulus (GPa) = 22.06985 22.53579 22.30282
# Shear Modulus (GPa) = 16.91698 18.92488 17.92093
#
# Velocity S-wave (km/s) = 2.97291 3.14439 3.05985
# Velocity P-wave (km/s) = 4.82852 4.99567 4.91280
#
# Compressibility (1/GPa) = 0.04531069
#
# Stress axis : x y z
#
# Youngs Moduli (GPa) = 54.83589 61.38161 45.89499
#
# Poissons Ratio (x) = 0.12571 0.05664
# Poissons Ratio (y) = 0.11230 0.10193
# Poissons Ratio (z) = 0.06768 0.13632
#
# Static dielectric constant tensor:
#      x y z
#    x 1.614730 0.000000 0.000000 
#    y 0.000000 1.765580 0.000000 
#    z 0.000000 0.000000 1.775840 
# 
# From -- ./inp_files/8415.got.cif
#   From: 2010.05.17/outbox.cif.g08.bks.cpg/sg44_5_cif.got.tgz:8415.got - 2010.06.03 19:37:08.
