data_PCOD9375221
_publ_section_title
;
Structure prediction by ZEFSAII (Michael W. Deem and Ramdas Pophale) SiO2 
 PCOD9375221
Probable space group: I M M 2
;
_chemical_formula_sum "Si O2"
_cell_formula_units_Z 58
_cell_length_a 9.209403
_cell_length_b 22.047305
_cell_length_c 15.105095
_cell_angle_alpha 90.000000
_cell_angle_beta 90.000000
_cell_angle_gamma 90.000000
_cell_volume 3066.976505
_symmetry_space_group_name_H-M "I M M 2"
_symmetry_group_IT_number 44
_symmetry_cell_setting 'orthorhombic'
loop_
_space_group_symop_operation_xyz
x,y,z
-x,-y,z
-x,y,z
x,-y,z
1/2+x,1/2+y,1/2+z
1/2-x,1/2-y,1/2+z
1/2-x,1/2+y,1/2+z
1/2+x,1/2-y,1/2+z
loop_
_atom_site_type_symbol
_atom_site_label
_atom_site_fract_x
_atom_site_fract_y
_atom_site_fract_z
Si Si1 0.331808 0.609321 0.984610
Si Si2 0.172030 0.928398 0.831086
Si Si3 0.500000 0.000000 0.240984
Si Si4 0.167644 0.761589 0.576746
Si Si5 0.838372 0.571573 0.155790
Si Si6 0.326207 0.177120 0.918187
Si Si7 0.326112 0.735835 0.751768
Si Si8 0.837931 0.384346 0.804282
O O1 0.500000 0.590066 0.981622
O O2 0.251961 0.599424 0.892238
O O3 0.328798 0.679975 0.012945
O O4 0.243636 0.579019 0.063877
O O5 0.242089 0.907434 0.738029
O O6 0.244778 0.885664 0.903191
O O7 0.000000 0.920280 0.827523
O O8 0.201303 0.000000 0.844672
O O9 0.375100 0.945253 0.249548
O O10 0.208378 0.706261 0.512861
O O11 0.269437 0.766633 0.661670
O O12 0.000000 0.754471 0.606641
O O13 0.853808 0.500000 0.169912
O O14 0.000000 0.599164 0.155372
O O15 0.500000 0.168203 0.913542
O O16 0.288554 0.223826 0.838369
O O17 0.500000 0.728510 0.751034
O O18 0.247315 0.670510 0.758115
O O19 0.000000 0.361623 0.831107
#
# Coordination Sequence:
#
# PCOD9375221 Si02
#       8
#     8   8   2   8   8   8   8   8
#     4  11  21  35  55  85 122 154 196 247 304 364
#     4  10  21  37  56  82 117 153 196 248 302 357
#     4   8  24  40  62  88 116 164 222 252 300 388
#     4  10  22  39  58  87 121 157 197 247 306 373
#     4  10  21  34  51  77 113 156 198 236 284 358
#     4  10  21  39  61  86 121 157 199 244 300 370
#     4  11  22  39  63  92 123 157 202 262 315 361
#     4  10  21  39  61  83 118 160 205 251 305 368
#
# _framework density 18.911133
#
# number of rings (size 3 to 8) (size 9 to 14) (size 15 to 20)
#    0.414    1.379    1.379    2.897    0.966    6.621 
#    0.000    1.034    1.517    0.000    0.000    0.000 
#    0.000    0.000    0.000    0.000    0.000    0.000 
#
# Total GULP energy -161524.855069 kJ/mol
# GULP energy per Si atom -5569.822589 kJ/mol
# Density = 1.886809 g / cm^3
# Si number density = 18.911133 Si / 1000 Ang^3
#
#
#
# Elastic Constant Matrix: (Units=GPa)
#
#
# Indices 1 2 3 4 5 6 
#
# 1 76.1499 30.9796 23.6584 0.0000 0.0000 0.0000
# 2 30.9796 65.0300 4.2720 0.0000 0.0000 0.0000
# 3 23.6584 4.2720 30.7356 0.0001 0.0000 0.0000
# 4 0.0000 0.0000 0.0001 27.5970 0.0000 0.0000
# 5 0.0000 0.0000 0.0000 0.0000 29.8721 0.0000
# 6 0.0000 0.0000 0.0000 0.0000 0.0000 40.8236
#
#
#
# Elastic Compliance Matrix: (Units=1/GPa)
#
#
# Indices 1 2 3 4 5 6 
#
# 1 0.021721 -0.009334 -0.015422 0.000000 0.000000 0.000000
# 2 -0.009334 0.019531 0.004470 0.000000 0.000000 0.000000
# 3 -0.015422 0.004470 0.043785 0.000000 0.000000 0.000000
# 4 0.000000 0.000000 0.000000 0.036236 0.000000 0.000000
# 5 0.000000 0.000000 0.000000 0.000000 0.033476 0.000000
# 6 0.000000 0.000000 0.000000 0.000000 0.000000 0.024496
#
#
# Mechanical properties :
#
#
# Convention : Reuss Voigt Hill
#
# Bulk Modulus (GPa) = 22.48975 32.19285 27.34130
# Shear Modulus (GPa) = 21.30949 27.19226 24.25088
#
# Velocity S-wave (km/s) = 3.36046 3.79607 3.58489
# Velocity P-wave (km/s) = 5.19375 6.02277 5.62356
#
# Compressibility (1/GPa) = 0.04446471
#
# Stress axis : x y z
#
# Youngs Moduli (GPa) = 46.03886 51.20154 22.83887
#
# Poissons Ratio (x) = 0.47794 0.35222
# Poissons Ratio (y) = 0.42975 -0.10210
# Poissons Ratio (z) = 0.71001 -0.22890
#
# Static dielectric constant tensor:
#      x y z
#    x 1.650820 0.000000 0.000000 
#    y 0.000000 1.739130 0.000000 
#    z 0.000000 0.000000 1.645780 
# 
# From -- ./inp_files/16756.got.cif
#   From: 2010.05.17/outbox.cif.g08.bks.cpg/sg44_9_cif.got.tgz:16756.got - 2010.06.03 19:37:08.
