data_PCOD9375261
_publ_section_title
;
Structure prediction by ZEFSAII (Michael W. Deem and Ramdas Pophale) SiO2 
 PCOD9375261
Probable space group: I M M 2
;
_chemical_formula_sum "Si O2"
_cell_formula_units_Z 56
_cell_length_a 9.717731
_cell_length_b 20.098456
_cell_length_c 15.327926
_cell_angle_alpha 90.000000
_cell_angle_beta 90.000000
_cell_angle_gamma 90.000000
_cell_volume 2993.718516
_symmetry_space_group_name_H-M "I M M 2"
_symmetry_group_IT_number 44
_symmetry_cell_setting 'orthorhombic'
loop_
_space_group_symop_operation_xyz
x,y,z
-x,-y,z
-x,y,z
x,-y,z
1/2+x,1/2+y,1/2+z
1/2-x,1/2-y,1/2+z
1/2-x,1/2+y,1/2+z
1/2+x,1/2-y,1/2+z
loop_
_atom_site_type_symbol
_atom_site_label
_atom_site_fract_x
_atom_site_fract_y
_atom_site_fract_z
Si Si1 0.162266 0.237822 0.652600
Si Si2 0.339936 0.121666 0.742595
Si Si3 0.655778 0.580047 0.911736
Si Si4 0.657589 0.180465 0.324426
Si Si5 0.837036 0.781462 0.984750
Si Si6 0.354631 0.924421 0.555446
Si Si7 0.161674 0.923995 0.904417
O O1 0.248578 0.181249 0.703301
O O2 0.166620 0.295841 0.725064
O O3 0.241152 0.256536 0.563602
O O4 0.000000 0.220913 0.638963
O O5 0.500000 0.139417 0.762462
O O6 0.342054 0.074553 0.658368
O O7 0.262622 0.088765 0.823278
O O8 0.500000 0.602547 0.908615
O O9 0.657112 0.500000 0.902266
O O10 0.745454 0.618255 0.841525
O O11 0.724797 0.601824 0.003576
O O12 0.500000 0.161672 0.341660
O O13 0.689953 0.239768 0.394804
O O14 0.814681 0.860368 0.966939
O O15 0.000000 0.772893 0.005408
O O16 0.500000 0.889315 0.535154
O O17 0.364920 0.000000 0.524632
O O18 0.000000 0.919110 0.877245
O O19 0.181787 0.000000 0.937656
#
# Coordination Sequence:
#
# PCOD9375261 Si02
#       7
#     8   8   8   8   8   8   8
#     4  11  23  39  59  86 116 151 198 249 301 360
#     4  11  21  34  55  85 118 152 194 246 301 357
#     4  10  21  35  53  81 113 144 186 240 291 344
#     4  10  21  39  60  81 114 154 192 237 292 355
#     4  10  21  40  61  87 121 159 202 249 302 363
#     4   9  18  32  49  73 109 150 185 219 273 344
#     4  10  21  39  62  86 120 166 208 252 309 369
#
# _framework density 18.705832999999998
#
# number of rings (size 3 to 8) (size 9 to 14) (size 15 to 20)
#    0.000    1.857    1.429    2.571    0.000    8.571 
#    0.000    2.143    0.000    2.571    0.000    0.000 
#    0.000    0.000    0.000    0.000    0.000    0.000 
#
# Total GULP energy -156008.658726 kJ/mol
# GULP energy per Si atom -5571.737812 kJ/mol
# Density = 1.866326 g / cm^3
# Si number density = 18.705833 Si / 1000 Ang^3
#
#
#
# Elastic Constant Matrix: (Units=GPa)
#
#
# Indices 1 2 3 4 5 6 
#
# 1 117.4864 48.7339 42.4819 0.0000 0.0000 0.0000
# 2 48.7339 78.1610 16.0398 0.0000 0.0000 0.0000
# 3 42.4819 16.0398 62.8698 0.0000 0.0000 0.0000
# 4 0.0000 0.0000 0.0000 28.5869 0.0000 0.0000
# 5 0.0000 0.0000 0.0000 0.0000 26.6179 0.0000
# 6 0.0000 0.0000 0.0000 0.0000 0.0000 7.9362
#
#
#
# Elastic Compliance Matrix: (Units=1/GPa)
#
#
# Indices 1 2 3 4 5 6 
#
# 1 0.014411 -0.007373 -0.007857 0.000000 0.000000 0.000000
# 2 -0.007373 0.017273 0.000575 0.000000 0.000000 0.000000
# 3 -0.007857 0.000575 0.021068 0.000000 0.000000 0.000000
# 4 0.000000 0.000000 0.000000 0.034981 0.000000 0.000000
# 5 0.000000 0.000000 0.000000 0.000000 0.037569 0.000000
# 6 0.000000 0.000000 0.000000 0.000000 0.000000 0.126004
#
#
# Mechanical properties :
#
#
# Convention : Reuss Voigt Hill
#
# Bulk Modulus (GPa) = 42.65627 52.55871 47.60749
# Shear Modulus (GPa) = 17.33529 22.71231 20.02380
#
# Velocity S-wave (km/s) = 3.04753 3.48829 3.27533
# Velocity P-wave (km/s) = 5.93603 6.66204 6.30949
#
# Compressibility (1/GPa) = 0.02344321
#
# Stress axis : x y z
#
# Youngs Moduli (GPa) = 69.39237 57.89325 47.46556
#
# Poissons Ratio (x) = 0.42684 0.37291
# Poissons Ratio (y) = 0.51163 -0.02730
# Poissons Ratio (z) = 0.54518 -0.03330
#
# Static dielectric constant tensor:
#      x y z
#    x 1.668070 0.000000 0.000000 
#    y 0.000000 1.742640 0.000000 
#    z 0.000000 0.000000 1.632010 
# 
# From -- ./inp_files/16450.got.cif
#   From: 2010.05.17/outbox.cif.g08.bks.cpg/sg44_9_cif.got.tgz:16450.got - 2010.06.03 19:37:08.
