data_PCOD9375306
_publ_section_title
;
Structure prediction by ZEFSAII (Michael W. Deem and Ramdas Pophale) SiO2 
 PCOD9375306
Probable space group: I M M 2
;
_chemical_formula_sum "Si O2"
_cell_formula_units_Z 56
_cell_length_a 7.535897
_cell_length_b 24.473758
_cell_length_c 14.361730
_cell_angle_alpha 90.000000
_cell_angle_beta 90.000000
_cell_angle_gamma 90.000000
_cell_volume 2648.758559
_symmetry_space_group_name_H-M "I M M 2"
_symmetry_group_IT_number 44
_symmetry_cell_setting 'orthorhombic'
loop_
_space_group_symop_operation_xyz
x,y,z
-x,-y,z
-x,y,z
x,-y,z
1/2+x,1/2+y,1/2+z
1/2-x,1/2-y,1/2+z
1/2-x,1/2+y,1/2+z
1/2+x,1/2-y,1/2+z
loop_
_atom_site_type_symbol
_atom_site_label
_atom_site_fract_x
_atom_site_fract_y
_atom_site_fract_z
Si Si1 0.216742 0.562671 0.432770
Si Si2 0.289634 0.664232 0.958434
Si Si3 0.285930 0.938358 0.144639
Si Si4 0.285206 0.561062 0.075088
Si Si5 0.214704 0.271233 0.137837
Si Si6 0.290779 0.669729 0.751961
Si Si7 0.709086 0.125858 0.756321
O O1 0.268291 0.500000 0.411086
O O2 0.272166 0.574623 0.538684
O O3 0.281708 0.604364 0.354243
O O4 0.000000 0.563603 0.431559
O O5 0.500000 0.655497 0.947325
O O6 0.215743 0.675350 0.856026
O O7 0.218868 0.608721 0.006361
O O8 0.267262 0.712188 0.033620
O O9 0.500000 0.939121 0.144039
O O10 0.229054 0.891450 0.214625
O O11 0.225914 0.000000 0.167716
O O12 0.500000 0.561472 0.072445
O O13 0.224643 0.500000 0.052427
O O14 0.231354 0.578791 0.178915
O O15 0.279626 0.213619 0.177636
O O16 0.279984 0.319318 0.207484
O O17 0.000000 0.272624 0.137492
O O18 0.500000 0.681965 0.758318
O O19 0.500000 0.135561 0.770472
#
# Coordination Sequence:
#
# PCOD9375306 Si02
#       7
#     8   8   8   8   8   8   8
#     4   8  14  26  46  72  99 126 159 199 241 287
#     4   9  19  35  53  73  98 130 167 202 242 298
#     4   9  19  35  53  75 102 131 168 211 250 295
#     4   9  17  29  45  68  99 130 160 199 245 291
#     4   9  19  34  50  73 103 128 159 207 251 289
#     4  10  21  36  54  76 101 131 167 206 251 302
#     4   9  16  28  48  71  96 128 164 202 244 290
#
# _framework density 21.141978999999999
#
# number of rings (size 3 to 8) (size 9 to 14) (size 15 to 20)
#    0.000    3.000    0.000    1.286    0.000    4.000 
#    0.000    5.000    0.000    4.286    0.000    0.000 
#    0.000    0.000    0.000    0.000    0.000    0.000 
#
# Total GULP energy -156195.105919 kJ/mol
# GULP energy per Si atom -5578.396640 kJ/mol
# Density = 2.109386 g / cm^3
# Si number density = 21.141979 Si / 1000 Ang^3
#
#
#
# Elastic Constant Matrix: (Units=GPa)
#
#
# Indices 1 2 3 4 5 6 
#
# 1 42.3158 -14.4621 -12.8710 0.0000 0.0000 0.0000
# 2 -14.4621 96.7406 70.2601 0.0000 0.0000 0.0000
# 3 -12.8710 70.2601 136.5973 0.0001 -0.0002 -0.0001
# 4 0.0000 0.0000 0.0001 17.0041 -0.0001 0.0000
# 5 0.0000 0.0000 -0.0002 -0.0001 -9.0217 0.0000
# 6 0.0000 0.0000 -0.0001 0.0000 0.0000 27.0308
#
#
#
# Elastic Compliance Matrix: (Units=1/GPa)
#
#
# Indices 1 2 3 4 5 6 
#
# 1 0.024945 0.003228 0.000690 0.000000 0.000000 0.000000
# 2 0.003228 0.016919 -0.008398 0.000000 0.000000 0.000000
# 3 0.000690 -0.008398 0.011706 0.000000 0.000000 0.000000
# 4 0.000000 0.000000 0.000000 0.058809 0.000000 0.000000
# 5 0.000000 0.000000 0.000000 0.000000 -0.110843 0.000000
# 6 0.000000 0.000000 0.000000 0.000000 0.000000 0.036995
#
#
# Mechanical properties :
#
#
# Convention : Reuss Voigt Hill
#
# Bulk Modulus (GPa) = 22.41704 40.16751 31.29227
# Shear Modulus (GPa) = 80.17967 22.51776 51.34872
#
# Velocity S-wave (km/s) = 6.16496 3.26709 4.93359
# Velocity P-wave (km/s) = 7.82954 5.76819 6.87654
#
# Compressibility (1/GPa) = 0.04460892
#
# Stress axis : x y z
#
# Youngs Moduli (GPa) = 40.08832 59.10562 85.42970
#
# Poissons Ratio (x) = -0.19078 -0.05896
# Poissons Ratio (y) = -0.12940 0.71746
# Poissons Ratio (z) = -0.02767 0.49638
#
# Static dielectric constant tensor:
#      x y z
#    x 1.825680 0.000000 0.000000 
#    y 0.000000 1.752850 0.000000 
#    z 0.000000 0.000000 1.751020 
# 
# From -- ./inp_files/16469.got.cif
#   From: 2010.05.17/outbox.cif.g08.bks.cpg/sg44_9_cif.got.tgz:16469.got - 2010.06.03 19:37:08.
