data_PCOD9375642
_publ_section_title
;
Structure prediction by ZEFSAII (Michael W. Deem and Ramdas Pophale) SiO2 
 PCOD9375642
Probable space group: I M M 2
;
_chemical_formula_sum "Si O2"
_cell_formula_units_Z 64
_cell_length_a 13.612841
_cell_length_b 19.748804
_cell_length_c 12.539385
_cell_angle_alpha 90.000000
_cell_angle_beta 90.000000
_cell_angle_gamma 90.000000
_cell_volume 3371.054768
_symmetry_space_group_name_H-M "I M M 2"
_symmetry_group_IT_number 44
_symmetry_cell_setting 'orthorhombic'
loop_
_space_group_symop_operation_xyz
x,y,z
-x,-y,z
-x,y,z
x,-y,z
1/2+x,1/2+y,1/2+z
1/2-x,1/2-y,1/2+z
1/2-x,1/2+y,1/2+z
1/2+x,1/2-y,1/2+z
loop_
_atom_site_type_symbol
_atom_site_label
_atom_site_fract_x
_atom_site_fract_y
_atom_site_fract_z
Si Si1 0.383233 0.654539 0.020450
Si Si2 0.880962 0.221301 0.745004
Si Si3 0.293782 0.421900 0.648309
Si Si4 0.200080 0.424094 0.999965
Si Si5 0.382010 0.696967 0.790741
Si Si6 0.382586 0.879989 0.270373
Si Si7 0.618038 0.335026 0.465920
Si Si8 0.883182 0.704677 0.113369
O O1 0.500000 0.641476 0.022027
O O2 0.354854 0.693612 0.128428
O O3 0.317094 0.588306 0.004471
O O4 0.359001 0.698538 0.915365
O O5 0.857160 0.299991 0.764340
O O6 0.849750 0.174624 0.844039
O O7 0.000000 0.219607 0.748490
O O8 0.323564 0.500000 0.659057
O O9 0.343964 0.371651 0.734907
O O10 0.178495 0.414777 0.675728
O O11 0.325397 0.390923 0.534866
O O12 0.174415 0.500000 0.030628
O O13 0.158494 0.366376 0.076848
O O14 0.156987 0.409107 0.882332
O O15 0.500000 0.695398 0.780450
O O16 0.346413 0.761408 0.723011
O O17 0.500000 0.888092 0.263854
O O18 0.500000 0.348381 0.471308
O O19 0.633994 0.262694 0.524353
O O20 0.000000 0.696432 0.121318
#
# Coordination Sequence:
#
# PCOD9375642 Si02
#       8
#     8   8   8   8   8   8   8   8
#     4  10  22  38  58  88 122 154 197 246 298 358
#     4   9  19  37  61  88 115 151 198 246 296 347
#     4  11  22  35  55  88 122 154 192 236 299 361
#     4  12  24  36  56  85 118 161 202 238 296 360
#     4   9  19  36  58  86 119 154 194 243 296 348
#     4  11  23  38  57  85 121 156 198 251 302 355
#     4   9  18  36  61  89 118 151 194 242 294 350
#     4   9  18  35  58  83 115 149 190 245 295 339
#
# _framework density 18.985154999999999
#
# number of rings (size 3 to 8) (size 9 to 14) (size 15 to 20)
#    0.000    2.000    2.500    1.875    3.500    3.000 
#    0.000    1.875    0.000    2.250    0.000    1.750 
#    0.000   14.000    0.000    0.000    0.000    0.000 
#
# Total GULP energy -178634.960563 kJ/mol
# GULP energy per Si atom -5582.342518 kJ/mol
# Density = 1.894194 g / cm^3
# Si number density = 18.985155 Si / 1000 Ang^3
#
#
#
# Elastic Constant Matrix: (Units=GPa)
#
#
# Indices 1 2 3 4 5 6 
#
# 1 72.3969 43.4497 38.1210 0.0000 0.0000 0.0000
# 2 43.4497 131.2741 68.9031 0.0001 0.0000 0.0000
# 3 38.1210 68.9031 146.3217 0.0001 0.0000 0.0000
# 4 0.0000 0.0001 0.0001 12.2674 0.0000 0.0000
# 5 0.0000 0.0000 0.0000 0.0000 24.9163 0.0000
# 6 0.0000 0.0000 0.0000 0.0000 0.0000 9.6415
#
#
#
# Elastic Compliance Matrix: (Units=1/GPa)
#
#
# Indices 1 2 3 4 5 6 
#
# 1 0.017893 -0.004617 -0.002488 0.000000 0.000000 0.000000
# 2 -0.004617 0.011310 -0.004123 0.000000 0.000000 0.000000
# 3 -0.002488 -0.004123 0.009424 0.000000 0.000000 0.000000
# 4 0.000000 0.000000 0.000000 0.081517 0.000000 0.000000
# 5 0.000000 0.000000 0.000000 0.000000 0.040134 0.000000
# 6 0.000000 0.000000 0.000000 0.000000 0.000000 0.103719
#
#
# Mechanical properties :
#
#
# Convention : Reuss Voigt Hill
#
# Bulk Modulus (GPa) = 61.83432 72.32668 67.08050
# Shear Modulus (GPa) = 17.13251 22.66629 19.89940
#
# Velocity S-wave (km/s) = 3.00728 3.45903 3.24104
# Velocity P-wave (km/s) = 6.68572 7.35747 7.02962
#
# Compressibility (1/GPa) = 0.01617225
#
# Stress axis : x y z
#
# Youngs Moduli (GPa) = 55.88643 88.41900 106.11292
#
# Poissons Ratio (x) = 0.40820 0.26398
# Poissons Ratio (y) = 0.25801 0.43751
# Poissons Ratio (z) = 0.13903 0.36455
#
# Static dielectric constant tensor:
#      x y z
#    x 1.729150 0.000000 0.000000 
#    y 0.000000 1.621210 0.000000 
#    z 0.000000 0.000000 1.668620 
# 
# From -- ./inp_files/13414.got.cif
#   From: 2010.05.17/outbox.cif.g08.bks.cpg/sg44_7_cif.got.tgz:13414.got - 2010.06.03 19:37:08.
