data_PCOD9375022
_publ_section_title
;
Structure prediction by ZEFSAII (Michael W. Deem and Ramdas Pophale) SiO2 
 PCOD9375022
Probable space group: I M M 2
;
_chemical_formula_sum "Si O2"
_cell_formula_units_Z 48
_cell_length_a 8.968928
_cell_length_b 7.563408
_cell_length_c 36.747687
_cell_angle_alpha 90.000000
_cell_angle_beta 90.000000
_cell_angle_gamma 90.000000
_cell_volume 2492.803667
_symmetry_space_group_name_H-M "I M M 2"
_symmetry_group_IT_number 44
_symmetry_cell_setting 'orthorhombic'
loop_
_space_group_symop_operation_xyz
x,y,z
-x,-y,z
-x,y,z
x,-y,z
1/2+x,1/2+y,1/2+z
1/2-x,1/2-y,1/2+z
1/2-x,1/2+y,1/2+z
1/2+x,1/2-y,1/2+z
loop_
_atom_site_type_symbol
_atom_site_label
_atom_site_fract_x
_atom_site_fract_y
_atom_site_fract_z
Si Si1 0.669710 0.287298 0.640460
Si Si2 0.318088 0.296925 0.986927
Si Si3 0.679089 0.711654 0.718395
Si Si4 0.319888 0.289194 0.798694
Si Si5 0.680488 0.000000 0.929569
Si Si6 0.667425 0.288477 0.065559
Si Si7 0.678103 0.500000 0.350072
O O1 0.500000 0.222144 0.637916
O O2 0.664957 0.500000 0.643362
O O3 0.736868 0.222865 0.679191
O O4 0.749986 0.246177 0.603013
O O5 0.500000 0.296356 0.989234
O O6 0.271031 0.500000 0.981181
O O7 0.277784 0.169700 0.954007
O O8 0.266079 0.229195 0.026752
O O9 0.500000 0.739610 0.717132
O O10 0.702307 0.500000 0.719533
O O11 0.729240 0.773862 0.758089
O O12 0.500000 0.267373 0.800860
O O13 0.290527 0.500000 0.802371
O O14 0.241189 0.170877 0.828726
O O15 0.500000 0.000000 0.924882
O O16 0.758462 0.000000 0.890835
O O17 0.500000 0.216697 0.068909
O O18 0.658689 0.500000 0.061446
O O19 0.500000 0.500000 0.349936
#
# Coordination Sequence:
#
# PCOD9375022 Si02
#       7
#     8   8   8   8   4   8   4
#     4   9  17  29  47  74 105 136 173 219 265 313
#     4   8  16  32  54  79 103 130 174 230 275 310
#     4   7  12  27  51  76 101 131 175 228 273 307
#     4   9  18  37  65  87 105 142 196 245 279 318
#     4  10  20  36  60  82 100 134 186 236 274 322
#     4   9  18  32  48  70 103 139 174 215 262 313
#     4  12  26  40  54  84 126 154 174 218 290 368
#
# _framework density 19.255427999999998
#
# number of rings (size 3 to 8) (size 9 to 14) (size 15 to 20)
#    0.000    3.167    0.000    3.750    1.167    1.667 
#    1.500    3.333    0.000    4.000    0.000    0.000 
#    0.000    0.000    0.000    0.000    0.000    0.000 
#
# Total GULP energy -133658.773588 kJ/mol
# GULP energy per Si atom -5569.115566 kJ/mol
# Density = 1.921160 g / cm^3
# Si number density = 19.255428 Si / 1000 Ang^3
#
#
#
# Elastic Constant Matrix: (Units=GPa)
#
#
# Indices 1 2 3 4 5 6 
#
# 1 30.9298 27.3460 62.2423 0.0000 0.0000 0.0000
# 2 27.3460 81.8304 72.0296 0.0000 0.0000 0.0000
# 3 62.2423 72.0296 248.8185 0.0000 0.0000 0.0000
# 4 0.0000 0.0000 0.0000 43.8537 0.0000 0.0000
# 5 0.0000 0.0000 0.0000 0.0000 24.1531 0.0000
# 6 0.0000 0.0000 0.0000 0.0000 0.0000 13.6588
#
#
#
# Elastic Compliance Matrix: (Units=1/GPa)
#
#
# Indices 1 2 3 4 5 6 
#
# 1 0.071772 -0.010979 -0.014776 0.000000 0.000000 0.000000
# 2 -0.010979 0.018078 -0.002487 0.000000 0.000000 0.000000
# 3 -0.014776 -0.002487 0.008435 0.000000 0.000000 0.000000
# 4 0.000000 0.000000 0.000000 0.022803 0.000000 0.000000
# 5 0.000000 0.000000 0.000000 0.000000 0.041403 0.000000
# 6 0.000000 0.000000 0.000000 0.000000 0.000000 0.073213
#
#
# Mechanical properties :
#
#
# Convention : Reuss Voigt Hill
#
# Bulk Modulus (GPa) = 23.92191 76.09048 50.00619
# Shear Modulus (GPa) = 16.33337 29.66384 22.99860
#
# Velocity S-wave (km/s) = 2.91563 3.92923 3.45975
# Velocity P-wave (km/s) = 4.87698 7.75805 6.47967
#
# Compressibility (1/GPa) = 0.04180269
#
# Stress axis : x y z
#
# Youngs Moduli (GPa) = 13.93299 55.31434 118.55153
#
# Poissons Ratio (x) = 0.60728 1.75168
# Poissons Ratio (y) = 0.15297 0.29486
# Poissons Ratio (z) = 0.20587 0.13757
#
# Static dielectric constant tensor:
#      x y z
#    x 1.662540 0.000000 0.000000 
#    y 0.000000 1.700950 0.000000 
#    z 0.000000 0.000000 1.710300 
# 
# From -- ./inp_files/26951.got.cif
#   From: 2010.05.17/outbox.cif.g08.bks.cpg/sg44_14_cif.got.tgz:26951.got - 2010.06.03 19:37:08.
