data_PCOD9375374
_publ_section_title
;
Structure prediction by ZEFSAII (Michael W. Deem and Ramdas Pophale) SiO2 
 PCOD9375374
Probable space group: I M M 2
;
_chemical_formula_sum "Si O2"
_cell_formula_units_Z 64
_cell_length_a 20.347761
_cell_length_b 8.401921
_cell_length_c 20.970986
_cell_angle_alpha 90.000000
_cell_angle_beta 90.000000
_cell_angle_gamma 90.000000
_cell_volume 3585.205648
_symmetry_space_group_name_H-M "I M M 2"
_symmetry_group_IT_number 44
_symmetry_cell_setting 'orthorhombic'
loop_
_space_group_symop_operation_xyz
x,y,z
-x,-y,z
-x,y,z
x,-y,z
1/2+x,1/2+y,1/2+z
1/2-x,1/2-y,1/2+z
1/2-x,1/2+y,1/2+z
1/2+x,1/2-y,1/2+z
loop_
_atom_site_type_symbol
_atom_site_label
_atom_site_fract_x
_atom_site_fract_y
_atom_site_fract_z
Si Si1 0.175007 0.306055 0.720880
Si Si2 0.176142 0.688926 0.364742
Si Si3 0.575660 0.690586 0.970798
Si Si4 0.424367 0.807453 0.111683
Si Si5 0.825571 0.807459 0.223206
Si Si6 0.323643 0.807555 0.365359
Si Si7 0.424508 0.807687 0.473122
Si Si8 0.924496 0.192324 0.113517
O O1 0.173519 0.500000 0.720164
O O2 0.124479 0.250903 0.667105
O O3 0.250488 0.257996 0.708505
O O4 0.158611 0.255928 0.793248
O O5 0.178678 0.500000 0.364319
O O6 0.124454 0.745977 0.417237
O O7 0.157638 0.749196 0.294029
O O8 0.249275 0.754193 0.378658
O O9 0.500000 0.744094 0.959940
O O10 0.576602 0.500000 0.969511
O O11 0.594892 0.747970 0.041548
O O12 0.500000 0.757767 0.123423
O O13 0.423035 0.000000 0.111019
O O14 0.876055 0.752331 0.169228
O O15 0.826573 0.000000 0.224416
O O16 0.375015 0.751173 0.418385
O O17 0.324295 0.000000 0.365583
O O18 0.500000 0.755141 0.462128
O O19 0.404554 0.751010 0.543470
O O20 0.424253 0.000000 0.472564
O O21 0.000000 0.243815 0.124550
O O22 0.923607 0.000000 0.113174
#
# Coordination Sequence:
#
# PCOD9375374 Si02
#       8
#     8   8   8   8   8   8   8   8
#     4   8  15  29  49  71  96 128 164 204 247 290
#     4  11  22  35  53  77 103 130 166 212 257 299
#     4  10  21  37  55  74 100 135 170 204 249 306
#     4   9  17  30  49  74 102 130 165 209 250 289
#     4   9  18  34  52  70  97 132 169 205 245 298
#     4   9  18  34  53  74 104 139 173 207 248 301
#     4   9  18  32  51  76 105 136 171 212 253 293
#     4   9  18  32  50  72  99 132 168 205 247 298
#
# _framework density 17.851137000000001
#
# number of rings (size 3 to 8) (size 9 to 14) (size 15 to 20)
#    0.000    2.750    0.000    2.250    0.000    3.750 
#    0.000    7.500    0.000    0.000    0.000    3.500 
#    0.000    0.000    0.000    0.000    0.000    0.000 
#
# Total GULP energy -178451.410468 kJ/mol
# GULP energy per Si atom -5576.606577 kJ/mol
# Density = 1.781051 g / cm^3
# Si number density = 17.851137 Si / 1000 Ang^3
#
#
#
# Elastic Constant Matrix: (Units=GPa)
#
#
# Indices 1 2 3 4 5 6 
#
# 1 116.6714 18.6033 137.4850 0.0000 0.0000 0.0000
# 2 18.6033 13.1567 22.9423 0.0000 0.0000 0.0000
# 3 137.4850 22.9423 193.7980 0.0000 0.0000 0.0000
# 4 0.0000 0.0000 0.0000 27.0102 0.0000 0.0000
# 5 0.0000 0.0000 0.0000 0.0000 45.3323 0.0000
# 6 0.0000 0.0000 0.0000 0.0000 0.0000 14.3392
#
#
#
# Elastic Compliance Matrix: (Units=1/GPa)
#
#
# Indices 1 2 3 4 5 6 
#
# 1 0.053713 -0.011974 -0.036688 0.000000 0.000000 0.000000
# 2 -0.011974 0.098448 -0.003160 0.000000 0.000000 0.000000
# 3 -0.036688 -0.003160 0.031561 0.000000 0.000000 0.000000
# 4 0.000000 0.000000 0.000000 0.037023 0.000000 0.000000
# 5 0.000000 0.000000 0.000000 0.000000 0.022059 0.000000
# 6 0.000000 0.000000 0.000000 0.000000 0.000000 0.069739
#
#
# Mechanical properties :
#
#
# Convention : Reuss Voigt Hill
#
# Bulk Modulus (GPa) = 12.48764 75.74303 44.11534
# Shear Modulus (GPa) = 11.28972 26.97605 19.13289
#
# Velocity S-wave (km/s) = 2.51756 3.89159 3.27739
# Velocity P-wave (km/s) = 3.93210 7.91929 6.25206
#
# Compressibility (1/GPa) = 0.08007916
#
# Stress axis : x y z
#
# Youngs Moduli (GPa) = 18.61742 10.15762 31.68434
#
# Poissons Ratio (x) = 0.12163 1.16243
# Poissons Ratio (y) = 0.22293 0.10012
# Poissons Ratio (z) = 0.68303 0.03210
#
# Static dielectric constant tensor:
#      x y z
#    x 1.604800 0.000000 0.000000 
#    y 0.000000 1.616980 0.000000 
#    z 0.000000 0.000000 1.586930 
# 
# From -- ./inp_files/20792.got.cif
#   From: 2010.05.17/outbox.cif.g08.bks.cpg/sg44_11_cif.got.tgz:20792.got - 2010.06.03 19:37:08.
