data_PCOD9375014
_publ_section_title
;
Structure prediction by ZEFSAII (Michael W. Deem and Ramdas Pophale) SiO2 
 PCOD9375014
Probable space group: I M M 2
;
_chemical_formula_sum "Si O2"
_cell_formula_units_Z 64
_cell_length_a 25.030356
_cell_length_b 8.891490
_cell_length_c 14.204026
_cell_angle_alpha 90.000000
_cell_angle_beta 90.000000
_cell_angle_gamma 90.000000
_cell_volume 3161.207688
_symmetry_space_group_name_H-M "I M M 2"
_symmetry_group_IT_number 44
_symmetry_cell_setting 'orthorhombic'
loop_
_space_group_symop_operation_xyz
x,y,z
-x,-y,z
-x,y,z
x,-y,z
1/2+x,1/2+y,1/2+z
1/2-x,1/2-y,1/2+z
1/2-x,1/2+y,1/2+z
1/2+x,1/2-y,1/2+z
loop_
_atom_site_type_symbol
_atom_site_label
_atom_site_fract_x
_atom_site_fract_y
_atom_site_fract_z
Si Si1 0.891035 0.180438 0.198250
Si Si2 0.227941 0.177616 0.190554
Si Si3 0.227137 0.679836 0.396544
Si Si4 0.559133 0.178651 0.522788
Si Si5 0.342905 0.676273 0.417205
Si Si6 0.393183 0.178469 0.904960
Si Si7 0.337053 0.677426 0.190957
Si Si8 0.058619 0.818374 0.583168
O O1 0.831624 0.223701 0.159516
O O2 0.932698 0.240753 0.122929
O O3 0.898090 0.254329 0.300406
O O4 0.892682 0.000000 0.206666
O O5 0.227401 0.223571 0.301062
O O6 0.282313 0.250453 0.153890
O O7 0.232179 0.000000 0.178100
O O8 0.230476 0.500000 0.372800
O O9 0.282286 0.714713 0.450218
O O10 0.168482 0.704185 0.438482
O O11 0.500000 0.216090 0.484536
O O12 0.608130 0.232093 0.458603
O O13 0.562123 0.000000 0.535824
O O14 0.351848 0.500000 0.439284
O O15 0.340918 0.695016 0.303991
O O16 0.402332 0.000000 0.902554
O O17 0.431560 0.258956 0.978282
O O18 0.333477 0.500000 0.172245
O O19 0.391463 0.736643 0.144958
O O20 0.000000 0.770932 0.617506
O O21 0.059808 0.000000 0.583263
#
# Coordination Sequence:
#
# PCOD9375014 Si02
#       8
#     8   8   8   8   8   8   8   8
#     4  10  21  38  60  84 110 143 182 222 269 327
#     4   9  17  30  53  85 114 138 171 218 271 327
#     4   8  16  32  54  81 112 143 175 214 265 327
#     4  11  25  41  55  77 109 144 186 232 275 322
#     4   9  18  35  59  84 110 141 178 222 272 325
#     4  10  20  36  59  85 114 145 177 221 276 326
#     4   9  19  36  58  83 111 145 183 223 270 323
#     4  10  22  39  56  77 108 147 192 233 266 313
#
# _framework density 20.245426999999999
#
# number of rings (size 3 to 8) (size 9 to 14) (size 15 to 20)
#    0.000    2.500    0.000    2.250    0.000    7.750 
#    0.000    5.000    0.000    0.000    0.000    0.000 
#    0.000    0.000    0.000    0.000    0.000    0.000 
#
# Total GULP energy -178553.480243 kJ/mol
# GULP energy per Si atom -5579.796258 kJ/mol
# Density = 2.019935 g / cm^3
# Si number density = 20.245427 Si / 1000 Ang^3
#
#
#
# Elastic Constant Matrix: (Units=GPa)
#
#
# Indices 1 2 3 4 5 6 
#
# 1 107.7657 29.4296 8.5800 0.0000 0.0000 0.0000
# 2 29.4296 22.1671 2.8349 0.0000 0.0000 0.0000
# 3 8.5800 2.8349 16.9257 0.0000 0.0000 0.0000
# 4 0.0000 0.0000 0.0000 21.3920 0.0000 0.0000
# 5 0.0000 0.0000 0.0000 0.0000 27.5697 0.0000
# 6 0.0000 0.0000 0.0000 0.0000 0.0000 23.1697
#
#
#
# Elastic Compliance Matrix: (Units=1/GPa)
#
#
# Indices 1 2 3 4 5 6 
#
# 1 0.014860 -0.019176 -0.004321 0.000000 0.000000 0.000000
# 2 -0.019176 0.070845 -0.002145 0.000000 0.000000 0.000000
# 3 -0.004321 -0.002145 0.061631 0.000000 0.000000 0.000000
# 4 0.000000 0.000000 0.000000 0.046746 0.000000 0.000000
# 5 0.000000 0.000000 0.000000 0.000000 0.036272 0.000000
# 6 0.000000 0.000000 0.000000 0.000000 0.000000 0.043160
#
#
# Mechanical properties :
#
#
# Convention : Reuss Voigt Hill
#
# Bulk Modulus (GPa) = 10.41104 25.39420 17.90262
# Shear Modulus (GPa) = 14.01277 21.49386 17.75332
#
# Velocity S-wave (km/s) = 2.63372 3.26186 2.96447
# Velocity P-wave (km/s) = 3.79503 5.17269 4.53646
#
# Compressibility (1/GPa) = 0.09605189
#
# Stress axis : x y z
#
# Youngs Moduli (GPa) = 67.29360 14.11528 16.22548
#
# Poissons Ratio (x) = 0.27068 0.07011
# Poissons Ratio (y) = 1.29044 0.03481
# Poissons Ratio (z) = 0.29078 0.03028
#
# Static dielectric constant tensor:
#      x y z
#    x 1.756800 0.000000 0.000000 
#    y 0.000000 1.674420 0.000000 
#    z 0.000000 0.000000 1.722640 
# 
# From -- ./inp_files/16831.got.cif
#   From: 2010.05.17/outbox.cif.g08.bks.cpg/sg44_9_cif.got.tgz:16831.got - 2010.06.03 19:37:08.
