data_PCOD9375826
_publ_section_title
;
Structure prediction by ZEFSAII (Michael W. Deem and Ramdas Pophale) SiO2 
 PCOD9375826
Probable space group: I M M 2
;
_chemical_formula_sum "Si O2"
_cell_formula_units_Z 48
_cell_length_a 29.014820
_cell_length_b 8.227769
_cell_length_c 10.498103
_cell_angle_alpha 90.000000
_cell_angle_beta 90.000000
_cell_angle_gamma 90.000000
_cell_volume 2506.183118
_symmetry_space_group_name_H-M "I M M 2"
_symmetry_group_IT_number 44
_symmetry_cell_setting 'orthorhombic'
loop_
_space_group_symop_operation_xyz
x,y,z
-x,-y,z
-x,y,z
x,-y,z
1/2+x,1/2+y,1/2+z
1/2-x,1/2-y,1/2+z
1/2-x,1/2+y,1/2+z
1/2+x,1/2-y,1/2+z
loop_
_atom_site_type_symbol
_atom_site_label
_atom_site_fract_x
_atom_site_fract_y
_atom_site_fract_z
Si Si1 0.449062 0.802063 0.615370
Si Si2 0.294334 0.809144 0.487482
Si Si3 0.850950 0.811909 0.751115
Si Si4 0.551738 0.196222 0.317330
Si Si5 0.691877 0.191607 0.991202
Si Si6 0.354151 0.801219 0.730206
O O1 0.500000 0.747516 0.656334
O O2 0.442767 0.758018 0.466689
O O3 0.405865 0.746229 0.697793
O O4 0.449072 0.000000 0.618295
O O5 0.327082 0.786592 0.365579
O O6 0.246130 0.718789 0.471183
O O7 0.321096 0.751742 0.613822
O O8 0.284186 0.000000 0.503098
O O9 0.904826 0.766378 0.743240
O O10 0.825395 0.776347 0.619206
O O11 0.846328 0.000000 0.784195
O O12 0.500000 0.246225 0.277263
O O13 0.553632 0.000000 0.310653
O O14 0.682704 0.000000 0.005331
O O15 0.665221 0.252323 0.865780
O O16 0.354177 0.000000 0.730241
#
# Coordination Sequence:
#
# PCOD9375826 Si02
#       6
#     8   8   8   8   8   8
#     4   8  13  26  53  85 109 132 171 225 284 340
#     4  11  21  38  62  85 111 145 191 245 293 344
#     4  12  24  38  56  83 119 160 197 232 281 343
#     4   9  17  33  60  88 111 142 189 243 295 343
#     4  11  23  38  56  82 117 153 191 238 289 346
#     4   9  18  33  55  82 110 139 178 233 292 338
#
# _framework density 19.152631
#
# number of rings (size 3 to 8) (size 9 to 14) (size 15 to 20)
#    0.000    2.000    1.667    4.500    0.000    1.667 
#    0.000    3.333    0.000    3.000    0.000    0.000 
#    0.000    0.000    0.000    0.000    0.000    0.000 
#
# Total GULP energy -134004.592222 kJ/mol
# GULP energy per Si atom -5583.524676 kJ/mol
# Density = 1.910904 g / cm^3
# Si number density = 19.152631 Si / 1000 Ang^3
#
#
#
# Elastic Constant Matrix: (Units=GPa)
#
#
# Indices 1 2 3 4 5 6 
#
# 1 109.5479 -5.6511 17.6161 0.0000 0.0000 0.0000
# 2 -5.6511 16.8205 -6.5273 0.0000 0.0000 0.0000
# 3 17.6161 -6.5273 65.4390 0.0000 0.0000 0.0000
# 4 0.0000 0.0000 0.0000 7.7131 0.0000 0.0000
# 5 0.0000 0.0000 0.0000 0.0000 -4.0900 0.0000
# 6 0.0000 0.0000 0.0000 0.0000 0.0000 20.8138
#
#
#
# Elastic Compliance Matrix: (Units=1/GPa)
#
#
# Indices 1 2 3 4 5 6 
#
# 1 0.009628 0.002319 -0.002360 0.000000 0.000000 0.000000
# 2 0.002319 0.062404 0.005600 0.000000 0.000000 0.000000
# 3 -0.002360 0.005600 0.016475 0.000000 0.000000 0.000000
# 4 0.000000 0.000000 0.000000 0.129650 0.000000 0.000000
# 5 0.000000 0.000000 0.000000 0.000000 -0.244501 0.000000
# 6 0.000000 0.000000 0.000000 0.000000 0.000000 0.048045
#
#
# Mechanical properties :
#
#
# Convention : Reuss Voigt Hill
#
# Bulk Modulus (GPa) = 10.03776 22.52028 16.27902
# Shear Modulus (GPa) = 114.17638 17.31203 65.74420
#
# Velocity S-wave (km/s) = 7.72938 3.00975 5.86523
# Velocity P-wave (km/s) = 9.21467 4.88487 7.37469
#
# Compressibility (1/GPa) = 0.09962383
#
# Stress axis : x y z
#
# Youngs Moduli (GPa) = 103.86786 16.02469 60.69629
#
# Poissons Ratio (x) = -0.03715 0.14327
# Poissons Ratio (y) = -0.24082 -0.33993
# Poissons Ratio (z) = 0.24518 -0.08975
#
# Static dielectric constant tensor:
#      x y z
#    x 1.669660 0.000000 0.000000 
#    y 0.000000 1.670920 0.000000 
#    z 0.000000 0.000000 1.627750 
# 
# From -- ./inp_files/4883.got.cif
#   From: 2010.05.17/outbox.cif.g08.bks.cpg/sg44_3_cif.got.tgz:4883.got - 2010.06.03 19:37:08.
