data_PCOD9375404
_publ_section_title
;
Structure prediction by ZEFSAII (Michael W. Deem and Ramdas Pophale) SiO2 
 PCOD9375404
Probable space group: I M M 2
;
_chemical_formula_sum "Si O2"
_cell_formula_units_Z 64
_cell_length_a 8.840461
_cell_length_b 20.087218
_cell_length_c 20.678262
_cell_angle_alpha 90.000000
_cell_angle_beta 90.000000
_cell_angle_gamma 90.000000
_cell_volume 3672.051294
_symmetry_space_group_name_H-M "I M M 2"
_symmetry_group_IT_number 44
_symmetry_cell_setting 'orthorhombic'
loop_
_space_group_symop_operation_xyz
x,y,z
-x,-y,z
-x,y,z
x,-y,z
1/2+x,1/2+y,1/2+z
1/2-x,1/2-y,1/2+z
1/2-x,1/2+y,1/2+z
1/2+x,1/2-y,1/2+z
loop_
_atom_site_type_symbol
_atom_site_label
_atom_site_fract_x
_atom_site_fract_y
_atom_site_fract_z
Si Si1 0.181630 0.829812 0.006730
Si Si2 0.680975 0.578633 0.262978
Si Si3 0.319014 0.578173 0.757828
Si Si4 0.819165 0.675147 0.011117
Si Si5 0.680265 0.921392 0.117678
Si Si6 0.818034 0.677491 0.862574
Si Si7 0.682152 0.576002 0.114739
Si Si8 0.180342 0.676794 0.366890
O O1 0.219765 0.752690 0.022291
O O2 0.246051 0.877801 0.061474
O O3 0.000000 0.835191 0.002558
O O4 0.252946 0.843965 0.936638
O O5 0.500000 0.589792 0.269272
O O6 0.707718 0.500000 0.274081
O O7 0.725216 0.593202 0.188595
O O8 0.768197 0.624311 0.313146
O O9 0.500000 0.586135 0.756902
O O10 0.284928 0.500000 0.770083
O O11 0.251721 0.595045 0.687395
O O12 0.246806 0.624783 0.812129
O O13 0.744116 0.626938 0.062583
O O14 0.000000 0.669127 0.016332
O O15 0.777424 0.659169 0.936766
O O16 0.500000 0.910870 0.119654
O O17 0.708186 0.000000 0.106004
O O18 0.750227 0.750819 0.850929
O O19 0.000000 0.680847 0.858285
O O20 0.500000 0.576302 0.112877
O O21 0.732418 0.500000 0.101613
O O22 0.000000 0.681507 0.370469
#
# Coordination Sequence:
#
# PCOD9375404 Si02
#       8
#     8   8   8   8   8   8   8   8
#     4  10  21  38  57  78 108 144 182 222 267 322
#     4   9  19  37  57  77 106 144 182 218 262 320
#     4  10  21  37  57  82 111 143 181 225 273 324
#     4   9  20  36  54  78 106 138 176 218 263 313
#     4  10  21  37  57  82 111 143 181 224 270 322
#     4  10  21  38  57  78 108 145 184 223 268 324
#     4   9  19  35  55  79 106 138 176 215 257 311
#     4  11  22  36  56  82 110 139 178 227 276 325
#
# _framework density 17.428948999999999
#
# number of rings (size 3 to 8) (size 9 to 14) (size 15 to 20)
#    0.000    2.250    0.000    4.125    0.000    7.500 
#    0.000    6.250    0.000    0.000    0.000    0.000 
#    0.000    0.000    0.000    0.000    0.000    0.000 
#
# Total GULP energy -178648.571901 kJ/mol
# GULP energy per Si atom -5582.767872 kJ/mol
# Density = 1.738928 g / cm^3
# Si number density = 17.428949 Si / 1000 Ang^3
#
#
#
# Elastic Constant Matrix: (Units=GPa)
#
#
# Indices 1 2 3 4 5 6 
#
# 1 81.8723 67.5718 81.5645 0.0000 0.0000 0.0000
# 2 67.5718 100.8901 120.9263 0.0000 0.0000 0.0000
# 3 81.5645 120.9263 169.1817 0.0000 0.0000 0.0000
# 4 0.0000 0.0000 0.0000 42.3071 0.0000 0.0000
# 5 0.0000 0.0000 0.0000 0.0000 37.4623 0.0000
# 6 0.0000 0.0000 0.0000 0.0000 0.0000 33.8852
#
#
#
# Elastic Compliance Matrix: (Units=1/GPa)
#
#
# Indices 1 2 3 4 5 6 
#
# 1 0.027321 -0.017524 -0.000646 0.000000 0.000000 0.000000
# 2 -0.017524 0.080418 -0.049032 0.000000 0.000000 0.000000
# 3 -0.000646 -0.049032 0.041269 0.000000 0.000000 0.000000
# 4 0.000000 0.000000 0.000000 0.023637 0.000000 0.000000
# 5 0.000000 0.000000 0.000000 0.000000 0.026694 0.000000
# 6 0.000000 0.000000 0.000000 0.000000 0.000000 0.029511
#
#
# Mechanical properties :
#
#
# Convention : Reuss Voigt Hill
#
# Bulk Modulus (GPa) = 68.47522 99.11882 83.79702
# Shear Modulus (GPa) = 13.58241 28.18967 20.88604
#
# Velocity S-wave (km/s) = 2.79463 4.02606 3.46548
# Velocity P-wave (km/s) = 7.05597 8.86600 8.01226
#
# Compressibility (1/GPa) = 0.01460382
#
# Stress axis : x y z
#
# Youngs Moduli (GPa) = 36.60205 12.43496 24.23107
#
# Poissons Ratio (x) = 0.21791 0.01566
# Poissons Ratio (y) = 0.64141 1.18811
# Poissons Ratio (z) = 0.02365 0.60972
#
# Static dielectric constant tensor:
#      x y z
#    x 1.581930 0.000000 0.000000 
#    y 0.000000 1.571550 0.000000 
#    z 0.000000 0.000000 1.566250 
# 
# From -- ./inp_files/20770.got.cif
#   From: 2010.05.17/outbox.cif.g08.bks.cpg/sg44_11_cif.got.tgz:20770.got - 2010.06.03 19:37:08.
