data_PCOD9375433
_publ_section_title
;
Structure prediction by ZEFSAII (Michael W. Deem and Ramdas Pophale) SiO2 
 PCOD9375433
Probable space group: I M M 2
;
_chemical_formula_sum "Si O2"
_cell_formula_units_Z 48
_cell_length_a 8.673345
_cell_length_b 14.774179
_cell_length_c 20.848865
_cell_angle_alpha 90.000000
_cell_angle_beta 90.000000
_cell_angle_gamma 90.000000
_cell_volume 2671.605909
_symmetry_space_group_name_H-M "I M M 2"
_symmetry_group_IT_number 44
_symmetry_cell_setting 'orthorhombic'
loop_
_space_group_symop_operation_xyz
x,y,z
-x,-y,z
-x,y,z
x,-y,z
1/2+x,1/2+y,1/2+z
1/2-x,1/2-y,1/2+z
1/2-x,1/2+y,1/2+z
1/2+x,1/2-y,1/2+z
loop_
_atom_site_type_symbol
_atom_site_label
_atom_site_fract_x
_atom_site_fract_y
_atom_site_fract_z
Si Si1 0.185624 0.500000 0.925750
Si Si2 0.185147 0.808458 0.844763
Si Si3 0.684356 0.304550 0.580924
Si Si4 0.314507 0.500000 0.526062
Si Si5 0.686117 0.807530 0.219939
Si Si6 0.683755 0.000000 0.882300
Si Si7 0.812699 0.500000 0.775991
Si Si8 0.183945 0.808206 0.463229
O O1 0.233245 0.500000 0.850574
O O2 0.249657 0.590864 0.957426
O O3 0.000000 0.500000 0.928113
O O4 0.225325 0.760426 0.777720
O O5 0.249213 0.909428 0.850630
O O6 0.251849 0.749418 0.903206
O O7 0.000000 0.809439 0.850849
O O8 0.500000 0.296842 0.576493
O O9 0.726959 0.408569 0.563674
O O10 0.740639 0.283108 0.652216
O O11 0.760143 0.240619 0.527796
O O12 0.500000 0.500000 0.516479
O O13 0.235953 0.500000 0.456660
O O14 0.500000 0.808519 0.213796
O O15 0.737727 0.908241 0.241291
O O16 0.500000 0.000000 0.878784
O O17 0.000000 0.500000 0.775656
O O18 0.000000 0.809739 0.460611
#
# Coordination Sequence:
#
# PCOD9375433 Si02
#       8
#     4   8   8   4   8   4   4   8
#     4  11  21  40  65  91 122 161 203 247 303 363
#     4  11  22  40  64  88 121 164 204 247 303 366
#     4  11  23  39  60  88 124 166 204 249 306 365
#     4  10  21  37  59  86 123 163 200 244 304 369
#     4  10  21  38  61  89 122 161 201 248 304 363
#     4  12  24  37  60  93 123 155 201 261 306 352
#     4   9  17  34  60  90 122 157 194 238 299 366
#     4  12  24  39  61  92 124 158 204 256 301 354
#
# _framework density 17.966721
#
# number of rings (size 3 to 8) (size 9 to 14) (size 15 to 20)
#    0.000    1.167    3.333    4.000    0.000    2.000 
#    0.000    0.833    0.000    3.000    0.000    0.000 
#    0.000    0.000    0.000    0.000    0.000    0.000 
#
# Total GULP energy -134193.236504 kJ/mol
# GULP energy per Si atom -5591.384854 kJ/mol
# Density = 1.792583 g / cm^3
# Si number density = 17.966721 Si / 1000 Ang^3
#
#
#
# Elastic Constant Matrix: (Units=GPa)
#
#
# Indices 1 2 3 4 5 6 
#
# 1 76.8682 59.6887 66.4484 0.0000 0.0000 0.0000
# 2 59.6887 166.6904 90.6352 0.0000 0.0000 0.0000
# 3 66.4484 90.6352 164.5742 0.0000 0.0000 0.0000
# 4 0.0000 0.0000 0.0000 21.4966 0.0000 0.0000
# 5 0.0000 0.0000 0.0000 0.0000 30.0191 0.0000
# 6 0.0000 0.0000 0.0000 0.0000 0.0000 459.4245
#
#
#
# Elastic Compliance Matrix: (Units=1/GPa)
#
#
# Indices 1 2 3 4 5 6 
#
# 1 0.021992 -0.004349 -0.006484 0.000000 0.000000 0.000000
# 2 -0.004349 0.009424 -0.003434 0.000000 0.000000 0.000000
# 3 -0.006484 -0.003434 0.010585 0.000000 0.000000 0.000000
# 4 0.000000 0.000000 0.000000 0.046519 0.000000 0.000000
# 5 0.000000 0.000000 0.000000 0.000000 0.033312 0.000000
# 6 0.000000 0.000000 0.000000 0.000000 0.000000 0.002177
#
#
# Mechanical properties :
#
#
# Convention : Reuss Voigt Hill
#
# Bulk Modulus (GPa) = 74.25874 93.51971 83.88922
# Shear Modulus (GPa) = 31.84080 114.94541 73.39310
#
# Velocity S-wave (km/s) = 4.21433 8.00723 6.39829
# Velocity P-wave (km/s) = 8.06857 11.73253 10.06862
#
# Compressibility (1/GPa) = 0.01346643
#
# Stress axis : x y z
#
# Youngs Moduli (GPa) = 45.47188 106.11702 94.46975
#
# Poissons Ratio (x) = 0.46152 0.61256
# Poissons Ratio (y) = 0.19776 0.32439
# Poissons Ratio (z) = 0.29485 0.36438
#
# Static dielectric constant tensor:
#      x y z
#    x 1.601250 0.000000 0.000000 
#    y 0.000000 1.599740 0.000000 
#    z 0.000000 0.000000 1.582610 
# 
# From -- ./inp_files/20375.got.cif
#   From: 2010.05.17/outbox.cif.g08.bks.cpg/sg44_11_cif.got.tgz:20375.got - 2010.06.03 19:37:08.
