data_PCOD9375283
_publ_section_title
;
Structure prediction by ZEFSAII (Michael W. Deem and Ramdas Pophale) SiO2 
 PCOD9375283
Probable space group: I M M 2
;
_chemical_formula_sum "Si O2"
_cell_formula_units_Z 48
_cell_length_a 7.968616
_cell_length_b 17.759734
_cell_length_c 17.503140
_cell_angle_alpha 90.000000
_cell_angle_beta 90.000000
_cell_angle_gamma 90.000000
_cell_volume 2477.053133
_symmetry_space_group_name_H-M "I M M 2"
_symmetry_group_IT_number 44
_symmetry_cell_setting 'orthorhombic'
loop_
_space_group_symop_operation_xyz
x,y,z
-x,-y,z
-x,y,z
x,-y,z
1/2+x,1/2+y,1/2+z
1/2-x,1/2-y,1/2+z
1/2-x,1/2+y,1/2+z
1/2+x,1/2-y,1/2+z
loop_
_atom_site_type_symbol
_atom_site_label
_atom_site_fract_x
_atom_site_fract_y
_atom_site_fract_z
Si Si1 0.801993 0.086576 0.514750
Si Si2 0.500000 0.408172 0.614707
Si Si3 0.000000 0.089936 0.940474
Si Si4 0.191543 0.345915 0.345222
Si Si5 0.693982 0.183012 0.372828
Si Si6 0.307801 0.090519 0.220450
Si Si7 0.201244 0.586763 0.183711
O O1 0.720486 0.140086 0.452199
O O2 0.773374 0.111167 0.602213
O O3 0.000000 0.085494 0.499542
O O4 0.738155 0.000000 0.508721
O O5 0.500000 0.500000 0.613652
O O6 0.500000 0.381487 0.527724
O O7 0.333049 0.384619 0.660305
O O8 0.831555 0.116362 0.898118
O O9 0.000000 0.000000 0.941690
O O10 0.197321 0.257484 0.362755
O O11 0.241326 0.363304 0.257370
O O12 0.000000 0.374381 0.356238
O O13 0.500000 0.207016 0.367247
O O14 0.727887 0.126650 0.302714
O O15 0.500000 0.109958 0.198404
O O16 0.298977 0.000000 0.226888
O O17 0.256264 0.500000 0.197862
O O18 0.000000 0.586550 0.175873
#
# Coordination Sequence:
#
# PCOD9375283 Si02
#       7
#     8   4   4   8   8   8   8
#     4  10  21  35  58  92 125 163 207 254 305 362
#     4   9  20  38  62  91 117 150 202 254 301 354
#     4  11  24  44  68  91 118 158 206 256 306 362
#     4  11  24  42  62  91 125 161 203 254 311 366
#     4  11  22  39  59  86 126 167 204 250 305 367
#     4   9  19  36  60  89 121 160 204 247 296 360
#     4   9  19  38  62  87 116 155 204 254 306 364
#
# _framework density 19.377863999999999
#
# number of rings (size 3 to 8) (size 9 to 14) (size 15 to 20)
#    0.000    2.000    0.833    2.000    3.500    3.333 
#    3.000    1.667    0.000    0.000    0.000    0.000 
#    0.000    0.000    0.000    0.000    0.000    0.000 
#
# Total GULP energy -134002.581442 kJ/mol
# GULP energy per Si atom -5583.440893 kJ/mol
# Density = 1.933376 g / cm^3
# Si number density = 19.377864 Si / 1000 Ang^3
#
#
#
# Elastic Constant Matrix: (Units=GPa)
#
#
# Indices 1 2 3 4 5 6 
#
# 1 95.9483 27.2643 60.5420 0.0000 0.0000 0.0000
# 2 27.2643 47.9764 45.5201 0.0000 0.0000 0.0000
# 3 60.5420 45.5201 140.9098 0.0000 0.0000 0.0000
# 4 0.0000 0.0000 0.0000 5.4238 0.0000 0.0000
# 5 0.0000 0.0000 0.0000 0.0000 35.1813 0.0000
# 6 0.0000 0.0000 0.0000 0.0000 0.0000 18.8906
#
#
#
# Elastic Compliance Matrix: (Units=1/GPa)
#
#
# Indices 1 2 3 4 5 6 
#
# 1 0.014673 -0.003399 -0.005206 0.000000 0.000000 0.000000
# 2 -0.003399 0.030843 -0.008503 0.000000 0.000000 0.000000
# 3 -0.005206 -0.008503 0.012081 0.000000 0.000000 0.000000
# 4 0.000000 0.000000 0.000000 0.184373 0.000000 0.000000
# 5 0.000000 0.000000 0.000000 0.000000 0.028424 0.000000
# 6 0.000000 0.000000 0.000000 0.000000 0.000000 0.052936
#
#
# Mechanical properties :
#
#
# Convention : Reuss Voigt Hill
#
# Bulk Modulus (GPa) = 42.77183 61.27637 52.02410
# Shear Modulus (GPa) = 13.68585 21.99969 17.84277
#
# Velocity S-wave (km/s) = 2.66044 3.37308 3.03773
# Velocity P-wave (km/s) = 5.61762 6.84549 6.26172
#
# Compressibility (1/GPa) = 0.02337987
#
# Stress axis : x y z
#
# Youngs Moduli (GPa) = 68.15135 32.42214 82.77678
#
# Poissons Ratio (x) = 0.11019 0.43097
# Poissons Ratio (y) = 0.23163 0.70389
# Poissons Ratio (z) = 0.35483 0.27570
#
# Static dielectric constant tensor:
#      x y z
#    x 1.682280 0.000000 0.000000 
#    y 0.000000 1.661450 0.000000 
#    z 0.000000 0.000000 1.646230 
# 
# From -- ./inp_files/16147.got.cif
#   From: 2010.05.17/outbox.cif.g08.bks.cpg/sg44_9_cif.got.tgz:16147.got - 2010.06.03 19:37:08.
