data_PCOD9375326
_publ_section_title
;
Structure prediction by ZEFSAII (Michael W. Deem and Ramdas Pophale) SiO2 
 PCOD9375326
Probable space group: I M M 2
;
_chemical_formula_sum "Si O2"
_cell_formula_units_Z 64
_cell_length_a 25.672454
_cell_length_b 19.570798
_cell_length_c 6.799305
_cell_angle_alpha 90.000000
_cell_angle_beta 90.000000
_cell_angle_gamma 90.000000
_cell_volume 3416.177608
_symmetry_space_group_name_H-M "I M M 2"
_symmetry_group_IT_number 44
_symmetry_cell_setting 'orthorhombic'
loop_
_space_group_symop_operation_xyz
x,y,z
-x,-y,z
-x,y,z
x,-y,z
1/2+x,1/2+y,1/2+z
1/2-x,1/2-y,1/2+z
1/2-x,1/2+y,1/2+z
1/2+x,1/2-y,1/2+z
loop_
_atom_site_type_symbol
_atom_site_label
_atom_site_fract_x
_atom_site_fract_y
_atom_site_fract_z
Si Si1 0.664452 0.332459 0.533480
Si Si2 0.863159 0.581929 0.901697
Si Si3 0.725483 0.663175 0.145307
Si Si4 0.242513 0.079677 0.300969
Si Si5 0.058007 0.786806 0.933948
Si Si6 0.056788 0.647335 0.179921
Si Si7 0.410400 0.817066 0.099974
Si Si8 0.189621 0.275873 0.360282
O O1 0.683296 0.322708 0.310942
O O2 0.705341 0.384453 0.638456
O O3 0.602285 0.339899 0.503951
O O4 0.669655 0.267140 0.675111
O O5 0.864391 0.500000 0.896043
O O6 0.803069 0.602588 0.842857
O O7 0.899496 0.619843 0.743761
O O8 0.891773 0.607449 0.102501
O O9 0.778339 0.662045 0.269803
O O10 0.716418 0.597688 0.011266
O O11 0.726384 0.725774 0.989493
O O12 0.244248 0.000000 0.258647
O O13 0.069350 0.747327 0.727115
O O14 0.000000 0.816045 0.929595
O O15 0.058949 0.722718 0.084249
O O16 0.057393 0.658080 0.413167
O O17 0.000000 0.617053 0.120660
O O18 0.355949 0.796177 0.002484
#
# Coordination Sequence:
#
# PCOD9375326 Si02
#       8
#     8   8   8   8   8   8   8   8
#     4  11  21  36  58  85 116 152 184 235 292 350
#     4  10  23  40  55  76 112 156 203 244 283 336
#     4  11  21  32  55  83 118 149 183 238 283 343
#     4  10  24  41  57  83 116 158 199 233 284 348
#     4  10  21  36  55  85 118 145 182 233 294 352
#     4  10  21  37  58  80 111 153 193 240 290 340
#     4  11  20  34  56  81 115 148 186 240 291 345
#     4  11  20  30  52  87 116 146 186 227 293 350
#
# _framework density 18.734389
#
# number of rings (size 3 to 8) (size 9 to 14) (size 15 to 20)
#    0.000    1.500    3.750    1.875    3.500    1.750 
#    0.000    3.125    0.000    0.375    0.000    0.000 
#    0.000    0.000    0.000    0.000    0.000    0.000 
#
# Total GULP energy -178145.471014 kJ/mol
# GULP energy per Si atom -5567.045969 kJ/mol
# Density = 1.869175 g / cm^3
# Si number density = 18.734389 Si / 1000 Ang^3
#
#
#
# Elastic Constant Matrix: (Units=GPa)
#
#
# Indices 1 2 3 4 5 6 
#
# 1 138.4262 27.4196 37.8197 0.0000 0.0000 0.0000
# 2 27.4196 34.4912 10.9842 0.0000 0.0000 0.0000
# 3 37.8197 10.9842 102.2473 0.0000 0.0000 0.0000
# 4 0.0000 0.0000 0.0000 12.8918 0.0000 0.0000
# 5 0.0000 0.0000 0.0000 0.0000 17.0235 0.0000
# 6 0.0000 0.0000 0.0000 0.0000 0.0000 17.6924
#
#
#
# Elastic Compliance Matrix: (Units=1/GPa)
#
#
# Indices 1 2 3 4 5 6 
#
# 1 0.009254 -0.006489 -0.002726 0.000000 0.000000 0.000000
# 2 -0.006489 0.034570 -0.001314 0.000000 0.000000 0.000000
# 3 -0.002726 -0.001314 0.010930 0.000000 0.000000 0.000000
# 4 0.000000 0.000000 0.000000 0.077569 0.000000 0.000000
# 5 0.000000 0.000000 0.000000 0.000000 0.058742 0.000000
# 6 0.000000 0.000000 0.000000 0.000000 0.000000 0.056521
#
#
# Mechanical properties :
#
#
# Convention : Reuss Voigt Hill
#
# Bulk Modulus (GPa) = 29.67639 47.51240 38.59440
# Shear Modulus (GPa) = 17.86516 22.78429 20.32472
#
# Velocity S-wave (km/s) = 3.09140 3.49115 3.29734
# Velocity P-wave (km/s) = 5.34951 6.45500 5.92808
#
# Compressibility (1/GPa) = 0.03369682
#
# Stress axis : x y z
#
# Youngs Moduli (GPa) = 108.06024 28.92716 91.49474
#
# Poissons Ratio (x) = 0.18770 0.24940
# Poissons Ratio (y) = 0.70117 0.12019
# Poissons Ratio (z) = 0.29456 0.03800
#
# Static dielectric constant tensor:
#      x y z
#    x 1.731750 0.000000 0.000000 
#    y 0.000000 1.633020 0.000000 
#    z 0.000000 0.000000 1.670700 
# 
# From -- ./inp_files/3118.got.cif
#   From: 2010.05.17/outbox.cif.g08.bks.cpg/sg44_2_cif.got.tgz:3118.got - 2010.06.03 19:37:08.
