data_PCOD9375917
_publ_section_title
;
Structure prediction by ZEFSAII (Michael W. Deem and Ramdas Pophale) SiO2 
 PCOD9375917
Probable space group: I M M 2
;
_chemical_formula_sum "Si O2"
_cell_formula_units_Z 64
_cell_length_a 7.286461
_cell_length_b 14.541409
_cell_length_c 24.044578
_cell_angle_alpha 90.000000
_cell_angle_beta 90.000000
_cell_angle_gamma 90.000000
_cell_volume 2547.653110
_symmetry_space_group_name_H-M "I M M 2"
_symmetry_group_IT_number 44
_symmetry_cell_setting 'orthorhombic'
loop_
_space_group_symop_operation_xyz
x,y,z
-x,-y,z
-x,y,z
x,-y,z
1/2+x,1/2+y,1/2+z
1/2-x,1/2-y,1/2+z
1/2-x,1/2+y,1/2+z
1/2+x,1/2-y,1/2+z
loop_
_atom_site_type_symbol
_atom_site_label
_atom_site_fract_x
_atom_site_fract_y
_atom_site_fract_z
Si Si1 0.775532 0.305897 0.267440
Si Si2 0.213092 0.902244 0.125627
Si Si3 0.792236 0.642029 0.027900
Si Si4 0.277925 0.145675 0.409888
Si Si5 0.224468 0.694103 0.145351
Si Si6 0.786908 0.097756 0.287164
Si Si7 0.207764 0.642029 0.384891
Si Si8 0.277925 0.854326 0.002903
O O1 0.726063 0.342070 0.206395
O O2 0.713872 0.198627 0.270945
O O3 0.712036 0.360253 0.322669
O O4 0.000000 0.304709 0.270899
O O5 0.286129 0.801373 0.141846
O O6 0.000000 0.900803 0.142243
O O7 0.291657 0.000000 0.145207
O O8 0.223990 0.904382 0.058877
O O9 0.712035 0.639747 0.090122
O O10 0.000000 0.606943 0.031949
O O11 0.712666 0.607149 0.969380
O O12 0.794326 0.751301 0.014080
O O13 0.500000 0.149017 0.412203
O O14 0.223990 0.095618 0.353914
O O15 0.205673 0.248698 0.398711
O O16 0.000000 0.695291 0.141892
O O17 0.000000 0.099197 0.270548
O O18 0.708343 0.000000 0.267584
O O19 0.287334 0.607149 0.443411
O O20 0.000000 0.606943 0.380841
O O21 0.500000 0.850984 0.000588
#
# Coordination Sequence:
#
# PCOD9375917 Si02
#       8
#     8   8   8   8   8   8   8   8
#     4   8  13  22  37  55  73  94 121 150 177 208
#     4   9  17  27  37  51  73  99 126 154 179 206
#     4   8  14  24  37  54  73  91 115 148 184 218
#     4   9  15  23  37  54  71  92 118 149 184 218
#     4   8  13  22  37  55  73  94 121 150 177 208
#     4   9  17  27  37  51  73  99 126 154 179 206
#     4   8  14  24  37  54  73  91 115 148 184 218
#     4   9  15  23  37  54  71  92 118 149 184 218
#
# _framework density 25.121158000000001
#
# number of rings (size 3 to 8) (size 9 to 14) (size 15 to 20)
#    0.000    3.500    0.000    2.250    0.000    2.000 
#    0.000    2.500    0.000   12.000    0.000    7.000 
#    0.000    1.000    0.000   12.500    0.000    2.500 
#
# Total GULP energy -178275.920346 kJ/mol
# GULP energy per Si atom -5571.122511 kJ/mol
# Density = 2.506398 g / cm^3
# Si number density = 25.121158 Si / 1000 Ang^3
#
#
#
# Elastic Constant Matrix: (Units=GPa)
#
#
# Indices 1 2 3 4 5 6 
#
# 1 124.2334 -0.1875 4.0628 0.0000 0.0000 0.0000
# 2 -0.1875 48.6783 8.9622 0.0000 0.0000 0.0000
# 3 4.0628 8.9622 292.6940 0.0000 0.0000 0.0000
# 4 0.0000 0.0000 0.0000 197.5144 0.0000 0.0000
# 5 0.0000 0.0000 0.0000 0.0000 -2.0156 0.0000
# 6 0.0000 0.0000 0.0000 0.0000 0.0000 -15.0567
#
#
#
# Elastic Compliance Matrix: (Units=1/GPa)
#
#
# Indices 1 2 3 4 5 6 
#
# 1 0.008053 0.000052 -0.000113 0.000000 0.000000 0.000000
# 2 0.000052 0.020660 -0.000633 0.000000 0.000000 0.000000
# 3 -0.000113 -0.000633 0.003438 0.000000 0.000000 0.000000
# 4 0.000000 0.000000 0.000000 0.005063 0.000000 0.000000
# 5 0.000000 0.000000 0.000000 0.000000 -0.496122 0.000000
# 6 0.000000 0.000000 0.000000 0.000000 0.000000 -0.066416
#
#
# Mechanical properties :
#
#
# Convention : Reuss Voigt Hill
#
# Bulk Modulus (GPa) = 32.50882 54.58674 43.54778
# Shear Modulus (GPa) = -9.73367 66.27297 28.26965
#
# Velocity S-wave (km/s) = -1.97056 5.14185 3.35824
# Velocity P-wave (km/s) = 2.79131 7.55169 5.69295
#
# Compressibility (1/GPa) = 0.03076089
#
# Stress axis : x y z
#
# Youngs Moduli (GPa) = 124.17495 48.40314 290.90881
#
# Poissons Ratio (x) = -0.00251 0.03298
# Poissons Ratio (y) = -0.00644 0.18424
# Poissons Ratio (z) = 0.01408 0.03065
#
# Static dielectric constant tensor:
#      x y z
#    x 1.975270 0.000000 0.000000 
#    y 0.000000 1.969760 0.000000 
#    z 0.000000 0.000000 2.047980 
# 
# From -- ./inp_files/9139.got.cif
#   From: 2010.05.17/outbox.cif.g08.bks.cpg/sg44_5_cif.got.tgz:9139.got - 2010.06.03 19:37:08.
