data_PCOD9375571
_publ_section_title
;
Structure prediction by ZEFSAII (Michael W. Deem and Ramdas Pophale) SiO2 
 PCOD9375571
Probable space group: I M M 2
;
_chemical_formula_sum "Si O2"
_cell_formula_units_Z 42
_cell_length_a 20.518831
_cell_length_b 12.462524
_cell_length_c 6.908986
_cell_angle_alpha 90.000000
_cell_angle_beta 90.000000
_cell_angle_gamma 90.000000
_cell_volume 1766.741192
_symmetry_space_group_name_H-M "I M M 2"
_symmetry_group_IT_number 44
_symmetry_cell_setting 'orthorhombic'
loop_
_space_group_symop_operation_xyz
x,y,z
-x,-y,z
-x,y,z
x,-y,z
1/2+x,1/2+y,1/2+z
1/2-x,1/2-y,1/2+z
1/2-x,1/2+y,1/2+z
1/2+x,1/2-y,1/2+z
loop_
_atom_site_type_symbol
_atom_site_label
_atom_site_fract_x
_atom_site_fract_y
_atom_site_fract_z
Si Si1 0.242355 0.159206 0.720690
Si Si2 0.893653 0.817124 0.871705
Si Si3 0.707439 0.615394 0.784948
Si Si4 0.110854 0.377967 0.172211
Si Si5 0.000000 0.000000 0.969416
Si Si6 0.429076 0.303309 0.919129
O O1 0.180990 0.140389 0.859175
O O2 0.226416 0.114315 0.510961
O O3 0.315588 0.122010 0.759864
O O4 0.250509 0.287797 0.701325
O O5 0.943277 0.904982 0.952243
O O6 0.913435 0.802007 0.646269
O O7 0.893128 0.704062 0.988502
O O8 0.721183 0.500000 0.700473
O O9 0.630279 0.640865 0.803319
O O10 0.092351 0.500000 0.127228
O O11 0.070034 0.316407 0.334839
O O12 0.500000 0.355978 0.889603
#
# Coordination Sequence:
#
# PCOD9375571 Si02
#       6
#     8   8   8   8   2   8
#     4  10  21  40  67 100 133 174 240 287 360 431
#     4  11  25  47  71 108 146 190 243 300 367 445
#     4  10  21  39  64  94 132 174 221 291 357 415
#     4  11  25  47  73 105 146 191 242 311 367 432
#     4  12  28  48  76 108 152 202 242 298 378 436
#     4  10  24  43  68 102 139 185 249 288 360 445
#
# _framework density 23.772583000000001
#
# number of rings (size 3 to 8) (size 9 to 14) (size 15 to 20)
#    0.000    1.524    2.857    0.571    8.000    1.524 
#    6.857    9.524    0.000    0.000    0.000    0.000 
#    0.000    0.000    0.000    0.000    0.000    0.000 
#
# Total GULP energy -117120.725532 kJ/mol
# GULP energy per Si atom -5577.177406 kJ/mol
# Density = 2.371848 g / cm^3
# Si number density = 23.772583 Si / 1000 Ang^3
#
#
#
# Elastic Constant Matrix: (Units=GPa)
#
#
# Indices 1 2 3 4 5 6 
#
# 1 173.2545 34.6519 17.7705 0.0000 0.0000 0.0000
# 2 34.6519 194.2185 31.2037 0.0000 0.0000 0.0000
# 3 17.7705 31.2037 78.1647 0.0000 0.0000 0.0000
# 4 0.0000 0.0000 0.0000 33.4171 0.0000 0.0000
# 5 0.0000 0.0000 0.0000 0.0000 19.1695 0.0000
# 6 0.0000 0.0000 0.0000 0.0000 0.0000 8.1010
#
#
#
# Elastic Compliance Matrix: (Units=1/GPa)
#
#
# Indices 1 2 3 4 5 6 
#
# 1 0.006059 -0.000919 -0.001011 0.000000 0.000000 0.000000
# 2 -0.000919 0.005641 -0.002043 0.000000 0.000000 0.000000
# 3 -0.001011 -0.002043 0.013839 0.000000 0.000000 0.000000
# 4 0.000000 0.000000 0.000000 0.029925 0.000000 0.000000
# 5 0.000000 0.000000 0.000000 0.000000 0.052166 0.000000
# 6 0.000000 0.000000 0.000000 0.000000 0.000000 0.123441
#
#
# Mechanical properties :
#
#
# Convention : Reuss Voigt Hill
#
# Bulk Modulus (GPa) = 56.83730 68.09887 62.46808
# Shear Modulus (GPa) = 20.41808 36.27162 28.34485
#
# Velocity S-wave (km/s) = 2.93387 3.91036 3.45676
# Velocity P-wave (km/s) = 5.95293 7.00685 6.50129
#
# Compressibility (1/GPa) = 0.01759408
#
# Stress axis : x y z
#
# Youngs Moduli (GPa) = 165.03626 177.27386 72.26008
#
# Poissons Ratio (x) = 0.16286 0.07304
# Poissons Ratio (y) = 0.15162 0.14763
# Poissons Ratio (z) = 0.16682 0.36218
#
# Static dielectric constant tensor:
#      x y z
#    x 1.919250 0.000000 0.000000 
#    y 0.000000 1.891000 0.000000 
#    z 0.000000 0.000000 1.955360 
# 
# From -- ./inp_files/9307.got.cif
#   From: 2010.05.17/outbox.cif.g08.bks.cpg/sg44_5_cif.got.tgz:9307.got - 2010.06.03 19:37:08.
