data_PCOD9375171
_publ_section_title
;
Structure prediction by ZEFSAII (Michael W. Deem and Ramdas Pophale) SiO2 
 PCOD9375171
Probable space group: I M M 2
;
_chemical_formula_sum "Si O2"
_cell_formula_units_Z 58
_cell_length_a 7.637977
_cell_length_b 19.877003
_cell_length_c 15.564086
_cell_angle_alpha 90.000000
_cell_angle_beta 90.000000
_cell_angle_gamma 90.000000
_cell_volume 2362.940964
_symmetry_space_group_name_H-M "I M M 2"
_symmetry_group_IT_number 44
_symmetry_cell_setting 'orthorhombic'
loop_
_space_group_symop_operation_xyz
x,y,z
-x,-y,z
-x,y,z
x,-y,z
1/2+x,1/2+y,1/2+z
1/2-x,1/2-y,1/2+z
1/2-x,1/2+y,1/2+z
1/2+x,1/2-y,1/2+z
loop_
_atom_site_type_symbol
_atom_site_label
_atom_site_fract_x
_atom_site_fract_y
_atom_site_fract_z
Si Si1 0.207477 0.146833 0.607440
Si Si2 0.707247 0.600857 0.288106
Si Si3 0.793964 0.225725 0.023761
Si Si4 0.799809 0.425501 0.567144
Si Si5 0.798323 0.110670 0.256195
Si Si6 0.294344 0.756473 0.337459
Si Si7 0.207949 0.923523 0.442143
Si Si8 0.500000 0.000000 0.851431
O O1 0.269800 0.103933 0.688578
O O2 0.227750 0.227679 0.601820
O O3 0.285540 0.120169 0.518384
O O4 0.000000 0.134353 0.607593
O O5 0.500000 0.580762 0.295301
O O6 0.714183 0.679464 0.310401
O O7 0.842954 0.557882 0.342530
O O8 0.769182 0.145383 0.031000
O O9 0.000000 0.235534 0.020764
O O10 0.718429 0.254648 0.934236
O O11 0.720818 0.500000 0.548279
O O12 0.793093 0.413778 0.670027
O O13 0.000000 0.429888 0.537811
O O14 0.793805 0.190630 0.273905
O O15 0.721778 0.083901 0.345971
O O16 0.000000 0.088642 0.246617
O O17 0.500000 0.775119 0.339479
O O18 0.000000 0.907080 0.433564
O O19 0.221603 0.000000 0.469775
#
# Coordination Sequence:
#
# PCOD9375171 Si02
#       8
#     8   8   8   8   8   8   8   2
#     4  10  20  38  64  92 127 173 213 261 320 388
#     4  10  24  44  66  94 132 174 220 274 334 390
#     4  11  23  40  66  96 129 166 214 270 323 388
#     4  11  25  44  64  90 127 170 215 266 329 392
#     4  11  21  36  65  95 127 165 213 268 315 384
#     4  10  22  42  64  93 130 169 213 270 329 385
#     4   9  18  32  54  90 128 165 207 254 313 380
#     4  12  26  44  68  98 128 176 222 280 324 406
#
# _framework density 24.545680999999998
#
# number of rings (size 3 to 8) (size 9 to 14) (size 15 to 20)
#    0.000    1.655    1.379    2.690    2.897    3.310 
#    1.241    0.000    0.000    0.828    0.000    0.000 
#    0.000    0.000    0.000    0.000    0.000    0.000 
#
# Total GULP energy -161757.118740 kJ/mol
# GULP energy per Si atom -5577.831681 kJ/mol
# Density = 2.448981 g / cm^3
# Si number density = 24.545681 Si / 1000 Ang^3
#
#
#
# Elastic Constant Matrix: (Units=GPa)
#
#
# Indices 1 2 3 4 5 6 
#
# 1 85.2371 8.6516 -5.9697 0.0000 0.0000 0.0000
# 2 8.6516 83.1131 -4.1810 0.0000 0.0000 0.0000
# 3 -5.9697 -4.1810 61.2618 0.0000 0.0000 0.0000
# 4 0.0000 0.0000 0.0000 0.8724 0.0000 0.0000
# 5 0.0000 0.0000 0.0000 0.0000 10.0716 0.0000
# 6 0.0000 0.0000 0.0000 0.0000 0.0000 55.7842
#
#
#
# Elastic Compliance Matrix: (Units=1/GPa)
#
#
# Indices 1 2 3 4 5 6 
#
# 1 0.011928 -0.001187 0.001081 0.000000 0.000000 0.000000
# 2 -0.001187 0.012191 0.000716 0.000000 0.000000 0.000000
# 3 0.001081 0.000716 0.016478 0.000000 0.000000 0.000000
# 4 0.000000 0.000000 0.000000 1.146237 -0.000001 0.000000
# 5 0.000000 0.000000 0.000000 -0.000001 0.099289 0.000000
# 6 0.000000 0.000000 0.000000 0.000000 0.000000 0.017926
#
#
# Mechanical properties :
#
#
# Convention : Reuss Voigt Hill
#
# Bulk Modulus (GPa) = 23.91309 25.17932 24.54621
# Shear Modulus (GPa) = 3.79717 28.75305 16.27511
#
# Velocity S-wave (km/s) = 1.24513 3.42630 2.57778
# Velocity P-wave (km/s) = 3.43956 5.09246 4.34532
#
# Compressibility (1/GPa) = 0.04181810
#
# Stress axis : x y z
#
# Youngs Moduli (GPa) = 83.83483 82.02487 60.68827
#
# Poissons Ratio (x) = 0.09739 -0.06562
# Poissons Ratio (y) = 0.09953 -0.04347
# Poissons Ratio (z) = -0.09065 -0.05876
#
# Static dielectric constant tensor:
#      x y z
#    x 1.914600 0.000000 0.000000 
#    y 0.000000 1.962890 0.000000 
#    z 0.000000 0.000000 2.054220 
# 
# From -- ./inp_files/20551.got.cif
#   From: 2010.05.17/outbox.cif.g08.bks.cpg/sg44_11_cif.got.tgz:20551.got - 2010.06.03 19:37:08.
