data_PCOD9375823
_publ_section_title
;
Structure prediction by ZEFSAII (Michael W. Deem and Ramdas Pophale) SiO2 
 PCOD9375823
Probable space group: I M M 2
;
_chemical_formula_sum "Si O2"
_cell_formula_units_Z 48
_cell_length_a 8.780174
_cell_length_b 16.967512
_cell_length_c 18.722523
_cell_angle_alpha 90.000000
_cell_angle_beta 90.000000
_cell_angle_gamma 90.000000
_cell_volume 2789.238559
_symmetry_space_group_name_H-M "I M M 2"
_symmetry_group_IT_number 44
_symmetry_cell_setting 'orthorhombic'
loop_
_space_group_symop_operation_xyz
x,y,z
-x,-y,z
-x,y,z
x,-y,z
1/2+x,1/2+y,1/2+z
1/2-x,1/2-y,1/2+z
1/2-x,1/2+y,1/2+z
1/2+x,1/2-y,1/2+z
loop_
_atom_site_type_symbol
_atom_site_label
_atom_site_fract_x
_atom_site_fract_y
_atom_site_fract_z
Si Si1 0.319270 0.760819 0.880700
Si Si2 0.318091 0.672869 0.030079
Si Si3 0.819159 0.179797 0.106921
Si Si4 0.685132 0.500000 0.001628
Si Si5 0.316715 0.500000 0.835835
Si Si6 0.680949 0.844823 0.262789
Si Si7 0.183681 0.409437 0.472507
O O1 0.500000 0.761266 0.864781
O O2 0.230546 0.728100 0.812939
O O3 0.273938 0.846707 0.910900
O O4 0.296772 0.701905 0.948170
O O5 0.500000 0.679117 0.044203
O O6 0.229834 0.733762 0.079512
O O7 0.267725 0.582419 0.036425
O O8 0.743586 0.164114 0.183022
O O9 0.000000 0.173259 0.112203
O O10 0.757432 0.120350 0.046135
O O11 0.500000 0.500000 0.001865
O O12 0.731452 0.500000 0.918714
O O13 0.500000 0.500000 0.833504
O O14 0.254346 0.422420 0.797731
O O15 0.500000 0.852081 0.261778
O O16 0.223046 0.500000 0.457229
O O17 0.000000 0.403611 0.480371
#
# Coordination Sequence:
#
# PCOD9375823 Si02
#       7
#     8   8   8   4   4   8   8
#     4   9  17  33  57  81 108 143 180 220 270 325
#     4   9  17  34  57  82 109 143 181 219 268 326
#     4  11  23  37  54  78 111 149 184 225 272 321
#     4   9  16  31  59  85 109 140 175 216 267 325
#     4  11  21  37  57  83 113 144 177 216 273 331
#     4  12  24  37  54  80 113 148 183 224 270 324
#     4   9  19  37  60  83 108 140 180 224 273 327
#
# _framework density 17.208998000000001
#
# number of rings (size 3 to 8) (size 9 to 14) (size 15 to 20)
#    0.000    2.000    1.667    4.250    1.167    3.000 
#    0.000    0.417    1.833    0.000    0.000    0.000 
#    0.000    0.000    0.000    0.000    0.000    0.000 
#
# Total GULP energy -133969.347557 kJ/mol
# GULP energy per Si atom -5582.056148 kJ/mol
# Density = 1.716983 g / cm^3
# Si number density = 17.208998 Si / 1000 Ang^3
#
#
#
# Elastic Constant Matrix: (Units=GPa)
#
#
# Indices 1 2 3 4 5 6 
#
# 1 66.0188 35.5178 34.4167 0.0000 0.0000 0.0000
# 2 35.5178 139.2312 36.0580 0.0000 0.0000 0.0000
# 3 34.4167 36.0580 69.4093 0.0000 0.0000 0.0000
# 4 0.0000 0.0000 0.0000 13.9015 0.0000 0.0000
# 5 0.0000 0.0000 0.0000 0.0000 27.4816 0.0000
# 6 0.0000 0.0000 0.0000 0.0000 0.0000 25.2554
#
#
#
# Elastic Compliance Matrix: (Units=1/GPa)
#
#
# Indices 1 2 3 4 5 6 
#
# 1 0.021565 -0.003157 -0.009053 0.000000 0.000000 0.000000
# 2 -0.003157 0.008761 -0.002986 0.000000 0.000000 0.000000
# 3 -0.009053 -0.002986 0.020448 0.000000 0.000000 0.000000
# 4 0.000000 0.000000 0.000000 0.071935 0.000000 0.000000
# 5 0.000000 0.000000 0.000000 0.000000 0.036388 0.000000
# 6 0.000000 0.000000 0.000000 0.000000 0.000000 0.039596
#
#
# Mechanical properties :
#
#
# Convention : Reuss Voigt Hill
#
# Bulk Modulus (GPa) = 49.06345 54.07155 51.56750
# Shear Modulus (GPa) = 21.19745 24.57214 22.88480
#
# Velocity S-wave (km/s) = 3.51346 3.78281 3.65062
# Velocity P-wave (km/s) = 6.71055 7.11114 6.91374
#
# Compressibility (1/GPa) = 0.02038177
#
# Stress axis : x y z
#
# Youngs Moduli (GPa) = 46.37140 114.14382 48.90557
#
# Poissons Ratio (x) = 0.36031 0.44275
# Poissons Ratio (y) = 0.14638 0.14603
# Poissons Ratio (z) = 0.41981 0.34084
#
# Static dielectric constant tensor:
#      x y z
#    x 1.573420 0.000000 0.000000 
#    y 0.000000 1.600670 0.000000 
#    z 0.000000 0.000000 1.550100 
# 
# From -- ./inp_files/16197.got.cif
#   From: 2010.05.17/outbox.cif.g08.bks.cpg/sg44_9_cif.got.tgz:16197.got - 2010.06.03 19:37:08.
