data_PCOD9375167
_publ_section_title
;
Structure prediction by ZEFSAII (Michael W. Deem and Ramdas Pophale) SiO2 
 PCOD9375167
Probable space group: I M M 2
;
_chemical_formula_sum "Si O2"
_cell_formula_units_Z 58
_cell_length_a 16.491162
_cell_length_b 9.920502
_cell_length_c 17.767052
_cell_angle_alpha 90.000000
_cell_angle_beta 90.000000
_cell_angle_gamma 90.000000
_cell_volume 2906.700467
_symmetry_space_group_name_H-M "I M M 2"
_symmetry_group_IT_number 44
_symmetry_cell_setting 'orthorhombic'
loop_
_space_group_symop_operation_xyz
x,y,z
-x,-y,z
-x,y,z
x,-y,z
1/2+x,1/2+y,1/2+z
1/2-x,1/2-y,1/2+z
1/2-x,1/2+y,1/2+z
1/2+x,1/2-y,1/2+z
loop_
_atom_site_type_symbol
_atom_site_label
_atom_site_fract_x
_atom_site_fract_y
_atom_site_fract_z
Si Si1 0.831370 0.158048 0.006940
Si Si2 0.333013 0.844750 0.794977
Si Si3 0.903512 0.856755 0.412666
Si Si4 0.146010 0.284156 0.547815
Si Si5 0.905625 0.655919 0.706882
Si Si6 0.903317 0.840058 0.164223
Si Si7 0.355664 0.343784 0.338335
Si Si8 0.000000 0.500000 0.525099
O O1 0.735517 0.171504 0.022499
O O2 0.879087 0.207555 0.080279
O O3 0.849958 0.000000 0.002241
O O4 0.855090 0.209711 0.924252
O O5 0.371401 0.770206 0.866741
O O6 0.358097 0.753269 0.724347
O O7 0.237244 0.846175 0.809962
O O8 0.360733 0.000000 0.787769
O O9 0.874278 0.845644 0.498338
O O10 0.000000 0.854819 0.409131
O O11 0.875108 0.000000 0.379258
O O12 0.142860 0.276977 0.638079
O O13 0.072817 0.385082 0.526812
O O14 0.878434 0.500000 0.716098
O O15 0.899672 0.743284 0.781714
O O16 0.000000 0.649288 0.683471
O O17 0.000000 0.830065 0.175694
O O18 0.881492 0.000000 0.171730
O O19 0.385229 0.500000 0.335437
#
# Coordination Sequence:
#
# PCOD9375167 Si02
#       8
#     8   8   8   8   8   8   8   2
#     4  10  20  38  64  89 119 159 204 257 304 364
#     4  11  23  39  62  89 122 159 202 252 305 366
#     4  11  24  37  55  87 127 161 196 242 300 367
#     4  12  20  37  62  90 124 155 204 249 303 369
#     4  11  22  39  62  92 124 160 208 254 306 370
#     4  10  22  41  64  90 119 158 210 259 309 363
#     4  10  23  40  60  90 123 158 205 254 307 369
#     4  12  20  32  66 100 118 160 200 256 304 372
#
# _framework density 19.953897000000001
#
# number of rings (size 3 to 8) (size 9 to 14) (size 15 to 20)
#    0.000    1.241    4.138    1.655    0.966    5.793 
#    0.000    2.759    0.000    0.000    0.000    0.000 
#    0.000    0.000    0.000    0.000    0.000    0.000 
#
# Total GULP energy -161588.864775 kJ/mol
# GULP energy per Si atom -5572.029820 kJ/mol
# Density = 1.990848 g / cm^3
# Si number density = 19.953897 Si / 1000 Ang^3
#
#
#
# Elastic Constant Matrix: (Units=GPa)
#
#
# Indices 1 2 3 4 5 6 
#
# 1 11.8371 18.6671 16.0476 0.0000 0.0000 0.0000
# 2 18.6671 91.6983 53.1447 0.0000 0.0000 0.0000
# 3 16.0476 53.1447 136.9902 0.0000 0.0000 0.0000
# 4 0.0000 0.0000 0.0000 -277.1313 0.0000 0.0000
# 5 0.0000 0.0000 0.0000 0.0000 30.4612 0.0000
# 6 0.0000 0.0000 0.0000 0.0000 0.0000 20.0651
#
#
#
# Elastic Compliance Matrix: (Units=1/GPa)
#
#
# Indices 1 2 3 4 5 6 
#
# 1 0.128542 -0.022499 -0.006330 0.000000 0.000000 0.000000
# 2 -0.022499 0.018007 -0.004350 0.000000 0.000000 0.000000
# 3 -0.006330 -0.004350 0.009729 0.000000 0.000000 0.000000
# 4 0.000000 0.000000 0.000000 -0.003608 0.000000 0.000000
# 5 0.000000 0.000000 0.000000 0.000000 0.032829 0.000000
# 6 0.000000 0.000000 0.000000 0.000000 0.000000 0.049838
#
#
# Mechanical properties :
#
#
# Convention : Reuss Voigt Hill
#
# Bulk Modulus (GPa) = 11.12093 46.24939 28.68516
# Shear Modulus (GPa) = 15.07539 -35.14323 -10.03392
#
# Velocity S-wave (km/s) = 2.75164 -4.20124 -2.24488
# Velocity P-wave (km/s) = 3.95989 0.55271 2.77266
#
# Compressibility (1/GPa) = 0.08992054
#
# Stress axis : x y z
#
# Youngs Moduli (GPa) = 7.77953 55.53536 102.78778
#
# Poissons Ratio (x) = 1.24950 0.65060
# Poissons Ratio (y) = 0.17503 0.44712
# Poissons Ratio (z) = 0.04924 0.24157
#
# Static dielectric constant tensor:
#      x y z
#    x 1.711470 0.000000 0.000000 
#    y 0.000000 2.016170 0.000000 
#    z 0.000000 0.000000 1.767790 
# 
# From -- ./inp_files/22137.got.cif
#   From: 2010.05.17/outbox.cif.g08.bks.cpg/sg44_12_cif.got.tgz:22137.got - 2010.06.03 19:37:08.
