data_PCOD9375241
_publ_section_title
;
Structure prediction by ZEFSAII (Michael W. Deem and Ramdas Pophale) SiO2 
 PCOD9375241
Probable space group: I M M 2
;
_chemical_formula_sum "Si O2"
_cell_formula_units_Z 48
_cell_length_a 10.268584
_cell_length_b 7.872101
_cell_length_c 31.401516
_cell_angle_alpha 90.000000
_cell_angle_beta 90.000000
_cell_angle_gamma 90.000000
_cell_volume 2538.351920
_symmetry_space_group_name_H-M "I M M 2"
_symmetry_group_IT_number 44
_symmetry_cell_setting 'orthorhombic'
loop_
_space_group_symop_operation_xyz
x,y,z
-x,-y,z
-x,y,z
x,-y,z
1/2+x,1/2+y,1/2+z
1/2-x,1/2-y,1/2+z
1/2-x,1/2+y,1/2+z
1/2+x,1/2-y,1/2+z
loop_
_atom_site_type_symbol
_atom_site_label
_atom_site_fract_x
_atom_site_fract_y
_atom_site_fract_z
Si Si1 0.648512 0.795028 0.275680
Si Si2 0.647509 0.797011 0.610266
Si Si3 0.647322 0.702132 0.514930
Si Si4 0.851827 0.795328 0.679501
Si Si5 0.149103 0.207560 0.346457
Si Si6 0.352653 0.295492 0.942960
O O1 0.500000 0.733828 0.282398
O O2 0.687917 0.747399 0.227736
O O3 0.748447 0.732425 0.311393
O O4 0.646126 0.000000 0.278089
O O5 0.500000 0.728695 0.615318
O O6 0.688576 0.766289 0.561543
O O7 0.750255 0.729632 0.644563
O O8 0.640714 0.000000 0.616304
O O9 0.500000 0.767963 0.506609
O O10 0.640571 0.500000 0.517529
O O11 0.747685 0.746837 0.477993
O O12 0.000000 0.731670 0.673159
O O13 0.856197 0.000000 0.675943
O O14 0.180537 0.261622 0.394842
O O15 0.000000 0.258028 0.337098
O O16 0.151402 0.000000 0.346078
O O17 0.500000 0.235678 0.952933
O O18 0.356978 0.500000 0.941779
#
# Coordination Sequence:
#
# PCOD9375241 Si02
#       6
#     8   8   8   8   8   8
#     4   9  17  29  46  69  95 122 154 191 230 275
#     4   9  18  33  51  69  91 122 160 199 237 281
#     4  10  21  35  50  72 102 131 160 198 245 295
#     4   9  18  32  48  67  93 123 154 191 235 281
#     4   8  15  29  48  70  95 122 155 195 234 274
#     4   9  18  33  53  75  98 127 165 205 243 287
#
# _framework density 18.909908000000001
#
# number of rings (size 3 to 8) (size 9 to 14) (size 15 to 20)
#    0.000    3.000    0.000    1.500    0.000    4.000 
#    0.000    4.167    0.000    3.000    0.000    0.000 
#    0.000    0.000    0.000    0.000    0.000    0.000 
#
# Total GULP energy -133802.936935 kJ/mol
# GULP energy per Si atom -5575.122372 kJ/mol
# Density = 1.886687 g / cm^3
# Si number density = 18.909908 Si / 1000 Ang^3
#
#
#
# Elastic Constant Matrix: (Units=GPa)
#
#
# Indices 1 2 3 4 5 6 
#
# 1 127.9202 5.7539 139.1929 0.0000 0.0000 0.0000
# 2 5.7539 17.3213 1.6614 0.0000 0.0000 0.0000
# 3 139.1929 1.6614 184.8166 0.0000 0.0000 0.0000
# 4 0.0000 0.0000 0.0000 22.1707 0.0000 0.0000
# 5 0.0000 0.0000 0.0000 0.0000 38.6401 0.0000
# 6 0.0000 0.0000 0.0000 0.0000 0.0000 8.7610
#
#
#
# Elastic Compliance Matrix: (Units=1/GPa)
#
#
# Indices 1 2 3 4 5 6 
#
# 1 0.045627 -0.011871 -0.034257 0.000000 0.000000 0.000000
# 2 -0.011871 0.060871 0.008393 0.000000 0.000000 0.000000
# 3 -0.034257 0.008393 0.031135 0.000000 0.000000 0.000000
# 4 0.000000 0.000000 0.000000 0.045105 0.000000 0.000000
# 5 0.000000 0.000000 0.000000 0.000000 0.025880 0.000000
# 6 0.000000 0.000000 0.000000 0.000000 0.000000 0.114142
#
#
# Mechanical properties :
#
#
# Convention : Reuss Voigt Hill
#
# Bulk Modulus (GPa) = 16.08644 69.25272 42.66958
# Shear Modulus (GPa) = 11.93461 26.14436 19.03948
#
# Velocity S-wave (km/s) = 2.51496 3.72233 3.17654
# Velocity P-wave (km/s) = 4.11809 7.42808 6.00562
#
# Compressibility (1/GPa) = 0.06216418
#
# Stress axis : x y z
#
# Youngs Moduli (GPa) = 21.91693 16.42831 32.11775
#
# Poissons Ratio (x) = 0.19502 1.10025
# Poissons Ratio (y) = 0.26017 -0.26957
# Poissons Ratio (z) = 0.75080 -0.13789
#
# Static dielectric constant tensor:
#      x y z
#    x 1.672950 0.000000 0.000000 
#    y 0.000000 1.687770 0.000000 
#    z 0.000000 0.000000 1.626580 
# 
# From -- ./inp_files/24784.got.cif
#   From: 2010.05.17/outbox.cif.g08.bks.cpg/sg44_13_cif.got.tgz:24784.got - 2010.06.03 19:37:08.
