data_PCOD9375267
_publ_section_title
;
Structure prediction by ZEFSAII (Michael W. Deem and Ramdas Pophale) SiO2 
 PCOD9375267
Probable space group: I M M 2
;
_chemical_formula_sum "Si O2"
_cell_formula_units_Z 58
_cell_length_a 22.216771
_cell_length_b 8.874138
_cell_length_c 14.991687
_cell_angle_alpha 90.000000
_cell_angle_beta 90.000000
_cell_angle_gamma 90.000000
_cell_volume 2955.681430
_symmetry_space_group_name_H-M "I M M 2"
_symmetry_group_IT_number 44
_symmetry_cell_setting 'orthorhombic'
loop_
_space_group_symop_operation_xyz
x,y,z
-x,-y,z
-x,y,z
x,-y,z
1/2+x,1/2+y,1/2+z
1/2-x,1/2-y,1/2+z
1/2-x,1/2+y,1/2+z
1/2+x,1/2-y,1/2+z
loop_
_atom_site_type_symbol
_atom_site_label
_atom_site_fract_x
_atom_site_fract_y
_atom_site_fract_z
Si Si1 0.928634 0.832593 0.254540
Si Si2 0.736243 0.819523 0.345933
Si Si3 0.000000 0.000000 0.825546
Si Si4 0.387831 0.666847 0.395986
Si Si5 0.266492 0.321729 0.645134
Si Si6 0.615039 0.177411 0.577841
Si Si7 0.928388 0.675407 0.434484
Si Si8 0.180629 0.821893 0.517153
O O1 0.916181 0.766580 0.157916
O O2 0.910557 0.721561 0.333625
O O3 0.000000 0.847016 0.263296
O O4 0.901223 0.000000 0.265687
O O5 0.671490 0.739120 0.352906
O O6 0.766345 0.785420 0.250296
O O7 0.779083 0.780666 0.429660
O O8 0.726619 0.000000 0.349347
O O9 0.945712 0.129619 0.835234
O O10 0.370046 0.500000 0.431659
O O11 0.405441 0.765990 0.481447
O O12 0.277453 0.500000 0.634295
O O13 0.315508 0.223905 0.592053
O O14 0.204134 0.273717 0.600354
O O15 0.606690 0.000000 0.587122
O O16 0.915407 0.500000 0.449760
O O17 0.887885 0.779831 0.496167
O O18 0.000000 0.698940 0.445398
O O19 0.187431 0.000000 0.532741
#
# Coordination Sequence:
#
# PCOD9375267 Si02
#       8
#     8   8   2   8   8   8   8   8
#     4  10  21  35  54  80 115 158 201 245 297 365
#     4  10  22  40  63  91 125 161 203 262 323 374
#     4   8  24  40  62  92 116 164 222 260 312 392
#     4  10  21  39  62  84 119 160 207 256 313 374
#     4  11  23  39  61  91 123 160 203 255 318 379
#     4  12  23  35  54  86 124 158 202 250 310 380
#     4  10  21  38  59  85 120 160 204 252 308 371
#     4  11  22  38  62  92 125 160 206 254 309 376
#
# _framework density 19.623224
#
# number of rings (size 3 to 8) (size 9 to 14) (size 15 to 20)
#    0.414    1.103    1.379    4.138    0.966    4.414 
#    0.000    1.034    1.517    0.000    0.000    0.000 
#    0.000    0.000    0.000    0.000    0.000    0.000 
#
# Total GULP energy -161596.192459 kJ/mol
# GULP energy per Si atom -5572.282499 kJ/mol
# Density = 1.957856 g / cm^3
# Si number density = 19.623224 Si / 1000 Ang^3
#
#
#
# Elastic Constant Matrix: (Units=GPa)
#
#
# Indices 1 2 3 4 5 6 
#
# 1 52.3466 14.3881 -6.7927 0.0000 0.0000 0.0000
# 2 14.3881 55.3648 3.8351 0.0000 0.0000 0.0000
# 3 -6.7927 3.8351 32.1929 0.0000 0.0000 0.0000
# 4 0.0000 0.0000 0.0000 25.3692 0.0000 0.0000
# 5 0.0000 0.0000 0.0000 0.0000 28.6301 0.0000
# 6 0.0000 0.0000 0.0000 0.0000 0.0000 37.5125
#
#
#
# Elastic Compliance Matrix: (Units=1/GPa)
#
#
# Indices 1 2 3 4 5 6 
#
# 1 0.021410 -0.005926 0.005223 0.000000 0.000000 0.000000
# 2 -0.005926 0.019852 -0.003615 0.000000 0.000000 0.000000
# 3 0.005223 -0.003615 0.032596 0.000000 0.000000 0.000000
# 4 0.000000 0.000000 0.000000 0.039418 0.000000 0.000000
# 5 0.000000 0.000000 0.000000 0.000000 0.034928 0.000000
# 6 0.000000 0.000000 0.000000 0.000000 0.000000 0.026658
#
#
# Mechanical properties :
#
#
# Convention : Reuss Voigt Hill
#
# Bulk Modulus (GPa) = 15.33208 18.08501 16.70854
# Shear Modulus (GPa) = 24.36193 26.86728 25.61461
#
# Velocity S-wave (km/s) = 3.52729 3.70423 3.61684
# Velocity P-wave (km/s) = 4.94158 5.24702 5.09659
#
# Compressibility (1/GPa) = 0.06522272
#
# Stress axis : x y z
#
# Youngs Moduli (GPa) = 46.70702 50.37169 30.67901
#
# Poissons Ratio (x) = 0.29849 -0.16025
# Poissons Ratio (y) = 0.27678 0.11091
# Poissons Ratio (z) = -0.24397 0.18211
#
# Static dielectric constant tensor:
#      x y z
#    x 1.778570 0.000000 0.000000 
#    y 0.000000 1.665250 0.000000 
#    z 0.000000 0.000000 1.698460 
# 
# From -- ./inp_files/19444.got.cif
#   From: 2010.05.17/outbox.cif.g08.bks.cpg/sg44_10_cif.got.tgz:19444.got - 2010.06.03 19:37:08.
