data_PCOD9375928
_publ_section_title
;
Structure prediction by ZEFSAII (Michael W. Deem and Ramdas Pophale) SiO2 
 PCOD9375928
Probable space group: I M M 2
;
_chemical_formula_sum "Si O2"
_cell_formula_units_Z 40
_cell_length_a 7.884058
_cell_length_b 7.383963
_cell_length_c 30.956318
_cell_angle_alpha 90.000000
_cell_angle_beta 90.000000
_cell_angle_gamma 90.000000
_cell_volume 1802.140396
_symmetry_space_group_name_H-M "I M M 2"
_symmetry_group_IT_number 44
_symmetry_cell_setting 'orthorhombic'
loop_
_space_group_symop_operation_xyz
x,y,z
-x,-y,z
-x,y,z
x,-y,z
1/2+x,1/2+y,1/2+z
1/2-x,1/2-y,1/2+z
1/2-x,1/2+y,1/2+z
1/2+x,1/2-y,1/2+z
loop_
_atom_site_type_symbol
_atom_site_label
_atom_site_fract_x
_atom_site_fract_y
_atom_site_fract_z
Si Si1 0.314661 0.778816 0.160860
Si Si2 0.500000 0.721263 0.718842
Si Si3 0.197511 0.279150 0.879748
Si Si4 0.500000 0.721449 0.818038
Si Si5 0.804870 0.283571 0.974756
Si Si6 0.306462 0.284733 0.568279
O O1 0.500000 0.722001 0.175701
O O2 0.283972 0.718531 0.111448
O O3 0.164627 0.720357 0.192111
O O4 0.311885 0.000000 0.160687
O O5 0.500000 0.500000 0.718925
O O6 0.500000 0.779513 0.768403
O O7 0.196322 0.500000 0.879034
O O8 0.331395 0.220650 0.843832
O O9 0.258804 0.222464 0.927920
O O10 0.000000 0.224131 0.873909
O O11 0.500000 0.500000 0.818269
O O12 0.809807 0.500000 0.972367
O O13 0.000000 0.216350 0.977304
O O14 0.724603 0.243266 0.021191
O O15 0.500000 0.212079 0.567545
O O16 0.318361 0.500000 0.573263
#
# Coordination Sequence:
#
# PCOD9375928 Si02
#       6
#     8   4   8   4   8   8
#     4   9  16  26  39  55  80 112 140 172 217 259
#     4   9  16  26  38  56  81 109 143 177 212 261
#     4   8  14  25  38  53  78 109 137 169 211 255
#     4   9  16  24  38  58  79 107 143 177 212 255
#     4   8  14  25  41  60  85 117 146 173 212 257
#     4   9  15  25  42  61  84 115 147 177 211 253
#
# _framework density 22.195829
#
# number of rings (size 3 to 8) (size 9 to 14) (size 15 to 20)
#    0.000    3.400    1.000    1.200    0.000    0.800 
#    1.800    4.000    0.000    0.000    0.000    0.000 
#    0.000    3.200    0.000    4.600    0.000    4.800 
#
# Total GULP energy -111522.526945 kJ/mol
# GULP energy per Si atom -5576.126347 kJ/mol
# Density = 2.214531 g / cm^3
# Si number density = 22.195829 Si / 1000 Ang^3
#
#
#
# Elastic Constant Matrix: (Units=GPa)
#
#
# Indices 1 2 3 4 5 6 
#
# 1 148.4824 3.0797 117.2175 0.0000 0.0000 0.0000
# 2 3.0797 74.8147 3.5197 0.0000 0.0000 0.0000
# 3 117.2175 3.5197 237.2329 0.0000 0.0000 0.0000
# 4 0.0000 0.0000 0.0000 11.0126 0.0000 0.0000
# 5 0.0000 0.0000 0.0000 0.0000 -12.0582 0.0000
# 6 0.0000 0.0000 0.0000 0.0000 0.0000 -15.0463
#
#
#
# Elastic Compliance Matrix: (Units=1/GPa)
#
#
# Indices 1 2 3 4 5 6 
#
# 1 0.011045 -0.000198 -0.005454 0.000000 0.000000 0.000000
# 2 -0.000198 0.013379 -0.000101 0.000000 0.000000 0.000000
# 3 -0.005454 -0.000101 0.006912 0.000000 0.000000 0.000000
# 4 0.000000 0.000000 0.000000 0.090805 0.000000 0.000000
# 5 0.000000 0.000000 0.000000 0.000000 -0.082931 0.000000
# 6 0.000000 0.000000 0.000000 0.000000 0.000000 -0.066462
#
#
# Mechanical properties :
#
#
# Convention : Reuss Voigt Hill
#
# Bulk Modulus (GPa) = 50.42931 78.68487 64.55709
# Shear Modulus (GPa) = -547.30776 19.22915 -264.03931
#
# Velocity S-wave (km/s) = -15.71994 2.94656 -10.91866
# Velocity P-wave (km/s) = 17.51341 6.86320 11.39333
#
# Compressibility (1/GPa) = 0.01982974
#
# Stress axis : x y z
#
# Youngs Moduli (GPa) = 90.54078 74.74264 144.68116
#
# Poissons Ratio (x) = 0.01480 0.78914
# Poissons Ratio (y) = 0.01793 0.01456
# Poissons Ratio (z) = 0.49384 0.00752
#
# Static dielectric constant tensor:
#      x y z
#    x 1.795850 0.000000 0.000000 
#    y 0.000000 1.927580 0.000000 
#    z 0.000000 0.000000 1.809110 
# 
# From -- ./inp_files/22768.got.cif
#   From: 2010.05.17/outbox.cif.g08.bks.cpg/sg44_12_cif.got.tgz:22768.got - 2010.06.03 19:37:08.
