data_PCOD9375129
_publ_section_title
;
Structure prediction by ZEFSAII (Michael W. Deem and Ramdas Pophale) SiO2 
 PCOD9375129
Probable space group: I M M 2
;
_chemical_formula_sum "Si O2"
_cell_formula_units_Z 48
_cell_length_a 7.850753
_cell_length_b 9.303479
_cell_length_c 34.561043
_cell_angle_alpha 90.000000
_cell_angle_beta 90.000000
_cell_angle_gamma 90.000000
_cell_volume 2524.314930
_symmetry_space_group_name_H-M "I M M 2"
_symmetry_group_IT_number 44
_symmetry_cell_setting 'orthorhombic'
loop_
_space_group_symop_operation_xyz
x,y,z
-x,-y,z
-x,y,z
x,-y,z
1/2+x,1/2+y,1/2+z
1/2-x,1/2-y,1/2+z
1/2-x,1/2+y,1/2+z
1/2+x,1/2-y,1/2+z
loop_
_atom_site_type_symbol
_atom_site_label
_atom_site_fract_x
_atom_site_fract_y
_atom_site_fract_z
Si Si1 0.000000 0.171333 0.574630
Si Si2 0.205315 0.836603 0.936716
Si Si3 0.702592 0.662310 0.860106
Si Si4 0.000000 0.327483 0.656275
Si Si5 0.193299 0.671821 0.199970
Si Si6 0.699226 0.170952 0.514545
Si Si7 0.800286 0.163761 0.784857
O O1 0.168430 0.200382 0.548909
O O2 0.000000 0.266307 0.612839
O O3 0.000000 0.000000 0.584225
O O4 0.258378 0.752222 0.898465
O O5 0.000000 0.840549 0.936699
O O6 0.269298 0.000000 0.936154
O O7 0.254268 0.755200 0.976022
O O8 0.500000 0.657002 0.855650
O O9 0.768877 0.500000 0.864204
O O10 0.773195 0.737349 0.821778
O O11 0.833763 0.262547 0.677506
O O12 0.000000 0.500000 0.657495
O O13 0.230010 0.500000 0.196474
O O14 0.204909 0.706669 0.245702
O O15 0.000000 0.696495 0.186322
O O16 0.500000 0.205744 0.523412
O O17 0.706868 0.000000 0.506634
O O18 0.000000 0.162930 0.774919
O O19 0.749174 0.000000 0.794950
#
# Coordination Sequence:
#
# PCOD9375129 Si02
#       7
#     4   8   8   4   8   8   8
#     4  10  22  40  64  90 120 158 208 254 298 372
#     4  10  21  37  57  82 113 151 196 245 300 359
#     4  11  24  37  51  78 117 158 201 248 297 354
#     4  12  26  42  62  94 134 168 204 256 316 378
#     4  10  21  41  69  94 121 163 211 258 310 373
#     4   9  19  37  61  88 118 154 196 248 306 359
#     4  10  20  37  62  88 116 151 198 253 306 361
#
# _framework density 19.015060999999999
#
# number of rings (size 3 to 8) (size 9 to 14) (size 15 to 20)
#    0.000    1.833    0.833    2.750    1.167    7.667 
#    0.000    1.667    0.000    0.000    0.000    0.000 
#    0.000    0.000    0.000    0.000    0.000    0.000 
#
# Total GULP energy -134068.727769 kJ/mol
# GULP energy per Si atom -5586.196990 kJ/mol
# Density = 1.897178 g / cm^3
# Si number density = 19.015061 Si / 1000 Ang^3
#
#
#
# Elastic Constant Matrix: (Units=GPa)
#
#
# Indices 1 2 3 4 5 6 
#
# 1 94.1024 57.3220 60.3479 0.0000 0.0000 0.0000
# 2 57.3220 111.8844 91.5610 0.0000 0.0000 0.0000
# 3 60.3479 91.5610 131.9870 0.0000 0.0000 0.0000
# 4 0.0000 0.0000 0.0000 30.0137 0.0000 0.0000
# 5 0.0000 0.0000 0.0000 0.0000 -32.7782 0.0000
# 6 0.0000 0.0000 0.0000 0.0000 0.0000 18.0939
#
#
#
# Elastic Compliance Matrix: (Units=1/GPa)
#
#
# Indices 1 2 3 4 5 6 
#
# 1 0.016242 -0.005191 -0.003825 0.000000 0.000000 0.000000
# 2 -0.005191 0.022334 -0.013120 0.000000 0.000000 0.000000
# 3 -0.003825 -0.013120 0.018427 0.000000 0.000000 0.000000
# 4 0.000000 0.000000 0.000000 0.033318 0.000000 0.000000
# 5 0.000000 0.000000 0.000000 0.000000 -0.030508 0.000000
# 6 0.000000 0.000000 0.000000 0.000000 0.000000 0.055267
#
#
# Mechanical properties :
#
#
# Convention : Reuss Voigt Hill
#
# Bulk Modulus (GPa) = 78.55017 84.04840 81.29929
# Shear Modulus (GPa) = 30.56313 11.64875 21.10594
#
# Velocity S-wave (km/s) = 4.01348 2.47777 3.33522
# Velocity P-wave (km/s) = 7.92947 7.24450 7.59471
#
# Compressibility (1/GPa) = 0.01273072
#
# Stress axis : x y z
#
# Youngs Moduli (GPa) = 61.56958 44.77477 54.26802
#
# Poissons Ratio (x) = 0.23241 0.20759
# Poissons Ratio (y) = 0.31959 0.71200
# Poissons Ratio (z) = 0.23552 0.58745
#
# Static dielectric constant tensor:
#      x y z
#    x 1.714840 0.000000 0.000000 
#    y 0.000000 1.658530 0.000000 
#    z 0.000000 0.000000 1.621830 
# 
# From -- ./inp_files/26878.got.cif
#   From: 2010.05.17/outbox.cif.g08.bks.cpg/sg44_14_cif.got.tgz:26878.got - 2010.06.03 19:37:08.
