data_PCOD9375733
_publ_section_title
;
Structure prediction by ZEFSAII (Michael W. Deem and Ramdas Pophale) SiO2 
 PCOD9375733
Probable space group: I M M 2
;
_chemical_formula_sum "Si O2"
_cell_formula_units_Z 32
_cell_length_a 12.153712
_cell_length_b 18.364432
_cell_length_c 7.253615
_cell_angle_alpha 90.000000
_cell_angle_beta 90.000000
_cell_angle_gamma 90.000000
_cell_volume 1618.977981
_symmetry_space_group_name_H-M "I M M 2"
_symmetry_group_IT_number 44
_symmetry_cell_setting 'orthorhombic'
loop_
_space_group_symop_operation_xyz
x,y,z
-x,-y,z
-x,y,z
x,-y,z
1/2+x,1/2+y,1/2+z
1/2-x,1/2-y,1/2+z
1/2-x,1/2+y,1/2+z
1/2+x,1/2-y,1/2+z
loop_
_atom_site_type_symbol
_atom_site_label
_atom_site_fract_x
_atom_site_fract_y
_atom_site_fract_z
Si Si1 0.219280 0.659933 0.275850
Si Si2 0.369378 0.687455 0.932725
Si Si3 0.000000 0.416480 0.227362
Si Si4 0.500000 0.084085 0.174851
Si Si5 0.241454 0.587387 0.664165
O O1 0.180165 0.737087 0.356567
O O2 0.253231 0.610957 0.451025
O O3 0.112889 0.623446 0.177929
O O4 0.315286 0.670576 0.129541
O O5 0.500000 0.693705 0.944220
O O6 0.331451 0.625062 0.790840
O O7 0.000000 0.500000 0.166718
O O8 0.000000 0.415799 0.451540
O O9 0.618900 0.115247 0.225924
O O10 0.500000 0.000000 0.234536
O O11 0.242821 0.500000 0.677238
#
# Coordination Sequence:
#
# PCOD9375733 Si02
#       5
#     8   8   4   4   8
#     4  11  22  42  68  97 130 172 218 274 327 383
#     4  12  26  43  65  98 133 173 218 266 327 400
#     4   9  18  37  67  97 125 159 217 279 321 369
#     4   7  14  33  63  93 122 157 207 265 310 359
#     4  10  22  42  67  98 135 175 217 268 326 383
#
# _framework density 19.765557999999999
#
# number of rings (size 3 to 8) (size 9 to 14) (size 15 to 20)
#    0.000    1.750    3.750    2.250    0.000    4.500 
#    2.250    1.250    0.000    0.000    0.000    0.000 
#    0.000    0.000    0.000    0.000    0.000    0.000 
#
# Total GULP energy -89384.467902 kJ/mol
# GULP energy per Si atom -5586.529244 kJ/mol
# Density = 1.972057 g / cm^3
# Si number density = 19.765558 Si / 1000 Ang^3
#
#
#
# Elastic Constant Matrix: (Units=GPa)
#
#
# Indices 1 2 3 4 5 6 
#
# 1 64.2814 10.4410 31.9076 0.0000 0.0000 0.0000
# 2 10.4410 97.6281 21.0367 0.0000 0.0000 0.0000
# 3 31.9076 21.0367 82.4580 0.0000 0.0000 0.0000
# 4 0.0000 0.0000 0.0000 13.1254 0.0000 0.0000
# 5 0.0000 0.0000 0.0000 0.0000 33.5682 0.0000
# 6 0.0000 0.0000 0.0000 0.0000 0.0000 36.8066
#
#
#
# Elastic Compliance Matrix: (Units=1/GPa)
#
#
# Indices 1 2 3 4 5 6 
#
# 1 0.019276 -0.000481 -0.007336 0.000000 0.000000 0.000000
# 2 -0.000481 0.010851 -0.002582 0.000000 0.000000 0.000000
# 3 -0.007336 -0.002582 0.015625 0.000000 0.000000 0.000000
# 4 0.000000 0.000000 0.000000 0.076188 0.000000 0.000000
# 5 0.000000 0.000000 0.000000 0.000000 0.029790 0.000000
# 6 0.000000 0.000000 0.000000 0.000000 0.000000 0.027169
#
#
# Mechanical properties :
#
#
# Convention : Reuss Voigt Hill
#
# Bulk Modulus (GPa) = 40.07478 41.23757 40.65618
# Shear Modulus (GPa) = 24.03664 28.76553 26.40109
#
# Velocity S-wave (km/s) = 3.49103 3.81903 3.65870
# Velocity P-wave (km/s) = 6.04721 6.35258 6.20177
#
# Compressibility (1/GPa) = 0.02495335
#
# Stress axis : x y z
#
# Youngs Moduli (GPa) = 51.87725 92.15925 63.99983
#
# Poissons Ratio (x) = 0.04430 0.46953
# Poissons Ratio (y) = 0.02494 0.16526
# Poissons Ratio (z) = 0.38059 0.23798
#
# Static dielectric constant tensor:
#      x y z
#    x 1.695840 0.000000 0.000000 
#    y 0.000000 1.682800 0.000000 
#    z 0.000000 0.000000 1.705930 
# 
# From -- ./inp_files/5575.got.cif
#   From: 2010.05.17/outbox.cif.g08.bks.cpg/sg44_3_cif.got.tgz:5575.got - 2010.06.03 19:37:08.
