data_PCOD9375685
_publ_section_title
;
Structure prediction by ZEFSAII (Michael W. Deem and Ramdas Pophale) SiO2 
 PCOD9375685
Probable space group: I M M 2
;
_chemical_formula_sum "Si O2"
_cell_formula_units_Z 40
_cell_length_a 26.363567
_cell_length_b 8.754143
_cell_length_c 9.128026
_cell_angle_alpha 90.000000
_cell_angle_beta 90.000000
_cell_angle_gamma 90.000000
_cell_volume 2106.661096
_symmetry_space_group_name_H-M "I M M 2"
_symmetry_group_IT_number 44
_symmetry_cell_setting 'orthorhombic'
loop_
_space_group_symop_operation_xyz
x,y,z
-x,-y,z
-x,y,z
x,-y,z
1/2+x,1/2+y,1/2+z
1/2-x,1/2-y,1/2+z
1/2-x,1/2+y,1/2+z
1/2+x,1/2-y,1/2+z
loop_
_atom_site_type_symbol
_atom_site_label
_atom_site_fract_x
_atom_site_fract_y
_atom_site_fract_z
Si Si1 0.000000 0.683560 0.895411
Si Si2 0.302411 0.816858 0.399607
Si Si3 0.299688 0.684290 0.725032
Si Si4 0.598372 0.315797 0.897326
Si Si5 0.000000 0.682845 0.237862
Si Si6 0.599298 0.316409 0.239324
O O1 0.049789 0.748841 0.817169
O O2 0.000000 0.500000 0.886024
O O3 0.000000 0.727577 0.066770
O O4 0.299890 0.758923 0.565767
O O5 0.250869 0.774109 0.314403
O O6 0.350642 0.744654 0.319033
O O7 0.306931 0.000000 0.398134
O O8 0.300400 0.500000 0.709242
O O9 0.349860 0.729328 0.815356
O O10 0.594567 0.500000 0.890894
O O11 0.549878 0.246029 0.817275
O O12 0.599860 0.272077 0.068067
O O13 0.000000 0.500000 0.245631
O O14 0.597989 0.500000 0.248235
#
# Coordination Sequence:
#
# PCOD9375685 Si02
#       6
#     4   8   8   8   4   8
#     4  11  24  41  60  88 122 155 198 247 294 348
#     4  11  23  39  61  90 121 154 196 245 294 349
#     4  10  22  40  61  86 118 156 196 241 294 350
#     4  10  22  40  61  85 115 153 197 240 286 349
#     4  11  24  39  58  86 118 151 190 241 296 346
#     4  11  23  40  62  88 119 157 198 241 294 353
#
# _framework density 18.987393000000001
#
# number of rings (size 3 to 8) (size 9 to 14) (size 15 to 20)
#    0.000    1.400    0.000    4.800    0.000   12.800 
#    0.000    0.000    0.000    0.000    0.000    0.000 
#    0.000    0.000    0.000    0.000    0.000    0.000 
#
# Total GULP energy -111883.487056 kJ/mol
# GULP energy per Si atom -5594.174353 kJ/mol
# Density = 1.894418 g / cm^3
# Si number density = 18.987393 Si / 1000 Ang^3
#
#
#
# Elastic Constant Matrix: (Units=GPa)
#
#
# Indices 1 2 3 4 5 6 
#
# 1 232.6667 65.5819 143.0389 0.0000 0.0000 0.0000
# 2 65.5819 41.8014 70.8450 0.0000 0.0000 0.0000
# 3 143.0389 70.8450 236.4672 0.0000 0.0000 0.0000
# 4 0.0000 0.0000 0.0000 35.3253 0.0000 0.0000
# 5 0.0000 0.0000 0.0000 0.0000 45.4693 0.0000
# 6 0.0000 0.0000 0.0000 0.0000 0.0000 -24.2134
#
#
#
# Elastic Compliance Matrix: (Units=1/GPa)
#
#
# Indices 1 2 3 4 5 6 
#
# 1 0.008262 -0.009126 -0.002264 0.000000 0.000000 0.000000
# 2 -0.009126 0.058679 -0.012060 0.000000 0.000000 0.000000
# 3 -0.002264 -0.012060 0.009211 0.000000 0.000000 0.000000
# 4 0.000000 0.000000 0.000000 0.028308 0.000000 0.000000
# 5 0.000000 0.000000 0.000000 0.000000 0.021993 0.000000
# 6 0.000000 0.000000 0.000000 0.000000 0.000000 -0.041299
#
#
# Mechanical properties :
#
#
# Convention : Reuss Voigt Hill
#
# Bulk Modulus (GPa) = 34.18359 118.87408 76.52883
# Shear Modulus (GPa) = 35.26001 26.74756 31.00378
#
# Velocity S-wave (km/s) = 4.31399 3.75734 4.04525
# Velocity P-wave (km/s) = 6.54648 9.03140 7.88742
#
# Compressibility (1/GPa) = 0.02925381
#
# Stress axis : x y z
#
# Youngs Moduli (GPa) = 121.03852 17.04183 108.56245
#
# Poissons Ratio (x) = 0.15552 0.24574
# Poissons Ratio (y) = 1.10456 1.30926
# Poissons Ratio (z) = 0.27398 0.20552
#
# Static dielectric constant tensor:
#      x y z
#    x 1.617360 0.000000 0.000000 
#    y 0.000000 1.639420 0.000000 
#    z 0.000000 0.000000 1.625340 
# 
# From -- ./inp_files/9611.got.cif
#   From: 2010.05.17/outbox.cif.g08.bks.cpg/sg44_5_cif.got.tgz:9611.got - 2010.06.03 19:37:08.
