data_PCOD9375668
_publ_section_title
;
Structure prediction by ZEFSAII (Michael W. Deem and Ramdas Pophale) SiO2 
 PCOD9375668
Probable space group: I M M 2
;
_chemical_formula_sum "Si O2"
_cell_formula_units_Z 64
_cell_length_a 17.378069
_cell_length_b 17.674342
_cell_length_c 9.894411
_cell_angle_alpha 90.000000
_cell_angle_beta 90.000000
_cell_angle_gamma 90.000000
_cell_volume 3039.028116
_symmetry_space_group_name_H-M "I M M 2"
_symmetry_group_IT_number 44
_symmetry_cell_setting 'orthorhombic'
loop_
_space_group_symop_operation_xyz
x,y,z
-x,-y,z
-x,y,z
x,-y,z
1/2+x,1/2+y,1/2+z
1/2-x,1/2-y,1/2+z
1/2-x,1/2+y,1/2+z
1/2+x,1/2-y,1/2+z
loop_
_atom_site_type_symbol
_atom_site_label
_atom_site_fract_x
_atom_site_fract_y
_atom_site_fract_z
Si Si1 0.379195 0.085603 0.602860
Si Si2 0.207882 0.920873 0.530493
Si Si3 0.907245 0.086047 0.065982
Si Si4 0.090502 0.721802 0.617532
Si Si5 0.411008 0.618412 0.256180
Si Si6 0.845730 0.249535 0.132878
Si Si7 0.908090 0.580333 0.783507
Si Si8 0.279920 0.734512 0.909555
O O1 0.287000 0.084056 0.614520
O O2 0.398226 0.173296 0.645189
O O3 0.396049 0.086036 0.443073
O O4 0.406418 0.000000 0.651433
O O5 0.140022 0.915961 0.637781
O O6 0.207566 0.854705 0.423970
O O7 0.206808 0.000000 0.456800
O O8 0.882399 0.165270 0.138066
O O9 0.000000 0.085556 0.072675
O O10 0.881808 0.000000 0.107615
O O11 0.885657 0.097309 0.907067
O O12 0.092674 0.792454 0.720539
O O13 0.121221 0.650158 0.699580
O O14 0.146612 0.732682 0.491002
O O15 0.000000 0.713448 0.577923
O O16 0.500000 0.595209 0.243815
O O17 0.784953 0.257737 0.255269
O O18 0.797514 0.250630 0.993367
O O19 0.876112 0.500000 0.736711
O O20 0.000000 0.580401 0.763489
#
# Coordination Sequence:
#
# PCOD9375668 Si02
#       8
#     8   8   8   8   8   8   8   8
#     4   9  19  34  55  81 114 152 195 243 295 357
#     4   9  18  32  53  78 112 153 193 241 297 348
#     4  10  22  39  62  93 127 162 205 254 307 369
#     4   9  18  34  57  83 116 154 194 244 300 358
#     4   9  17  31  55  87 118 153 199 247 296 358
#     4  11  24  40  60  85 122 164 203 255 309 358
#     4   9  17  31  55  86 113 142 186 239 290 350
#     4  10  24  38  58  85 118 158 204 249 298 369
#
# _framework density 21.059363000000001
#
# number of rings (size 3 to 8) (size 9 to 14) (size 15 to 20)
#    0.000    2.500    0.000    1.125    8.750    3.250 
#    0.000    1.250    0.000    0.000    0.000    0.000 
#    0.000    0.000    0.000    0.000    0.000    0.000 
#
# Total GULP energy -178187.400624 kJ/mol
# GULP energy per Si atom -5568.356270 kJ/mol
# Density = 2.101143 g / cm^3
# Si number density = 21.059363 Si / 1000 Ang^3
#
#
#
# Elastic Constant Matrix: (Units=GPa)
#
#
# Indices 1 2 3 4 5 6 
#
# 1 34.5918 20.4141 3.0871 0.0000 0.0000 0.0000
# 2 20.4141 181.6564 21.8793 0.0000 0.0000 0.0000
# 3 3.0871 21.8793 37.6979 0.0000 0.0000 0.0000
# 4 0.0000 0.0000 0.0000 -21.3950 0.0000 0.0000
# 5 0.0000 0.0000 0.0000 0.0000 23.9238 0.0000
# 6 0.0000 0.0000 0.0000 0.0000 0.0000 19.3725
#
#
#
# Elastic Compliance Matrix: (Units=1/GPa)
#
#
# Indices 1 2 3 4 5 6 
#
# 1 0.030973 -0.003414 -0.000555 0.000000 0.000000 0.000000
# 2 -0.003414 0.006295 -0.003374 0.000000 0.000000 0.000000
# 3 -0.000555 -0.003374 0.028530 0.000000 0.000000 0.000000
# 4 0.000000 0.000000 0.000000 -0.046740 0.000000 0.000000
# 5 0.000000 0.000000 0.000000 0.000000 0.041799 0.000000
# 6 0.000000 0.000000 0.000000 0.000000 0.000000 0.051620
#
#
# Mechanical properties :
#
#
# Convention : Reuss Voigt Hill
#
# Bulk Modulus (GPa) = 19.56470 38.30079 28.93274
# Shear Modulus (GPa) = 34.67404 18.28463 26.47933
#
# Velocity S-wave (km/s) = 4.06210 2.94979 3.54978
# Velocity P-wave (km/s) = 5.59565 5.46152 5.52899
#
# Compressibility (1/GPa) = 0.05111247
#
# Stress axis : x y z
#
# Youngs Moduli (GPa) = 32.28640 158.85884 35.05043
#
# Poissons Ratio (x) = 0.54231 0.01946
# Poissons Ratio (y) = 0.11022 0.11826
# Poissons Ratio (z) = 0.01792 0.53597
#
# Static dielectric constant tensor:
#      x y z
#    x 1.778130 0.000000 0.000000 
#    y 0.000000 1.880660 0.000000 
#    z 0.000000 0.000000 1.695470 
# 
# From -- ./inp_files/9047.got.cif
#   From: 2010.05.17/outbox.cif.g08.bks.cpg/sg44_5_cif.got.tgz:9047.got - 2010.06.03 19:37:08.
