data_PCOD9375210
_publ_section_title
;
Structure prediction by ZEFSAII (Michael W. Deem and Ramdas Pophale) SiO2 
 PCOD9375210
Probable space group: I M M 2
;
_chemical_formula_sum "Si O2"
_cell_formula_units_Z 56
_cell_length_a 18.358061
_cell_length_b 17.040125
_cell_length_c 7.278360
_cell_angle_alpha 90.000000
_cell_angle_beta 90.000000
_cell_angle_gamma 90.000000
_cell_volume 2276.843172
_symmetry_space_group_name_H-M "I M M 2"
_symmetry_group_IT_number 44
_symmetry_cell_setting 'orthorhombic'
loop_
_space_group_symop_operation_xyz
x,y,z
-x,-y,z
-x,y,z
x,-y,z
1/2+x,1/2+y,1/2+z
1/2-x,1/2-y,1/2+z
1/2-x,1/2+y,1/2+z
1/2+x,1/2-y,1/2+z
loop_
_atom_site_type_symbol
_atom_site_label
_atom_site_fract_x
_atom_site_fract_y
_atom_site_fract_z
Si Si1 0.727961 0.909952 0.362380
Si Si2 0.303903 0.294798 0.587035
Si Si3 0.649142 0.249492 0.969811
Si Si4 0.613881 0.585615 0.976618
Si Si5 0.578451 0.092250 0.529882
Si Si6 0.584664 0.411674 0.534394
Si Si7 0.416357 0.086404 0.972013
O O1 0.760307 0.864013 0.191341
O O2 0.798186 0.915104 0.496253
O O3 0.652810 0.876591 0.442524
O O4 0.715764 0.000000 0.312685
O O5 0.349787 0.252026 0.746499
O O6 0.236541 0.246029 0.507963
O O7 0.361603 0.343059 0.464919
O O8 0.601101 0.324004 0.035773
O O9 0.620104 0.166339 0.037087
O O10 0.586824 0.500000 0.045861
O O11 0.592213 0.586654 0.758870
O O12 0.500000 0.128759 0.480427
O O13 0.584283 0.091324 0.750297
O O14 0.575278 0.000000 0.477668
O O15 0.500000 0.398480 0.489280
O O16 0.605650 0.500000 0.474482
O O17 0.500000 0.087009 0.032653
O O18 0.386176 0.000000 0.018002
#
# Coordination Sequence:
#
# PCOD9375210 Si02
#       7
#     8   8   8   8   8   8   8
#     4   8  14  27  48  68  98 136 172 218 266 304
#     4  10  21  33  49  75 109 138 178 221 270 323
#     4  10  21  34  53  76 109 143 178 225 270 319
#     4   8  16  30  49  71  96 129 172 222 269 308
#     4   8  14  26  47  76 106 139 182 221 256 312
#     4   8  14  28  52  78  99 124 169 227 274 310
#     4   9  19  34  53  80 113 146 179 215 263 327
#
# _framework density 24.595455999999999
#
# number of rings (size 3 to 8) (size 9 to 14) (size 15 to 20)
#    0.000    3.571    0.000    2.143    4.000    3.429 
#    0.000    0.714    0.000    2.571    0.000    0.000 
#    0.000    9.143    0.000    0.000    0.000    0.000 
#
# Total GULP energy -155928.803230 kJ/mol
# GULP energy per Si atom -5568.885830 kJ/mol
# Density = 2.453948 g / cm^3
# Si number density = 24.595456 Si / 1000 Ang^3
#
#
#
# Elastic Constant Matrix: (Units=GPa)
#
#
# Indices 1 2 3 4 5 6 
#
# 1 94.7063 24.8537 -6.0762 0.0000 0.0000 0.0000
# 2 24.8537 171.3255 1.3506 0.0000 0.0000 0.0000
# 3 -6.0762 1.3506 48.8747 0.0000 0.0000 0.0000
# 4 0.0000 0.0000 0.0000 -1.2748 0.0000 0.0000
# 5 0.0000 0.0000 0.0000 0.0000 22.3181 0.0000
# 6 0.0000 0.0000 0.0000 0.0000 0.0000 26.8672
#
#
#
# Elastic Compliance Matrix: (Units=1/GPa)
#
#
# Indices 1 2 3 4 5 6 
#
# 1 0.011075 -0.001618 0.001422 0.000000 0.000000 0.000000
# 2 -0.001618 0.006074 -0.000369 0.000000 0.000000 0.000000
# 3 0.001422 -0.000369 0.020647 0.000000 0.000000 0.000000
# 4 0.000000 0.000000 0.000000 -0.784459 0.000000 0.000000
# 5 0.000000 0.000000 0.000000 0.000000 0.044807 0.000000
# 6 0.000000 0.000000 0.000000 0.000000 0.000000 0.037220
#
#
# Mechanical properties :
#
#
# Convention : Reuss Voigt Hill
#
# Bulk Modulus (GPa) = 27.27316 39.46252 33.36784
# Shear Modulus (GPa) = -7.67716 29.23401 10.77843
#
# Velocity S-wave (km/s) = -1.76866 3.45134 2.09566
# Velocity P-wave (km/s) = 2.63475 5.65348 4.41043
#
# Compressibility (1/GPa) = 0.03666608
#
# Stress axis : x y z
#
# Youngs Moduli (GPa) = 90.29576 164.62421 48.43227
#
# Poissons Ratio (x) = 0.26633 -0.06885
# Poissons Ratio (y) = 0.14608 0.01787
# Poissons Ratio (z) = -0.12836 0.06074
#
# Static dielectric constant tensor:
#      x y z
#    x 2.011420 0.000000 0.000000 
#    y 0.000000 2.021300 0.000000 
#    z 0.000000 0.000000 1.962830 
# 
# From -- ./inp_files/14032.got.cif
#   From: 2010.05.17/outbox.cif.g08.bks.cpg/sg44_8_cif.got.tgz:14032.got - 2010.06.03 19:37:08.
