data_PCOD9375578
_publ_section_title
;
Structure prediction by ZEFSAII (Michael W. Deem and Ramdas Pophale) SiO2 
 PCOD9375578
Probable space group: I M M 2
;
_chemical_formula_sum "Si O2"
_cell_formula_units_Z 32
_cell_length_a 10.066629
_cell_length_b 22.894074
_cell_length_c 6.788743
_cell_angle_alpha 90.000000
_cell_angle_beta 90.000000
_cell_angle_gamma 90.000000
_cell_volume 1564.575458
_symmetry_space_group_name_H-M "I M M 2"
_symmetry_group_IT_number 44
_symmetry_cell_setting 'orthorhombic'
loop_
_space_group_symop_operation_xyz
x,y,z
-x,-y,z
-x,y,z
x,-y,z
1/2+x,1/2+y,1/2+z
1/2-x,1/2-y,1/2+z
1/2-x,1/2+y,1/2+z
1/2+x,1/2-y,1/2+z
loop_
_atom_site_type_symbol
_atom_site_label
_atom_site_fract_x
_atom_site_fract_y
_atom_site_fract_z
Si Si1 0.846556 0.628602 0.643400
Si Si2 0.143790 0.224366 0.191958
Si Si3 0.746131 0.341389 0.048142
Si Si4 0.651557 0.433200 0.365988
O O1 0.764653 0.688065 0.596449
O O2 0.759899 0.579874 0.534264
O O3 0.000000 0.629783 0.585203
O O4 0.833092 0.625899 0.880926
O O5 0.170538 0.292608 0.164815
O O6 0.148001 0.197362 0.411221
O O7 0.000000 0.211331 0.101097
O O8 0.678850 0.387237 0.191999
O O9 0.500000 0.425698 0.439589
O O10 0.664569 0.500000 0.297106
#
# Coordination Sequence:
#
# PCOD9375578 Si02
#       4
#     8   8   8   8
#     4  10  24  42  64  97 134 171 214 267 330 391
#     4  10  21  39  66  96 129 170 212 262 326 393
#     4  10  23  40  66  95 135 169 218 268 329 388
#     4  11  25  45  69  95 127 175 230 277 323 384
#
# _framework density 20.452832999999998
#
# number of rings (size 3 to 8) (size 9 to 14) (size 15 to 20)
#    1.500    0.250    0.000    3.750    0.000    7.500 
#    0.000    2.500    0.000    0.000    0.000    0.000 
#    0.000    0.000    0.000    0.000    0.000    0.000 
#
# Total GULP energy -89084.842899 kJ/mol
# GULP energy per Si atom -5567.802681 kJ/mol
# Density = 2.040628 g / cm^3
# Si number density = 20.452833 Si / 1000 Ang^3
#
#
#
# Elastic Constant Matrix: (Units=GPa)
#
#
# Indices 1 2 3 4 5 6 
#
# 1 181.2512 51.8692 35.6905 -0.0003 0.0005 0.0002
# 2 51.8692 119.5319 37.4156 -0.0002 -0.0006 -0.0002
# 3 35.6905 37.4156 83.3638 0.0003 -0.0029 -0.0014
# 4 -0.0003 -0.0002 0.0003 30.9029 -0.0009 -0.0005
# 5 0.0005 -0.0006 -0.0029 -0.0009 17.1697 0.0007
# 6 0.0002 -0.0002 -0.0014 -0.0005 0.0007 23.7630
#
#
#
# Elastic Compliance Matrix: (Units=1/GPa)
#
#
# Indices 1 2 3 4 5 6 
#
# 1 0.006516 -0.002274 -0.001769 0.000000 -0.000001 0.000000
# 2 -0.002274 0.010527 -0.003751 0.000000 0.000000 0.000000
# 3 -0.001769 -0.003751 0.014437 0.000000 0.000002 0.000001
# 4 0.000000 0.000000 0.000000 0.032359 0.000002 0.000001
# 5 -0.000001 0.000000 0.000002 0.000002 0.058242 -0.000002
# 6 0.000000 0.000000 0.000001 0.000001 -0.000002 0.042082
#
#
# Mechanical properties :
#
#
# Convention : Reuss Voigt Hill
#
# Bulk Modulus (GPa) = 62.92766 70.45525 66.69146
# Shear Modulus (GPa) = 27.01980 31.64522 29.33251
#
# Velocity S-wave (km/s) = 3.63861 3.93775 3.79113
# Velocity P-wave (km/s) = 6.96323 7.42947 7.20012
#
# Compressibility (1/GPa) = 0.01589126
#
# Stress axis : x y z
#
# Youngs Moduli (GPa) = 153.46115 94.99503 69.26783
#
# Poissons Ratio (x) = 0.21600 0.12255
# Poissons Ratio (y) = 0.34895 0.25984
# Poissons Ratio (z) = 0.27151 0.35635
#
# Static dielectric constant tensor:
#      x y z
#    x 1.739080 0.000000 0.000000 
#    y 0.000000 1.707640 0.000000 
#    z 0.000000 0.000000 1.775310 
# 
# From -- ./inp_files/4227.got.cif
#   From: 2010.05.17/outbox.cif.g08.bks.cpg/sg44_3_cif.got.tgz:4227.got - 2010.06.03 19:37:08.
