data_PCOD9375169
_publ_section_title
;
Structure prediction by ZEFSAII (Michael W. Deem and Ramdas Pophale) SiO2 
 PCOD9375169
Probable space group: I M M 2
;
_chemical_formula_sum "Si O2"
_cell_formula_units_Z 48
_cell_length_a 14.753223
_cell_length_b 8.642865
_cell_length_c 20.749915
_cell_angle_alpha 90.000000
_cell_angle_beta 90.000000
_cell_angle_gamma 90.000000
_cell_volume 2645.824042
_symmetry_space_group_name_H-M "I M M 2"
_symmetry_group_IT_number 44
_symmetry_cell_setting 'orthorhombic'
loop_
_space_group_symop_operation_xyz
x,y,z
-x,-y,z
-x,y,z
x,-y,z
1/2+x,1/2+y,1/2+z
1/2-x,1/2-y,1/2+z
1/2-x,1/2+y,1/2+z
1/2+x,1/2-y,1/2+z
loop_
_atom_site_type_symbol
_atom_site_label
_atom_site_fract_x
_atom_site_fract_y
_atom_site_fract_z
Si Si1 0.311992 0.815918 0.141940
Si Si2 0.803902 0.686333 0.025582
Si Si3 0.500000 0.186621 0.328830
Si Si4 0.500000 0.184524 0.942721
Si Si5 0.000000 0.814765 0.588154
Si Si6 0.809140 0.815308 0.780819
Si Si7 0.811668 0.814732 0.396279
Si Si8 0.000000 0.312061 0.979369
O O1 0.243392 0.767393 0.085528
O O2 0.410165 0.749059 0.122230
O O3 0.283579 0.744053 0.210029
O O4 0.317865 0.000000 0.147125
O O5 0.801821 0.500000 0.035263
O O6 0.907254 0.736844 0.013383
O O7 0.747246 0.718450 0.960529
O O8 0.409384 0.250957 0.296515
O O9 0.500000 0.233229 0.404261
O O10 0.500000 0.000000 0.325201
O O11 0.409865 0.240502 0.906459
O O12 0.500000 0.000000 0.949417
O O13 0.500000 0.259619 0.013962
O O14 0.000000 0.000000 0.590067
O O15 0.741473 0.750817 0.835019
O O16 0.810270 0.000000 0.782522
O O17 0.819594 0.000000 0.390861
O O18 0.000000 0.500000 0.979294
#
# Coordination Sequence:
#
# PCOD9375169 Si02
#       8
#     8   8   4   4   4   8   8   4
#     4  12  25  41  61  89 125 165 208 255 312 374
#     4  10  20  38  64  91 122 161 204 250 305 365
#     4  11  20  38  63  92 127 164 203 248 311 375
#     4  12  24  39  62  95 128 161 207 257 308 366
#     4  12  23  39  62  91 126 162 203 256 316 373
#     4  12  25  41  61  91 128 165 208 258 313 371
#     4  11  22  40  66  92 124 164 207 256 309 366
#     4   9  18  36  63  92 121 157 199 243 295 360
#
# _framework density 18.141795999999999
#
# number of rings (size 3 to 8) (size 9 to 14) (size 15 to 20)
#    0.000    0.833    3.333    5.750    0.000    0.667 
#    0.000    1.250    0.000    1.000    0.000    0.000 
#    0.000    0.000    0.000    0.000    0.000    0.000 
#
# Total GULP energy -134272.967561 kJ/mol
# GULP energy per Si atom -5594.706982 kJ/mol
# Density = 1.810050 g / cm^3
# Si number density = 18.141796 Si / 1000 Ang^3
#
#
#
# Elastic Constant Matrix: (Units=GPa)
#
#
# Indices 1 2 3 4 5 6 
#
# 1 122.5199 47.4633 48.8239 0.0000 0.0000 0.0000
# 2 47.4633 111.1810 52.3760 0.0000 0.0000 0.0000
# 3 48.8239 52.3760 131.1610 0.0000 0.0000 0.0000
# 4 0.0000 0.0000 0.0000 34.2385 0.0000 0.0000
# 5 0.0000 0.0000 0.0000 0.0000 -1.9317 0.0000
# 6 0.0000 0.0000 0.0000 0.0000 0.0000 28.9275
#
#
#
# Elastic Compliance Matrix: (Units=1/GPa)
#
#
# Indices 1 2 3 4 5 6 
#
# 1 0.010451 -0.003238 -0.002597 0.000000 0.000000 0.000000
# 2 -0.003238 0.012082 -0.003619 0.000000 0.000000 0.000000
# 3 -0.002597 -0.003619 0.010036 0.000000 0.000000 0.000000
# 4 0.000000 0.000000 0.000000 0.029207 0.000000 0.000000
# 5 0.000000 0.000000 0.000000 0.000000 -0.517676 0.000000
# 6 0.000000 0.000000 0.000000 0.000000 0.000000 0.034569
#
#
# Mechanical properties :
#
#
# Convention : Reuss Voigt Hill
#
# Bulk Modulus (GPa) = 73.20636 73.57650 73.39143
# Shear Modulus (GPa) = -12.56698 26.66010 7.04656
#
# Velocity S-wave (km/s) = -2.63479 3.83762 1.97296
# Velocity P-wave (km/s) = 5.58424 7.76407 6.76256
#
# Compressibility (1/GPa) = 0.01366001
#
# Stress axis : x y z
#
# Youngs Moduli (GPa) = 95.68065 82.77026 99.63816
#
# Poissons Ratio (x) = 0.26802 0.25880
# Poissons Ratio (y) = 0.30983 0.36060
# Poissons Ratio (z) = 0.24852 0.29956
#
# Static dielectric constant tensor:
#      x y z
#    x 1.600430 0.000000 0.000000 
#    y 0.000000 1.604720 0.000000 
#    z 0.000000 0.000000 1.598610 
# 
# From -- ./inp_files/21748.got.cif
#   From: 2010.05.17/outbox.cif.g08.bks.cpg/sg44_11_cif.got.tgz:21748.got - 2010.06.03 19:37:08.
