data_PCOD9375152
_publ_section_title
;
Structure prediction by ZEFSAII (Michael W. Deem and Ramdas Pophale) SiO2 
 PCOD9375152
Probable space group: I M M 2
;
_chemical_formula_sum "Si O2"
_cell_formula_units_Z 48
_cell_length_a 9.164159
_cell_length_b 18.755954
_cell_length_c 15.026416
_cell_angle_alpha 90.000000
_cell_angle_beta 90.000000
_cell_angle_gamma 90.000000
_cell_volume 2582.778619
_symmetry_space_group_name_H-M "I M M 2"
_symmetry_group_IT_number 44
_symmetry_cell_setting 'orthorhombic'
loop_
_space_group_symop_operation_xyz
x,y,z
-x,-y,z
-x,y,z
x,-y,z
1/2+x,1/2+y,1/2+z
1/2-x,1/2-y,1/2+z
1/2-x,1/2+y,1/2+z
1/2+x,1/2-y,1/2+z
loop_
_atom_site_type_symbol
_atom_site_label
_atom_site_fract_x
_atom_site_fract_y
_atom_site_fract_z
Si Si1 0.827339 0.648899 0.000000
Si Si2 0.331780 0.750260 0.337654
Si Si3 0.829196 0.609730 0.367422
Si Si4 0.168297 0.000000 0.748449
Si Si5 0.328934 0.500000 0.035761
Si Si6 0.175903 0.423466 0.569541
Si Si7 0.825752 0.733278 0.626089
O O1 0.749492 0.572536 0.005329
O O2 0.756081 0.705838 0.069230
O O3 0.000000 0.642111 0.019738
O O4 0.812761 0.681318 0.900501
O O5 0.500000 0.725933 0.351089
O O6 0.220691 0.690814 0.370451
O O7 0.310400 0.758843 0.232310
O O8 0.743772 0.568647 0.291024
O O9 0.797556 0.577433 0.463966
O O10 0.000000 0.602871 0.350704
O O11 0.179406 0.000000 0.642956
O O12 0.000000 0.000000 0.774189
O O13 0.500000 0.500000 0.010543
O O14 0.230241 0.500000 0.605895
O O15 0.228573 0.346926 0.604137
O O16 0.000000 0.422702 0.582978
O O17 0.000000 0.737952 0.605109
#
# Coordination Sequence:
#
# PCOD9375152 Si02
#       7
#     8   8   8   4   4   8   8
#     4  11  23  40  61  88 121 154 195 251 301 343
#     4  10  22  38  57  86 119 154 193 239 297 351
#     4  11  20  33  57  86 114 149 193 237 285 350
#     4  11  23  37  55  84 119 152 188 242 304 356
#     4  11  25  43  61  82 113 158 202 240 292 358
#     4   9  17  32  55  84 112 143 188 237 277 330
#     4  10  20  38  62  86 115 157 201 238 288 357
#
# _framework density 18.584634999999999
#
# number of rings (size 3 to 8) (size 9 to 14) (size 15 to 20)
#    0.000    1.667    2.500    2.500    0.000    6.667 
#    1.500    0.000    0.000    0.000    0.000    0.000 
#    0.000    0.000    0.000    0.000    0.000    0.000 
#
# Total GULP energy -133917.126069 kJ/mol
# GULP energy per Si atom -5579.880253 kJ/mol
# Density = 1.854234 g / cm^3
# Si number density = 18.584635 Si / 1000 Ang^3
#
#
#
# Elastic Constant Matrix: (Units=GPa)
#
#
# Indices 1 2 3 4 5 6 
#
# 1 55.3798 46.7724 41.1753 0.0000 0.0000 0.0000
# 2 46.7724 147.9174 31.1332 0.0000 0.0000 0.0000
# 3 41.1753 31.1332 50.9402 0.0000 0.0000 0.0000
# 4 0.0000 0.0000 0.0000 4.5057 0.0000 0.0000
# 5 0.0000 0.0000 0.0000 0.0000 22.4862 0.0000
# 6 0.0000 0.0000 0.0000 0.0000 0.0000 24.7291
#
#
#
# Elastic Compliance Matrix: (Units=1/GPa)
#
#
# Indices 1 2 3 4 5 6 
#
# 1 0.054126 -0.009074 -0.038205 0.000000 0.000000 0.000000
# 2 -0.009074 0.009280 0.001663 0.000000 0.000000 0.000000
# 3 -0.038205 0.001663 0.049496 0.000000 0.000000 0.000000
# 4 0.000000 0.000000 0.000000 0.221939 0.000000 0.000000
# 5 0.000000 0.000000 0.000000 0.000000 0.044472 0.000000
# 6 0.000000 0.000000 0.000000 0.000000 0.000000 0.040438
#
#
# Mechanical properties :
#
#
# Convention : Reuss Voigt Hill
#
# Bulk Modulus (GPa) = 46.14643 54.71102 50.42873
# Shear Modulus (GPa) = 9.64868 19.35465 14.50166
#
# Velocity S-wave (km/s) = 2.28101 3.23062 2.79642
# Velocity P-wave (km/s) = 5.64107 6.58928 6.13353
#
# Compressibility (1/GPa) = 0.02167015
#
# Stress axis : x y z
#
# Youngs Moduli (GPa) = 18.47529 107.76180 20.20369
#
# Poissons Ratio (x) = 0.97781 0.77188
# Poissons Ratio (y) = 0.16764 -0.03360
# Poissons Ratio (z) = 0.70585 -0.17920
#
# Static dielectric constant tensor:
#      x y z
#    x 1.626660 0.000000 0.000000 
#    y 0.000000 1.691660 0.000000 
#    z 0.000000 0.000000 1.633580 
# 
# From -- ./inp_files/16165.got.cif
#   From: 2010.05.17/outbox.cif.g08.bks.cpg/sg44_9_cif.got.tgz:16165.got - 2010.06.03 19:37:08.
