data_PCOD9375756
_publ_section_title
;
Structure prediction by ZEFSAII (Michael W. Deem and Ramdas Pophale) SiO2 
 PCOD9375756
Probable space group: I M M 2
;
_chemical_formula_sum "Si O2"
_cell_formula_units_Z 64
_cell_length_a 13.994080
_cell_length_b 18.847716
_cell_length_c 12.409124
_cell_angle_alpha 90.000000
_cell_angle_beta 90.000000
_cell_angle_gamma 90.000000
_cell_volume 3272.986438
_symmetry_space_group_name_H-M "I M M 2"
_symmetry_group_IT_number 44
_symmetry_cell_setting 'orthorhombic'
loop_
_space_group_symop_operation_xyz
x,y,z
-x,-y,z
-x,y,z
x,-y,z
1/2+x,1/2+y,1/2+z
1/2-x,1/2-y,1/2+z
1/2-x,1/2+y,1/2+z
1/2+x,1/2-y,1/2+z
loop_
_atom_site_type_symbol
_atom_site_label
_atom_site_fract_x
_atom_site_fract_y
_atom_site_fract_z
Si Si1 0.247318 0.081197 0.944970
Si Si2 0.609287 0.347500 0.114377
Si Si3 0.390971 0.293887 0.879621
Si Si4 0.805382 0.646269 0.852945
Si Si5 0.195647 0.580051 0.078799
Si Si6 0.609671 0.137636 0.780448
Si Si7 0.108350 0.585597 0.636186
Si Si8 0.612172 0.700568 0.359108
O O1 0.318122 0.086738 0.842972
O O2 0.163741 0.136594 0.920942
O O3 0.214738 0.000000 0.958746
O O4 0.313785 0.102946 0.045453
O O5 0.500000 0.374919 0.113108
O O6 0.692015 0.405316 0.099863
O O7 0.624476 0.311097 0.229990
O O8 0.618938 0.296219 0.010147
O O9 0.500000 0.316005 0.855299
O O10 0.308518 0.345135 0.835074
O O11 0.376931 0.215918 0.830365
O O12 0.860514 0.620561 0.747916
O O13 0.840596 0.724501 0.885914
O O14 0.822564 0.595412 0.953889
O O15 0.169320 0.500000 0.106204
O O16 0.137867 0.633235 0.155646
O O17 0.500000 0.116913 0.796429
O O18 0.108370 0.500000 0.647053
O O19 0.000000 0.607685 0.606335
O O20 0.500000 0.701910 0.381911
#
# Coordination Sequence:
#
# PCOD9375756 Si02
#       8
#     8   8   8   8   8   8   8   8
#     4  11  23  41  62  88 122 155 196 255 312 367
#     4   9  19  36  60  89 121 155 200 249 300 360
#     4   9  19  36  60  91 123 158 201 250 304 361
#     4  11  22  40  62  89 124 164 207 257 306 360
#     4  11  23  38  58  87 125 165 201 245 304 365
#     4  11  22  37  59  86 118 157 197 243 301 361
#     4  10  23  42  65  91 118 159 214 264 310 363
#     4  11  23  38  61  93 123 159 202 249 308 373
#
# _framework density 19.554006000000001
#
# number of rings (size 3 to 8) (size 9 to 14) (size 15 to 20)
#    0.000    1.625    2.500    1.500    1.750    4.000 
#    0.000    3.125    0.000    1.875    0.000    0.000 
#    0.000    0.000    0.000    0.000    0.000    0.000 
#
# Total GULP energy -178725.140239 kJ/mol
# GULP energy per Si atom -5585.160632 kJ/mol
# Density = 1.950950 g / cm^3
# Si number density = 19.554006 Si / 1000 Ang^3
#
#
#
# Elastic Constant Matrix: (Units=GPa)
#
#
# Indices 1 2 3 4 5 6 
#
# 1 87.0797 21.7974 21.8093 0.0000 0.0000 0.0000
# 2 21.7974 36.5291 18.6681 0.0000 0.0000 0.0000
# 3 21.8093 18.6681 63.0379 0.0000 0.0000 0.0000
# 4 0.0000 0.0000 0.0000 23.1002 0.0000 0.0000
# 5 0.0000 0.0000 0.0000 0.0000 31.5549 0.0000
# 6 0.0000 0.0000 0.0000 0.0000 0.0000 13.3979
#
#
#
# Elastic Compliance Matrix: (Units=1/GPa)
#
#
# Indices 1 2 3 4 5 6 
#
# 1 0.013900 -0.006877 -0.002772 0.000000 0.000000 0.000000
# 2 -0.006877 0.035660 -0.008181 0.000000 0.000000 0.000000
# 3 -0.002772 -0.008181 0.019245 0.000000 0.000000 0.000000
# 4 0.000000 0.000000 0.000000 0.043290 0.000000 0.000000
# 5 0.000000 0.000000 0.000000 0.000000 0.031691 0.000000
# 6 0.000000 0.000000 0.000000 0.000000 0.000000 0.074638
#
#
# Mechanical properties :
#
#
# Convention : Reuss Voigt Hill
#
# Bulk Modulus (GPa) = 30.17152 34.57736 32.37444
# Shear Modulus (GPa) = 18.85847 21.90207 20.38027
#
# Velocity S-wave (km/s) = 3.10890 3.35039 3.23190
# Velocity P-wave (km/s) = 5.32450 5.71736 5.52443
#
# Compressibility (1/GPa) = 0.03314384
#
# Stress axis : x y z
#
# Youngs Moduli (GPa) = 71.94481 28.04253 51.96073
#
# Poissons Ratio (x) = 0.19286 0.14404
# Poissons Ratio (y) = 0.49479 0.42509
# Poissons Ratio (z) = 0.19944 0.22942
#
# Static dielectric constant tensor:
#      x y z
#    x 1.691360 0.000000 0.000000 
#    y 0.000000 1.668930 0.000000 
#    z 0.000000 0.000000 1.685880 
# 
# From -- ./inp_files/13447.got.cif
#   From: 2010.05.17/outbox.cif.g08.bks.cpg/sg44_7_cif.got.tgz:13447.got - 2010.06.03 19:37:08.
