data_PCOD9375548
_publ_section_title
;
Structure prediction by ZEFSAII (Michael W. Deem and Ramdas Pophale) SiO2 
 PCOD9375548
Probable space group: I M M 2
;
_chemical_formula_sum "Si O2"
_cell_formula_units_Z 48
_cell_length_a 8.958872
_cell_length_b 18.716192
_cell_length_c 15.154402
_cell_angle_alpha 90.000000
_cell_angle_beta 90.000000
_cell_angle_gamma 90.000000
_cell_volume 2541.029032
_symmetry_space_group_name_H-M "I M M 2"
_symmetry_group_IT_number 44
_symmetry_cell_setting 'orthorhombic'
loop_
_space_group_symop_operation_xyz
x,y,z
-x,-y,z
-x,y,z
x,-y,z
1/2+x,1/2+y,1/2+z
1/2-x,1/2-y,1/2+z
1/2-x,1/2+y,1/2+z
1/2+x,1/2-y,1/2+z
loop_
_atom_site_type_symbol
_atom_site_label
_atom_site_fract_x
_atom_site_fract_y
_atom_site_fract_z
Si Si1 0.820064 0.649791 0.000000
Si Si2 0.322329 0.762997 0.330670
Si Si3 0.826855 0.619257 0.373371
Si Si4 0.173405 0.000000 0.760882
Si Si5 0.672817 0.500000 0.049933
Si Si6 0.174425 0.420927 0.574561
Si Si7 0.678859 0.725196 0.638292
O O1 0.750681 0.572881 0.018988
O O2 0.772392 0.710959 0.071240
O O3 0.000000 0.645441 0.005643
O O4 0.781349 0.675879 0.901117
O O5 0.500000 0.764298 0.317880
O O6 0.271244 0.689995 0.376701
O O7 0.242905 0.764460 0.236316
O O8 0.758073 0.568154 0.299869
O O9 0.821053 0.581808 0.468298
O O10 0.000000 0.635972 0.353865
O O11 0.178142 0.000000 0.656048
O O12 0.000000 0.000000 0.789524
O O13 0.500000 0.500000 0.022147
O O14 0.226158 0.500000 0.603700
O O15 0.264011 0.352375 0.607311
O O16 0.000000 0.413097 0.600637
O O17 0.500000 0.726114 0.639835
#
# Coordination Sequence:
#
# PCOD9375548 Si02
#       7
#     8   8   8   4   4   8   8
#     4  10  23  43  65  88 123 164 204 251 308 368
#     4  11  23  41  63  91 122 163 208 253 308 370
#     4  11  21  36  60  91 124 160 201 252 307 367
#     4  11  23  37  57  90 127 164 201 251 314 376
#     4  11  25  41  61  90 121 158 207 257 308 360
#     4  10  21  39  61  89 125 164 202 246 306 366
#     4  11  23  41  65  95 123 160 209 256 307 368
#
# _framework density 18.889983000000001
#
# number of rings (size 3 to 8) (size 9 to 14) (size 15 to 20)
#    0.000    1.333    2.500    3.000    0.000    7.667 
#    1.500    0.000    0.000    0.000    0.000    0.000 
#    0.000    0.000    0.000    0.000    0.000    0.000 
#
# Total GULP energy -134057.715018 kJ/mol
# GULP energy per Si atom -5585.738126 kJ/mol
# Density = 1.884699 g / cm^3
# Si number density = 18.889983 Si / 1000 Ang^3
#
#
#
# Elastic Constant Matrix: (Units=GPa)
#
#
# Indices 1 2 3 4 5 6 
#
# 1 40.4209 32.4187 28.6385 0.0000 0.0000 0.0000
# 2 32.4187 140.1539 35.1545 0.0000 0.0000 0.0000
# 3 28.6385 35.1545 70.6948 -0.0001 0.0000 0.0000
# 4 0.0000 0.0000 -0.0001 53.6769 0.0000 0.0000
# 5 0.0000 0.0000 0.0000 0.0000 31.4672 0.0000
# 6 0.0000 0.0000 0.0000 0.0000 0.0000 34.1878
#
#
#
# Elastic Compliance Matrix: (Units=1/GPa)
#
#
# Indices 1 2 3 4 5 6 
#
# 1 0.038276 -0.005672 -0.012685 0.000000 0.000000 0.000000
# 2 -0.005672 0.008992 -0.002174 0.000000 0.000000 0.000000
# 3 -0.012685 -0.002174 0.020365 0.000000 0.000000 0.000000
# 4 0.000000 0.000000 0.000000 0.018630 0.000000 0.000000
# 5 0.000000 0.000000 0.000000 0.000000 0.031779 0.000000
# 6 0.000000 0.000000 0.000000 0.000000 0.000000 0.029250
#
#
# Mechanical properties :
#
#
# Convention : Reuss Voigt Hill
#
# Bulk Modulus (GPa) = 37.63415 49.29921 43.46668
# Shear Modulus (GPa) = 25.35340 34.20358 29.77849
#
# Velocity S-wave (km/s) = 3.66753 4.25982 3.97472
# Velocity P-wave (km/s) = 6.15633 7.09573 6.64266
#
# Compressibility (1/GPa) = 0.02657161
#
# Stress axis : x y z
#
# Youngs Moduli (GPa) = 26.12586 111.20728 49.10342
#
# Poissons Ratio (x) = 0.63074 0.62289
# Poissons Ratio (y) = 0.14818 0.10675
# Poissons Ratio (z) = 0.33141 0.24176
#
# Static dielectric constant tensor:
#      x y z
#    x 1.637620 0.000000 0.000000 
#    y 0.000000 1.641750 0.000000 
#    z 0.000000 0.000000 1.653820 
# 
# From -- ./inp_files/16111.got.cif
#   From: 2010.05.17/outbox.cif.g08.bks.cpg/sg44_9_cif.got.tgz:16111.got - 2010.06.03 19:37:08.
