data_PCOD9375063
_publ_section_title
;
Structure prediction by ZEFSAII (Michael W. Deem and Ramdas Pophale) SiO2 
 PCOD9375063
Probable space group: I M M 2
;
_chemical_formula_sum "Si O2"
_cell_formula_units_Z 64
_cell_length_a 14.539258
_cell_length_b 19.729181
_cell_length_c 11.802771
_cell_angle_alpha 90.000000
_cell_angle_beta 90.000000
_cell_angle_gamma 90.000000
_cell_volume 3385.597157
_symmetry_space_group_name_H-M "I M M 2"
_symmetry_group_IT_number 44
_symmetry_cell_setting 'orthorhombic'
loop_
_space_group_symop_operation_xyz
x,y,z
-x,-y,z
-x,y,z
x,-y,z
1/2+x,1/2+y,1/2+z
1/2-x,1/2-y,1/2+z
1/2-x,1/2+y,1/2+z
1/2+x,1/2-y,1/2+z
loop_
_atom_site_type_symbol
_atom_site_label
_atom_site_fract_x
_atom_site_fract_y
_atom_site_fract_z
Si Si1 0.395766 0.368363 0.967700
Si Si2 0.246104 0.832250 0.078439
Si Si3 0.720293 0.923530 0.861621
Si Si4 0.103800 0.078663 0.218146
Si Si5 0.607379 0.226728 0.244139
Si Si6 0.390292 0.920148 0.636841
Si Si7 0.298741 0.193735 0.481492
Si Si8 0.604193 0.610214 0.220639
O O1 0.500000 0.338526 0.971125
O O2 0.389304 0.412210 0.853956
O O3 0.310402 0.317195 0.962220
O O4 0.385560 0.406868 0.087506
O O5 0.180539 0.878666 0.154704
O O6 0.335915 0.810685 0.147326
O O7 0.191872 0.763235 0.050255
O O8 0.273277 0.871069 0.963872
O O9 0.646926 0.905902 0.763604
O O10 0.818273 0.922159 0.797315
O O11 0.701541 0.000000 0.902472
O O12 0.000000 0.100725 0.186224
O O13 0.113691 0.000000 0.189362
O O14 0.500000 0.210889 0.239836
O O15 0.650137 0.203729 0.363142
O O16 0.616957 0.308115 0.229532
O O17 0.500000 0.910522 0.629840
O O18 0.338894 0.869772 0.550907
O O19 0.370291 0.000000 0.613787
O O20 0.500000 0.593872 0.255934
#
# Coordination Sequence:
#
# PCOD9375063 Si02
#       8
#     8   8   8   8   8   8   8   8
#     4  10  20  36  63  95 122 152 197 253 311 369
#     4  12  24  39  63  91 125 166 207 248 301 374
#     4  11  23  40  61  89 124 165 205 249 305 368
#     4  10  23  42  62  89 125 164 205 254 309 364
#     4  11  23  40  61  90 127 162 203 261 311 358
#     4  10  23  43  65  91 122 158 206 261 310 360
#     4  12  22  40  68  91 123 161 207 255 311 365
#     4  10  20  38  60  89 126 159 199 254 313 369
#
# _framework density 18.903607000000001
#
# number of rings (size 3 to 8) (size 9 to 14) (size 15 to 20)
#    0.000    1.250    5.000    0.750    0.000    3.250 
#    0.000    2.500    0.000    1.875    0.000    0.000 
#    0.000    0.000    0.000    0.000    0.000    0.000 
#
# Total GULP energy -178745.863833 kJ/mol
# GULP energy per Si atom -5585.808245 kJ/mol
# Density = 1.886058 g / cm^3
# Si number density = 18.903607 Si / 1000 Ang^3
#
#
#
# Elastic Constant Matrix: (Units=GPa)
#
#
# Indices 1 2 3 4 5 6 
#
# 1 109.4405 49.0024 55.3717 0.0000 0.0000 0.0000
# 2 49.0024 80.9743 52.3461 0.0000 0.0000 0.0000
# 3 55.3717 52.3461 111.4334 0.0000 0.0000 0.0000
# 4 0.0000 0.0000 0.0000 18.3265 0.0000 0.0000
# 5 0.0000 0.0000 0.0000 0.0000 11.5204 0.0000
# 6 0.0000 0.0000 0.0000 0.0000 0.0000 18.9329
#
#
#
# Elastic Compliance Matrix: (Units=1/GPa)
#
#
# Indices 1 2 3 4 5 6 
#
# 1 0.013783 -0.005620 -0.004209 0.000000 0.000000 0.000000
# 2 -0.005620 0.020027 -0.006615 0.000000 0.000000 0.000000
# 3 -0.004209 -0.006615 0.014173 0.000000 0.000000 0.000000
# 4 0.000000 0.000000 0.000000 0.054566 0.000000 0.000000
# 5 0.000000 0.000000 0.000000 0.000000 0.086803 0.000000
# 6 0.000000 0.000000 0.000000 0.000000 0.000000 0.052818
#
#
# Mechanical properties :
#
#
# Convention : Reuss Voigt Hill
#
# Bulk Modulus (GPa) = 66.24764 68.36538 67.30651
# Shear Modulus (GPa) = 17.85141 19.43115 18.64128
#
# Velocity S-wave (km/s) = 3.07634 3.20958 3.14367
# Velocity P-wave (km/s) = 6.90938 7.06958 6.98994
#
# Compressibility (1/GPa) = 0.01509488
#
# Stress axis : x y z
#
# Youngs Moduli (GPa) = 72.55109 49.93238 70.55783
#
# Poissons Ratio (x) = 0.28064 0.29697
# Poissons Ratio (y) = 0.40776 0.46674
# Poissons Ratio (z) = 0.30536 0.33030
#
# Static dielectric constant tensor:
#      x y z
#    x 1.647940 0.000000 0.000000 
#    y 0.000000 1.650230 0.000000 
#    z 0.000000 0.000000 1.644530 
# 
# From -- ./inp_files/13418.got.cif
#   From: 2010.05.17/outbox.cif.g08.bks.cpg/sg44_7_cif.got.tgz:13418.got - 2010.06.03 19:37:08.
