data_PCOD9375053
_publ_section_title
;
Structure prediction by ZEFSAII (Michael W. Deem and Ramdas Pophale) SiO2 
 PCOD9375053
Probable space group: I M M 2
;
_chemical_formula_sum "Si O2"
_cell_formula_units_Z 64
_cell_length_a 16.897914
_cell_length_b 30.548739
_cell_length_c 6.733154
_cell_angle_alpha 90.000000
_cell_angle_beta 90.000000
_cell_angle_gamma 90.000000
_cell_volume 3475.721187
_symmetry_space_group_name_H-M "I M M 2"
_symmetry_group_IT_number 44
_symmetry_cell_setting 'orthorhombic'
loop_
_space_group_symop_operation_xyz
x,y,z
-x,-y,z
-x,y,z
x,-y,z
1/2+x,1/2+y,1/2+z
1/2-x,1/2-y,1/2+z
1/2-x,1/2+y,1/2+z
1/2+x,1/2-y,1/2+z
loop_
_atom_site_type_symbol
_atom_site_label
_atom_site_fract_x
_atom_site_fract_y
_atom_site_fract_z
Si Si1 0.793466 0.921299 0.074740
Si Si2 0.180806 0.290141 0.403449
Si Si3 0.351129 0.548524 0.974464
Si Si4 0.906228 0.636368 0.144904
Si Si5 0.691737 0.952023 0.722356
Si Si6 0.320748 0.700634 0.093863
Si Si7 0.410477 0.622008 0.263152
Si Si8 0.702936 0.846683 0.294144
O O1 0.846056 0.945505 0.238474
O O2 0.733956 0.890769 0.196043
O O3 0.740569 0.950019 0.927898
O O4 0.848740 0.891745 0.933494
O O5 0.124935 0.323233 0.280242
O O6 0.260789 0.285364 0.271686
O O7 0.151391 0.241931 0.464222
O O8 0.196020 0.313196 0.613677
O O9 0.381253 0.500000 0.026072
O O10 0.260968 0.551161 0.057397
O O11 0.397611 0.586855 0.086045
O O12 0.863237 0.590810 0.207265
O O13 0.000000 0.632352 0.158195
O O14 0.876165 0.646578 0.921765
O O15 0.652775 0.000000 0.702888
O O16 0.388072 0.669976 0.184136
O O17 0.267899 0.670109 0.950741
O O18 0.500000 0.620113 0.334629
#
# Coordination Sequence:
#
# PCOD9375053 Si02
#       8
#     8   8   8   8   8   8   8   8
#     4  11  18  38  64  87 111 156 206 245 286 340
#     4  11  21  37  66  89 114 152 200 249 286 346
#     4  10  20  37  62  87 114 155 205 246 285 344
#     4  11  24  39  57  89 127 159 191 238 305 360
#     4  10  20  36  62  91 115 149 202 251 286 339
#     4  11  21  37  65  91 111 152 205 244 288 350
#     4  11  24  38  55  88 128 155 188 246 305 352
#     4  11  19  38  64  87 111 154 202 245 284 345
#
# _framework density 18.413444999999999
#
# number of rings (size 3 to 8) (size 9 to 14) (size 15 to 20)
#    0.000    1.250    6.250    1.875    0.000    2.500 
#    0.000    0.000    0.000    0.000    0.000    0.000 
#    0.000    0.000    0.000    0.000    0.000    0.000 
#
# Total GULP energy -178531.189315 kJ/mol
# GULP energy per Si atom -5579.099666 kJ/mol
# Density = 1.837153 g / cm^3
# Si number density = 18.413445 Si / 1000 Ang^3
#
#
#
# Elastic Constant Matrix: (Units=GPa)
#
#
# Indices 1 2 3 4 5 6 
#
# 1 62.9667 25.4786 9.8744 0.0027 0.0049 0.0031
# 2 25.4786 120.8288 22.3419 0.0035 0.0056 0.0033
# 3 9.8744 22.3419 93.5486 0.0173 0.0172 0.0090
# 4 0.0027 0.0035 0.0173 15.4529 0.0059 0.0024
# 5 0.0049 0.0056 0.0172 0.0059 11.3486 -0.0004
# 6 0.0031 0.0033 0.0090 0.0024 -0.0004 4.6842
#
#
#
# Elastic Compliance Matrix: (Units=1/GPa)
#
#
# Indices 1 2 3 4 5 6 
#
# 1 0.017453 -0.003494 -0.001008 -0.000001 -0.000004 -0.000007
# 2 -0.003494 0.009358 -0.001866 0.000001 0.000000 -0.000001
# 3 -0.001008 -0.001866 0.011242 -0.000012 -0.000016 -0.000020
# 4 -0.000001 0.000001 -0.000012 0.064713 -0.000034 -0.000032
# 5 -0.000004 0.000000 -0.000016 -0.000034 0.088117 0.000007
# 6 -0.000007 -0.000001 -0.000020 -0.000032 0.000007 0.213484
#
#
# Mechanical properties :
#
#
# Convention : Reuss Voigt Hill
#
# Bulk Modulus (GPa) = 39.49891 43.63711 41.56801
# Shear Modulus (GPa) = 11.74974 20.94041 16.34507
#
# Velocity S-wave (km/s) = 2.52882 3.37595 2.98261
# Velocity P-wave (km/s) = 5.47944 6.24067 5.87240
#
# Compressibility (1/GPa) = 0.02531715
#
# Stress axis : x y z
#
# Youngs Moduli (GPa) = 57.29597 106.86069 88.95456
#
# Poissons Ratio (x) = 0.37336 0.08965
# Poissons Ratio (y) = 0.20019 0.16600
# Poissons Ratio (z) = 0.05774 0.19942
#
# Static dielectric constant tensor:
#      x y z
#    x 1.595860 0.000000 0.000000 
#    y 0.000000 1.676180 -0.000010 
#    z 0.000000 -0.000010 1.647160 
# 
# From -- ./inp_files/2173.got.cif
#   From: 2010.05.17/outbox.cif.g08.bks.cpg/sg44_2_cif.got.tgz:2173.got - 2010.06.03 19:37:08.
