data_PCOD9375149
_publ_section_title
;
Structure prediction by ZEFSAII (Michael W. Deem and Ramdas Pophale) SiO2 
 PCOD9375149
Probable space group: I M M 2
;
_chemical_formula_sum "Si O2"
_cell_formula_units_Z 64
_cell_length_a 13.278030
_cell_length_b 15.652381
_cell_length_c 16.046545
_cell_angle_alpha 90.000000
_cell_angle_beta 90.000000
_cell_angle_gamma 90.000000
_cell_volume 3334.998129
_symmetry_space_group_name_H-M "I M M 2"
_symmetry_group_IT_number 44
_symmetry_cell_setting 'orthorhombic'
loop_
_space_group_symop_operation_xyz
x,y,z
-x,-y,z
-x,y,z
x,-y,z
1/2+x,1/2+y,1/2+z
1/2-x,1/2-y,1/2+z
1/2-x,1/2+y,1/2+z
1/2+x,1/2-y,1/2+z
loop_
_atom_site_type_symbol
_atom_site_label
_atom_site_fract_x
_atom_site_fract_y
_atom_site_fract_z
Si Si1 0.390983 0.403691 0.524740
Si Si2 0.236541 0.399865 0.674838
Si Si3 0.615060 0.102089 0.593460
Si Si4 0.692645 0.601502 0.195686
Si Si5 0.386405 0.398152 0.824205
Si Si6 0.749250 0.686704 0.951690
Si Si7 0.384003 0.756513 0.089805
Si Si8 0.884505 0.801356 0.854217
O O1 0.500000 0.390603 0.566824
O O2 0.388258 0.500000 0.491607
O O3 0.305568 0.396424 0.592543
O O4 0.385881 0.344008 0.445437
O O5 0.204176 0.500000 0.686602
O O6 0.311195 0.373835 0.749376
O O7 0.151467 0.329689 0.654937
O O8 0.500000 0.132933 0.603087
O O9 0.689987 0.117127 0.671468
O O10 0.671153 0.143346 0.514382
O O11 0.611954 0.000000 0.581243
O O12 0.672541 0.500000 0.186131
O O13 0.632749 0.663695 0.132630
O O14 0.662090 0.635000 0.286432
O O15 0.500000 0.362626 0.817108
O O16 0.393517 0.500000 0.818618
O O17 0.334493 0.374182 0.911400
O O18 0.811906 0.722757 0.873544
O O19 0.686860 0.754084 0.007997
O O20 0.500000 0.768781 0.068161
O O21 0.000000 0.780255 0.830915
#
# Coordination Sequence:
#
# PCOD9375149 Si02
#       8
#     8   8   8   8   8   8   8   8
#     4   9  17  31  54  82 110 143 184 232 285 339
#     4  10  20  38  60  83 114 151 192 242 294 348
#     4   9  19  38  62  84 111 150 195 241 287 339
#     4  10  22  39  60  86 117 151 192 242 293 341
#     4  10  21  37  59  86 115 148 190 243 301 353
#     4  11  21  37  55  85 118 153 189 239 287 347
#     4  11  23  39  58  82 115 155 199 241 286 348
#     4  11  21  34  55  84 118 150 187 236 288 345
#
# _framework density 19.190415999999999
#
# number of rings (size 3 to 8) (size 9 to 14) (size 15 to 20)
#    0.000    1.875    1.250    3.000    0.000    3.750 
#    0.000    5.000    0.000    1.500    0.000    0.000 
#    0.000    0.000    0.000    0.000    0.000    0.000 
#
# Total GULP energy -178383.877283 kJ/mol
# GULP energy per Si atom -5574.496165 kJ/mol
# Density = 1.914674 g / cm^3
# Si number density = 19.190416 Si / 1000 Ang^3
#
#
#
# Elastic Constant Matrix: (Units=GPa)
#
#
# Indices 1 2 3 4 5 6 
#
# 1 140.5382 47.8203 38.9910 0.0000 0.0000 0.0000
# 2 47.8203 45.5492 21.9929 0.0000 0.0000 0.0000
# 3 38.9910 21.9929 59.4058 0.0000 0.0000 0.0000
# 4 0.0000 0.0000 0.0000 29.3028 0.0000 0.0000
# 5 0.0000 0.0000 0.0000 0.0000 17.0688 0.0000
# 6 0.0000 0.0000 0.0000 0.0000 0.0000 23.9206
#
#
#
# Elastic Compliance Matrix: (Units=1/GPa)
#
#
# Indices 1 2 3 4 5 6 
#
# 1 0.011744 -0.010481 -0.003828 0.000000 0.000000 0.000000
# 2 -0.010481 0.036087 -0.006481 0.000000 0.000000 0.000000
# 3 -0.003828 -0.006481 0.021745 0.000000 0.000000 0.000000
# 4 0.000000 0.000000 0.000000 0.034126 0.000000 0.000000
# 5 0.000000 0.000000 0.000000 0.000000 0.058586 0.000000
# 6 0.000000 0.000000 0.000000 0.000000 0.000000 0.041805
#
#
# Mechanical properties :
#
#
# Convention : Reuss Voigt Hill
#
# Bulk Modulus (GPa) = 35.71848 51.45574 43.58711
# Shear Modulus (GPa) = 19.60742 23.17104 21.38923
#
# Velocity S-wave (km/s) = 3.19992 3.47858 3.34215
# Velocity P-wave (km/s) = 5.68381 6.55785 6.13641
#
# Compressibility (1/GPa) = 0.02799671
#
# Stress axis : x y z
#
# Youngs Moduli (GPa) = 85.15060 27.71064 45.98770
#
# Poissons Ratio (x) = 0.29044 0.17603
# Poissons Ratio (y) = 0.89249 0.29803
# Poissons Ratio (z) = 0.32594 0.17958
#
# Static dielectric constant tensor:
#      x y z
#    x 1.694840 0.000000 0.000000 
#    y 0.000000 1.717620 0.000000 
#    z 0.000000 0.000000 1.664480 
# 
# From -- ./inp_files/17938.got.cif
#   From: 2010.05.17/outbox.cif.g08.bks.cpg/sg44_9_cif.got.tgz:17938.got - 2010.06.03 19:37:08.
