data_PCOD9375675
_publ_section_title
;
Structure prediction by ZEFSAII (Michael W. Deem and Ramdas Pophale) SiO2 
 PCOD9375675
Probable space group: I M M 2
;
_chemical_formula_sum "Si O2"
_cell_formula_units_Z 64
_cell_length_a 25.712656
_cell_length_b 8.644572
_cell_length_c 15.354112
_cell_angle_alpha 90.000000
_cell_angle_beta 90.000000
_cell_angle_gamma 90.000000
_cell_volume 3412.833803
_symmetry_space_group_name_H-M "I M M 2"
_symmetry_group_IT_number 44
_symmetry_cell_setting 'orthorhombic'
loop_
_space_group_symop_operation_xyz
x,y,z
-x,-y,z
-x,y,z
x,-y,z
1/2+x,1/2+y,1/2+z
1/2-x,1/2-y,1/2+z
1/2-x,1/2+y,1/2+z
1/2+x,1/2-y,1/2+z
loop_
_atom_site_type_symbol
_atom_site_label
_atom_site_fract_x
_atom_site_fract_y
_atom_site_fract_z
Si Si1 0.281707 0.685788 0.399520
Si Si2 0.850301 0.312928 0.578539
Si Si3 0.939463 0.313301 0.054628
Si Si4 0.835439 0.686285 0.377943
Si Si5 0.866123 0.814753 0.203058
Si Si6 0.235110 0.812964 0.102779
Si Si7 0.108503 0.315314 0.869494
Si Si8 0.558659 0.315030 0.197715
O O1 0.286545 0.500000 0.390535
O O2 0.225056 0.733727 0.364905
O O3 0.280185 0.722028 0.502900
O O4 0.331522 0.766369 0.358590
O O5 0.850825 0.500000 0.582633
O O6 0.850962 0.269354 0.476294
O O7 0.794297 0.258978 0.616505
O O8 0.898566 0.249150 0.631464
O O9 0.936679 0.500000 0.058573
O O10 0.909974 0.245418 0.137696
O O11 0.000000 0.268678 0.052336
O O12 0.911307 0.264203 0.964942
O O13 0.836974 0.500000 0.373856
O O14 0.869847 0.756114 0.301539
O O15 0.810510 0.756074 0.165075
O O16 0.866061 0.000000 0.201572
O O17 0.236306 0.000000 0.109338
O O18 0.104064 0.500000 0.864440
O O19 0.074346 0.241502 0.793732
O O20 0.500000 0.262863 0.176797
O O21 0.560022 0.500000 0.195656
#
# Coordination Sequence:
#
# PCOD9375675 Si02
#       8
#     8   8   8   8   8   8   8   8
#     4   9  17  34  56  81 117 155 189 227 278 337
#     4   9  19  39  63  84 111 150 194 239 287 339
#     4  10  22  40  59  81 114 154 197 243 286 336
#     4   9  20  37  58  84 118 156 192 235 286 341
#     4  11  21  34  57  87 120 154 191 237 288 341
#     4   8  16  32  54  82 116 149 181 226 280 335
#     4  11  22  36  58  87 117 151 191 234 284 342
#     4  11  25  42  59  83 115 150 192 242 292 343
#
# _framework density 18.752745000000001
#
# number of rings (size 3 to 8) (size 9 to 14) (size 15 to 20)
#    0.000    2.250    1.250    3.000    1.750    3.250 
#    0.000    3.125    0.000    0.750    0.000    0.000 
#    0.000    0.000    0.000    0.000    0.000    0.000 
#
# Total GULP energy -178646.368305 kJ/mol
# GULP energy per Si atom -5582.699010 kJ/mol
# Density = 1.871006 g / cm^3
# Si number density = 18.752745 Si / 1000 Ang^3
#
#
#
# Elastic Constant Matrix: (Units=GPa)
#
#
# Indices 1 2 3 4 5 6 
#
# 1 113.7057 24.0341 47.2671 0.0000 0.0000 0.0000
# 2 24.0341 17.3210 18.3796 0.0000 0.0000 0.0000
# 3 47.2671 18.3796 75.7300 0.0000 0.0000 0.0000
# 4 0.0000 0.0000 0.0000 23.4945 0.0000 0.0000
# 5 0.0000 0.0000 0.0000 0.0000 28.3045 0.0000
# 6 0.0000 0.0000 0.0000 0.0000 0.0000 28.2685
#
#
#
# Elastic Compliance Matrix: (Units=1/GPa)
#
#
# Indices 1 2 3 4 5 6 
#
# 1 0.013902 -0.013580 -0.005381 0.000000 0.000000 0.000000
# 2 -0.013580 0.091024 -0.013616 0.000000 0.000000 0.000000
# 3 -0.005381 -0.013616 0.019868 0.000000 0.000000 0.000000
# 4 0.000000 0.000000 0.000000 0.042563 0.000000 0.000000
# 5 0.000000 0.000000 0.000000 0.000000 0.035330 0.000000
# 6 0.000000 0.000000 0.000000 0.000000 0.000000 0.035375
#
#
# Mechanical properties :
#
#
# Convention : Reuss Voigt Hill
#
# Bulk Modulus (GPa) = 16.76706 42.90205 29.83455
# Shear Modulus (GPa) = 15.47530 23.81855 19.64692
#
# Velocity S-wave (km/s) = 2.87580 3.56776 3.24030
# Velocity P-wave (km/s) = 4.47073 6.31659 5.47206
#
# Compressibility (1/GPa) = 0.05964076
#
# Stress axis : x y z
#
# Youngs Moduli (GPa) = 71.93234 10.98612 50.33232
#
# Poissons Ratio (x) = 0.14919 0.27084
# Poissons Ratio (y) = 0.97683 0.68530
# Poissons Ratio (z) = 0.38708 0.14958
#
# Static dielectric constant tensor:
#      x y z
#    x 1.644080 0.000000 0.000000 
#    y 0.000000 1.631050 0.000000 
#    z 0.000000 0.000000 1.643450 
# 
# From -- ./inp_files/19476.got.cif
#   From: 2010.05.17/outbox.cif.g08.bks.cpg/sg44_10_cif.got.tgz:19476.got - 2010.06.03 19:37:08.
