data_PCOD9375990
_publ_section_title
;
Structure prediction by ZEFSAII (Michael W. Deem and Ramdas Pophale) SiO2 
 PCOD9375990
Probable space group: I M M 2
;
_chemical_formula_sum "Si O2"
_cell_formula_units_Z 28
_cell_length_a 9.000000
_cell_length_b 21.000000
_cell_length_c 15.000000
_cell_angle_alpha 90.000000
_cell_angle_beta 90.000000
_cell_angle_gamma 90.000000
_cell_volume 2835.000000
_symmetry_space_group_name_H-M "I M M 2"
_symmetry_group_IT_number 44
_symmetry_cell_setting 'orthorhombic'
loop_
_space_group_symop_operation_xyz
x,y,z
-x,-y,z
-x,y,z
x,-y,z
1/2+x,1/2+y,1/2+z
1/2-x,1/2-y,1/2+z
1/2-x,1/2+y,1/2+z
1/2+x,1/2-y,1/2+z
loop_
_atom_site_type_symbol
_atom_site_label
_atom_site_fract_x
_atom_site_fract_y
_atom_site_fract_z
Si Si1 0.324584 0.386991 0.586150
Si Si2 0.322765 0.805078 0.681737
Si Si3 0.669971 0.423440 0.254933
Si Si4 0.180913 0.711832 0.833706
Si Si5 0.320380 0.244314 0.020051
Si Si6 0.337015 0.927823 0.922167
Si Si7 0.323995 0.575148 0.792379
O O1 0.500000 0.386137 0.564232
O O2 0.251372 0.318692 0.564852
O O3 0.226208 0.428825 0.520479
O O4 0.311823 0.412197 0.686245
O O5 0.500000 0.793041 0.677107
O O6 0.288167 0.878088 0.707589
O O7 0.249559 0.754524 0.752264
O O8 0.239477 0.796945 0.588030
O O9 0.500000 0.406089 0.233403
O O10 0.683425 0.500000 0.240166
O O11 0.706796 0.404881 0.357577
O O12 0.235056 0.637114 0.830417
O O13 0.000000 0.714649 0.831523
O O14 0.249921 0.742756 0.923302
O O15 0.500000 0.241487 0.016861
O O16 0.500000 0.895615 0.915403
O O17 0.357521 0.000000 0.892862
O O18 0.500000 0.581183 0.816223
O O19 0.281461 0.500000 0.811054
#
# Coordination Sequence:
#
# PCOD9375990 Si02
#       7
#     8   8   8   8   8   8   8
#     4  11  21  36  59  89 124 162 207 258 320 388
#     4  12  24  42  66  94 128 165 210 265 322 385
#     4  10  21  38  60  87 121 162 207 256 316 382
#     4  12  25  43  67  96 131 174 221 272 328 391
#     4  12  25  42  65  93 125 164 213 269 325 386
#     4  10  20  33  51  80 119 160 202 248 302 366
#     4  10  22  41  65  93 130 175 220 272 334 396
#
# _framework density 9.8765429999999999
#
# number of rings (size 3 to 8) (size 9 to 14) (size 15 to 20)
#    0.000    1.000    1.429    6.429    0.000    3.143 
#    0.000    0.714    0.000    4.286    0.000    0.000 
#    0.000    0.000    0.000    0.000    0.000    0.000 
#
# Total GULP energy -156109.152119 kJ/mol
# GULP energy per Si atom -5575.326861 kJ/mol
# Density = 0.985406 g / cm^3
# Si number density = 9.876543 Si / 1000 Ang^3
#
#
#
# Elastic Constant Matrix: (Units=GPa)
#
#
# Indices 1 2 3 4 5 6 
#
# 1 141.5553 26.7725 17.7611 -0.0001 0.0000 0.0000
# 2 26.7725 83.9214 3.0923 0.0001 0.0000 0.0000
# 3 17.7611 3.0923 64.0452 0.0000 0.0000 0.0000
# 4 -0.0001 0.0001 0.0000 150.7217 0.0000 0.0000
# 5 0.0000 0.0000 0.0000 0.0000 27.7597 0.0000
# 6 0.0000 0.0000 0.0000 0.0000 0.0000 37.0361
#
#
#
# Elastic Compliance Matrix: (Units=1/GPa)
#
#
# Indices 1 2 3 4 5 6 
#
# 1 0.007775 -0.002405 -0.002040 0.000000 0.000000 0.000000
# 2 -0.002405 0.012681 0.000055 0.000000 0.000000 0.000000
# 3 -0.002040 0.000055 0.016177 0.000000 0.000000 0.000000
# 4 0.000000 0.000000 0.000000 0.006635 0.000000 0.000000
# 5 0.000000 0.000000 0.000000 0.000000 0.036023 0.000000
# 6 0.000000 0.000000 0.000000 0.000000 0.000000 0.027001
#
#
# Mechanical properties :
#
#
# Convention : Reuss Voigt Hill
#
# Bulk Modulus (GPa) = 35.90368 42.75263 39.32816
# Shear Modulus (GPa) = 40.20654 59.22989 49.71822
#
# Velocity S-wave (km/s) = 4.51650 5.48181 5.02240
# Velocity P-wave (km/s) = 6.73899 7.85859 7.32023
#
# Compressibility (1/GPa) = 0.02785230
#
# Stress axis : x y z
#
# Youngs Moduli (GPa) = 128.61294 78.85677 61.81580
#
# Poissons Ratio (x) = 0.18967 0.12611
# Poissons Ratio (y) = 0.30935 -0.00338
# Poissons Ratio (z) = 0.26238 -0.00432
#
# Static dielectric constant tensor:
#      x y z
#    x 1.687770 0.000000 0.000000 
#    y 0.000000 -0.305070 0.000000 
#    z 0.000000 0.000000 1.740290 
# 
# From -- ./inp_files/16467.got.cif
#   From: 2010.05.17/outbox.ucp.g08.bks.cvg/sg44_9_cif.got.tgz:16467.got - 2010.06.11 16:32:36.
