data_PCOD9375744
_publ_section_title
;
Structure prediction by ZEFSAII (Michael W. Deem and Ramdas Pophale) SiO2 
 PCOD9375744
Probable space group: I M M 2
;
_chemical_formula_sum "Si O2"
_cell_formula_units_Z 56
_cell_length_a 18.531954
_cell_length_b 24.403821
_cell_length_c 5.820762
_cell_angle_alpha 90.000000
_cell_angle_beta 90.000000
_cell_angle_gamma 90.000000
_cell_volume 2632.442456
_symmetry_space_group_name_H-M "I M M 2"
_symmetry_group_IT_number 44
_symmetry_cell_setting 'orthorhombic'
loop_
_space_group_symop_operation_xyz
x,y,z
-x,-y,z
-x,y,z
x,-y,z
1/2+x,1/2+y,1/2+z
1/2-x,1/2-y,1/2+z
1/2-x,1/2+y,1/2+z
1/2+x,1/2-y,1/2+z
loop_
_atom_site_type_symbol
_atom_site_label
_atom_site_fract_x
_atom_site_fract_y
_atom_site_fract_z
Si Si1 0.378100 0.366520 0.407660
Si Si2 0.078422 0.938914 0.301205
Si Si3 0.923052 0.204696 0.514412
Si Si4 0.204839 0.780211 0.169548
Si Si5 0.717430 0.562743 0.130034
Si Si6 0.339937 0.846119 0.643839
Si Si7 0.129433 0.319076 0.655807
O O1 0.421640 0.390146 0.619164
O O2 0.422167 0.345306 0.191232
O O3 0.331086 0.312929 0.462015
O O4 0.323391 0.415857 0.355220
O O5 0.152359 0.934280 0.444786
O O6 0.000000 0.938001 0.425346
O O7 0.080913 0.000000 0.192839
O O8 0.848754 0.201891 0.373443
O O9 0.917097 0.264067 0.633326
O O10 0.000000 0.205003 0.385296
O O11 0.195501 0.715043 0.152632
O O12 0.286260 0.800800 0.178380
O O13 0.742063 0.500000 0.142885
O O14 0.781548 0.606151 0.101522
O O15 0.386518 0.846007 0.405877
O O16 0.374129 0.849738 0.904298
#
# Coordination Sequence:
#
# PCOD9375744 Si02
#       7
#     8   8   8   8   8   8   8
#     4  12  20  37  58  82 117 161 215 257 322 370
#     4  10  23  40  55  76 114 167 220 266 314 367
#     4  11  25  38  58  93 132 168 214 269 321 383
#     4  11  22  37  60  85 121 167 208 255 320 398
#     4  11  24  40  59  84 117 157 215 276 315 366
#     4  11  21  39  62  90 115 160 202 258 318 385
#     4  11  21  39  64  89 123 165 213 250 324 393
#
# _framework density 21.273018
#
# number of rings (size 3 to 8) (size 9 to 14) (size 15 to 20)
#    0.000    1.000    2.857    6.000    0.000    3.429 
#    0.000    1.429    0.000    0.000    0.000    0.000 
#    0.000   18.857    0.000    0.000    0.000    0.000 
#
# Total GULP energy -156075.092961 kJ/mol
# GULP energy per Si atom -5574.110463 kJ/mol
# Density = 2.122460 g / cm^3
# Si number density = 21.273018 Si / 1000 Ang^3
#
#
#
# Elastic Constant Matrix: (Units=GPa)
#
#
# Indices 1 2 3 4 5 6 
#
# 1 48.2957 36.6041 12.9409 0.0000 0.0000 0.0000
# 2 36.6041 146.7549 31.2504 0.0000 0.0000 0.0000
# 3 12.9409 31.2504 107.8592 0.0000 0.0000 0.0000
# 4 0.0000 0.0000 0.0000 31.3372 0.0000 0.0000
# 5 0.0000 0.0000 0.0000 0.0000 14.3605 0.0000
# 6 0.0000 0.0000 0.0000 0.0000 0.0000 19.5984
#
#
#
# Elastic Compliance Matrix: (Units=1/GPa)
#
#
# Indices 1 2 3 4 5 6 
#
# 1 0.025704 -0.006133 -0.001307 0.000000 0.000000 0.000000
# 2 -0.006133 0.008725 -0.001792 0.000000 0.000000 0.000000
# 3 -0.001307 -0.001792 0.009947 0.000000 0.000000 0.000000
# 4 0.000000 0.000000 0.000000 0.031911 0.000000 0.000000
# 5 0.000000 0.000000 0.000000 0.000000 0.069636 0.000000
# 6 0.000000 0.000000 0.000000 0.000000 0.000000 0.051024
#
#
# Mechanical properties :
#
#
# Convention : Reuss Voigt Hill
#
# Bulk Modulus (GPa) = 38.59115 51.61118 45.10117
# Shear Modulus (GPa) = 22.31645 27.86684 25.09164
#
# Velocity S-wave (km/s) = 3.24242 3.62327 3.43812
# Velocity P-wave (km/s) = 5.67432 6.46669 6.08342
#
# Compressibility (1/GPa) = 0.02591268
#
# Stress axis : x y z
#
# Youngs Moduli (GPa) = 38.90411 114.60767 100.52838
#
# Poissons Ratio (x) = 0.70288 0.13140
# Poissons Ratio (y) = 0.23860 0.18017
# Poissons Ratio (z) = 0.05085 0.20540
#
# Static dielectric constant tensor:
#      x y z
#    x 1.772910 0.000000 0.000000 
#    y 0.000000 1.764290 0.000000 
#    z 0.000000 0.000000 1.940090 
# 
# From -- ./inp_files/2466.got.cif
#   From: 2010.05.17/outbox.cif.g08.bks.cpg/sg44_2_cif.got.tgz:2466.got - 2010.06.03 19:37:08.
