data_PCOD9375693
_publ_section_title
;
Structure prediction by ZEFSAII (Michael W. Deem and Ramdas Pophale) SiO2 
 PCOD9375693
Probable space group: I M M 2
;
_chemical_formula_sum "Si O2"
_cell_formula_units_Z 48
_cell_length_a 9.332782
_cell_length_b 7.473160
_cell_length_c 35.293232
_cell_angle_alpha 90.000000
_cell_angle_beta 90.000000
_cell_angle_gamma 90.000000
_cell_volume 2461.539635
_symmetry_space_group_name_H-M "I M M 2"
_symmetry_group_IT_number 44
_symmetry_cell_setting 'orthorhombic'
loop_
_space_group_symop_operation_xyz
x,y,z
-x,-y,z
-x,y,z
x,-y,z
1/2+x,1/2+y,1/2+z
1/2-x,1/2-y,1/2+z
1/2-x,1/2+y,1/2+z
1/2+x,1/2-y,1/2+z
loop_
_atom_site_type_symbol
_atom_site_label
_atom_site_fract_x
_atom_site_fract_y
_atom_site_fract_z
Si Si1 0.334797 0.218047 0.271490
Si Si2 0.669901 0.790793 0.420413
Si Si3 0.829136 0.000000 0.983473
Si Si4 0.166519 0.295108 0.111342
Si Si5 0.166771 0.716713 0.686404
Si Si6 0.828241 0.500000 0.563126
Si Si7 0.164069 0.218510 0.345058
O O1 0.500000 0.270474 0.277288
O O2 0.291723 0.273134 0.229029
O O3 0.239532 0.279475 0.306443
O O4 0.331736 0.000000 0.271462
O O5 0.500000 0.776162 0.412811
O O6 0.701085 0.671059 0.456906
O O7 0.752992 0.728238 0.383034
O O8 0.703074 0.000000 0.427120
O O9 0.734940 0.000000 0.020920
O O10 0.000000 0.000000 0.992828
O O11 0.172636 0.500000 0.098286
O O12 0.230291 0.284979 0.153687
O O13 0.000000 0.237239 0.110861
O O14 0.263665 0.169636 0.085393
O O15 0.170672 0.500000 0.685048
O O16 0.000000 0.768650 0.680043
O O17 0.000000 0.500000 0.563991
O O18 0.000000 0.274695 0.346410
O O19 0.167921 0.000000 0.344536
#
# Coordination Sequence:
#
# PCOD9375693 Si02
#       7
#     8   8   4   8   8   4   8
#     4   8  14  25  44  73 109 149 193 236 281 338
#     4   9  18  34  57  82 110 147 186 229 284 343
#     4  10  22  40  62  88 116 146 188 238 290 356
#     4  11  24  41  63  90 120 157 198 243 298 359
#     4   9  17  31  54  84 116 153 197 245 297 350
#     4  12  26  44  66  92 122 156 196 244 300 362
#     4   9  16  26  44  74 110 147 190 236 282 332
#
# _framework density 19.499991000000001
#
# number of rings (size 3 to 8) (size 9 to 14) (size 15 to 20)
#    0.000    2.500    0.833    2.750    0.000    5.333 
#    0.000    3.333    1.833    0.000    0.000    0.000 
#    0.000    0.000    0.000    0.000    0.000    0.000 
#
# Total GULP energy -134034.737540 kJ/mol
# GULP energy per Si atom -5584.780731 kJ/mol
# Density = 1.945561 g / cm^3
# Si number density = 19.499991 Si / 1000 Ang^3
#
#
#
# Elastic Constant Matrix: (Units=GPa)
#
#
# Indices 1 2 3 4 5 6 
#
# 1 129.1980 49.1907 114.2168 0.0000 0.0000 0.0000
# 2 49.1907 80.9986 51.2296 0.0000 0.0000 0.0000
# 3 114.2168 51.2296 174.2673 0.0000 0.0000 0.0000
# 4 0.0000 0.0000 0.0000 -128.4145 0.0000 0.0000
# 5 0.0000 0.0000 0.0000 0.0000 40.0223 0.0000
# 6 0.0000 0.0000 0.0000 0.0000 0.0000 -15.4068
#
#
#
# Elastic Compliance Matrix: (Units=1/GPa)
#
#
# Indices 1 2 3 4 5 6 
#
# 1 0.019747 -0.004676 -0.011568 0.000000 0.000000 0.000000
# 2 -0.004676 0.016273 -0.001719 0.000000 0.000000 0.000000
# 3 -0.011568 -0.001719 0.013825 0.000000 0.000000 0.000000
# 4 0.000000 0.000000 0.000000 -0.007787 0.000000 0.000000
# 5 0.000000 0.000000 0.000000 0.000000 0.024986 0.000000
# 6 0.000000 0.000000 0.000000 0.000000 0.000000 -0.064906
#
#
# Mechanical properties :
#
#
# Convention : Reuss Voigt Hill
#
# Bulk Modulus (GPa) = 71.84181 90.41533 81.12857
# Shear Modulus (GPa) = 117.09030 -9.43802 53.82614
#
# Velocity S-wave (km/s) = 7.75736 -2.20239 5.25957
# Velocity P-wave (km/s) = 10.82393 6.32457 8.86447
#
# Compressibility (1/GPa) = 0.01391947
#
# Stress axis : x y z
#
# Youngs Moduli (GPa) = 50.64167 61.45185 72.33184
#
# Poissons Ratio (x) = 0.28735 0.83670
# Poissons Ratio (y) = 0.23680 0.12434
# Poissons Ratio (z) = 0.58580 0.10564
#
# Static dielectric constant tensor:
#      x y z
#    x 1.646510 0.000000 0.000000 
#    y 0.000000 1.749880 0.000000 
#    z 0.000000 0.000000 1.650080 
# 
# From -- ./inp_files/26984.got.cif
#   From: 2010.05.17/outbox.cif.g08.bks.cpg/sg44_14_cif.got.tgz:26984.got - 2010.06.03 19:37:08.
