data_PCOD9375706
_publ_section_title
;
Structure prediction by ZEFSAII (Michael W. Deem and Ramdas Pophale) SiO2 
 PCOD9375706
Probable space group: I M M 2
;
_chemical_formula_sum "Si O2"
_cell_formula_units_Z 40
_cell_length_a 22.189969
_cell_length_b 10.194994
_cell_length_c 8.330120
_cell_angle_alpha 90.000000
_cell_angle_beta 90.000000
_cell_angle_gamma 90.000000
_cell_volume 1884.494732
_symmetry_space_group_name_H-M "I M M 2"
_symmetry_group_IT_number 44
_symmetry_cell_setting 'orthorhombic'
loop_
_space_group_symop_operation_xyz
x,y,z
-x,-y,z
-x,y,z
x,-y,z
1/2+x,1/2+y,1/2+z
1/2-x,1/2-y,1/2+z
1/2-x,1/2+y,1/2+z
1/2+x,1/2-y,1/2+z
loop_
_atom_site_type_symbol
_atom_site_label
_atom_site_fract_x
_atom_site_fract_y
_atom_site_fract_z
Si Si1 0.437371 0.351145 0.907460
Si Si2 0.928945 0.642189 0.828229
Si Si3 0.622134 0.654213 0.575209
Si Si4 0.219500 0.348411 0.240975
Si Si5 0.331009 0.215919 0.082507
O O1 0.500000 0.279610 0.947216
O O2 0.443416 0.500000 0.956530
O O3 0.426677 0.346302 0.717904
O O4 0.376607 0.308838 0.989358
O O5 0.924381 0.500000 0.915806
O O6 0.879463 0.635748 0.686461
O O7 0.000000 0.655420 0.784667
O O8 0.907863 0.768226 0.928857
O O9 0.639107 0.500000 0.545650
O O10 0.675162 0.748069 0.645913
O O11 0.213507 0.500000 0.186236
O O12 0.285207 0.291493 0.199063
O O13 0.205431 0.346377 0.432297
#
# Coordination Sequence:
#
# PCOD9375706 Si02
#       5
#     8   8   8   8   8
#     4   9  18  35  59  88 121 154 192 245 308 372
#     4  11  24  41  62  91 128 169 214 266 322 379
#     4  10  22  40  65  95 125 161 205 254 312 380
#     4  11  24  42  65  92 125 166 211 261 317 377
#     4  11  23  39  61  89 123 163 214 262 313 374
#
# _framework density 21.225847999999999
#
# number of rings (size 3 to 8) (size 9 to 14) (size 15 to 20)
#    0.000    1.600    0.000    4.200    0.000    6.800 
#    0.000    0.000    0.000    9.600    0.000    0.000 
#    0.000    0.000    0.000    0.000    0.000    0.000 
#
# Total GULP energy -111337.856557 kJ/mol
# GULP energy per Si atom -5566.892828 kJ/mol
# Density = 2.117754 g / cm^3
# Si number density = 21.225848 Si / 1000 Ang^3
#
#
#
# Elastic Constant Matrix: (Units=GPa)
#
#
# Indices 1 2 3 4 5 6 
#
# 1 163.5043 63.7089 50.0701 0.0000 0.0000 0.0000
# 2 63.7089 157.4677 50.5943 0.0000 0.0000 0.0000
# 3 50.0701 50.5943 79.4064 0.0000 0.0000 0.0000
# 4 0.0000 0.0000 0.0000 8.9888 0.0000 0.0000
# 5 0.0000 0.0000 0.0000 0.0000 64.8468 0.0000
# 6 0.0000 0.0000 0.0000 0.0000 0.0000 29.5686
#
#
#
# Elastic Compliance Matrix: (Units=1/GPa)
#
#
# Indices 1 2 3 4 5 6 
#
# 1 0.008074 -0.002051 -0.003785 0.000000 0.000000 0.000000
# 2 -0.002051 0.008506 -0.004127 0.000000 0.000000 0.000000
# 3 -0.003785 -0.004127 0.017609 0.000000 0.000000 0.000000
# 4 0.000000 0.000000 0.000000 0.111250 0.000000 0.000000
# 5 0.000000 0.000000 0.000000 0.000000 0.015421 0.000000
# 6 0.000000 0.000000 0.000000 0.000000 0.000000 0.033820
#
#
# Mechanical properties :
#
#
# Convention : Reuss Voigt Hill
#
# Bulk Modulus (GPa) = 70.09896 81.01390 75.55643
# Shear Modulus (GPa) = 22.79372 36.41450 29.60411
#
# Velocity S-wave (km/s) = 3.28054 4.14644 3.73865
# Velocity P-wave (km/s) = 6.88813 7.82141 7.36955
#
# Compressibility (1/GPa) = 0.01426555
#
# Stress axis : x y z
#
# Youngs Moduli (GPa) = 123.85414 117.56324 56.78880
#
# Poissons Ratio (x) = 0.24108 0.21492
# Poissons Ratio (y) = 0.25398 0.23435
# Poissons Ratio (z) = 0.46873 0.48514
#
# Static dielectric constant tensor:
#      x y z
#    x 1.725810 0.000000 0.000000 
#    y 0.000000 1.786410 0.000000 
#    z 0.000000 0.000000 1.810090 
# 
# From -- ./inp_files/4449.got.cif
#   From: 2010.05.17/outbox.cif.g08.bks.cpg/sg44_3_cif.got.tgz:4449.got - 2010.06.03 19:37:08.
