data_PCOD9375735
_publ_section_title
;
Structure prediction by ZEFSAII (Michael W. Deem and Ramdas Pophale) SiO2 
 PCOD9375735
Probable space group: I M M 2
;
_chemical_formula_sum "Si O2"
_cell_formula_units_Z 48
_cell_length_a 17.046511
_cell_length_b 13.903778
_cell_length_c 8.952824
_cell_angle_alpha 90.000000
_cell_angle_beta 90.000000
_cell_angle_gamma 90.000000
_cell_volume 2121.916915
_symmetry_space_group_name_H-M "I M M 2"
_symmetry_group_IT_number 44
_symmetry_cell_setting 'orthorhombic'
loop_
_space_group_symop_operation_xyz
x,y,z
-x,-y,z
-x,y,z
x,-y,z
1/2+x,1/2+y,1/2+z
1/2-x,1/2-y,1/2+z
1/2-x,1/2+y,1/2+z
1/2+x,1/2-y,1/2+z
loop_
_atom_site_type_symbol
_atom_site_label
_atom_site_fract_x
_atom_site_fract_y
_atom_site_fract_z
Si Si1 0.585339 0.701758 0.075970
Si Si2 0.908352 0.782821 0.044858
Si Si3 0.182662 0.109462 0.822166
Si Si4 0.328039 0.107595 0.371583
Si Si5 0.842492 0.608452 0.509521
Si Si6 0.651550 0.608199 0.818481
O O1 0.500000 0.703931 0.151500
O O2 0.656760 0.679424 0.188658
O O3 0.599411 0.802646 0.991729
O O4 0.589179 0.621337 0.949135
O O5 0.862829 0.811089 0.194916
O O6 0.000000 0.773462 0.073535
O O7 0.887620 0.872431 0.938044
O O8 0.875556 0.688923 0.959086
O O9 0.185894 0.000000 0.768300
O O10 0.262619 0.127869 0.915838
O O11 0.333153 0.107932 0.190419
O O12 0.235783 0.121843 0.395581
O O13 0.351340 0.000000 0.421157
O O14 0.868342 0.500000 0.468159
O O15 0.650443 0.500000 0.754545
#
# Coordination Sequence:
#
# PCOD9375735 Si02
#       6
#     8   8   8   8   8   8
#     4  12  26  42  66 103 141 180 226 286 352 404
#     4  12  24  40  67 102 135 177 227 284 349 404
#     4  11  23  41  65  96 133 177 228 280 333 404
#     4  10  22  42  68  98 130 174 228 282 340 405
#     4  10  22  42  68  97 131 175 228 283 338 403
#     4  11  25  45  68  96 138 189 231 275 340 414
#
# _framework density 22.621054999999998
#
# number of rings (size 3 to 8) (size 9 to 14) (size 15 to 20)
#    0.000    1.000    3.333    3.000    0.000    4.667 
#    0.000    4.167    0.000    3.000    0.000    0.000 
#    0.000    0.000    0.000    0.000    0.000    0.000 
#
# Total GULP energy -133993.428036 kJ/mol
# GULP energy per Si atom -5583.059501 kJ/mol
# Density = 2.256957 g / cm^3
# Si number density = 22.621055 Si / 1000 Ang^3
#
#
#
# Elastic Constant Matrix: (Units=GPa)
#
#
# Indices 1 2 3 4 5 6 
#
# 1 65.7533 38.7285 -4.0423 0.0000 0.0000 0.0000
# 2 38.7285 136.0941 26.0086 0.0000 0.0000 0.0000
# 3 -4.0423 26.0086 57.9763 0.0000 0.0000 0.0000
# 4 0.0000 0.0000 0.0000 37.9019 0.0000 0.0000
# 5 0.0000 0.0000 0.0000 0.0000 22.3158 0.0000
# 6 0.0000 0.0000 0.0000 0.0000 0.0000 8.1348
#
#
#
# Elastic Compliance Matrix: (Units=1/GPa)
#
#
# Indices 1 2 3 4 5 6 
#
# 1 0.019134 -0.006235 0.004131 0.000000 0.000000 0.000000
# 2 -0.006235 0.010068 -0.004951 0.000000 0.000000 0.000000
# 3 0.004131 -0.004951 0.019758 0.000000 0.000000 0.000000
# 4 0.000000 0.000000 0.000000 0.026384 0.000000 0.000000
# 5 0.000000 0.000000 0.000000 0.000000 0.044811 0.000000
# 6 0.000000 0.000000 0.000000 0.000000 0.000000 0.122929
#
#
# Mechanical properties :
#
#
# Convention : Reuss Voigt Hill
#
# Bulk Modulus (GPa) = 28.69400 42.35702 35.52551
# Shear Modulus (GPa) = 18.60040 26.94575 22.77308
#
# Velocity S-wave (km/s) = 2.87062 3.45509 3.17633
# Velocity P-wave (km/s) = 4.86821 5.88915 5.40285
#
# Compressibility (1/GPa) = 0.03485049
#
# Stress axis : x y z
#
# Youngs Moduli (GPa) = 52.26169 99.32164 50.61316
#
# Poissons Ratio (x) = 0.61923 -0.20908
# Poissons Ratio (y) = 0.32583 0.25061
# Poissons Ratio (z) = -0.21589 0.49178
#
# Static dielectric constant tensor:
#      x y z
#    x 1.805240 0.000000 0.000000 
#    y 0.000000 1.848760 0.000000 
#    z 0.000000 0.000000 1.903840 
# 
# From -- ./inp_files/8130.got.cif
#   From: 2010.05.17/outbox.cif.g08.bks.cpg/sg44_5_cif.got.tgz:8130.got - 2010.06.03 19:37:08.
