data_PCOD9375074
_publ_section_title
;
Structure prediction by ZEFSAII (Michael W. Deem and Ramdas Pophale) SiO2 
 PCOD9375074
Probable space group: I M M 2
;
_chemical_formula_sum "Si O2"
_cell_formula_units_Z 64
_cell_length_a 27.248917
_cell_length_b 8.139137
_cell_length_c 13.577689
_cell_angle_alpha 90.000000
_cell_angle_beta 90.000000
_cell_angle_gamma 90.000000
_cell_volume 3011.296099
_symmetry_space_group_name_H-M "I M M 2"
_symmetry_group_IT_number 44
_symmetry_cell_setting 'orthorhombic'
loop_
_space_group_symop_operation_xyz
x,y,z
-x,-y,z
-x,y,z
x,-y,z
1/2+x,1/2+y,1/2+z
1/2-x,1/2-y,1/2+z
1/2-x,1/2+y,1/2+z
1/2+x,1/2-y,1/2+z
loop_
_atom_site_type_symbol
_atom_site_label
_atom_site_fract_x
_atom_site_fract_y
_atom_site_fract_z
Si Si1 0.690496 0.812472 0.730180
Si Si2 0.445562 0.301733 0.887736
Si Si3 0.224882 0.196097 0.854459
Si Si4 0.628692 0.802061 0.057498
Si Si5 0.055776 0.802222 0.959175
Si Si6 0.913170 0.808036 0.174895
Si Si7 0.122096 0.692968 0.776555
Si Si8 0.742433 0.195878 0.065669
O O1 0.720520 0.747648 0.823596
O O2 0.644788 0.709874 0.692970
O O3 0.733389 0.802219 0.650082
O O4 0.674200 0.000000 0.747073
O O5 0.500000 0.249246 0.920015
O O6 0.444680 0.500000 0.882714
O O7 0.436305 0.239052 0.776007
O O8 0.404485 0.252358 0.966319
O O9 0.179620 0.278389 0.799886
O O10 0.222822 0.000000 0.835481
O O11 0.223401 0.219294 0.970752
O O12 0.611727 0.740778 0.166170
O O13 0.686055 0.758009 0.047092
O O14 0.626962 0.000000 0.059308
O O15 0.090998 0.760719 0.868015
O O16 0.000000 0.745928 0.940793
O O17 0.055613 0.000000 0.965172
O O18 0.072780 0.739014 0.067389
O O19 0.927149 0.000000 0.171857
O O20 0.112640 0.500000 0.773786
O O21 0.743218 0.000000 0.090757
#
# Coordination Sequence:
#
# PCOD9375074 Si02
#       8
#     8   8   8   8   8   8   8   8
#     4  11  22  35  55  86 118 150 189 233 283 340
#     4  10  22  40  63  90 117 150 198 253 301 350
#     4  10  21  36  56  81 114 154 194 235 282 343
#     4  10  22  40  60  84 120 161 197 239 295 357
#     4  10  22  41  64  87 115 156 201 246 300 358
#     4  10  21  39  62  88 120 156 195 242 300 362
#     4  11  23  39  60  86 120 158 198 246 294 348
#     4  10  20  37  57  79 113 156 195 233 283 345
#
# _framework density 21.253305999999998
#
# number of rings (size 3 to 8) (size 9 to 14) (size 15 to 20)
#    0.000    1.750    1.250    2.625    0.000   10.000 
#    0.000    2.500    0.000    2.250    0.000    0.000 
#    0.000    0.000    0.000    0.000    0.000    0.000 
#
# Total GULP energy -178618.216103 kJ/mol
# GULP energy per Si atom -5581.819253 kJ/mol
# Density = 2.120493 g / cm^3
# Si number density = 21.253306 Si / 1000 Ang^3
#
#
#
# Elastic Constant Matrix: (Units=GPa)
#
#
# Indices 1 2 3 4 5 6 
#
# 1 77.6174 -2.8469 24.5507 0.0000 0.0000 0.0000
# 2 -2.8469 6.4582 9.8037 0.0000 0.0000 0.0000
# 3 24.5507 9.8037 117.7160 0.0000 0.0000 0.0000
# 4 0.0000 0.0000 0.0000 17.7560 0.0000 0.0000
# 5 0.0000 0.0000 0.0000 0.0000 30.4192 0.0000
# 6 0.0000 0.0000 0.0000 0.0000 0.0000 19.0250
#
#
#
# Elastic Compliance Matrix: (Units=1/GPa)
#
#
# Indices 1 2 3 4 5 6 
#
# 1 0.014651 0.012703 -0.004113 0.000000 0.000000 0.000000
# 2 0.012703 0.188265 -0.018328 0.000000 0.000000 0.000000
# 3 -0.004113 -0.018328 0.010879 0.000000 0.000000 0.000000
# 4 0.000000 0.000000 0.000000 0.056319 0.000000 0.000000
# 5 0.000000 0.000000 0.000000 0.000000 0.032874 0.000000
# 6 0.000000 0.000000 0.000000 0.000000 0.000000 0.052562
#
#
# Mechanical properties :
#
#
# Convention : Reuss Voigt Hill
#
# Bulk Modulus (GPa) = 5.14624 29.42297 17.28461
# Shear Modulus (GPa) = 11.36878 24.79232 18.08055
#
# Velocity S-wave (km/s) = 2.31534 3.41913 2.91987
# Velocity P-wave (km/s) = 3.09425 5.42783 4.41790
#
# Compressibility (1/GPa) = 0.19431644
#
# Stress axis : x y z
#
# Youngs Moduli (GPa) = 68.25607 5.31166 91.91720
#
# Poissons Ratio (x) = -0.06747 0.37810
# Poissons Ratio (y) = -0.86703 1.68470
# Poissons Ratio (z) = 0.28077 0.09735
#
# Static dielectric constant tensor:
#      x y z
#    x 1.756230 0.000000 0.000000 
#    y 0.000000 1.760830 0.000000 
#    z 0.000000 0.000000 1.818210 
# 
# From -- ./inp_files/15030.got.cif
#   From: 2010.05.17/outbox.cif.g08.bks.cpg/sg44_8_cif.got.tgz:15030.got - 2010.06.03 19:37:08.
