data_PCOD9375505
_publ_section_title
;
Structure prediction by ZEFSAII (Michael W. Deem and Ramdas Pophale) SiO2 
 PCOD9375505
Probable space group: I M M 2
;
_chemical_formula_sum "Si O2"
_cell_formula_units_Z 48
_cell_length_a 23.514652
_cell_length_b 8.304831
_cell_length_c 11.966552
_cell_angle_alpha 90.000000
_cell_angle_beta 90.000000
_cell_angle_gamma 90.000000
_cell_volume 2336.890631
_symmetry_space_group_name_H-M "I M M 2"
_symmetry_group_IT_number 44
_symmetry_cell_setting 'orthorhombic'
loop_
_space_group_symop_operation_xyz
x,y,z
-x,-y,z
-x,y,z
x,-y,z
1/2+x,1/2+y,1/2+z
1/2-x,1/2-y,1/2+z
1/2-x,1/2+y,1/2+z
1/2+x,1/2-y,1/2+z
loop_
_atom_site_type_symbol
_atom_site_label
_atom_site_fract_x
_atom_site_fract_y
_atom_site_fract_z
Si Si1 0.336558 0.681061 0.023630
Si Si2 0.738411 0.810635 0.216270
Si Si3 0.359517 0.190296 0.379353
Si Si4 0.565790 0.802484 0.585697
Si Si5 0.354283 0.187759 0.779058
Si Si6 0.934149 0.311505 0.659830
O O1 0.315539 0.500000 0.036594
O O2 0.296998 0.790465 0.102162
O O3 0.398868 0.702908 0.076021
O O4 0.341650 0.725348 0.895014
O O5 0.698469 0.749218 0.319692
O O6 0.796768 0.714788 0.208970
O O7 0.749708 0.000000 0.233732
O O8 0.389928 0.255726 0.490251
O O9 0.406344 0.204506 0.281614
O O10 0.349140 0.000000 0.398925
O O11 0.500000 0.752621 0.569800
O O12 0.592454 0.755283 0.705058
O O13 0.565979 0.000000 0.580827
O O14 0.362790 0.000000 0.802813
O O15 0.927248 0.500000 0.627124
O O16 0.000000 0.273164 0.662886
#
# Coordination Sequence:
#
# PCOD9375505 Si02
#       6
#     8   8   8   8   8   8
#     4  11  23  39  57  80 114 154 199 247 294 349
#     4  10  21  38  61  88 117 149 191 247 307 365
#     4   8  15  30  55  86 115 144 185 238 292 349
#     4   9  18  33  55  85 119 154 194 239 289 352
#     4  11  23  37  57  86 119 156 196 243 298 360
#     4   9  17  32  57  86 115 148 189 240 298 357
#
# _framework density 20.540113999999999
#
# number of rings (size 3 to 8) (size 9 to 14) (size 15 to 20)
#    0.000    2.333    0.000    4.000    2.333    3.000 
#    0.000    1.667    0.000    2.500    0.000    0.000 
#    0.000    0.000    0.000    0.000    0.000    0.000 
#
# Total GULP energy -133895.938381 kJ/mol
# GULP energy per Si atom -5578.997433 kJ/mol
# Density = 2.049336 g / cm^3
# Si number density = 20.540114 Si / 1000 Ang^3
#
#
#
# Elastic Constant Matrix: (Units=GPa)
#
#
# Indices 1 2 3 4 5 6 
#
# 1 56.6223 1.3102 11.6393 0.0000 0.0000 0.0000
# 2 1.3102 15.5289 6.8497 0.0000 0.0000 0.0000
# 3 11.6393 6.8497 67.4359 0.0000 0.0000 0.0000
# 4 0.0000 0.0000 0.0000 -11.6948 0.0000 0.0000
# 5 0.0000 0.0000 0.0000 0.0000 14.7187 0.0000
# 6 0.0000 0.0000 0.0000 0.0000 0.0000 20.7570
#
#
#
# Elastic Compliance Matrix: (Units=1/GPa)
#
#
# Indices 1 2 3 4 5 6 
#
# 1 0.018311 -0.000158 -0.003144 0.000000 0.000000 0.000000
# 2 -0.000158 0.067418 -0.006821 0.000000 0.000000 0.000000
# 3 -0.003144 -0.006821 0.016064 0.000000 0.000000 0.000000
# 4 0.000000 0.000000 0.000000 -0.085508 0.000000 0.000000
# 5 0.000000 0.000000 0.000000 0.000000 0.067941 0.000000
# 6 0.000000 0.000000 0.000000 0.000000 0.000000 0.048176
#
#
# Mechanical properties :
#
#
# Convention : Reuss Voigt Hill
#
# Bulk Modulus (GPa) = 12.26283 19.90949 16.08616
# Shear Modulus (GPa) = 27.80399 12.74205 20.27302
#
# Velocity S-wave (km/s) = 3.68318 2.49338 3.14506
# Velocity P-wave (km/s) = 4.90621 4.24303 4.58662
#
# Compressibility (1/GPa) = 0.08154722
#
# Stress axis : x y z
#
# Youngs Moduli (GPa) = 54.61231 14.83290 62.24942
#
# Poissons Ratio (x) = 0.00234 0.19574
# Poissons Ratio (y) = 0.00863 0.42458
# Poissons Ratio (z) = 0.17172 0.10117
#
# Static dielectric constant tensor:
#      x y z
#    x 1.727640 0.000000 0.000000 
#    y 0.000000 1.726640 0.000000 
#    z 0.000000 0.000000 1.752070 
# 
# From -- ./inp_files/14592.got.cif
#   From: 2010.05.17/outbox.cif.g08.bks.cpg/sg44_8_cif.got.tgz:14592.got - 2010.06.03 19:37:08.
