data_PCOD9375783
_publ_section_title
;
Structure prediction by ZEFSAII (Michael W. Deem and Ramdas Pophale) SiO2 
 PCOD9375783
Probable space group: I M M 2
;
_chemical_formula_sum "Si O2"
_cell_formula_units_Z 26
_cell_length_a 7.814304
_cell_length_b 17.078505
_cell_length_c 9.792099
_cell_angle_alpha 90.000000
_cell_angle_beta 90.000000
_cell_angle_gamma 90.000000
_cell_volume 1306.820533
_symmetry_space_group_name_H-M "I M M 2"
_symmetry_group_IT_number 44
_symmetry_cell_setting 'orthorhombic'
loop_
_space_group_symop_operation_xyz
x,y,z
-x,-y,z
-x,y,z
x,-y,z
1/2+x,1/2+y,1/2+z
1/2-x,1/2-y,1/2+z
1/2-x,1/2+y,1/2+z
1/2+x,1/2-y,1/2+z
loop_
_atom_site_type_symbol
_atom_site_label
_atom_site_fract_x
_atom_site_fract_y
_atom_site_fract_z
Si Si1 0.302454 0.197418 0.057080
Si Si2 0.500000 0.500000 0.186424
Si Si3 0.204406 0.162413 0.357356
Si Si4 0.000000 0.911515 0.953088
Si Si5 0.309475 0.000000 0.475091
O O1 0.500000 0.177371 0.025662
O O2 0.277261 0.199803 0.219447
O O3 0.167606 0.134681 0.999993
O O4 0.263752 0.279811 0.984118
O O5 0.500000 0.426412 0.289958
O O6 0.665187 0.500000 0.091211
O O7 0.283010 0.077768 0.385762
O O8 0.000000 0.153458 0.341866
O O9 0.000000 0.000000 0.012119
O O10 0.500000 0.000000 0.533819
#
# Coordination Sequence:
#
# PCOD9375783 Si02
#       5
#     8   2   8   4   4
#     4  11  26  43  70 103 138 182 229 283 341 413
#     4  10  26  46  70  96 150 170 226 288 338 418
#     4  11  25  45  71  99 142 182 229 285 346 403
#     4  10  26  45  70  98 141 180 218 293 339 411
#     4  12  26  43  71 102 135 188 229 282 343 415
#
# _framework density 19.895616
#
# number of rings (size 3 to 8) (size 9 to 14) (size 15 to 20)
#    0.462    0.615    3.077    0.923   10.769    1.846 
#    0.000    0.000    0.000    0.000    0.000    0.000 
#    0.000    0.000    0.000    0.000    0.000    0.000 
#
# Total GULP energy -72676.341387 kJ/mol
# GULP energy per Si atom -5590.487799 kJ/mol
# Density = 1.985033 g / cm^3
# Si number density = 19.895616 Si / 1000 Ang^3
#
#
#
# Elastic Constant Matrix: (Units=GPa)
#
#
# Indices 1 2 3 4 5 6 
#
# 1 131.4839 64.4216 37.4429 0.0000 0.0000 0.0000
# 2 64.4216 143.3574 56.7478 0.0001 0.0000 0.0000
# 3 37.4429 56.7478 138.6924 0.0001 0.0000 0.0000
# 4 0.0000 0.0001 0.0001 33.9151 0.0000 0.0000
# 5 0.0000 0.0000 0.0000 0.0000 22.9375 0.0000
# 6 0.0000 0.0000 0.0000 0.0000 0.0000 14.5089
#
#
#
# Elastic Compliance Matrix: (Units=1/GPa)
#
#
# Indices 1 2 3 4 5 6 
#
# 1 0.009871 -0.004034 -0.001014 0.000000 0.000000 0.000000
# 2 -0.004034 0.009973 -0.002991 0.000000 0.000000 0.000000
# 3 -0.001014 -0.002991 0.008708 0.000000 0.000000 0.000000
# 4 0.000000 0.000000 0.000000 0.029485 0.000000 0.000000
# 5 0.000000 0.000000 0.000000 0.000000 0.043597 0.000000
# 6 0.000000 0.000000 0.000000 0.000000 0.000000 0.068923
#
#
# Mechanical properties :
#
#
# Convention : Reuss Voigt Hill
#
# Bulk Modulus (GPa) = 80.18006 81.19538 80.68772
# Shear Modulus (GPa) = 26.20630 31.26705 28.73668
#
# Velocity S-wave (km/s) = 3.63325 3.96858 3.80461
# Velocity P-wave (km/s) = 7.61502 7.86758 7.74233
#
# Compressibility (1/GPa) = 0.01247193
#
# Stress axis : x y z
#
# Youngs Moduli (GPa) = 101.30738 100.27477 114.83800
#
# Poissons Ratio (x) = 0.40454 0.11647
# Poissons Ratio (y) = 0.40871 0.34351
# Poissons Ratio (z) = 0.10274 0.29995
#
# Static dielectric constant tensor:
#      x y z
#    x 1.684940 0.000000 0.000000 
#    y 0.000000 1.680720 0.000000 
#    z 0.000000 0.000000 1.695210 
# 
# From -- ./inp_files/4076.got.cif
#   From: 2010.05.17/outbox.cif.g08.bks.cpg/sg44_3_cif.got.tgz:4076.got - 2010.06.03 19:37:08.
