data_PCOD9375943
_publ_section_title
;
Structure prediction by ZEFSAII (Michael W. Deem and Ramdas Pophale) SiO2 
 PCOD9375943
Probable space group: I M M 2
;
_chemical_formula_sum "Si O2"
_cell_formula_units_Z 56
_cell_length_a 24.807925
_cell_length_b 7.522638
_cell_length_c 14.263919
_cell_angle_alpha 90.000000
_cell_angle_beta 90.000000
_cell_angle_gamma 90.000000
_cell_volume 2661.947388
_symmetry_space_group_name_H-M "I M M 2"
_symmetry_group_IT_number 44
_symmetry_cell_setting 'orthorhombic'
loop_
_space_group_symop_operation_xyz
x,y,z
-x,-y,z
-x,y,z
x,-y,z
1/2+x,1/2+y,1/2+z
1/2-x,1/2-y,1/2+z
1/2-x,1/2+y,1/2+z
1/2+x,1/2-y,1/2+z
loop_
_atom_site_type_symbol
_atom_site_label
_atom_site_fract_x
_atom_site_fract_y
_atom_site_fract_z
Si Si1 0.438442 0.214855 0.071350
Si Si2 0.378145 0.212528 0.890625
Si Si3 0.834136 0.787264 0.098527
Si Si4 0.666914 0.281601 0.386809
Si Si5 0.940091 0.213656 0.204616
Si Si6 0.560400 0.289777 0.286818
Si Si7 0.272842 0.213021 0.783034
O O1 0.500000 0.273622 0.052094
O O2 0.425168 0.268393 0.177272
O O3 0.438376 0.000000 0.068623
O O4 0.398371 0.280601 0.990711
O O5 0.423093 0.246226 0.811300
O O6 0.322075 0.282329 0.847830
O O7 0.372142 0.000000 0.899523
O O8 0.891048 0.718515 0.140201
O O9 0.788677 0.750495 0.175922
O O10 0.839009 0.000000 0.093020
O O11 0.823312 0.724210 0.993674
O O12 0.666470 0.500000 0.385002
O O13 0.608880 0.219555 0.349862
O O14 0.715428 0.222413 0.319590
O O15 0.000000 0.280899 0.183324
O O16 0.941176 0.000000 0.194627
O O17 0.500000 0.215040 0.300745
O O18 0.556999 0.500000 0.306041
O O19 0.272635 0.000000 0.792651
#
# Coordination Sequence:
#
# PCOD9375943 Si02
#       7
#     8   8   8   8   8   8   8
#     4   9  17  29  45  67  95 124 154 190 230 270
#     4   9  17  29  46  67  92 125 160 190 226 276
#     4   9  18  33  51  71  95 122 155 192 228 272
#     4   9  18  33  52  71  93 123 154 187 231 278
#     4   9  17  28  44  69  98 124 152 191 235 272
#     4   9  18  32  49  69  92 120 156 193 228 272
#     4   9  18  33  50  69  95 123 153 191 232 273
#
# _framework density 21.037230000000001
#
# number of rings (size 3 to 8) (size 9 to 14) (size 15 to 20)
#    0.000    3.000    0.000    0.429    0.000    3.143 
#    0.000    7.857    0.000    0.000    0.000    2.000 
#    0.000    0.000    0.000    0.000    0.000    0.000 
#
# Total GULP energy -156209.398477 kJ/mol
# GULP energy per Si atom -5578.907088 kJ/mol
# Density = 2.098935 g / cm^3
# Si number density = 21.037230 Si / 1000 Ang^3
#
#
#
# Elastic Constant Matrix: (Units=GPa)
#
#
# Indices 1 2 3 4 5 6 
#
# 1 138.9208 5.3059 109.6775 0.0000 0.0000 0.0000
# 2 5.3059 52.9464 -0.5271 0.0000 0.0000 0.0000
# 3 109.6775 -0.5271 151.4542 0.0000 0.0000 0.0000
# 4 0.0000 0.0000 0.0000 25.8357 0.0000 0.0000
# 5 0.0000 0.0000 0.0000 0.0000 18.5679 0.0000
# 6 0.0000 0.0000 0.0000 0.0000 0.0000 15.6143
#
#
#
# Elastic Compliance Matrix: (Units=1/GPa)
#
#
# Indices 1 2 3 4 5 6 
#
# 1 0.016982 -0.001824 -0.012304 0.000000 0.000000 0.000000
# 2 -0.001824 0.019084 0.001388 0.000000 0.000000 0.000000
# 3 -0.012304 0.001388 0.015518 0.000000 0.000000 0.000000
# 4 0.000000 0.000000 0.000000 0.038706 0.000000 0.000000
# 5 0.000000 0.000000 0.000000 0.000000 0.053856 0.000000
# 6 0.000000 0.000000 0.000000 0.000000 0.000000 0.064044
#
#
# Mechanical properties :
#
#
# Convention : Reuss Voigt Hill
#
# Bulk Modulus (GPa) = 38.31189 63.58155 50.94672
# Shear Modulus (GPa) = 20.62942 27.26126 23.94534
#
# Velocity S-wave (km/s) = 3.13487 3.60371 3.37744
# Velocity P-wave (km/s) = 5.59949 6.89961 6.28326
#
# Compressibility (1/GPa) = 0.02610156
#
# Stress axis : x y z
#
# Youngs Moduli (GPa) = 58.88549 52.40084 64.44255
#
# Poissons Ratio (x) = 0.09559 0.79291
# Poissons Ratio (y) = 0.10742 -0.08941
# Poissons Ratio (z) = 0.72454 -0.07271
#
# Static dielectric constant tensor:
#      x y z
#    x 1.759520 0.000000 0.000000 
#    y 0.000000 1.791650 0.000000 
#    z 0.000000 0.000000 1.722590 
# 
# From -- ./inp_files/12575.got.cif
#   From: 2010.05.17/outbox.cif.g08.bks.cpg/sg44_7_cif.got.tgz:12575.got - 2010.06.03 19:37:08.
