data_PCOD9375497
_publ_section_title
;
Structure prediction by ZEFSAII (Michael W. Deem and Ramdas Pophale) SiO2 
 PCOD9375497
Probable space group: I M M 2
;
_chemical_formula_sum "Si O2"
_cell_formula_units_Z 64
_cell_length_a 28.946760
_cell_length_b 8.461008
_cell_length_c 12.925919
_cell_angle_alpha 90.000000
_cell_angle_beta 90.000000
_cell_angle_gamma 90.000000
_cell_volume 3165.800156
_symmetry_space_group_name_H-M "I M M 2"
_symmetry_group_IT_number 44
_symmetry_cell_setting 'orthorhombic'
loop_
_space_group_symop_operation_xyz
x,y,z
-x,-y,z
-x,y,z
x,-y,z
1/2+x,1/2+y,1/2+z
1/2-x,1/2-y,1/2+z
1/2-x,1/2+y,1/2+z
1/2+x,1/2-y,1/2+z
loop_
_atom_site_type_symbol
_atom_site_label
_atom_site_fract_x
_atom_site_fract_y
_atom_site_fract_z
Si Si1 0.122510 0.309450 0.133680
Si Si2 0.581685 0.810289 0.249691
Si Si3 0.181117 0.180648 0.787103
Si Si4 0.909731 0.310837 0.521818
Si Si5 0.708085 0.814026 0.507682
Si Si6 0.048347 0.690631 0.970580
Si Si7 0.947386 0.187803 0.306892
Si Si8 0.803278 0.683946 0.573782
O O1 0.122540 0.500000 0.141295
O O2 0.174949 0.261950 0.103689
O O3 0.093249 0.250849 0.231828
O O4 0.092281 0.254893 0.034499
O O5 0.626795 0.708772 0.273331
O O6 0.550390 0.779457 0.348574
O O7 0.593312 0.000000 0.251079
O O8 0.566401 0.776167 0.132766
O O9 0.201102 0.291154 0.697034
O O10 0.193946 0.000000 0.765448
O O11 0.194419 0.227285 0.902366
O O12 0.911658 0.500000 0.505781
O O13 0.932972 0.229901 0.424132
O O14 0.855203 0.269165 0.538068
O O15 0.761766 0.782544 0.526253
O O16 0.699252 0.000000 0.492737
O O17 0.048599 0.500000 0.981403
O O18 0.000000 0.752543 0.014182
O O19 0.000000 0.249323 0.285820
O O20 0.948689 0.000000 0.294828
O O21 0.797535 0.500000 0.547691
#
# Coordination Sequence:
#
# PCOD9375497 Si02
#       8
#     8   8   8   8   8   8   8   8
#     4  10  21  38  61  85 115 156 203 250 297 359
#     4   9  17  34  57  84 115 146 187 243 297 346
#     4  11  21  35  57  83 115 156 194 234 292 360
#     4   9  20  38  62  86 115 155 200 248 300 361
#     4  11  22  38  61  89 120 157 202 253 309 367
#     4   9  16  29  54  86 115 144 182 233 293 350
#     4  11  25  42  60  85 122 165 207 257 314 370
#     4  10  22  40  61  89 121 155 200 256 311 365
#
# _framework density 20.216058
#
# number of rings (size 3 to 8) (size 9 to 14) (size 15 to 20)
#    0.000    2.000    1.250    3.375    0.000    6.500 
#    0.000    2.500    0.000    0.375    0.000    0.000 
#    0.000    0.000    0.000    0.000    0.000    0.000 
#
# Total GULP energy -178408.420418 kJ/mol
# GULP energy per Si atom -5575.263138 kJ/mol
# Density = 2.017005 g / cm^3
# Si number density = 20.216058 Si / 1000 Ang^3
#
#
#
# Elastic Constant Matrix: (Units=GPa)
#
#
# Indices 1 2 3 4 5 6 
#
# 1 39.7718 6.2631 1.5111 0.0000 0.0000 0.0000
# 2 6.2631 22.6808 4.5611 0.0000 0.0000 0.0000
# 3 1.5111 4.5611 77.6992 0.0000 0.0000 0.0000
# 4 0.0000 0.0000 0.0000 20.9354 0.0000 0.0000
# 5 0.0000 0.0000 0.0000 0.0000 -8.6938 0.0000
# 6 0.0000 0.0000 0.0000 0.0000 0.0000 12.4544
#
#
#
# Elastic Compliance Matrix: (Units=1/GPa)
#
#
# Indices 1 2 3 4 5 6 
#
# 1 0.026287 -0.007242 -0.000086 0.000000 0.000000 0.000000
# 2 -0.007242 0.046612 -0.002595 0.000000 0.000000 0.000000
# 3 -0.000086 -0.002595 0.013024 0.000000 0.000000 0.000000
# 4 0.000000 0.000000 0.000000 0.047766 0.000000 0.000000
# 5 0.000000 0.000000 0.000000 0.000000 -0.115024 0.000000
# 6 0.000000 0.000000 0.000000 0.000000 0.000000 0.080293
#
#
# Mechanical properties :
#
#
# Convention : Reuss Voigt Hill
#
# Bulk Modulus (GPa) = 15.13390 18.31361 16.72375
# Shear Modulus (GPa) = 35.50390 13.46030 24.48210
#
# Velocity S-wave (km/s) = 4.19528 2.58315 3.48375
# Velocity P-wave (km/s) = 5.56502 4.23975 4.94697
#
# Compressibility (1/GPa) = 0.06607680
#
# Stress axis : x y z
#
# Youngs Moduli (GPa) = 38.04140 21.45374 76.78033
#
# Poissons Ratio (x) = 0.15536 0.00661
# Poissons Ratio (y) = 0.27548 0.19927
# Poissons Ratio (z) = 0.00328 0.05568
#
# Static dielectric constant tensor:
#      x y z
#    x 1.744270 0.000000 0.000000 
#    y 0.000000 1.689520 0.000000 
#    z 0.000000 0.000000 1.722460 
# 
# From -- ./inp_files/15089.got.cif
#   From: 2010.05.17/outbox.cif.g08.bks.cpg/sg44_8_cif.got.tgz:15089.got - 2010.06.03 19:37:08.
