data_PCOD9375412
_publ_section_title
;
Structure prediction by ZEFSAII (Michael W. Deem and Ramdas Pophale) SiO2 
 PCOD9375412
Probable space group: I M M 2
;
_chemical_formula_sum "Si O2"
_cell_formula_units_Z 64
_cell_length_a 7.862116
_cell_length_b 31.811963
_cell_length_c 12.326840
_cell_angle_alpha 90.000000
_cell_angle_beta 90.000000
_cell_angle_gamma 90.000000
_cell_volume 3083.057857
_symmetry_space_group_name_H-M "I M M 2"
_symmetry_group_IT_number 44
_symmetry_cell_setting 'orthorhombic'
loop_
_space_group_symop_operation_xyz
x,y,z
-x,-y,z
-x,y,z
x,-y,z
1/2+x,1/2+y,1/2+z
1/2-x,1/2-y,1/2+z
1/2-x,1/2+y,1/2+z
1/2+x,1/2-y,1/2+z
loop_
_atom_site_type_symbol
_atom_site_label
_atom_site_fract_x
_atom_site_fract_y
_atom_site_fract_z
Si Si1 0.791277 0.297344 0.633900
Si Si2 0.804016 0.202850 0.668793
Si Si3 0.296336 0.127970 0.289680
Si Si4 0.197254 0.327591 0.398324
Si Si5 0.200599 0.377087 0.033804
Si Si6 0.702085 0.577087 0.413965
Si Si7 0.705596 0.546583 0.650345
Si Si8 0.794201 0.453820 0.180392
O O1 0.734409 0.249963 0.657312
O O2 0.731433 0.332385 0.719646
O O3 0.738747 0.310427 0.513022
O O4 0.000000 0.298046 0.636350
O O5 0.792986 0.189393 0.793824
O O6 0.718419 0.166707 0.597298
O O7 0.000000 0.203847 0.633790
O O8 0.500000 0.133599 0.296762
O O9 0.227516 0.125856 0.412238
O O10 0.263983 0.084819 0.225419
O O11 0.210475 0.377810 0.402174
O O12 0.000000 0.315473 0.385829
O O13 0.271159 0.415171 0.107322
O O14 0.000000 0.385943 0.022284
O O15 0.500000 0.584152 0.422176
O O16 0.758329 0.555374 0.525719
O O17 0.737574 0.551808 0.304516
O O18 0.500000 0.546488 0.652152
O O19 0.764471 0.500000 0.683984
O O20 0.742078 0.500000 0.140126
O O21 0.000000 0.452157 0.180661
#
# Coordination Sequence:
#
# PCOD9375412 Si02
#       8
#     8   8   8   8   8   8   8   8
#     4   9  21  39  59  85 119 153 190 241 289 339
#     4  11  23  39  60  88 121 155 194 238 290 349
#     4  10  21  40  62  84 113 154 200 243 285 340
#     4  11  21  38  62  87 119 154 192 242 293 343
#     4  10  22  39  60  85 117 154 196 243 290 341
#     4  11  21  36  59  88 119 152 192 242 292 346
#     4  10  22  39  58  85 121 154 188 238 295 347
#     4  10  21  37  57  83 117 155 195 241 292 346
#
# _framework density 20.758613
#
# number of rings (size 3 to 8) (size 9 to 14) (size 15 to 20)
#    0.000    1.750    2.500    1.500    1.750    2.500 
#    0.000    4.375    0.000    0.000    0.000    0.000 
#    0.000    0.000    0.000    0.000    0.000    0.000 
#
# Total GULP energy -178771.752917 kJ/mol
# GULP energy per Si atom -5586.617279 kJ/mol
# Density = 2.071137 g / cm^3
# Si number density = 20.758613 Si / 1000 Ang^3
#
#
#
# Elastic Constant Matrix: (Units=GPa)
#
#
# Indices 1 2 3 4 5 6 
#
# 1 20.5544 -9.9995 -0.5020 -0.0001 0.0000 0.0000
# 2 -9.9995 155.7374 77.4285 -0.0002 0.0000 0.0000
# 3 -0.5020 77.4285 159.3223 -0.0012 -0.0001 0.0000
# 4 -0.0001 -0.0002 -0.0012 79.6136 -0.0003 -0.0007
# 5 0.0000 0.0000 -0.0001 -0.0003 5.9719 0.0000
# 6 0.0000 0.0000 0.0000 -0.0007 0.0000 24.8335
#
#
#
# Elastic Compliance Matrix: (Units=1/GPa)
#
#
# Indices 1 2 3 4 5 6 
#
# 1 0.050640 0.004183 -0.001873 0.000000 0.000000 0.000000
# 2 0.004183 0.008812 -0.004269 0.000000 0.000000 0.000000
# 3 -0.001873 -0.004269 0.008346 0.000000 0.000000 0.000000
# 4 0.000000 0.000000 0.000000 0.012561 0.000001 0.000000
# 5 0.000000 0.000000 0.000000 0.000001 0.167451 0.000000
# 6 0.000000 0.000000 0.000000 0.000000 0.000000 0.040268
#
#
# Mechanical properties :
#
#
# Convention : Reuss Voigt Hill
#
# Bulk Modulus (GPa) = 15.65471 52.16315 33.90893
# Shear Modulus (GPa) = 15.95961 39.99627 27.97794
#
# Velocity S-wave (km/s) = 2.77577 4.39422 3.67519
# Velocity P-wave (km/s) = 4.22266 7.13642 5.86342
#
# Compressibility (1/GPa) = 0.06387852
#
# Stress axis : x y z
#
# Youngs Moduli (GPa) = 19.74706 113.47764 119.82366
#
# Poissons Ratio (x) = -0.47466 0.22446
# Poissons Ratio (y) = -0.08260 0.51159
# Poissons Ratio (z) = 0.03699 0.48449
#
# Static dielectric constant tensor:
#      x y z
#    x 1.761030 0.000000 0.000000 
#    y 0.000000 1.724360 0.000000 
#    z 0.000000 0.000000 1.720500 
# 
# From -- ./inp_files/11476.got.cif
#   From: 2010.05.17/outbox.cif.g08.bks.cpg/sg44_6_cif.got.tgz:11476.got - 2010.06.03 19:37:08.
