data_PCOD9375459
_publ_section_title
;
Structure prediction by ZEFSAII (Michael W. Deem and Ramdas Pophale) SiO2 
 PCOD9375459
Probable space group: I M M 2
;
_chemical_formula_sum "Si O2"
_cell_formula_units_Z 64
_cell_length_a 13.805626
_cell_length_b 18.543413
_cell_length_c 11.858228
_cell_angle_alpha 90.000000
_cell_angle_beta 90.000000
_cell_angle_gamma 90.000000
_cell_volume 3035.746978
_symmetry_space_group_name_H-M "I M M 2"
_symmetry_group_IT_number 44
_symmetry_cell_setting 'orthorhombic'
loop_
_space_group_symop_operation_xyz
x,y,z
-x,-y,z
-x,y,z
x,-y,z
1/2+x,1/2+y,1/2+z
1/2-x,1/2-y,1/2+z
1/2-x,1/2+y,1/2+z
1/2+x,1/2-y,1/2+z
loop_
_atom_site_type_symbol
_atom_site_label
_atom_site_fract_x
_atom_site_fract_y
_atom_site_fract_z
Si Si1 0.382531 0.787718 0.388060
Si Si2 0.117626 0.204696 0.671998
Si Si3 0.381402 0.083084 0.802475
Si Si4 0.115960 0.918851 0.516636
Si Si5 0.613684 0.358064 0.769218
Si Si6 0.190554 0.580239 0.743059
Si Si7 0.385944 0.844218 0.032441
Si Si8 0.383596 0.210619 0.644644
O O1 0.500000 0.792344 0.385525
O O2 0.353936 0.725619 0.298843
O O3 0.341011 0.861112 0.335263
O O4 0.350962 0.777388 0.516430
O O5 0.149965 0.129106 0.620926
O O6 0.149700 0.269568 0.588536
O O7 0.000000 0.205133 0.670274
O O8 0.500000 0.080908 0.806711
O O9 0.354611 0.134846 0.698994
O O10 0.348661 0.000000 0.795990
O O11 0.346922 0.123990 0.915957
O O12 0.127229 0.873030 0.402027
O O13 0.000000 0.926105 0.529039
O O14 0.156317 0.000000 0.506802
O O15 0.500000 0.372945 0.743069
O O16 0.695768 0.408213 0.714966
O O17 0.637519 0.277535 0.727592
O O18 0.173106 0.500000 0.783413
O O19 0.130921 0.597677 0.630625
O O20 0.500000 0.832505 0.013581
O O21 0.500000 0.209103 0.639149
#
# Coordination Sequence:
#
# PCOD9375459 Si02
#       8
#     8   8   8   8   8   8   8   8
#     4   9  19  36  56  82 116 150 184 225 281 356
#     4   8  14  27  49  77 108 140 174 216 271 336
#     4   9  16  27  49  82 114 144 181 227 281 338
#     4   9  16  28  51  80 106 135 178 236 291 327
#     4  10  21  38  57  77 107 150 196 242 285 328
#     4  11  22  35  54  83 113 145 188 236 290 347
#     4   9  17  31  52  81 117 150 181 225 283 348
#     4   9  18  35  56  78 109 152 195 230 272 337
#
# _framework density 21.082125999999999
#
# number of rings (size 3 to 8) (size 9 to 14) (size 15 to 20)
#    0.000    2.750    0.000    2.625    0.000    5.750 
#    6.750    1.250    0.000    1.500    0.000    8.750 
#    0.000    0.000    0.000    0.000    0.000    0.000 
#
# Total GULP energy -178537.315264 kJ/mol
# GULP energy per Si atom -5579.291102 kJ/mol
# Density = 2.103414 g / cm^3
# Si number density = 21.082126 Si / 1000 Ang^3
#
#
#
# Elastic Constant Matrix: (Units=GPa)
#
#
# Indices 1 2 3 4 5 6 
#
# 1 57.1113 2.7597 14.1407 0.0000 0.0000 0.0000
# 2 2.7597 136.0506 108.2965 0.0000 0.0000 0.0000
# 3 14.1407 108.2965 152.1549 0.0000 0.0000 0.0000
# 4 0.0000 0.0000 0.0000 5.8590 0.0000 0.0000
# 5 0.0000 0.0000 0.0000 0.0000 5.2370 0.0000
# 6 0.0000 0.0000 0.0000 0.0000 0.0000 11.4675
#
#
#
# Elastic Compliance Matrix: (Units=1/GPa)
#
#
# Indices 1 2 3 4 5 6 
#
# 1 0.018218 0.002257 -0.003299 0.000000 0.000000 0.000000
# 2 0.002257 0.017237 -0.012478 0.000000 0.000000 0.000000
# 3 -0.003299 -0.012478 0.015760 0.000000 0.000000 0.000000
# 4 0.000000 0.000000 0.000000 0.170677 0.000000 0.000000
# 5 0.000000 0.000000 0.000000 0.000000 0.190950 0.000000
# 6 0.000000 0.000000 0.000000 0.000000 0.000000 0.087203
#
#
# Mechanical properties :
#
#
# Convention : Reuss Voigt Hill
#
# Bulk Modulus (GPa) = 41.36807 66.19008 53.77907
# Shear Modulus (GPa) = 9.34327 19.18736 14.26532
#
# Velocity S-wave (km/s) = 2.10748 3.02010 2.60408
# Velocity P-wave (km/s) = 5.05835 6.60498 5.88272
#
# Compressibility (1/GPa) = 0.02417324
#
# Stress axis : x y z
#
# Youngs Moduli (GPa) = 54.89224 58.01400 63.45033
#
# Poissons Ratio (x) = -0.13092 0.20934
# Poissons Ratio (y) = -0.12388 0.79176
# Poissons Ratio (z) = 0.18110 0.72392
#
# Static dielectric constant tensor:
#      x y z
#    x 1.790200 0.000000 0.000000 
#    y 0.000000 1.751530 0.000000 
#    z 0.000000 0.000000 1.753860 
# 
# From -- ./inp_files/13457.got.cif
#   From: 2010.05.17/outbox.cif.g08.bks.cpg/sg44_7_cif.got.tgz:13457.got - 2010.06.03 19:37:08.
