data_PCOD9375763
_publ_section_title
;
Structure prediction by ZEFSAII (Michael W. Deem and Ramdas Pophale) SiO2 
 PCOD9375763
Probable space group: I M M 2
;
_chemical_formula_sum "Si O2"
_cell_formula_units_Z 34
_cell_length_a 20.789993
_cell_length_b 12.528918
_cell_length_c 6.748578
_cell_angle_alpha 90.000000
_cell_angle_beta 90.000000
_cell_angle_gamma 90.000000
_cell_volume 1757.843396
_symmetry_space_group_name_H-M "I M M 2"
_symmetry_group_IT_number 44
_symmetry_cell_setting 'orthorhombic'
loop_
_space_group_symop_operation_xyz
x,y,z
-x,-y,z
-x,y,z
x,-y,z
1/2+x,1/2+y,1/2+z
1/2-x,1/2-y,1/2+z
1/2-x,1/2+y,1/2+z
1/2+x,1/2-y,1/2+z
loop_
_atom_site_type_symbol
_atom_site_label
_atom_site_fract_x
_atom_site_fract_y
_atom_site_fract_z
Si Si1 0.000000 0.000000 0.623981
Si Si2 0.923332 0.377375 0.821398
Si Si3 0.153148 0.252777 0.152457
Si Si4 0.226070 0.124132 0.815375
Si Si5 0.608437 0.679396 0.049411
O O1 0.943871 0.093801 0.618296
O O2 0.904391 0.500000 0.780021
O O3 0.905965 0.294598 0.647178
O O4 0.000000 0.374355 0.850686
O O5 0.887682 0.332807 0.016011
O O6 0.207847 0.315473 0.272703
O O7 0.110138 0.191281 0.312794
O O8 0.189291 0.172827 0.003777
O O9 0.177807 0.142647 0.630971
O O10 0.237949 0.000000 0.843317
#
# Coordination Sequence:
#
# PCOD9375763 Si02
#       5
#     2   8   8   8   8
#     4  12  24  44  72  96 140 182 230 278 330 416
#     4  10  23  43  67  97 130 167 219 277 335 398
#     4  11  24  43  64  99 130 172 224 272 338 403
#     4  11  23  42  66  94 131 173 222 277 335 396
#     4  11  24  44  66  98 132 180 223 275 336 402
#
# _framework density 19.34188
#
# number of rings (size 3 to 8) (size 9 to 14) (size 15 to 20)
#    0.000    1.176    4.706    0.706    3.294    1.882 
#    0.000    7.059    0.000    0.000    0.000    0.000 
#    0.000    0.000    0.000    0.000    0.000    0.000 
#
# Total GULP energy -94736.830651 kJ/mol
# GULP energy per Si atom -5572.754744 kJ/mol
# Density = 1.929786 g / cm^3
# Si number density = 19.341880 Si / 1000 Ang^3
#
#
#
# Elastic Constant Matrix: (Units=GPa)
#
#
# Indices 1 2 3 4 5 6 
#
# 1 33.0934 -22.0367 -11.7409 0.0000 0.0000 0.0000
# 2 -22.0367 80.6586 16.0804 0.0000 0.0000 0.0000
# 3 -11.7409 16.0804 78.1531 0.0000 0.0000 0.0000
# 4 0.0000 0.0000 0.0000 3.2001 0.0000 0.0000
# 5 0.0000 0.0000 0.0000 0.0000 4.8669 0.0000
# 6 0.0000 0.0000 0.0000 0.0000 0.0000 -3.5352
#
#
#
# Elastic Compliance Matrix: (Units=1/GPa)
#
#
# Indices 1 2 3 4 5 6 
#
# 1 0.037947 0.009626 0.003720 0.000000 0.000000 0.000000
# 2 0.009626 0.015370 -0.001716 0.000000 0.000000 0.000000
# 3 0.003720 -0.001716 0.013707 0.000000 0.000000 0.000000
# 4 0.000000 0.000000 0.000000 0.312492 0.000000 0.000000
# 5 0.000000 0.000000 0.000000 0.000000 0.205469 0.000000
# 6 0.000000 0.000000 0.000000 0.000000 0.000000 -0.282866
#
#
# Mechanical properties :
#
#
# Convention : Reuss Voigt Hill
#
# Bulk Modulus (GPa) = 11.07618 17.39010 14.23314
# Shear Modulus (GPa) = 16.18358 14.87983 15.53171
#
# Velocity S-wave (km/s) = 2.89574 2.77665 2.83682
# Velocity P-wave (km/s) = 4.11331 4.39205 4.25496
#
# Compressibility (1/GPa) = 0.09028380
#
# Stress axis : x y z
#
# Youngs Moduli (GPa) = 26.35247 65.06194 72.95307
#
# Poissons Ratio (x) = -0.62627 -0.27140
# Poissons Ratio (y) = -0.25366 0.12521
# Poissons Ratio (z) = -0.09804 0.11167
#
# Static dielectric constant tensor:
#      x y z
#    x 1.663960 0.000000 0.000000 
#    y 0.000000 1.652100 0.000000 
#    z 0.000000 0.000000 1.681580 
# 
# From -- ./inp_files/958.got.cif
#   From: 2010.05.17/outbox.cif.g08.bks.cpg/sg44_1_cif.got.tgz:958.got - 2010.06.03 19:37:08.
