data_PCOD9375846
_publ_section_title
;
Structure prediction by ZEFSAII (Michael W. Deem and Ramdas Pophale) SiO2 
 PCOD9375846
Probable space group: I M M 2
;
_chemical_formula_sum "Si O2"
_cell_formula_units_Z 24
_cell_length_a 19.328060
_cell_length_b 7.914809
_cell_length_c 8.773554
_cell_angle_alpha 90.000000
_cell_angle_beta 90.000000
_cell_angle_gamma 90.000000
_cell_volume 1342.159895
_symmetry_space_group_name_H-M "I M M 2"
_symmetry_group_IT_number 44
_symmetry_cell_setting 'orthorhombic'
loop_
_space_group_symop_operation_xyz
x,y,z
-x,-y,z
-x,y,z
x,-y,z
1/2+x,1/2+y,1/2+z
1/2-x,1/2-y,1/2+z
1/2-x,1/2+y,1/2+z
1/2+x,1/2-y,1/2+z
loop_
_atom_site_type_symbol
_atom_site_label
_atom_site_fract_x
_atom_site_fract_y
_atom_site_fract_z
Si Si1 0.811563 0.690711 0.960590
Si Si2 0.918678 0.500000 0.778327
Si Si3 0.918577 0.500000 0.414687
Si Si4 0.330095 0.307946 0.790230
O O1 0.797592 0.500000 0.022139
O O2 0.878216 0.659074 0.853311
O O3 0.744828 0.737236 0.861780
O O4 0.824197 0.802141 0.107475
O O5 0.908694 0.500000 0.597317
O O6 0.000000 0.500000 0.813183
O O7 0.883467 0.667031 0.345690
O O8 0.000000 0.500000 0.382030
O O9 0.347598 0.500000 0.837363
#
# Coordination Sequence:
#
# PCOD9375846 Si02
#       4
#     8   4   4   8
#     4   9  20  35  57  91 117 155 201 249 294 359
#     4   9  19  39  63  85 118 165 202 245 309 357
#     4  11  23  41  63  85 124 165 202 255 305 359
#     4  11  22  37  61  91 122 159 203 250 304 363
#
# _framework density 17.881626000000001
#
# number of rings (size 3 to 8) (size 9 to 14) (size 15 to 20)
#    1.000    1.000    1.667    2.000    2.333    3.333 
#    0.000    1.667    0.000    2.000    0.000    0.000 
#    0.000    0.000    0.000    0.000    0.000    0.000 
#
# Total GULP energy -66845.738530 kJ/mol
# GULP energy per Si atom -5570.478211 kJ/mol
# Density = 1.784093 g / cm^3
# Si number density = 17.881626 Si / 1000 Ang^3
#
#
#
# Elastic Constant Matrix: (Units=GPa)
#
#
# Indices 1 2 3 4 5 6 
#
# 1 153.7299 68.1286 81.7290 0.0000 0.0000 0.0000
# 2 68.1286 93.4943 49.3710 0.0000 0.0000 0.0000
# 3 81.7290 49.3710 102.5684 0.0000 0.0000 0.0000
# 4 0.0000 0.0000 0.0000 13.6921 0.0000 0.0000
# 5 0.0000 0.0000 0.0000 0.0000 31.7480 0.0000
# 6 0.0000 0.0000 0.0000 0.0000 0.0000 31.5680
#
#
#
# Elastic Compliance Matrix: (Units=1/GPa)
#
#
# Indices 1 2 3 4 5 6 
#
# 1 0.013034 -0.005381 -0.007796 0.000000 0.000000 0.000000
# 2 -0.005381 0.016563 -0.003684 0.000000 0.000000 0.000000
# 3 -0.007796 -0.003684 0.017735 0.000000 0.000000 0.000000
# 4 0.000000 0.000000 0.000000 0.073035 0.000000 0.000000
# 5 0.000000 0.000000 0.000000 0.000000 0.031498 0.000000
# 6 0.000000 0.000000 0.000000 0.000000 0.000000 0.031678
#
#
# Mechanical properties :
#
#
# Convention : Reuss Voigt Hill
#
# Bulk Modulus (GPa) = 73.48124 83.13888 78.31006
# Shear Modulus (GPa) = 22.54262 25.43922 23.99092
#
# Velocity S-wave (km/s) = 3.55443 3.77589 3.66683
# Velocity P-wave (km/s) = 7.61759 8.09968 7.86233
#
# Compressibility (1/GPa) = 0.01360892
#
# Stress axis : x y z
#
# Youngs Moduli (GPa) = 76.72066 60.37614 56.38585
#
# Poissons Ratio (x) = 0.32490 0.43957
# Poissons Ratio (y) = 0.41286 0.20775
# Poissons Ratio (z) = 0.59809 0.22246
#
# Static dielectric constant tensor:
#      x y z
#    x 1.591520 0.000000 0.000000 
#    y 0.000000 1.669340 0.000000 
#    z 0.000000 0.000000 1.608950 
# 
# From -- ./inp_files/3979.got.cif
#   From: 2010.05.17/outbox.cif.g08.bks.cpg/sg44_2_cif.got.tgz:3979.got - 2010.06.03 19:37:08.
