data_PCOD9375639
_publ_section_title
;
Structure prediction by ZEFSAII (Michael W. Deem and Ramdas Pophale) SiO2 
 PCOD9375639
Probable space group: I M M 2
;
_chemical_formula_sum "Si O2"
_cell_formula_units_Z 56
_cell_length_a 19.953174
_cell_length_b 14.364868
_cell_length_c 9.239960
_cell_angle_alpha 90.000000
_cell_angle_beta 90.000000
_cell_angle_gamma 90.000000
_cell_volume 2648.400862
_symmetry_space_group_name_H-M "I M M 2"
_symmetry_group_IT_number 44
_symmetry_cell_setting 'orthorhombic'
loop_
_space_group_symop_operation_xyz
x,y,z
-x,-y,z
-x,y,z
x,-y,z
1/2+x,1/2+y,1/2+z
1/2-x,1/2-y,1/2+z
1/2-x,1/2+y,1/2+z
1/2+x,1/2-y,1/2+z
loop_
_atom_site_type_symbol
_atom_site_label
_atom_site_fract_x
_atom_site_fract_y
_atom_site_fract_z
Si Si1 0.323769 0.600018 0.844800
Si Si2 0.076101 0.286201 0.586740
Si Si3 0.179786 0.696820 0.374634
Si Si4 0.697246 0.604674 0.500912
Si Si5 0.301010 0.108297 0.567031
Si Si6 0.427535 0.111487 0.391862
Si Si7 0.079538 0.891392 0.773543
O O1 0.357427 0.500000 0.875695
O O2 0.354096 0.701432 0.862473
O O3 0.307699 0.599523 0.673766
O O4 0.260043 0.606758 0.953023
O O5 0.122415 0.344785 0.476843
O O6 0.075254 0.345078 0.734354
O O7 0.098374 0.183767 0.649968
O O8 0.000000 0.276262 0.532335
O O9 0.248447 0.682699 0.462726
O O10 0.201672 0.661437 0.218101
O O11 0.720424 0.500000 0.452928
O O12 0.628226 0.621154 0.412463
O O13 0.366022 0.145933 0.485281
O O14 0.311900 0.000000 0.605710
O O15 0.500000 0.134515 0.457454
O O16 0.422080 0.000000 0.380918
O O17 0.000000 0.877061 0.806403
O O18 0.087539 0.000000 0.728241
#
# Coordination Sequence:
#
# PCOD9375639 Si02
#       7
#     8   8   8   8   8   8   8
#     4  10  23  40  57  84 119 157 199 247 309 372
#     4  10  23  40  60  89 124 165 209 253 308 371
#     4  12  24  36  60  90 123 160 206 256 311 359
#     4  10  22  39  63  93 122 156 204 257 312 371
#     4  10  22  38  57  85 121 158 200 252 308 369
#     4   9  19  37  60  83 112 156 202 245 300 365
#     4   9  20  40  66  94 125 163 211 265 317 374
#
# _framework density 21.144835
#
# number of rings (size 3 to 8) (size 9 to 14) (size 15 to 20)
#    0.000    2.000    0.000    2.143    8.000    3.429 
#    0.000    0.714    0.000    0.857    0.000    0.000 
#    0.000    0.000    0.000    0.000    0.000    0.000 
#
# Total GULP energy -155943.345717 kJ/mol
# GULP energy per Si atom -5569.405204 kJ/mol
# Density = 2.109671 g / cm^3
# Si number density = 21.144835 Si / 1000 Ang^3
#
#
#
# Elastic Constant Matrix: (Units=GPa)
#
#
# Indices 1 2 3 4 5 6 
#
# 1 51.8377 -10.4124 37.0234 0.0000 0.0000 0.0000
# 2 -10.4124 35.8717 4.1035 0.0000 0.0000 0.0000
# 3 37.0234 4.1035 110.9133 0.0000 0.0000 0.0000
# 4 0.0000 0.0000 0.0000 6.4195 0.0000 0.0000
# 5 0.0000 0.0000 0.0000 0.0000 9.4877 0.0000
# 6 0.0000 0.0000 0.0000 0.0000 0.0000 16.8883
#
#
#
# Elastic Compliance Matrix: (Units=1/GPa)
#
#
# Indices 1 2 3 4 5 6 
#
# 1 0.028096 0.009267 -0.009721 0.000000 0.000000 0.000000
# 2 0.009267 0.031052 -0.004242 0.000000 0.000000 0.000000
# 3 -0.009721 -0.004242 0.012418 0.000000 0.000000 0.000000
# 4 0.000000 0.000000 0.000000 0.155775 0.000000 0.000000
# 5 0.000000 0.000000 0.000000 0.000000 0.105399 0.000000
# 6 0.000000 0.000000 0.000000 0.000000 0.000000 0.059213
#
#
# Mechanical properties :
#
#
# Convention : Reuss Voigt Hill
#
# Bulk Modulus (GPa) = 16.08404 28.89463 22.48934
# Shear Modulus (GPa) = 11.84637 17.75299 14.79968
#
# Velocity S-wave (km/s) = 2.36953 2.90071 2.64847
# Velocity P-wave (km/s) = 3.88707 4.99135 4.47342
#
# Compressibility (1/GPa) = 0.06217343
#
# Stress axis : x y z
#
# Youngs Moduli (GPa) = 35.59272 32.20359 80.52801
#
# Poissons Ratio (x) = -0.29844 0.78284
# Poissons Ratio (y) = -0.32985 0.34163
# Poissons Ratio (z) = 0.34601 0.13662
#
# Static dielectric constant tensor:
#      x y z
#    x 1.819160 0.000000 0.000000 
#    y 0.000000 2.024190 0.000000 
#    z 0.000000 0.000000 1.743930 
# 
# From -- ./inp_files/7379.got.cif
#   From: 2010.05.17/outbox.cif.g08.bks.cpg/sg44_4_cif.got.tgz:7379.got - 2010.06.03 19:37:08.
