data_PCOD9375229
_publ_section_title
;
Structure prediction by ZEFSAII (Michael W. Deem and Ramdas Pophale) SiO2 
 PCOD9375229
Probable space group: I M M 2
;
_chemical_formula_sum "Si O2"
_cell_formula_units_Z 64
_cell_length_a 21.379858
_cell_length_b 16.194091
_cell_length_c 9.345291
_cell_angle_alpha 90.000000
_cell_angle_beta 90.000000
_cell_angle_gamma 90.000000
_cell_volume 3235.595488
_symmetry_space_group_name_H-M "I M M 2"
_symmetry_group_IT_number 44
_symmetry_cell_setting 'orthorhombic'
loop_
_space_group_symop_operation_xyz
x,y,z
-x,-y,z
-x,y,z
x,-y,z
1/2+x,1/2+y,1/2+z
1/2-x,1/2-y,1/2+z
1/2-x,1/2+y,1/2+z
1/2+x,1/2-y,1/2+z
loop_
_atom_site_type_symbol
_atom_site_label
_atom_site_fract_x
_atom_site_fract_y
_atom_site_fract_z
Si Si1 0.877405 0.719746 0.542530
Si Si2 0.730433 0.314586 0.916923
Si Si3 0.896423 0.406821 0.316290
Si Si4 0.269612 0.906310 0.149763
Si Si5 0.740572 0.149844 0.734957
Si Si6 0.926403 0.757489 0.847285
Si Si7 0.341733 0.591517 0.420236
Si Si8 0.427208 0.090653 0.487919
O O1 0.841079 0.792786 0.459643
O O2 0.914561 0.662706 0.430345
O O3 0.822833 0.658700 0.604037
O O4 0.914787 0.753292 0.677407
O O5 0.744985 0.388057 0.808833
O O6 0.749731 0.233633 0.826165
O O7 0.763725 0.328390 0.068584
O O8 0.909455 0.500000 0.365754
O O9 0.822017 0.394327 0.289254
O O10 0.924912 0.396868 0.158627
O O11 0.293070 0.000000 0.135247
O O12 0.210219 0.896895 0.044208
O O13 0.801151 0.097064 0.774167
O O14 0.890652 0.834581 0.915390
O O15 0.900532 0.670663 0.909959
O O16 0.000000 0.762753 0.878175
O O17 0.369193 0.500000 0.435245
O O18 0.500000 0.086477 0.444434
O O19 0.398493 0.000000 0.457074
#
# Coordination Sequence:
#
# PCOD9375229 Si02
#       8
#     8   8   8   8   8   8   8   8
#     4  11  22  36  58  85 121 159 198 242 300 369
#     4  11  20  34  54  84 120 160 195 237 300 369
#     4  10  21  34  56  86 120 155 192 239 300 366
#     4  11  23  37  58  92 130 157 192 251 314 372
#     4  11  20  33  56  86 123 156 193 242 307 368
#     4  11  25  44  63  87 120 165 213 254 305 361
#     4  11  22  40  64  89 122 158 203 257 310 366
#     4   9  21  40  61  87 117 154 203 251 293 353
#
# _framework density 19.779975
#
# number of rings (size 3 to 8) (size 9 to 14) (size 15 to 20)
#    0.000    1.375    5.000    0.750    7.000    2.750 
#    0.000    0.000    0.000    0.000    0.000    0.000 
#    0.000    0.000    0.000    0.000    0.000    0.000 
#
# Total GULP energy -178707.913159 kJ/mol
# GULP energy per Si atom -5584.622286 kJ/mol
# Density = 1.973496 g / cm^3
# Si number density = 19.779975 Si / 1000 Ang^3
#
#
#
# Elastic Constant Matrix: (Units=GPa)
#
#
# Indices 1 2 3 4 5 6 
#
# 1 44.2537 24.4290 2.2656 0.0000 0.0000 0.0000
# 2 24.4290 82.3824 20.2333 0.0000 0.0000 0.0000
# 3 2.2656 20.2333 94.2499 0.0000 0.0000 0.0000
# 4 0.0000 0.0000 0.0000 23.3959 0.0000 0.0000
# 5 0.0000 0.0000 0.0000 0.0000 23.3817 0.0000
# 6 0.0000 0.0000 0.0000 0.0000 0.0000 12.9248
#
#
#
# Elastic Compliance Matrix: (Units=1/GPa)
#
#
# Indices 1 2 3 4 5 6 
#
# 1 0.027134 -0.008325 0.001135 0.000000 0.000000 0.000000
# 2 -0.008325 0.015368 -0.003099 0.000000 0.000000 0.000000
# 3 0.001135 -0.003099 0.011248 0.000000 0.000000 0.000000
# 4 0.000000 0.000000 0.000000 0.042742 0.000000 0.000000
# 5 0.000000 0.000000 0.000000 0.000000 0.042768 0.000000
# 6 0.000000 0.000000 0.000000 0.000000 0.000000 0.077370
#
#
# Mechanical properties :
#
#
# Convention : Reuss Voigt Hill
#
# Bulk Modulus (GPa) = 30.14543 34.97132 32.55838
# Shear Modulus (GPa) = 20.13953 23.53771 21.83862
#
# Velocity S-wave (km/s) = 3.19435 3.45335 3.32637
# Velocity P-wave (km/s) = 5.37388 5.79822 5.59008
#
# Compressibility (1/GPa) = 0.03317252
#
# Stress axis : x y z
#
# Youngs Moduli (GPa) = 36.85355 65.06915 88.90383
#
# Poissons Ratio (x) = 0.54170 -0.10090
# Poissons Ratio (y) = 0.30680 0.27552
# Poissons Ratio (z) = -0.04183 0.20166
#
# Static dielectric constant tensor:
#      x y z
#    x 1.718090 0.000000 0.000000 
#    y 0.000000 1.735690 0.000000 
#    z 0.000000 0.000000 1.714820 
# 
# From -- ./inp_files/9517.got.cif
#   From: 2010.05.17/outbox.cif.g08.bks.cpg/sg44_5_cif.got.tgz:9517.got - 2010.06.03 19:37:08.
