data_PCOD9375895
_publ_section_title
;
Structure prediction by ZEFSAII (Michael W. Deem and Ramdas Pophale) SiO2 
 PCOD9375895
Probable space group: I M M 2
;
_chemical_formula_sum "Si O2"
_cell_formula_units_Z 32
_cell_length_a 23.920184
_cell_length_b 11.888224
_cell_length_c 4.957331
_cell_angle_alpha 90.000000
_cell_angle_beta 90.000000
_cell_angle_gamma 90.000000
_cell_volume 1409.708808
_symmetry_space_group_name_H-M "I M M 2"
_symmetry_group_IT_number 44
_symmetry_cell_setting 'orthorhombic'
loop_
_space_group_symop_operation_xyz
x,y,z
-x,-y,z
-x,y,z
x,-y,z
1/2+x,1/2+y,1/2+z
1/2-x,1/2-y,1/2+z
1/2-x,1/2+y,1/2+z
1/2+x,1/2-y,1/2+z
loop_
_atom_site_type_symbol
_atom_site_label
_atom_site_fract_x
_atom_site_fract_y
_atom_site_fract_z
Si Si1 0.762184 0.687872 0.696820
Si Si2 0.384871 0.130614 0.402659
Si Si3 0.563935 0.253377 0.899867
Si Si4 0.182260 0.000000 0.043443
Si Si5 0.605082 0.500000 0.041072
O O1 0.771313 0.781540 0.468112
O O2 0.821088 0.640842 0.799237
O O3 0.723151 0.605127 0.524760
O O4 0.422576 0.177880 0.160489
O O5 0.396697 0.000000 0.466515
O O6 0.396104 0.209701 0.660269
O O7 0.500000 0.237503 0.812012
O O8 0.573089 0.383823 0.979545
O O9 0.157010 0.000000 0.339729
O O10 0.130868 0.000000 0.839200
#
# Coordination Sequence:
#
# PCOD9375895 Si02
#       5
#     8   8   8   4   4
#     4  12  24  42  68 102 144 186 232 288 353 433
#     4  12  26  47  71 106 148 187 243 296 358 439
#     4  12  27  47  74 103 141 193 244 308 365 415
#     4  12  24  42  69 104 135 184 226 278 367 420
#     4  12  25  46  72 106 140 178 247 300 359 434
#
# _framework density 22.699725000000001
#
# number of rings (size 3 to 8) (size 9 to 14) (size 15 to 20)
#    0.000    0.000    1.250   10.875    0.000    3.000 
#    0.000    3.750    0.000    0.000    0.000    0.000 
#    0.000    0.000    0.000    0.000    0.000    0.000 
#
# Total GULP energy -89575.832187 kJ/mol
# GULP energy per Si atom -5598.489512 kJ/mol
# Density = 2.264806 g / cm^3
# Si number density = 22.699725 Si / 1000 Ang^3
#
#
#
# Elastic Constant Matrix: (Units=GPa)
#
#
# Indices 1 2 3 4 5 6 
#
# 1 67.9756 30.7546 -10.2417 0.0000 0.0000 0.0000
# 2 30.7546 117.1022 40.3567 0.0000 0.0000 0.0000
# 3 -10.2417 40.3567 101.9050 0.0000 0.0000 0.0000
# 4 0.0000 0.0000 0.0000 28.6262 0.0000 0.0000
# 5 0.0000 0.0000 0.0000 0.0000 32.3990 0.0000
# 6 0.0000 0.0000 0.0000 0.0000 0.0000 32.5628
#
#
#
# Elastic Compliance Matrix: (Units=1/GPa)
#
#
# Indices 1 2 3 4 5 6 
#
# 1 0.018194 -0.006263 0.004309 0.000000 0.000000 0.000000
# 2 -0.006263 0.012045 -0.005400 0.000000 0.000000 0.000000
# 3 0.004309 -0.005400 0.012385 0.000000 0.000000 0.000000
# 4 0.000000 0.000000 0.000000 0.034933 0.000000 0.000000
# 5 0.000000 0.000000 0.000000 0.000000 0.030865 0.000000
# 6 0.000000 0.000000 0.000000 0.000000 0.000000 0.030710
#
#
# Mechanical properties :
#
#
# Convention : Reuss Voigt Hill
#
# Bulk Modulus (GPa) = 35.82185 45.41356 40.61770
# Shear Modulus (GPa) = 30.64745 33.79180 32.21963
#
# Velocity S-wave (km/s) = 3.67839 3.86248 3.77156
# Velocity P-wave (km/s) = 5.81857 6.31991 6.07442
#
# Compressibility (1/GPa) = 0.02791593
#
# Stress axis : x y z
#
# Youngs Moduli (GPa) = 54.96272 83.01930 80.74574
#
# Poissons Ratio (x) = 0.51998 -0.34793
# Poissons Ratio (y) = 0.34425 0.43601
# Poissons Ratio (z) = -0.23683 0.44828
#
# Static dielectric constant tensor:
#      x y z
#    x 1.799580 0.000000 0.000000 
#    y 0.000000 2.404070 0.000000 
#    z 0.000000 0.000000 1.783860 
# 
# From -- ./inp_files/2630.got.cif
#   From: 2010.05.17/outbox.cif.g08.bks.cpg/sg44_2_cif.got.tgz:2630.got - 2010.06.03 19:37:08.
