data_PCOD9375534
_publ_section_title
;
Structure prediction by ZEFSAII (Michael W. Deem and Ramdas Pophale) SiO2 
 PCOD9375534
Probable space group: I M M 2
;
_chemical_formula_sum "Si O2"
_cell_formula_units_Z 64
_cell_length_a 8.215076
_cell_length_b 29.383104
_cell_length_c 13.496135
_cell_angle_alpha 90.000000
_cell_angle_beta 90.000000
_cell_angle_gamma 90.000000
_cell_volume 3257.756888
_symmetry_space_group_name_H-M "I M M 2"
_symmetry_group_IT_number 44
_symmetry_cell_setting 'orthorhombic'
loop_
_space_group_symop_operation_xyz
x,y,z
-x,-y,z
-x,y,z
x,-y,z
1/2+x,1/2+y,1/2+z
1/2-x,1/2-y,1/2+z
1/2-x,1/2+y,1/2+z
1/2+x,1/2-y,1/2+z
loop_
_atom_site_type_symbol
_atom_site_label
_atom_site_fract_x
_atom_site_fract_y
_atom_site_fract_z
Si Si1 0.197698 0.946289 0.519290
Si Si2 0.303787 0.122159 0.130695
Si Si3 0.306073 0.250832 0.942743
Si Si4 0.814901 0.705687 0.138673
Si Si5 0.803608 0.052798 0.298721
Si Si6 0.195778 0.710104 0.755327
Si Si7 0.186530 0.886894 0.700391
Si Si8 0.304407 0.145743 0.912425
O O1 0.252808 0.930716 0.408745
O O2 0.260810 0.920567 0.617216
O O3 0.000000 0.941138 0.519608
O O4 0.232684 0.000000 0.525832
O O5 0.500000 0.122081 0.127602
O O6 0.251645 0.082314 0.205148
O O7 0.253072 0.169155 0.184368
O O8 0.246506 0.123018 0.016167
O O9 0.500000 0.249159 0.960645
O O10 0.264037 0.290764 0.865473
O O11 0.253460 0.199211 0.914234
O O12 0.213203 0.266427 0.039677
O O13 0.770850 0.742615 0.220096
O O14 0.700274 0.662499 0.149475
O O15 0.000000 0.689896 0.150389
O O16 0.000000 0.053621 0.300572
O O17 0.752751 0.000000 0.288386
O O18 0.000000 0.712385 0.755035
O O19 0.256665 0.879475 0.810831
O O20 0.000000 0.900561 0.714649
O O21 0.500000 0.146208 0.914940
#
# Coordination Sequence:
#
# PCOD9375534 Si02
#       8
#     8   8   8   8   8   8   8   8
#     4   8  17  37  62  87 115 145 179 230 294 348
#     4  10  22  39  58  82 115 152 190 235 287 344
#     4  11  22  38  56  77 111 155 197 241 288 337
#     4  12  24  37  54  80 116 157 196 239 283 336
#     4   9  19  38  63  89 115 144 184 234 287 347
#     4  11  22  38  56  81 114 151 196 240 284 341
#     4  11  22  36  59  88 115 150 196 241 287 347
#     4  10  21  39  57  78 115 157 193 236 287 338
#
# _framework density 19.645419
#
# number of rings (size 3 to 8) (size 9 to 14) (size 15 to 20)
#    0.000    1.750    2.500    3.000    1.750    2.250 
#    0.000    1.250    0.000    5.250    0.000    0.000 
#    0.000    0.000    0.000    0.000    0.000    0.000 
#
# Total GULP energy -178411.523490 kJ/mol
# GULP energy per Si atom -5575.360109 kJ/mol
# Density = 1.960071 g / cm^3
# Si number density = 19.645419 Si / 1000 Ang^3
#
#
#
# Elastic Constant Matrix: (Units=GPa)
#
#
# Indices 1 2 3 4 5 6 
#
# 1 20.1560 -2.7135 14.7037 0.0000 0.0000 0.0000
# 2 -2.7135 67.3109 65.5254 0.0000 0.0000 0.0000
# 3 14.7037 65.5254 182.4159 -0.0001 0.0000 0.0000
# 4 0.0000 0.0000 -0.0001 38.2679 0.0000 0.0000
# 5 0.0000 0.0000 0.0000 0.0000 26.4735 0.0000
# 6 0.0000 0.0000 0.0000 0.0000 0.0000 19.9158
#
#
#
# Elastic Compliance Matrix: (Units=1/GPa)
#
#
# Indices 1 2 3 4 5 6 
#
# 1 0.057109 0.010431 -0.008350 0.000000 0.000000 0.000000
# 2 0.010431 0.024750 -0.009731 0.000000 0.000000 0.000000
# 3 -0.008350 -0.009731 0.009651 0.000000 0.000000 0.000000
# 4 0.000000 0.000000 0.000000 0.026132 0.000000 0.000000
# 5 0.000000 0.000000 0.000000 0.000000 0.037774 0.000000
# 6 0.000000 0.000000 0.000000 0.000000 0.000000 0.050212
#
#
# Mechanical properties :
#
#
# Convention : Reuss Voigt Hill
#
# Bulk Modulus (GPa) = 13.12195 47.21266 30.16730
# Shear Modulus (GPa) = 20.29802 29.75592 25.02697
#
# Velocity S-wave (km/s) = 3.21786 3.89607 3.57309
# Velocity P-wave (km/s) = 4.52770 6.65761 5.69314
#
# Compressibility (1/GPa) = 0.07620819
#
# Stress axis : x y z
#
# Youngs Moduli (GPa) = 17.51052 40.40399 103.62079
#
# Poissons Ratio (x) = -0.42145 0.86524
# Poissons Ratio (y) = -0.18265 1.00836
# Poissons Ratio (z) = 0.14621 0.39318
#
# Static dielectric constant tensor:
#      x y z
#    x 1.689620 0.000000 0.000000 
#    y 0.000000 1.666810 0.000000 
#    z 0.000000 0.000000 1.705950 
# 
# From -- ./inp_files/11568.got.cif
#   From: 2010.05.17/outbox.cif.g08.bks.cpg/sg44_6_cif.got.tgz:11568.got - 2010.06.03 19:37:08.
