data_PCOD9375755
_publ_section_title
;
Structure prediction by ZEFSAII (Michael W. Deem and Ramdas Pophale) SiO2 
 PCOD9375755
Probable space group: I M M 2
;
_chemical_formula_sum "Si O2"
_cell_formula_units_Z 58
_cell_length_a 17.523227
_cell_length_b 19.574674
_cell_length_c 8.903803
_cell_angle_alpha 90.000000
_cell_angle_beta 90.000000
_cell_angle_gamma 90.000000
_cell_volume 3054.106431
_symmetry_space_group_name_H-M "I M M 2"
_symmetry_group_IT_number 44
_symmetry_cell_setting 'orthorhombic'
loop_
_space_group_symop_operation_xyz
x,y,z
-x,-y,z
-x,y,z
x,-y,z
1/2+x,1/2+y,1/2+z
1/2-x,1/2-y,1/2+z
1/2-x,1/2+y,1/2+z
1/2+x,1/2-y,1/2+z
loop_
_atom_site_type_symbol
_atom_site_label
_atom_site_fract_x
_atom_site_fract_y
_atom_site_fract_z
Si Si1 0.088740 0.173258 0.656620
Si Si2 0.500000 0.000000 0.928311
Si Si3 0.304659 0.578282 0.350432
Si Si4 0.196898 0.805331 0.084212
Si Si5 0.166671 0.705762 0.817054
Si Si6 0.126141 0.603652 0.316836
Si Si7 0.410399 0.078073 0.467997
Si Si8 0.090583 0.758528 0.342949
O O1 0.146662 0.117366 0.722857
O O2 0.103210 0.242664 0.751536
O O3 0.106340 0.193208 0.485020
O O4 0.000000 0.152874 0.669369
O O5 0.432238 0.940842 0.914800
O O6 0.328627 0.500000 0.365026
O O7 0.315175 0.623520 0.499560
O O8 0.213970 0.580831 0.319338
O O9 0.270676 0.804903 0.189296
O O10 0.126646 0.787731 0.191923
O O11 0.202678 0.746623 0.957715
O O12 0.133597 0.634483 0.873548
O O13 0.123346 0.682524 0.364545
O O14 0.098062 0.594884 0.144781
O O15 0.500000 0.080768 0.430590
O O16 0.384044 0.000000 0.443647
O O17 0.000000 0.751419 0.328990
#
# Coordination Sequence:
#
# PCOD9375755 Si02
#       8
#     8   2   8   8   8   8   8   8
#     4  10  23  42  64  93 124 162 218 268 320 379
#     4  12  20  36  60 100 132 164 206 244 306 384
#     4  11  25  43  66  91 126 166 213 265 325 389
#     4  11  24  38  62  91 125 165 216 261 315 381
#     4  11  22  38  61  88 128 164 206 258 313 367
#     4  12  20  37  62  93 127 166 207 246 305 382
#     4  11  21  35  57  89 125 160 200 240 299 373
#     4  11  22  39  66  95 124 163 211 266 317 378
#
# _framework density 18.990824
#
# number of rings (size 3 to 8) (size 9 to 14) (size 15 to 20)
#    0.000    0.966    4.138    3.724    1.931    3.034 
#    0.000    0.690    0.000    0.828    0.000    0.000 
#    0.000    0.000    0.000    0.000    0.000    0.000 
#
# Total GULP energy -161862.752568 kJ/mol
# GULP energy per Si atom -5581.474226 kJ/mol
# Density = 1.894760 g / cm^3
# Si number density = 18.990824 Si / 1000 Ang^3
#
#
#
# Elastic Constant Matrix: (Units=GPa)
#
#
# Indices 1 2 3 4 5 6 
#
# 1 62.8592 48.7361 29.3760 0.0000 0.0000 0.0000
# 2 48.7361 156.8119 60.7543 0.0000 0.0000 0.0000
# 3 29.3760 60.7543 72.7104 0.0000 0.0000 0.0000
# 4 0.0000 0.0000 0.0000 -48.8261 0.0000 0.0000
# 5 0.0000 0.0000 0.0000 0.0000 18.2350 0.0000
# 6 0.0000 0.0000 0.0000 0.0000 0.0000 31.5282
#
#
#
# Elastic Compliance Matrix: (Units=1/GPa)
#
#
# Indices 1 2 3 4 5 6 
#
# 1 0.021991 -0.005016 -0.004693 0.000000 0.000000 0.000000
# 2 -0.005016 0.010574 -0.006809 0.000000 0.000000 0.000000
# 3 -0.004693 -0.006809 0.021338 0.000000 0.000000 0.000000
# 4 0.000000 0.000000 0.000000 -0.020481 0.000000 0.000000
# 5 0.000000 0.000000 0.000000 0.000000 0.054840 0.000000
# 6 0.000000 0.000000 0.000000 0.000000 0.000000 0.031718
#
#
# Mechanical properties :
#
#
# Convention : Reuss Voigt Hill
#
# Bulk Modulus (GPa) = 47.92224 63.34603 55.63413
# Shear Modulus (GPa) = 31.25550 10.42177 20.83864
#
# Velocity S-wave (km/s) = 4.06127 2.34515 3.31615
# Velocity P-wave (km/s) = 6.87613 6.38447 6.63485
#
# Compressibility (1/GPa) = 0.02086714
#
# Stress axis : x y z
#
# Youngs Moduli (GPa) = 45.47280 94.57153 46.86408
#
# Poissons Ratio (x) = 0.47441 0.21994
# Poissons Ratio (y) = 0.22811 0.31908
# Poissons Ratio (z) = 0.21341 0.64390
#
# Static dielectric constant tensor:
#      x y z
#    x 1.663340 0.000000 0.000000 
#    y 0.000000 1.738290 0.000000 
#    z 0.000000 0.000000 1.662380 
# 
# From -- ./inp_files/8327.got.cif
#   From: 2010.05.17/outbox.cif.g08.bks.cpg/sg44_5_cif.got.tgz:8327.got - 2010.06.03 19:37:08.
