data_PCOD9375691
_publ_section_title
;
Structure prediction by ZEFSAII (Michael W. Deem and Ramdas Pophale) SiO2 
 PCOD9375691
Probable space group: I M M 2
;
_chemical_formula_sum "Si O2"
_cell_formula_units_Z 64
_cell_length_a 25.448834
_cell_length_b 8.551868
_cell_length_c 15.254603
_cell_angle_alpha 90.000000
_cell_angle_beta 90.000000
_cell_angle_gamma 90.000000
_cell_volume 3319.936578
_symmetry_space_group_name_H-M "I M M 2"
_symmetry_group_IT_number 44
_symmetry_cell_setting 'orthorhombic'
loop_
_space_group_symop_operation_xyz
x,y,z
-x,-y,z
-x,y,z
x,-y,z
1/2+x,1/2+y,1/2+z
1/2-x,1/2-y,1/2+z
1/2-x,1/2+y,1/2+z
1/2+x,1/2-y,1/2+z
loop_
_atom_site_type_symbol
_atom_site_label
_atom_site_fract_x
_atom_site_fract_y
_atom_site_fract_z
Si Si1 0.438632 0.688462 0.078130
Si Si2 0.940332 0.312771 0.215857
Si Si3 0.266336 0.316451 0.111878
Si Si4 0.345585 0.683912 0.601741
Si Si5 0.164724 0.314944 0.910218
Si Si6 0.609526 0.687750 0.889550
Si Si7 0.222095 0.684434 0.419736
Si Si8 0.360188 0.186198 0.221074
O O1 0.500000 0.729895 0.077188
O O2 0.434289 0.500000 0.085651
O O3 0.407589 0.764695 0.158245
O O4 0.411810 0.732605 0.985751
O O5 0.936306 0.500000 0.211006
O O6 0.897049 0.238106 0.152641
O O7 0.926671 0.257499 0.313870
O O8 0.000000 0.266908 0.193472
O O9 0.270033 0.500000 0.091004
O O10 0.206585 0.273198 0.135178
O O11 0.308424 0.271797 0.184713
O O12 0.280261 0.219925 0.024080
O O13 0.337188 0.500000 0.613021
O O14 0.349902 0.724623 0.498605
O O15 0.160596 0.500000 0.927670
O O16 0.225425 0.272972 0.889799
O O17 0.132252 0.274327 0.823310
O O18 0.609550 0.500000 0.883766
O O19 0.668627 0.750721 0.879017
O O20 0.227275 0.500000 0.404453
O O21 0.351726 0.000000 0.215764
#
# Coordination Sequence:
#
# PCOD9375691 Si02
#       8
#     8   8   8   8   8   8   8   8
#     4  10  22  40  62  88 122 164 206 249 301 361
#     4  11  25  44  65  90 121 160 207 257 309 367
#     4  11  21  36  59  87 123 162 200 245 301 362
#     4  11  23  41  65  91 121 157 203 256 311 368
#     4  10  22  40  61  87 124 163 204 253 309 366
#     4  11  22  38  61  90 124 164 204 248 305 364
#     4  11  21  35  57  88 124 160 203 246 299 363
#     4  11  23  38  60  90 123 161 206 253 303 362
#
# _framework density 19.277477000000001
#
# number of rings (size 3 to 8) (size 9 to 14) (size 15 to 20)
#    0.000    1.250    1.250    6.750    1.750    4.250 
#    0.000    0.625    0.000    0.750    0.000    0.000 
#    0.000    0.000    0.000    0.000    0.000    0.000 
#
# Total GULP energy -178957.323875 kJ/mol
# GULP energy per Si atom -5592.416371 kJ/mol
# Density = 1.923360 g / cm^3
# Si number density = 19.277477 Si / 1000 Ang^3
#
#
#
# Elastic Constant Matrix: (Units=GPa)
#
#
# Indices 1 2 3 4 5 6 
#
# 1 86.6009 6.5990 30.2384 0.0000 0.0000 0.0000
# 2 6.5990 39.9497 3.2304 0.0000 0.0000 0.0000
# 3 30.2384 3.2304 55.4362 0.0000 0.0000 0.0000
# 4 0.0000 0.0000 0.0000 29.5090 0.0000 0.0000
# 5 0.0000 0.0000 0.0000 0.0000 30.1683 0.0000
# 6 0.0000 0.0000 0.0000 0.0000 0.0000 22.8337
#
#
#
# Elastic Compliance Matrix: (Units=1/GPa)
#
#
# Indices 1 2 3 4 5 6 
#
# 1 0.014385 -0.001750 -0.007744 0.000000 0.000000 0.000000
# 2 -0.001750 0.025363 -0.000523 0.000000 0.000000 0.000000
# 3 -0.007744 -0.000523 0.022293 0.000000 0.000000 0.000000
# 4 0.000000 0.000000 0.000000 0.033888 0.000000 0.000000
# 5 0.000000 0.000000 0.000000 0.000000 0.033147 0.000000
# 6 0.000000 0.000000 0.000000 0.000000 0.000000 0.043795
#
#
# Mechanical properties :
#
#
# Convention : Reuss Voigt Hill
#
# Bulk Modulus (GPa) = 23.80632 29.12472 26.46552
# Shear Modulus (GPa) = 24.16528 25.96347 25.06437
#
# Velocity S-wave (km/s) = 3.54439 3.67390 3.60973
# Velocity P-wave (km/s) = 5.39689 5.75653 5.57961
#
# Compressibility (1/GPa) = 0.04200565
#
# Stress axis : x y z
#
# Youngs Moduli (GPa) = 69.51856 39.42777 44.85615
#
# Poissons Ratio (x) = 0.06899 0.34738
# Poissons Ratio (y) = 0.12165 0.02348
# Poissons Ratio (z) = 0.53837 0.02064
#
# Static dielectric constant tensor:
#      x y z
#    x 1.653270 0.000000 0.000000 
#    y 0.000000 1.646580 0.000000 
#    z 0.000000 0.000000 1.682210 
# 
# From -- ./inp_files/19503.got.cif
#   From: 2010.05.17/outbox.cif.g08.bks.cpg/sg44_10_cif.got.tgz:19503.got - 2010.06.03 19:37:08.
