data_PCOD9375653
_publ_section_title
;
Structure prediction by ZEFSAII (Michael W. Deem and Ramdas Pophale) SiO2 
 PCOD9375653
Probable space group: I M M 2
;
_chemical_formula_sum "Si O2"
_cell_formula_units_Z 58
_cell_length_a 8.148705
_cell_length_b 25.370013
_cell_length_c 13.721095
_cell_angle_alpha 90.000000
_cell_angle_beta 90.000000
_cell_angle_gamma 90.000000
_cell_volume 2836.599727
_symmetry_space_group_name_H-M "I M M 2"
_symmetry_group_IT_number 44
_symmetry_cell_setting 'orthorhombic'
loop_
_space_group_symop_operation_xyz
x,y,z
-x,-y,z
-x,y,z
x,-y,z
1/2+x,1/2+y,1/2+z
1/2-x,1/2-y,1/2+z
1/2-x,1/2+y,1/2+z
1/2+x,1/2-y,1/2+z
loop_
_atom_site_type_symbol
_atom_site_label
_atom_site_fract_x
_atom_site_fract_y
_atom_site_fract_z
Si Si1 0.314277 0.077458 0.662900
Si Si2 0.805616 0.265055 0.233987
Si Si3 0.806359 0.332948 0.841468
Si Si4 0.189747 0.175154 0.554583
Si Si5 0.689145 0.139413 0.864610
Si Si6 0.696843 0.440648 0.527501
Si Si7 0.000000 0.000000 0.642307
Si Si8 0.198537 0.940365 0.252545
O O1 0.500000 0.055639 0.651700
O O2 0.300398 0.127167 0.591618
O O3 0.302879 0.099493 0.773044
O O4 0.149862 0.044292 0.644705
O O5 0.773524 0.205262 0.262147
O O6 0.722544 0.278936 0.131853
O O7 0.742254 0.305898 0.318377
O O8 0.000000 0.275035 0.224856
O O9 0.764365 0.393666 0.819304
O O10 0.000000 0.326017 0.840125
O O11 0.735493 0.313932 0.944230
O O12 0.000000 0.160210 0.559800
O O13 0.500000 0.150219 0.889300
O O14 0.760133 0.107109 0.955629
O O15 0.500000 0.443443 0.529753
O O16 0.755029 0.500000 0.496127
O O17 0.751294 0.432475 0.639595
O O18 0.000000 0.938398 0.255331
O O19 0.247090 0.000000 0.281806
#
# Coordination Sequence:
#
# PCOD9375653 Si02
#       8
#     8   8   8   8   8   8   2   8
#     4  10  22  39  57  88 129 168 217 273 314 382
#     4  10  22  42  64  90 125 162 203 260 310 369
#     4  12  25  41  66  96 123 162 207 254 314 378
#     4  11  22  43  67  91 124 166 207 256 324 380
#     4   9  20  35  55  84 123 163 202 256 317 368
#     4   9  19  33  56  84 118 159 205 250 302 370
#     4  12  22  36  60  90 120 178 226 256 334 370
#     4   9  20  42  63  86 119 161 207 260 310 369
#
# _framework density 20.447016000000001
#
# number of rings (size 3 to 8) (size 9 to 14) (size 15 to 20)
#    0.000    1.931    0.690    4.759    1.931    3.310 
#    1.241    4.138    0.000    0.000    0.000    0.000 
#    0.000    0.000    0.000    0.000    0.000    0.000 
#
# Total GULP energy -161505.642161 kJ/mol
# GULP energy per Si atom -5569.160075 kJ/mol
# Density = 2.040048 g / cm^3
# Si number density = 20.447016 Si / 1000 Ang^3
#
#
#
# Elastic Constant Matrix: (Units=GPa)
#
#
# Indices 1 2 3 4 5 6 
#
# 1 111.7969 48.2644 29.8799 0.0002 0.0000 0.0025
# 2 48.2644 142.2069 65.9119 0.0004 0.0001 0.0058
# 3 29.8799 65.9119 71.1475 0.0000 0.0000 -0.0040
# 4 0.0002 0.0004 0.0000 11.2483 0.0000 -0.0014
# 5 0.0000 0.0001 0.0000 0.0000 22.5461 -0.0004
# 6 0.0025 0.0058 -0.0040 -0.0014 -0.0004 257.3713
#
#
#
# Elastic Compliance Matrix: (Units=1/GPa)
#
#
# Indices 1 2 3 4 5 6 
#
# 1 0.010635 -0.002698 -0.001967 0.000000 0.000000 0.000000
# 2 -0.002698 0.013008 -0.010918 0.000000 0.000000 0.000000
# 3 -0.001967 -0.010918 0.024996 0.000000 0.000000 0.000001
# 4 0.000000 0.000000 0.000000 0.088902 0.000000 0.000000
# 5 0.000000 0.000000 0.000000 0.000000 0.044354 0.000000
# 6 0.000000 0.000000 0.000001 0.000000 0.000000 0.003885
#
#
# Mechanical properties :
#
#
# Convention : Reuss Voigt Hill
#
# Bulk Modulus (GPa) = 57.22950 68.14040 62.68495
# Shear Modulus (GPa) = 22.44467 70.30614 46.37540
#
# Velocity S-wave (km/s) = 3.31675 5.87020 4.76760
# Velocity P-wave (km/s) = 6.53588 8.90749 7.81220
#
# Compressibility (1/GPa) = 0.01747351
#
# Stress axis : x y z
#
# Youngs Moduli (GPa) = 94.02700 76.87655 40.00676
#
# Poissons Ratio (x) = 0.20739 0.07870
# Poissons Ratio (y) = 0.25366 0.43678
# Poissons Ratio (z) = 0.18498 0.83931
#
# Static dielectric constant tensor:
#      x y z
#    x 1.716750 0.000000 0.000000 
#    y 0.000000 1.754250 0.000000 
#    z 0.000000 0.000000 1.732850 
# 
# From -- ./inp_files/16692.got.cif
#   From: 2010.05.17/outbox.cif.g08.bks.cpg/sg44_9_cif.got.tgz:16692.got - 2010.06.03 19:37:08.
