data_PCOD9375920
_publ_section_title
;
Structure prediction by ZEFSAII (Michael W. Deem and Ramdas Pophale) SiO2 
 PCOD9375920
Probable space group: I M M 2
;
_chemical_formula_sum "Si O2"
_cell_formula_units_Z 48
_cell_length_a 7.600753
_cell_length_b 18.555720
_cell_length_c 13.885784
_cell_angle_alpha 90.000000
_cell_angle_beta 90.000000
_cell_angle_gamma 90.000000
_cell_volume 1958.415490
_symmetry_space_group_name_H-M "I M M 2"
_symmetry_group_IT_number 44
_symmetry_cell_setting 'orthorhombic'
loop_
_space_group_symop_operation_xyz
x,y,z
-x,-y,z
-x,y,z
x,-y,z
1/2+x,1/2+y,1/2+z
1/2-x,1/2-y,1/2+z
1/2-x,1/2+y,1/2+z
1/2+x,1/2-y,1/2+z
loop_
_atom_site_type_symbol
_atom_site_label
_atom_site_fract_x
_atom_site_fract_y
_atom_site_fract_z
Si Si1 0.210170 0.422995 0.888760
Si Si2 0.696226 0.268670 0.839841
Si Si3 0.784965 0.578865 0.523095
Si Si4 0.700573 0.765637 0.068136
Si Si5 0.701525 0.892411 0.601774
Si Si6 0.782228 0.614921 0.305491
O O1 0.272637 0.500000 0.849672
O O2 0.241839 0.350054 0.830409
O O3 0.000000 0.426044 0.896378
O O4 0.281617 0.413666 0.998582
O O5 0.500000 0.268056 0.800402
O O6 0.787350 0.197179 0.802237
O O7 0.691065 0.250542 0.953689
O O8 0.731703 0.500000 0.560652
O O9 0.726269 0.652938 0.574916
O O10 0.734044 0.583562 0.409596
O O11 0.000000 0.581882 0.525686
O O12 0.500000 0.765310 0.105454
O O13 0.798091 0.694990 0.105004
O O14 0.500000 0.916900 0.598752
O O15 0.775396 0.918174 0.703960
O O16 0.000000 0.614542 0.305591
#
# Coordination Sequence:
#
# PCOD9375920 Si02
#       6
#     8   8   8   8   8   8
#     4   9  17  27  39  59  85 107 128 158 196 237
#     4   8  14  26  42  57  75 103 138 168 190 220
#     4   8  13  22  39  62  83 102 127 162 200 232
#     4   8  14  25  40  58  79 103 134 166 190 222
#     4   9  16  26  41  60  82 107 130 156 196 239
#     4   8  14  24  39  60  82 102 129 164 196 230
#
# _framework density 24.509608
#
# number of rings (size 3 to 8) (size 9 to 14) (size 15 to 20)
#    0.000    3.667    0.000    2.000    0.000    1.000 
#    0.000    4.167    0.000    2.500    0.000    4.667 
#    0.000    0.000    0.000    0.000    0.000    0.000 
#
# Total GULP energy -133648.467941 kJ/mol
# GULP energy per Si atom -5568.686164 kJ/mol
# Density = 2.445382 g / cm^3
# Si number density = 24.509608 Si / 1000 Ang^3
#
#
#
# Elastic Constant Matrix: (Units=GPa)
#
#
# Indices 1 2 3 4 5 6 
#
# 1 50.2152 12.5795 0.2917 0.0000 0.0000 0.0000
# 2 12.5795 225.5624 -2.7735 0.0000 0.0000 0.0000
# 3 0.2917 -2.7735 39.2511 0.0000 0.0000 0.0000
# 4 0.0000 0.0000 0.0000 -4.0476 0.0000 0.0000
# 5 0.0000 0.0000 0.0000 0.0000 0.8045 0.0000
# 6 0.0000 0.0000 0.0000 0.0000 0.0000 3.1191
#
#
#
# Elastic Compliance Matrix: (Units=1/GPa)
#
#
# Indices 1 2 3 4 5 6 
#
# 1 0.020199 -0.001129 -0.000230 0.000000 0.000000 0.000000
# 2 -0.001129 0.004500 0.000326 0.000000 0.000000 0.000000
# 3 -0.000230 0.000326 0.025502 0.000000 0.000000 0.000000
# 4 0.000000 0.000000 0.000000 -0.247062 0.000001 0.000000
# 5 0.000000 0.000000 0.000000 0.000001 1.242993 0.000000
# 6 0.000000 0.000000 0.000000 0.000000 0.000000 0.320604
#
#
# Mechanical properties :
#
#
# Convention : Reuss Voigt Hill
#
# Bulk Modulus (GPa) = 20.77490 37.24713 29.01102
# Shear Modulus (GPa) = 3.61051 20.30395 11.95723
#
# Velocity S-wave (km/s) = 1.21503 2.88133 2.21115
# Velocity P-wave (km/s) = 3.23466 5.12829 4.28733
#
# Compressibility (1/GPa) = 0.04813501
#
# Stress axis : x y z
#
# Youngs Moduli (GPa) = 49.50855 222.20468 39.21301
#
# Poissons Ratio (x) = 0.25093 0.00902
# Poissons Ratio (y) = 0.05591 -0.01280
# Poissons Ratio (z) = 0.01138 -0.07253
#
# Static dielectric constant tensor:
#      x y z
#    x 1.939480 0.000000 0.000000 
#    y 0.000000 2.000030 0.000000 
#    z 0.000000 0.000000 1.971770 
# 
# From -- ./inp_files/17692.got.cif
#   From: 2010.05.17/outbox.cif.g08.bks.cpg/sg44_9_cif.got.tgz:17692.got - 2010.06.03 19:37:08.
