data_PCOD9375711
_publ_section_title
;
Structure prediction by ZEFSAII (Michael W. Deem and Ramdas Pophale) SiO2 
 PCOD9375711
Probable space group: I M M 2
;
_chemical_formula_sum "Si O2"
_cell_formula_units_Z 64
_cell_length_a 8.603152
_cell_length_b 33.850247
_cell_length_c 11.944025
_cell_angle_alpha 90.000000
_cell_angle_beta 90.000000
_cell_angle_gamma 90.000000
_cell_volume 3478.324869
_symmetry_space_group_name_H-M "I M M 2"
_symmetry_group_IT_number 44
_symmetry_cell_setting 'orthorhombic'
loop_
_space_group_symop_operation_xyz
x,y,z
-x,-y,z
-x,y,z
x,-y,z
1/2+x,1/2+y,1/2+z
1/2-x,1/2-y,1/2+z
1/2-x,1/2+y,1/2+z
1/2+x,1/2-y,1/2+z
loop_
_atom_site_type_symbol
_atom_site_label
_atom_site_fract_x
_atom_site_fract_y
_atom_site_fract_z
Si Si1 0.685167 0.149119 0.768430
Si Si2 0.686003 0.375230 0.029016
Si Si3 0.184955 0.275607 0.419611
Si Si4 0.814783 0.610175 0.494697
Si Si5 0.686775 0.454431 0.911003
Si Si6 0.681895 0.809075 0.362908
Si Si7 0.679752 0.682278 0.625073
Si Si8 0.314199 0.045164 0.170259
O O1 0.500000 0.151441 0.747791
O O2 0.767229 0.138267 0.653334
O O3 0.731449 0.190766 0.828061
O O4 0.713652 0.115645 0.863086
O O5 0.500000 0.374075 0.018170
O O6 0.738433 0.419889 0.996039
O O7 0.757389 0.343941 0.942139
O O8 0.500000 0.220139 0.934681
O O9 0.228464 0.231849 0.383412
O O10 0.268055 0.284368 0.537382
O O11 0.711731 0.642499 0.556829
O O12 0.781003 0.569920 0.559124
O O13 0.000000 0.619206 0.510425
O O14 0.500000 0.456138 0.915889
O O15 0.744096 0.500000 0.928705
O O16 0.735547 0.441240 0.785708
O O17 0.500000 0.802979 0.382912
O O18 0.715071 0.819377 0.234380
O O19 0.500000 0.686717 0.656406
O O20 0.500000 0.046877 0.188256
O O21 0.266807 0.000000 0.153951
#
# Coordination Sequence:
#
# PCOD9375711 Si02
#       8
#     8   8   8   8   8   8   8   8
#     4   9  20  38  58  79 110 149 188 232 284 340
#     4  11  23  38  58  84 113 149 195 243 289 344
#     4  10  22  41  61  82 110 145 188 234 284 339
#     4   9  18  35  56  78 109 147 185 227 277 335
#     4   9  19  36  56  80 113 151 189 235 291 345
#     4  12  25  39  58  83 114 149 186 232 283 339
#     4  11  22  37  57  82 110 141 182 227 277 331
#     4   9  17  30  53  84 113 142 180 231 287 340
#
# _framework density 18.399660999999998
#
# number of rings (size 3 to 8) (size 9 to 14) (size 15 to 20)
#    0.000    2.000    0.000    4.500    1.750    6.000 
#    0.000    0.625    0.000    0.750    0.000    0.000 
#    0.000    0.000    0.000    0.000    0.000    0.000 
#
# Total GULP energy -178540.824753 kJ/mol
# GULP energy per Si atom -5579.400774 kJ/mol
# Density = 1.835778 g / cm^3
# Si number density = 18.399661 Si / 1000 Ang^3
#
#
#
# Elastic Constant Matrix: (Units=GPa)
#
#
# Indices 1 2 3 4 5 6 
#
# 1 16.9514 13.6147 4.0469 0.0000 0.0000 0.0000
# 2 13.6147 76.1067 44.4430 -0.0001 0.0000 0.0000
# 3 4.0469 44.4430 91.8614 -0.0002 -0.0001 0.0000
# 4 0.0000 -0.0001 -0.0002 11.2661 0.0000 0.0000
# 5 0.0000 0.0000 -0.0001 0.0000 31.8819 0.0000
# 6 0.0000 0.0000 0.0000 0.0000 0.0000 21.0054
#
#
#
# Elastic Compliance Matrix: (Units=1/GPa)
#
#
# Indices 1 2 3 4 5 6 
#
# 1 0.070005 -0.014944 0.004146 0.000000 0.000000 0.000000
# 2 -0.014944 0.021504 -0.009745 0.000000 0.000000 0.000000
# 3 0.004146 -0.009745 0.015418 0.000000 0.000000 0.000000
# 4 0.000000 0.000000 0.000000 0.088761 0.000000 0.000000
# 5 0.000000 0.000000 0.000000 0.000000 0.031366 0.000000
# 6 0.000000 0.000000 0.000000 0.000000 0.000000 0.047607
#
#
# Mechanical properties :
#
#
# Convention : Reuss Voigt Hill
#
# Bulk Modulus (GPa) = 15.18837 34.34763 24.76800
# Shear Modulus (GPa) = 14.80630 21.01835 17.91233
#
# Velocity S-wave (km/s) = 2.83981 3.38349 3.12350
# Velocity P-wave (km/s) = 4.36180 5.82856 5.14769
#
# Compressibility (1/GPa) = 0.06583987
#
# Stress axis : x y z
#
# Youngs Moduli (GPa) = 14.28469 46.50386 64.85896
#
# Poissons Ratio (x) = 0.69497 -0.26891
# Poissons Ratio (y) = 0.21347 0.63206
# Poissons Ratio (z) = -0.05923 0.45319
#
# Static dielectric constant tensor:
#      x y z
#    x 1.611560 0.000000 0.000000 
#    y 0.000000 1.668810 0.000000 
#    z 0.000000 0.000000 1.621030 
# 
# From -- ./inp_files/11466.got.cif
#   From: 2010.05.17/outbox.cif.g08.bks.cpg/sg44_6_cif.got.tgz:11466.got - 2010.06.03 19:37:08.
