data_PCOD9375753
_publ_section_title
;
Structure prediction by ZEFSAII (Michael W. Deem and Ramdas Pophale) SiO2 
 PCOD9375753
Probable space group: I M M 2
;
_chemical_formula_sum "Si O2"
_cell_formula_units_Z 48
_cell_length_a 8.965863
_cell_length_b 18.594766
_cell_length_c 15.076619
_cell_angle_alpha 90.000000
_cell_angle_beta 90.000000
_cell_angle_gamma 90.000000
_cell_volume 2513.545643
_symmetry_space_group_name_H-M "I M M 2"
_symmetry_group_IT_number 44
_symmetry_cell_setting 'orthorhombic'
loop_
_space_group_symop_operation_xyz
x,y,z
-x,-y,z
-x,y,z
x,-y,z
1/2+x,1/2+y,1/2+z
1/2-x,1/2-y,1/2+z
1/2-x,1/2+y,1/2+z
1/2+x,1/2-y,1/2+z
loop_
_atom_site_type_symbol
_atom_site_label
_atom_site_fract_x
_atom_site_fract_y
_atom_site_fract_z
Si Si1 0.823942 0.726143 0.621560
Si Si2 0.327384 0.500000 0.244448
Si Si3 0.178346 0.079002 0.056544
Si Si4 0.827261 0.000000 0.532429
Si Si5 0.171711 0.750059 0.831442
Si Si6 0.174855 0.392833 0.370508
Si Si7 0.824559 0.348164 0.996693
O O1 0.751923 0.649000 0.599757
O O2 0.808360 0.737722 0.727097
O O3 0.749217 0.790011 0.563986
O O4 0.000000 0.724588 0.600223
O O5 0.500000 0.500000 0.273147
O O6 0.322865 0.500000 0.139278
O O7 0.243639 0.431649 0.285096
O O8 0.000000 0.086937 0.056825
O O9 0.215019 0.000000 0.096000
O O10 0.239033 0.079056 0.956375
O O11 0.748993 0.926325 0.503040
O O12 0.000000 0.000000 0.504259
O O13 0.288213 0.809248 0.863128
O O14 0.000000 0.776643 0.844693
O O15 0.189123 0.682564 0.896657
O O16 0.000000 0.406872 0.377859
O O17 0.000000 0.352816 0.018227
#
# Coordination Sequence:
#
# PCOD9375753 Si02
#       7
#     8   4   8   4   8   8   8
#     4  11  23  41  66  95 125 163 211 260 310 371
#     4  11  23  39  59  86 125 166 199 249 322 382
#     4  11  23  40  62  88 126 168 202 249 315 373
#     4  11  25  43  63  90 125 164 209 265 316 364
#     4  10  23  42  63  89 125 167 205 252 316 376
#     4  12  23  35  60  93 123 157 204 257 305 367
#     4  11  23  42  67  91 125 169 209 256 314 377
#
# _framework density 19.096530999999999
#
# number of rings (size 3 to 8) (size 9 to 14) (size 15 to 20)
#    0.000    1.000    2.500    4.500    0.000    8.333 
#    1.500    0.000    0.000    0.000    0.000    0.000 
#    0.000    0.000    0.000    0.000    0.000    0.000 
#
# Total GULP energy -134130.818345 kJ/mol
# GULP energy per Si atom -5588.784098 kJ/mol
# Density = 1.905307 g / cm^3
# Si number density = 19.096531 Si / 1000 Ang^3
#
#
#
# Elastic Constant Matrix: (Units=GPa)
#
#
# Indices 1 2 3 4 5 6 
#
# 1 117.7107 81.3190 37.5967 0.0000 0.0000 0.0000
# 2 81.3190 160.9752 34.0489 0.0000 0.0000 0.0000
# 3 37.5967 34.0489 61.7377 0.0000 0.0000 0.0000
# 4 0.0000 0.0000 0.0000 25.4079 0.0000 0.0000
# 5 0.0000 0.0000 0.0000 0.0000 27.9673 0.0000
# 6 0.0000 0.0000 0.0000 0.0000 0.0000 -18.9543
#
#
#
# Elastic Compliance Matrix: (Units=1/GPa)
#
#
# Indices 1 2 3 4 5 6 
#
# 1 0.014492 -0.006174 -0.005420 0.000000 0.000000 0.000000
# 2 -0.006174 0.009663 -0.001569 0.000000 0.000000 0.000000
# 3 -0.005420 -0.001569 0.020364 0.000000 0.000000 0.000000
# 4 0.000000 0.000000 0.000000 0.039358 0.000000 0.000000
# 5 0.000000 0.000000 0.000000 0.000000 0.035756 0.000000
# 6 0.000000 0.000000 0.000000 0.000000 0.000000 -0.052759
#
#
# Mechanical properties :
#
#
# Convention : Reuss Voigt Hill
#
# Bulk Modulus (GPa) = 54.97086 71.81696 63.39391
# Shear Modulus (GPa) = 50.36985 19.38145 34.87565
#
# Velocity S-wave (km/s) = 5.14137 3.18924 4.27814
# Velocity P-wave (km/s) = 8.00582 7.15895 7.59420
#
# Compressibility (1/GPa) = 0.01819146
#
# Stress axis : x y z
#
# Youngs Moduli (GPa) = 69.00303 103.48557 49.10706
#
# Poissons Ratio (x) = 0.63897 0.26616
# Poissons Ratio (y) = 0.42606 0.07706
# Poissons Ratio (z) = 0.37400 0.16239
#
# Static dielectric constant tensor:
#      x y z
#    x 1.646380 0.000000 0.000000 
#    y 0.000000 1.696150 0.000000 
#    z 0.000000 0.000000 1.653110 
# 
# From -- ./inp_files/16164.got.cif
#   From: 2010.05.17/outbox.cif.g08.bks.cpg/sg44_9_cif.got.tgz:16164.got - 2010.06.03 19:37:08.
