data_PCOD9375988
_publ_section_title
;
Structure prediction by ZEFSAII (Michael W. Deem and Ramdas Pophale) SiO2 
 PCOD9375988
Probable space group: I M M 2
;
_chemical_formula_sum "Si O2"
_cell_formula_units_Z 32
_cell_length_a 9.000000
_cell_length_b 30.000000
_cell_length_c 15.000000
_cell_angle_alpha 90.000000
_cell_angle_beta 90.000000
_cell_angle_gamma 90.000000
_cell_volume 4050.000000
_symmetry_space_group_name_H-M "I M M 2"
_symmetry_group_IT_number 44
_symmetry_cell_setting 'orthorhombic'
loop_
_space_group_symop_operation_xyz
x,y,z
-x,-y,z
-x,y,z
x,-y,z
1/2+x,1/2+y,1/2+z
1/2-x,1/2-y,1/2+z
1/2-x,1/2+y,1/2+z
1/2+x,1/2-y,1/2+z
loop_
_atom_site_type_symbol
_atom_site_label
_atom_site_fract_x
_atom_site_fract_y
_atom_site_fract_z
Si Si1 0.172660 0.319937 0.047680
Si Si2 0.821505 0.298442 0.752180
Si Si3 0.827709 0.368220 0.238847
Si Si4 0.178566 0.206647 0.859736
Si Si5 0.177296 0.131523 0.380575
Si Si6 0.327174 0.947534 0.458009
Si Si7 0.677802 0.224659 0.049724
Si Si8 0.174896 0.052129 0.651502
O O1 0.176130 0.345652 0.140927
O O2 0.264030 0.274901 0.058018
O O3 0.000000 0.310795 0.024403
O O4 0.250287 0.346883 0.968957
O O5 0.782112 0.252407 0.805260
O O6 0.738006 0.338989 0.799538
O O7 0.786536 0.296268 0.646695
O O8 0.000000 0.303546 0.761222
O O9 0.744209 0.335034 0.305523
O O10 0.748185 0.415422 0.223571
O O11 0.000000 0.373356 0.264718
O O12 0.000000 0.204569 0.863169
O O13 0.245001 0.206983 0.959627
O O14 0.239284 0.081432 0.385940
O O15 0.000000 0.132720 0.384463
O O16 0.500000 0.933470 0.462287
O O17 0.254064 0.941442 0.555662
O O18 0.321227 0.000000 0.438251
O O19 0.500000 0.223226 0.038361
O O20 0.000000 0.062238 0.641799
O O21 0.191234 0.000000 0.674669
#
# Coordination Sequence:
#
# PCOD9375988 Si02
#       8
#     8   8   8   8   8   8   8   8
#     4  11  21  32  49  73 105 141 177 216 258 306
#     4  10  22  37  53  74 104 139 176 216 260 310
#     4  11  22  34  52  76 105 143 181 217 257 312
#     4  11  22  36  54  76 105 139 176 220 264 309
#     4  12  23  33  52  77 105 140 178 218 259 310
#     4  10  20  34  52  74 104 140 175 213 260 314
#     4  11  22  37  54  74 102 138 180 222 261 306
#     4  10  20  33  51  76 106 138 174 217 263 312
#
# _framework density 7.9012349999999998
#
# number of rings (size 3 to 8) (size 9 to 14) (size 15 to 20)
#    0.000    1.250    3.750    3.375    0.000    4.000 
#    0.000    0.000    0.000    0.000    0.000    0.875 
#    0.000    1.000    0.000    0.000    0.000    0.000 
#
# Total GULP energy -178673.624022 kJ/mol
# GULP energy per Si atom -5583.550751 kJ/mol
# Density = 0.788325 g / cm^3
# Si number density = 7.901235 Si / 1000 Ang^3
#
#
#
# Elastic Constant Matrix: (Units=GPa)
#
#
# Indices 1 2 3 4 5 6 
#
# 1 91.8372 43.2962 55.3728 0.0000 0.0000 0.0000
# 2 43.2962 79.8149 42.1283 0.0000 0.0000 0.0000
# 3 55.3728 42.1283 97.8552 0.0001 0.0000 0.0000
# 4 0.0000 0.0000 0.0001 22.6569 0.0000 0.0000
# 5 0.0000 0.0000 0.0000 0.0000 27.1006 0.0000
# 6 0.0000 0.0000 0.0000 0.0000 0.0000 25.7138
#
#
#
# Elastic Compliance Matrix: (Units=1/GPa)
#
#
# Indices 1 2 3 4 5 6 
#
# 1 0.018394 -0.005803 -0.007910 0.000000 0.000000 0.000000
# 2 -0.005803 0.018044 -0.004485 0.000000 0.000000 0.000000
# 3 -0.007910 -0.004485 0.016626 0.000000 0.000000 0.000000
# 4 0.000000 0.000000 0.000000 0.044137 0.000000 0.000000
# 5 0.000000 0.000000 0.000000 0.000000 0.036900 0.000000
# 6 0.000000 0.000000 0.000000 0.000000 0.000000 0.038890
#
#
# Mechanical properties :
#
#
# Convention : Reuss Voigt Hill
#
# Bulk Modulus (GPa) = 59.99323 61.23353 60.61338
# Shear Modulus (GPa) = 23.26217 23.67492 23.46855
#
# Velocity S-wave (km/s) = 3.84090 3.87483 3.85790
# Velocity P-wave (km/s) = 7.59717 7.67154 7.63444
#
# Compressibility (1/GPa) = 0.01666855
#
# Stress axis : x y z
#
# Youngs Moduli (GPa) = 54.36558 55.42068 60.14652
#
# Poissons Ratio (x) = 0.32159 0.47578
# Poissons Ratio (y) = 0.31547 0.26973
# Poissons Ratio (z) = 0.43005 0.24854
#
# Static dielectric constant tensor:
#      x y z
#    x 1.530010 0.000000 0.000000 
#    y 0.000000 1.561550 0.000000 
#    z 0.000000 0.000000 1.517920 
# 
# From -- ./inp_files/17120.got.cif
#   From: 2010.05.17/outbox.ucp.g08.bks.cvg/sg44_9_cif.got.tgz:17120.got - 2010.06.11 16:32:36.
