data_PCOD9375770
_publ_section_title
;
Structure prediction by ZEFSAII (Michael W. Deem and Ramdas Pophale) SiO2 
 PCOD9375770
Probable space group: I M M 2
;
_chemical_formula_sum "Si O2"
_cell_formula_units_Z 26
_cell_length_a 7.625501
_cell_length_b 16.953420
_cell_length_c 10.003940
_cell_angle_alpha 90.000000
_cell_angle_beta 90.000000
_cell_angle_gamma 90.000000
_cell_volume 1293.292568
_symmetry_space_group_name_H-M "I M M 2"
_symmetry_group_IT_number 44
_symmetry_cell_setting 'orthorhombic'
loop_
_space_group_symop_operation_xyz
x,y,z
-x,-y,z
-x,y,z
x,-y,z
1/2+x,1/2+y,1/2+z
1/2-x,1/2-y,1/2+z
1/2-x,1/2+y,1/2+z
1/2+x,1/2-y,1/2+z
loop_
_atom_site_type_symbol
_atom_site_label
_atom_site_fract_x
_atom_site_fract_y
_atom_site_fract_z
Si Si1 0.709190 0.500000 0.827330
Si Si2 0.000000 0.500000 0.050781
Si Si3 0.299570 0.695920 0.433097
Si Si4 0.000000 0.411009 0.311804
Si Si5 0.209920 0.827573 0.233075
O O1 0.500000 0.500000 0.857186
O O2 0.828940 0.500000 0.958660
O O3 0.749832 0.420071 0.747054
O O4 0.000000 0.425732 0.152240
O O5 0.500000 0.666524 0.435113
O O6 0.169810 0.636296 0.358772
O O7 0.292292 0.777372 0.352120
O O8 0.239724 0.703535 0.586769
O O9 0.000000 0.500000 0.368827
O O10 0.000000 0.817846 0.246199
#
# Coordination Sequence:
#
# PCOD9375770 Si02
#       5
#     4   2   8   4   8
#     4  10  24  43  67  99 135 181 217 276 333 394
#     4  10  26  42  70  94 142 164 226 276 322 416
#     4  11  25  42  68  98 135 178 218 276 335 394
#     4  10  26  45  64  98 137 166 222 285 321 407
#     4  10  24  44  67  99 138 171 229 273 328 401
#
# _framework density 20.103724
#
# number of rings (size 3 to 8) (size 9 to 14) (size 15 to 20)
#    0.462    1.231    1.538    0.000   10.769    1.846 
#    0.000    0.000    0.000    0.000    0.000    0.000 
#    0.000    0.000    0.000    0.000    0.000    0.000 
#
# Total GULP energy -72617.470258 kJ/mol
# GULP energy per Si atom -5585.959251 kJ/mol
# Density = 2.005797 g / cm^3
# Si number density = 20.103724 Si / 1000 Ang^3
#
#
#
# Elastic Constant Matrix: (Units=GPa)
#
#
# Indices 1 2 3 4 5 6 
#
# 1 75.2252 29.9279 36.7840 0.0000 0.0000 0.0007
# 2 29.9279 120.2805 58.6119 0.0001 0.0000 0.0009
# 3 36.7840 58.6119 164.4514 0.0002 0.0000 0.0020
# 4 0.0000 0.0001 0.0002 42.4149 0.0000 0.0013
# 5 0.0000 0.0000 0.0000 0.0000 32.3302 -0.0004
# 6 0.0007 0.0009 0.0020 0.0013 -0.0004 -587.2569
#
#
#
# Elastic Compliance Matrix: (Units=1/GPa)
#
#
# Indices 1 2 3 4 5 6 
#
# 1 0.015588 -0.002638 -0.002547 0.000000 0.000000 0.000000
# 2 -0.002638 0.010508 -0.003155 0.000000 0.000000 0.000000
# 3 -0.002547 -0.003155 0.007775 0.000000 0.000000 0.000000
# 4 0.000000 0.000000 0.000000 0.023577 0.000000 0.000000
# 5 0.000000 0.000000 0.000000 0.000000 0.030931 0.000000
# 6 0.000000 0.000000 0.000000 0.000000 0.000000 -0.001703
#
#
# Mechanical properties :
#
#
# Convention : Reuss Voigt Hill
#
# Bulk Modulus (GPa) = 58.16647 67.84497 63.00572
# Shear Modulus (GPa) = 45.83607 -86.86015 -20.51204
#
# Velocity S-wave (km/s) = 4.78009 -6.58026 -3.19770
# Velocity P-wave (km/s) = 7.71114 4.89002 4.21600
#
# Compressibility (1/GPa) = 0.01719204
#
# Stress axis : x y z
#
# Youngs Moduli (GPa) = 64.15170 95.16906 128.61859
#
# Poissons Ratio (x) = 0.25102 0.32754
# Poissons Ratio (y) = 0.16921 0.40580
# Poissons Ratio (z) = 0.16337 0.30026
#
# Static dielectric constant tensor:
#      x y z
#    x 1.712500 0.000000 0.000000 
#    y 0.000000 1.710170 0.000000 
#    z 0.000000 0.000000 1.693520 
# 
# From -- ./inp_files/4026.got.cif
#   From: 2010.05.17/outbox.cif.g08.bks.cpg/sg44_3_cif.got.tgz:4026.got - 2010.06.03 19:37:08.
