data_PCOD9375489
_publ_section_title
;
Structure prediction by ZEFSAII (Michael W. Deem and Ramdas Pophale) SiO2 
 PCOD9375489
Probable space group: I M M 2
;
_chemical_formula_sum "Si O2"
_cell_formula_units_Z 56
_cell_length_a 8.744405
_cell_length_b 14.100522
_cell_length_c 20.045499
_cell_angle_alpha 90.000000
_cell_angle_beta 90.000000
_cell_angle_gamma 90.000000
_cell_volume 2471.623559
_symmetry_space_group_name_H-M "I M M 2"
_symmetry_group_IT_number 44
_symmetry_cell_setting 'orthorhombic'
loop_
_space_group_symop_operation_xyz
x,y,z
-x,-y,z
-x,y,z
x,-y,z
1/2+x,1/2+y,1/2+z
1/2-x,1/2-y,1/2+z
1/2-x,1/2+y,1/2+z
1/2+x,1/2-y,1/2+z
loop_
_atom_site_type_symbol
_atom_site_label
_atom_site_fract_x
_atom_site_fract_y
_atom_site_fract_z
Si Si1 0.314689 0.110692 0.438960
Si Si2 0.680438 0.703324 0.651794
Si Si3 0.176830 0.278615 0.529692
Si Si4 0.166225 0.113099 0.925094
Si Si5 0.317298 0.887796 0.284636
Si Si6 0.330855 0.110919 0.800634
Si Si7 0.317839 0.602825 0.155667
O O1 0.500000 0.115656 0.442097
O O2 0.243909 0.183273 0.492108
O O3 0.269498 0.132340 0.361373
O O4 0.272465 0.000000 0.451557
O O5 0.500000 0.709782 0.655770
O O6 0.737802 0.652468 0.585349
O O7 0.744228 0.670014 0.722904
O O8 0.753839 0.802368 0.623769
O O9 0.193259 0.349045 0.466376
O O10 0.000000 0.263852 0.547756
O O11 0.200962 0.146947 0.849806
O O12 0.000000 0.151144 0.947310
O O13 0.157438 0.000000 0.927378
O O14 0.500000 0.873980 0.281062
O O15 0.285668 0.000000 0.273357
O O16 0.500000 0.155272 0.803720
O O17 0.266446 0.109968 0.726407
O O18 0.347960 0.000000 0.817909
O O19 0.500000 0.607281 0.163766
O O20 0.279888 0.500000 0.125535
#
# Coordination Sequence:
#
# PCOD9375489 Si02
#       7
#     8   8   8   8   8   8   8
#     4   9  20  42  71  99 128 166 213 266 325 388
#     4  12  26  42  62  90 127 168 213 264 321 384
#     4  12  26  42  62  90 127 168 213 264 321 384
#     4  10  21  38  60  86 119 160 203 248 302 364
#     4   9  20  42  71  99 128 166 213 266 325 388
#     4   9  17  31  53  83 116 149 190 237 287 347
#     4  10  21  38  60  86 119 160 203 248 302 364
#
# _framework density 22.657171000000002
#
# number of rings (size 3 to 8) (size 9 to 14) (size 15 to 20)
#    0.000    1.857    0.000    4.714    2.000    5.714 
#    0.000    1.429    0.000    0.000    0.000    0.000 
#    0.000    0.000    0.000    0.000    0.000    0.000 
#
# Total GULP energy -156007.720316 kJ/mol
# GULP energy per Si atom -5571.704297 kJ/mol
# Density = 2.260560 g / cm^3
# Si number density = 22.657171 Si / 1000 Ang^3
#
#
#
# Elastic Constant Matrix: (Units=GPa)
#
#
# Indices 1 2 3 4 5 6 
#
# 1 101.6401 25.5174 47.3544 0.0000 0.0000 0.0000
# 2 25.5174 77.4606 18.5504 0.0000 0.0000 0.0000
# 3 47.3544 18.5504 112.6974 0.0000 0.0000 0.0000
# 4 0.0000 0.0000 0.0000 34.3570 0.0000 0.0000
# 5 0.0000 0.0000 0.0000 0.0000 33.2840 0.0000
# 6 0.0000 0.0000 0.0000 0.0000 0.0000 -36.4071
#
#
#
# Elastic Compliance Matrix: (Units=1/GPa)
#
#
# Indices 1 2 3 4 5 6 
#
# 1 0.012900 -0.003073 -0.004915 0.000000 0.000000 0.000000
# 2 -0.003073 0.014171 -0.001042 0.000000 0.000000 0.000000
# 3 -0.004915 -0.001042 0.011110 0.000000 0.000000 0.000000
# 4 0.000000 0.000000 0.000000 0.029106 0.000000 0.000000
# 5 0.000000 0.000000 0.000000 0.000000 0.030044 0.000000
# 6 0.000000 0.000000 0.000000 0.000000 0.000000 -0.027467
#
#
# Mechanical properties :
#
#
# Convention : Reuss Voigt Hill
#
# Bulk Modulus (GPa) = 49.69317 52.73805 51.21561
# Shear Modulus (GPa) = 52.83751 19.60518 36.22134
#
# Velocity S-wave (km/s) = 4.83436 2.94478 4.00268
# Velocity P-wave (km/s) = 7.28983 5.90673 6.63442
#
# Compressibility (1/GPa) = 0.02012349
#
# Stress axis : x y z
#
# Youngs Moduli (GPa) = 77.52098 70.56467 90.01029
#
# Poissons Ratio (x) = 0.21681 0.44236
# Poissons Ratio (y) = 0.23819 0.09376
# Poissons Ratio (z) = 0.38098 0.07350
#
# Static dielectric constant tensor:
#      x y z
#    x 1.773790 0.000000 0.000000 
#    y 0.000000 2.687810 0.000000 
#    z 0.000000 0.000000 2.105500 
# 
# From -- ./inp_files/23087.got.cif
#   From: 2010.05.17/outbox.cif.g08.bks.cpg/sg44_12_cif.got.tgz:23087.got - 2010.06.03 19:37:08.
