data_PCOD9375596
_publ_section_title
;
Structure prediction by ZEFSAII (Michael W. Deem and Ramdas Pophale) SiO2 
 PCOD9375596
Probable space group: I M M 2
;
_chemical_formula_sum "Si O2"
_cell_formula_units_Z 48
_cell_length_a 7.492005
_cell_length_b 9.132677
_cell_length_c 35.831432
_cell_angle_alpha 90.000000
_cell_angle_beta 90.000000
_cell_angle_gamma 90.000000
_cell_volume 2451.660453
_symmetry_space_group_name_H-M "I M M 2"
_symmetry_group_IT_number 44
_symmetry_cell_setting 'orthorhombic'
loop_
_space_group_symop_operation_xyz
x,y,z
-x,-y,z
-x,y,z
x,-y,z
1/2+x,1/2+y,1/2+z
1/2-x,1/2-y,1/2+z
1/2-x,1/2+y,1/2+z
1/2+x,1/2-y,1/2+z
loop_
_atom_site_type_symbol
_atom_site_label
_atom_site_fract_x
_atom_site_fract_y
_atom_site_fract_z
Si Si1 0.286550 0.326551 0.349070
Si Si2 0.500000 0.176438 0.716851
Si Si3 0.212887 0.832893 0.998778
Si Si4 0.500000 0.324605 0.797151
Si Si5 0.717465 0.167093 0.425559
Si Si6 0.785939 0.666956 0.581128
Si Si7 0.207531 0.824965 0.656014
O O1 0.500000 0.304798 0.344186
O O2 0.250815 0.500000 0.346770
O O3 0.171757 0.239709 0.318824
O O4 0.235694 0.265058 0.389888
O O5 0.500000 0.262403 0.755324
O O6 0.670882 0.213298 0.691224
O O7 0.500000 0.000000 0.723610
O O8 0.243897 0.770893 0.040209
O O9 0.000000 0.842413 0.994109
O O10 0.283798 0.000000 0.997753
O O11 0.280819 0.737656 0.964334
O O12 0.500000 0.500000 0.797950
O O13 0.500000 0.164323 0.426705
O O14 0.777858 0.000000 0.421050
O O15 0.717658 0.500000 0.581935
O O16 0.725178 0.753129 0.617597
O O17 0.000000 0.662655 0.583440
O O18 0.000000 0.783949 0.661910
O O19 0.215808 0.000000 0.651526
#
# Coordination Sequence:
#
# PCOD9375596 Si02
#       7
#     8   4   8   4   8   8   8
#     4  10  21  40  66  90 117 159 202 242 294 357
#     4  10  22  40  60  84 114 148 190 236 286 354
#     4   9  17  29  46  70 102 143 188 233 279 336
#     4  12  26  42  62  94 128 154 192 248 302 360
#     4   9  17  31  52  79 111 147 189 238 290 343
#     4   9  18  32  49  72 104 141 183 230 281 337
#     4   9  19  36  57  80 108 144 184 230 284 341
#
# _framework density 19.578567
#
# number of rings (size 3 to 8) (size 9 to 14) (size 15 to 20)
#    0.000    2.500    0.000    1.750    1.167    5.000 
#    1.500    1.667    0.000    0.000    0.000    0.000 
#    0.000    0.000    0.000    0.000    0.000    0.000 
#
# Total GULP energy -133971.743608 kJ/mol
# GULP energy per Si atom -5582.155984 kJ/mol
# Density = 1.953401 g / cm^3
# Si number density = 19.578567 Si / 1000 Ang^3
#
#
#
# Elastic Constant Matrix: (Units=GPa)
#
#
# Indices 1 2 3 4 5 6 
#
# 1 78.4570 43.0940 57.9028 0.0000 0.0000 0.0000
# 2 43.0940 104.8268 97.0837 0.0000 0.0000 0.0000
# 3 57.9028 97.0837 208.5241 0.0000 0.0000 0.0000
# 4 0.0000 0.0000 0.0000 36.9110 0.0000 0.0000
# 5 0.0000 0.0000 0.0000 0.0000 36.5016 0.0000
# 6 0.0000 0.0000 0.0000 0.0000 0.0000 13.8780
#
#
#
# Elastic Compliance Matrix: (Units=1/GPa)
#
#
# Indices 1 2 3 4 5 6 
#
# 1 0.017238 -0.004665 -0.002615 0.000000 0.000000 0.000000
# 2 -0.004665 0.018033 -0.007101 0.000000 0.000000 0.000000
# 3 -0.002615 -0.007101 0.008828 0.000000 0.000000 0.000000
# 4 0.000000 0.000000 0.000000 0.027092 0.000000 0.000000
# 5 0.000000 0.000000 0.000000 0.000000 0.027396 0.000000
# 6 0.000000 0.000000 0.000000 0.000000 0.000000 0.072057
#
#
# Mechanical properties :
#
#
# Convention : Reuss Voigt Hill
#
# Bulk Modulus (GPa) = 65.19582 87.55210 76.37396
# Shear Modulus (GPa) = 24.44790 30.37328 27.41059
#
# Velocity S-wave (km/s) = 3.53754 3.94300 3.74576
# Velocity P-wave (km/s) = 7.07513 8.09599 7.60271
#
# Compressibility (1/GPa) = 0.01533841
#
# Stress axis : x y z
#
# Youngs Moduli (GPa) = 58.01198 55.45307 113.28233
#
# Poissons Ratio (x) = 0.25868 0.29621
# Poissons Ratio (y) = 0.27061 0.80436
# Poissons Ratio (z) = 0.15169 0.39375
#
# Static dielectric constant tensor:
#      x y z
#    x 1.722590 0.000000 0.000000 
#    y 0.000000 1.668560 0.000000 
#    z 0.000000 0.000000 1.656320 
# 
# From -- ./inp_files/26906.got.cif
#   From: 2010.05.17/outbox.cif.g08.bks.cpg/sg44_14_cif.got.tgz:26906.got - 2010.06.03 19:37:08.
