data_PCOD9375527
_publ_section_title
;
Structure prediction by ZEFSAII (Michael W. Deem and Ramdas Pophale) SiO2 
 PCOD9375527
Probable space group: I M M 2
;
_chemical_formula_sum "Si O2"
_cell_formula_units_Z 48
_cell_length_a 8.695632
_cell_length_b 32.941905
_cell_length_c 7.658115
_cell_angle_alpha 90.000000
_cell_angle_beta 90.000000
_cell_angle_gamma 90.000000
_cell_volume 2193.672274
_symmetry_space_group_name_H-M "I M M 2"
_symmetry_group_IT_number 44
_symmetry_cell_setting 'orthorhombic'
loop_
_space_group_symop_operation_xyz
x,y,z
-x,-y,z
-x,y,z
x,-y,z
1/2+x,1/2+y,1/2+z
1/2-x,1/2-y,1/2+z
1/2-x,1/2+y,1/2+z
1/2+x,1/2-y,1/2+z
loop_
_atom_site_type_symbol
_atom_site_label
_atom_site_fract_x
_atom_site_fract_y
_atom_site_fract_z
Si Si1 0.179505 0.308861 0.405520
Si Si2 0.169053 0.415277 0.654922
Si Si3 0.664739 0.156791 0.424683
Si Si4 0.500000 0.545269 0.667455
Si Si5 0.256256 0.110286 0.769401
Si Si6 0.324582 0.278146 0.747790
Si Si7 0.500000 0.546484 0.245279
O O1 0.290567 0.346003 0.353664
O O2 0.211935 0.293473 0.598708
O O3 0.201090 0.268659 0.291381
O O4 0.000000 0.322384 0.388717
O O5 0.172032 0.372713 0.757483
O O6 0.332928 0.435233 0.708330
O O7 0.170187 0.409403 0.444354
O O8 0.000000 0.434192 0.698945
O O9 0.500000 0.178412 0.428623
O O10 0.669606 0.127655 0.592830
O O11 0.792905 0.191252 0.408666
O O12 0.500000 0.500000 0.739022
O O13 0.500000 0.544176 0.456246
O O14 0.143221 0.075241 0.701797
O O15 0.500000 0.282958 0.689704
O O16 0.500000 0.500000 0.180415
#
# Coordination Sequence:
#
# PCOD9375527 Si02
#       7
#     8   8   8   4   8   8   4
#     4  11  23  41  60  92 133 177 223 273 332 388
#     4  10  21  38  63  92 123 169 222 268 332 408
#     4  11  23  40  62  92 129 175 218 272 328 391
#     4   9  20  39  65  95 130 167 211 280 347 405
#     4  11  22  39  68  92 126 176 214 271 333 411
#     4  11  25  39  62  93 134 178 227 279 321 391
#     4   9  22  43  67 103 134 167 221 286 347 411
#
# _framework density 21.881118000000001
#
# number of rings (size 3 to 8) (size 9 to 14) (size 15 to 20)
#    0.000    1.500    1.667    3.000    3.500    3.000 
#    0.000    1.667    0.000    5.000    0.000    0.000 
#    0.000    0.000    0.000    0.000    0.000    0.000 
#
# Total GULP energy -133643.244760 kJ/mol
# GULP energy per Si atom -5568.468532 kJ/mol
# Density = 2.183132 g / cm^3
# Si number density = 21.881118 Si / 1000 Ang^3
#
#
#
# Elastic Constant Matrix: (Units=GPa)
#
#
# Indices 1 2 3 4 5 6 
#
# 1 106.8969 69.9215 9.6411 -0.0003 0.0012 -0.0008
# 2 69.9215 125.4050 4.8138 0.0015 0.0021 -0.0011
# 3 9.6411 4.8138 67.9916 0.0002 0.0024 -0.0009
# 4 -0.0003 0.0015 0.0002 13.8714 0.0004 -0.0007
# 5 0.0012 0.0021 0.0024 0.0004 17.1261 -0.0007
# 6 -0.0008 -0.0011 -0.0009 -0.0007 -0.0007 21.8990
#
#
#
# Elastic Compliance Matrix: (Units=1/GPa)
#
#
# Indices 1 2 3 4 5 6 
#
# 1 0.014882 -0.008239 -0.001527 0.000001 0.000000 0.000000
# 2 -0.008239 0.012557 0.000279 -0.000002 -0.000001 0.000000
# 3 -0.001527 0.000279 0.014904 0.000000 -0.000002 0.000001
# 4 0.000001 -0.000002 0.000000 0.072091 -0.000001 0.000002
# 5 0.000000 -0.000001 -0.000002 -0.000001 0.058391 0.000002
# 6 0.000000 0.000000 0.000001 0.000002 0.000002 0.045664
#
#
# Mechanical properties :
#
#
# Convention : Reuss Voigt Hill
#
# Bulk Modulus (GPa) = 42.78966 52.11627 47.45296
# Shear Modulus (GPa) = 20.38723 24.97377 22.68050
#
# Velocity S-wave (km/s) = 3.05573 3.38204 3.22302
# Velocity P-wave (km/s) = 5.66109 6.25464 5.96525
#
# Compressibility (1/GPa) = 0.02337013
#
# Stress axis : x y z
#
# Youngs Moduli (GPa) = 67.19737 79.63609 67.09411
#
# Poissons Ratio (x) = 0.65611 0.10244
# Poissons Ratio (y) = 0.55363 -0.01873
# Poissons Ratio (z) = 0.10260 -0.02223
#
# Static dielectric constant tensor:
#      x y z
#    x 1.829650 0.000000 -0.000010 
#    y 0.000000 1.777350 0.000000 
#    z -0.000010 0.000000 1.875430 
# 
# From -- ./inp_files/4960.got.cif
#   From: 2010.05.17/outbox.cif.g08.bks.cpg/sg44_3_cif.got.tgz:4960.got - 2010.06.03 19:37:08.
