data_PCOD9375969
_publ_section_title
;
Structure prediction by ZEFSAII (Michael W. Deem and Ramdas Pophale) SiO2 
 PCOD9375969
Probable space group: I M M 2
;
_chemical_formula_sum "Si O2"
_cell_formula_units_Z 32
_cell_length_a 9.000000
_cell_length_b 30.000000
_cell_length_c 15.000000
_cell_angle_alpha 90.000000
_cell_angle_beta 90.000000
_cell_angle_gamma 90.000000
_cell_volume 4050.000000
_symmetry_space_group_name_H-M "I M M 2"
_symmetry_group_IT_number 44
_symmetry_cell_setting 'orthorhombic'
loop_
_space_group_symop_operation_xyz
x,y,z
-x,-y,z
-x,y,z
x,-y,z
1/2+x,1/2+y,1/2+z
1/2-x,1/2-y,1/2+z
1/2-x,1/2+y,1/2+z
1/2+x,1/2-y,1/2+z
loop_
_atom_site_type_symbol
_atom_site_label
_atom_site_fract_x
_atom_site_fract_y
_atom_site_fract_z
Si Si1 0.173053 0.052643 0.667600
Si Si2 0.677248 0.275480 0.761350
Si Si3 0.322725 0.788252 0.071390
Si Si4 0.671816 0.362036 0.452556
Si Si5 0.181215 0.950109 0.873246
Si Si6 0.679053 0.698203 0.960939
Si Si7 0.828535 0.181124 0.757433
Si Si8 0.823838 0.368518 0.092127
O O1 0.223986 0.059161 0.770453
O O2 0.272567 0.080537 0.600495
O O3 0.000000 0.067368 0.662096
O O4 0.177161 0.000000 0.651166
O O5 0.500000 0.277976 0.751946
O O6 0.752239 0.291345 0.669648
O O7 0.717860 0.297459 0.856410
O O8 0.731521 0.224879 0.770298
O O9 0.500000 0.787901 0.078572
O O10 0.267110 0.829480 0.012669
O O11 0.279190 0.742730 0.018015
O O12 0.500000 0.361710 0.483697
O O13 0.729559 0.412340 0.441732
O O14 0.670797 0.344601 0.350729
O O15 0.000000 0.949182 0.872337
O O16 0.228640 0.000000 0.896130
O O17 0.500000 0.693892 0.967575
O O18 0.759904 0.656958 0.006903
O O19 0.756499 0.153841 0.677348
O O20 0.000000 0.192295 0.734669
O O21 0.000000 0.363598 0.097823
#
# Coordination Sequence:
#
# PCOD9375969 Si02
#       8
#     8   8   8   8   8   8   8   8
#     4   9  17  32  53  74 101 137 172 207 252 303
#     4  11  22  37  53  72  98 131 173 217 253 291
#     4  11  22  35  51  73 102 135 168 206 253 306
#     4  10  19  31  50  74 100 135 174 210 246 294
#     4   8  14  27  48  73  99 130 169 208 247 294
#     4  10  22  37  52  71  99 133 172 211 252 302
#     4  11  20  31  49  72 102 137 173 209 248 297
#     4  12  23  32  49  75 105 139 174 210 251 301
#
# _framework density 7.9012349999999998
#
# number of rings (size 3 to 8) (size 9 to 14) (size 15 to 20)
#    0.000    1.750    3.750    3.000    0.000    2.250 
#    0.000    0.000    0.000    0.375    0.000    0.875 
#    0.000    3.000    0.000    0.000    0.000    0.000 
#
# Total GULP energy -178465.776591 kJ/mol
# GULP energy per Si atom -5577.055518 kJ/mol
# Density = 0.788325 g / cm^3
# Si number density = 7.901235 Si / 1000 Ang^3
#
#
#
# Elastic Constant Matrix: (Units=GPa)
#
#
# Indices 1 2 3 4 5 6 
#
# 1 38.5967 19.5466 37.9487 0.0000 0.0000 0.0000
# 2 19.5466 75.3459 30.8037 0.0000 0.0000 0.0000
# 3 37.9487 30.8037 84.4664 0.0002 0.0001 0.0000
# 4 0.0000 0.0000 0.0002 20.7950 0.0000 0.0000
# 5 0.0000 0.0000 0.0001 0.0000 23.1390 0.0000
# 6 0.0000 0.0000 0.0000 0.0000 0.0000 20.2459
#
#
#
# Elastic Compliance Matrix: (Units=1/GPa)
#
#
# Indices 1 2 3 4 5 6 
#
# 1 0.047530 -0.004231 -0.019811 0.000000 0.000000 0.000000
# 2 -0.004231 0.015974 -0.003925 0.000000 0.000000 0.000000
# 3 -0.019811 -0.003925 0.022171 0.000000 0.000000 0.000000
# 4 0.000000 0.000000 0.000000 0.048088 0.000000 0.000000
# 5 0.000000 0.000000 0.000000 0.000000 0.043217 0.000000
# 6 0.000000 0.000000 0.000000 0.000000 0.000000 0.049393
#
#
# Mechanical properties :
#
#
# Convention : Reuss Voigt Hill
#
# Bulk Modulus (GPa) = 33.62288 41.66745 37.64516
# Shear Modulus (GPa) = 17.11029 20.17665 18.64347
#
# Velocity S-wave (km/s) = 3.29410 3.57712 3.43852
# Velocity P-wave (km/s) = 5.98258 6.59439 6.29592
#
# Compressibility (1/GPa) = 0.02974166
#
# Stress axis : x y z
#
# Youngs Moduli (GPa) = 21.03919 62.60053 45.10399
#
# Poissons Ratio (x) = 0.26487 0.89356
# Poissons Ratio (y) = 0.08902 0.17702
# Poissons Ratio (z) = 0.41681 0.24569
#
# Static dielectric constant tensor:
#      x y z
#    x 1.523710 0.000000 0.000000 
#    y 0.000000 1.570060 0.000000 
#    z 0.000000 0.000000 1.532530 
# 
# From -- ./inp_files/17097.got.cif
#   From: 2010.05.17/outbox.ucp.g08.bks.cvg/sg44_9_cif.got.tgz:17097.got - 2010.06.11 16:32:36.
