data_PCOD9375440
_publ_section_title
;
Structure prediction by ZEFSAII (Michael W. Deem and Ramdas Pophale) SiO2 
 PCOD9375440
Probable space group: I M M 2
;
_chemical_formula_sum "Si O2"
_cell_formula_units_Z 40
_cell_length_a 7.864836
_cell_length_b 19.284419
_cell_length_c 10.977253
_cell_angle_alpha 90.000000
_cell_angle_beta 90.000000
_cell_angle_gamma 90.000000
_cell_volume 1664.906711
_symmetry_space_group_name_H-M "I M M 2"
_symmetry_group_IT_number 44
_symmetry_cell_setting 'orthorhombic'
loop_
_space_group_symop_operation_xyz
x,y,z
-x,-y,z
-x,y,z
x,-y,z
1/2+x,1/2+y,1/2+z
1/2-x,1/2-y,1/2+z
1/2-x,1/2+y,1/2+z
1/2+x,1/2-y,1/2+z
loop_
_atom_site_type_symbol
_atom_site_label
_atom_site_fract_x
_atom_site_fract_y
_atom_site_fract_z
Si Si1 0.800497 0.208820 0.045680
Si Si2 0.208809 0.079124 0.911087
Si Si3 0.305768 0.416067 0.144107
Si Si4 0.193869 0.777420 0.300864
Si Si5 0.696610 0.920639 0.375532
O O1 0.728808 0.241928 0.169167
O O2 0.000000 0.201032 0.073249
O O3 0.731088 0.132989 0.011803
O O4 0.786168 0.251112 0.921247
O O5 0.262814 0.105244 0.776354
O O6 0.000000 0.079751 0.907900
O O7 0.262284 0.000000 0.931079
O O8 0.500000 0.391840 0.127794
O O9 0.312049 0.500000 0.155278
O O10 0.207196 0.402750 0.020014
O O11 0.202436 0.861225 0.306279
O O12 0.000000 0.753678 0.313355
O O13 0.500000 0.918163 0.338635
O O14 0.759428 0.000000 0.360990
#
# Coordination Sequence:
#
# PCOD9375440 Si02
#       5
#     8   8   8   8   8
#     4  10  23  42  63  90 123 161 205 254 309 367
#     4   8  15  31  58  89 118 151 195 247 301 357
#     4   8  14  27  51  85 119 152 193 237 289 354
#     4  11  25  42  62  89 122 164 209 254 308 367
#     4  10  21  37  59  88 123 160 200 251 307 362
#
# _framework density 24.025369999999999
#
# number of rings (size 3 to 8) (size 9 to 14) (size 15 to 20)
#    0.000    2.600    0.000    2.400    2.800    3.600 
#    0.000    2.000    0.000    0.600    0.000    0.000 
#    0.000    0.000    0.000    0.000    0.000    0.000 
#
# Total GULP energy -111713.800395 kJ/mol
# GULP energy per Si atom -5585.690020 kJ/mol
# Density = 2.397069 g / cm^3
# Si number density = 24.025370 Si / 1000 Ang^3
#
#
#
# Elastic Constant Matrix: (Units=GPa)
#
#
# Indices 1 2 3 4 5 6 
#
# 1 43.5480 1.4963 3.0047 0.0000 0.0000 0.0000
# 2 1.4963 88.6621 36.8483 0.0001 0.0000 0.0000
# 3 3.0047 36.8483 138.0975 0.0001 0.0000 -0.0002
# 4 0.0000 0.0001 0.0001 40.7959 0.0000 -0.0001
# 5 0.0000 0.0000 0.0000 0.0000 18.6571 0.0000
# 6 0.0000 0.0000 -0.0002 -0.0001 0.0000 5.4704
#
#
#
# Elastic Compliance Matrix: (Units=1/GPa)
#
#
# Indices 1 2 3 4 5 6 
#
# 1 0.023001 -0.000203 -0.000446 0.000000 0.000000 0.000000
# 2 -0.000203 0.012687 -0.003381 0.000000 0.000000 0.000000
# 3 -0.000446 -0.003381 0.008153 0.000000 0.000000 0.000000
# 4 0.000000 0.000000 0.000000 0.024512 0.000000 0.000000
# 5 0.000000 0.000000 0.000000 0.000000 0.053599 0.000000
# 6 0.000000 0.000000 0.000000 0.000000 0.000000 0.182802
#
#
# Mechanical properties :
#
#
# Convention : Reuss Voigt Hill
#
# Bulk Modulus (GPa) = 27.94744 39.22292 33.58518
# Shear Modulus (GPa) = 15.39683 28.24856 21.82269
#
# Velocity S-wave (km/s) = 2.53426 3.43269 3.01710
# Velocity P-wave (km/s) = 4.49678 5.66323 5.11337
#
# Compressibility (1/GPa) = 0.03578145
#
# Stress axis : x y z
#
# Youngs Moduli (GPa) = 43.47646 78.81881 122.65273
#
# Poissons Ratio (x) = 0.01597 0.05475
# Poissons Ratio (y) = 0.00881 0.41468
# Poissons Ratio (z) = 0.01941 0.26648
#
# Static dielectric constant tensor:
#      x y z
#    x 1.864480 0.000000 0.000000 
#    y 0.000000 1.962190 0.000000 
#    z 0.000000 0.000000 1.957280 
# 
# From -- ./inp_files/10994.got.cif
#   From: 2010.05.17/outbox.cif.g08.bks.cpg/sg44_6_cif.got.tgz:10994.got - 2010.06.03 19:37:08.
