data_PCOD9375557
_publ_section_title
;
Structure prediction by ZEFSAII (Michael W. Deem and Ramdas Pophale) SiO2 
 PCOD9375557
Probable space group: I M M 2
;
_chemical_formula_sum "Si O2"
_cell_formula_units_Z 48
_cell_length_a 8.700076
_cell_length_b 14.746441
_cell_length_c 20.757088
_cell_angle_alpha 90.000000
_cell_angle_beta 90.000000
_cell_angle_gamma 90.000000
_cell_volume 2663.033873
_symmetry_space_group_name_H-M "I M M 2"
_symmetry_group_IT_number 44
_symmetry_cell_setting 'orthorhombic'
loop_
_space_group_symop_operation_xyz
x,y,z
-x,-y,z
-x,y,z
x,-y,z
1/2+x,1/2+y,1/2+z
1/2-x,1/2-y,1/2+z
1/2-x,1/2+y,1/2+z
1/2+x,1/2-y,1/2+z
loop_
_atom_site_type_symbol
_atom_site_label
_atom_site_fract_x
_atom_site_fract_y
_atom_site_fract_z
Si Si1 0.316494 0.500000 0.288510
Si Si2 0.684118 0.192584 0.752501
Si Si3 0.185122 0.000000 0.333100
Si Si4 0.816428 0.691509 0.871163
Si Si5 0.317100 0.808756 0.987251
Si Si6 0.683631 0.500000 0.442375
Si Si7 0.314684 0.693127 0.625628
Si Si8 0.813462 0.000000 0.182800
O O1 0.500000 0.500000 0.279897
O O2 0.244774 0.590672 0.258902
O O3 0.286376 0.500000 0.365556
O O4 0.500000 0.194704 0.760778
O O5 0.758621 0.251837 0.809318
O O6 0.720286 0.238700 0.684049
O O7 0.249316 0.090744 0.365137
O O8 0.233167 0.000000 0.257623
O O9 0.000000 0.000000 0.335266
O O10 0.755346 0.742436 0.934265
O O11 0.000000 0.689749 0.871623
O O12 0.500000 0.807944 0.981359
O O13 0.254239 0.909605 0.972625
O O14 0.264585 0.782628 0.058850
O O15 0.500000 0.500000 0.452439
O O16 0.500000 0.691808 0.616871
O O17 0.264867 0.592136 0.647769
O O18 0.000000 0.000000 0.182742
#
# Coordination Sequence:
#
# PCOD9375557 Si02
#       8
#     4   8   4   8   8   4   8   4
#     4  11  23  38  61  92 125 161 201 255 308 358
#     4  11  22  39  65  92 121 161 206 252 302 364
#     4  11  21  40  65  94 124 158 204 254 301 356
#     4  12  24  40  62  91 125 163 203 251 305 362
#     4  12  25  40  61  91 124 164 208 255 304 362
#     4  11  22  38  61  91 126 163 198 251 314 367
#     4  10  21  39  62  90 125 164 200 246 309 369
#     4   9  17  34  61  91 123 158 193 238 303 367
#
# _framework density 18.024556
#
# number of rings (size 3 to 8) (size 9 to 14) (size 15 to 20)
#    0.000    1.000    3.333    4.750    0.000    2.667 
#    0.000    0.833    0.000    3.000    0.000    0.000 
#    0.000    0.000    0.000    0.000    0.000    0.000 
#
# Total GULP energy -134240.335603 kJ/mol
# GULP energy per Si atom -5593.347317 kJ/mol
# Density = 1.798353 g / cm^3
# Si number density = 18.024556 Si / 1000 Ang^3
#
#
#
# Elastic Constant Matrix: (Units=GPa)
#
#
# Indices 1 2 3 4 5 6 
#
# 1 110.8618 65.7940 79.8499 0.0000 0.0000 0.0000
# 2 65.7940 159.6859 82.3343 0.0000 0.0000 0.0000
# 3 79.8499 82.3343 150.1786 0.0000 0.0000 0.0000
# 4 0.0000 0.0000 0.0000 8.1391 0.0000 0.0000
# 5 0.0000 0.0000 0.0000 0.0000 31.2517 0.0000
# 6 0.0000 0.0000 0.0000 0.0000 0.0000 36.0200
#
#
#
# Elastic Compliance Matrix: (Units=1/GPa)
#
#
# Indices 1 2 3 4 5 6 
#
# 1 0.015583 -0.002995 -0.006643 0.000000 0.000000 0.000000
# 2 -0.002995 0.009306 -0.003509 0.000000 0.000000 0.000000
# 3 -0.006643 -0.003509 0.012115 0.000000 0.000000 0.000000
# 4 0.000000 0.000000 0.000000 0.122864 0.000000 0.000000
# 5 0.000000 0.000000 0.000000 0.000000 0.031998 0.000000
# 6 0.000000 0.000000 0.000000 0.000000 0.000000 0.027762
#
#
# Mechanical properties :
#
#
# Convention : Reuss Voigt Hill
#
# Bulk Modulus (GPa) = 93.38831 97.40918 95.39874
# Shear Modulus (GPa) = 20.04067 27.93203 23.98635
#
# Velocity S-wave (km/s) = 3.33806 3.94085 3.65192
# Velocity P-wave (km/s) = 8.17197 8.65256 8.41570
#
# Compressibility (1/GPa) = 0.01070798
#
# Stress axis : x y z
#
# Youngs Moduli (GPa) = 64.17375 107.46044 82.54293
#
# Poissons Ratio (x) = 0.32186 0.54835
# Poissons Ratio (y) = 0.19221 0.28967
# Poissons Ratio (z) = 0.42632 0.37711
#
# Static dielectric constant tensor:
#      x y z
#    x 1.603670 0.000000 0.000000 
#    y 0.000000 1.592850 0.000000 
#    z 0.000000 0.000000 1.597700 
# 
# From -- ./inp_files/20392.got.cif
#   From: 2010.05.17/outbox.cif.g08.bks.cpg/sg44_11_cif.got.tgz:20392.got - 2010.06.03 19:37:08.
