data_PCOD9375956
_publ_section_title
;
Structure prediction by ZEFSAII (Michael W. Deem and Ramdas Pophale) SiO2 
 PCOD9375956
Probable space group: I M M 2
;
_chemical_formula_sum "Si O2"
_cell_formula_units_Z 32
_cell_length_a 21.000000
_cell_length_b 9.000000
_cell_length_c 21.000000
_cell_angle_alpha 90.000000
_cell_angle_beta 90.000000
_cell_angle_gamma 90.000000
_cell_volume 3969.000000
_symmetry_space_group_name_H-M "I M M 2"
_symmetry_group_IT_number 44
_symmetry_cell_setting 'orthorhombic'
loop_
_space_group_symop_operation_xyz
x,y,z
-x,-y,z
-x,y,z
x,-y,z
1/2+x,1/2+y,1/2+z
1/2-x,1/2-y,1/2+z
1/2-x,1/2+y,1/2+z
1/2+x,1/2-y,1/2+z
loop_
_atom_site_type_symbol
_atom_site_label
_atom_site_fract_x
_atom_site_fract_y
_atom_site_fract_z
Si Si1 0.185342 0.179664 0.388630
Si Si2 0.193915 0.179617 0.962990
Si Si3 0.230785 0.821587 0.248260
Si Si4 0.370747 0.320906 0.245253
Si Si5 0.265516 0.321403 0.604569
Si Si6 0.625561 0.321478 0.101917
Si Si7 0.428566 0.319381 0.379882
Si Si8 0.074404 0.322161 0.473461
O O1 0.246858 0.243122 0.426794
O O2 0.192690 0.219861 0.313058
O O3 0.123229 0.247692 0.423306
O O4 0.184079 0.000000 0.393718
O O5 0.128267 0.225143 0.927813
O O6 0.200738 0.000000 0.956060
O O7 0.196334 0.212057 0.039121
O O8 0.300663 0.748914 0.252379
O O9 0.206904 0.785740 0.175668
O O10 0.237141 0.000000 0.250596
O O11 0.364722 0.500000 0.246764
O O12 0.396467 0.283444 0.174357
O O13 0.411262 0.275832 0.307123
O O14 0.253781 0.500000 0.604029
O O15 0.198533 0.235491 0.598945
O O16 0.622835 0.500000 0.094459
O O17 0.589177 0.244262 0.043647
O O18 0.500000 0.268398 0.396566
O O19 0.429271 0.500000 0.380999
O O20 0.085307 0.500000 0.474579
O O21 0.000000 0.295119 0.457955
#
# Coordination Sequence:
#
# PCOD9375956 Si02
#       8
#     8   8   8   8   8   8   8   8
#     4  11  21  33  53  77 101 130 166 215 263 302
#     4  10  18  30  52  75  98 133 172 211 249 296
#     4   9  18  31  48  73 103 131 161 205 256 303
#     4   9  17  29  47  72 102 136 172 206 242 292
#     4   9  17  30  49  73 102 134 167 203 250 304
#     4  10  19  30  48  75 103 133 169 208 249 295
#     4   9  17  29  46  71 102 135 171 209 246 286
#     4  11  24  39  53  71  99 136 174 212 257 312
#
# _framework density 8.0624839999999995
#
# number of rings (size 3 to 8) (size 9 to 14) (size 15 to 20)
#    0.000    2.250    2.500    1.125    0.000    2.500 
#    0.000    1.250    0.000    2.250    0.000    3.500 
#    0.000    0.000    0.000    0.000    0.000    0.000 
#
# Total GULP energy -178313.758233 kJ/mol
# GULP energy per Si atom -5572.304945 kJ/mol
# Density = 0.804413 g / cm^3
# Si number density = 8.062484 Si / 1000 Ang^3
#
#
#
# Elastic Constant Matrix: (Units=GPa)
#
#
# Indices 1 2 3 4 5 6 
#
# 1 107.3699 29.4478 74.6064 0.0000 0.0000 0.0000
# 2 29.4478 36.5184 35.5567 0.0000 0.0000 0.0000
# 3 74.6064 35.5567 162.1737 0.0000 0.0000 0.0000
# 4 0.0000 0.0000 0.0000 24.7426 0.0000 0.0000
# 5 0.0000 0.0000 0.0000 0.0000 26.4010 0.0000
# 6 0.0000 0.0000 0.0000 0.0000 0.0000 15.3366
#
#
#
# Elastic Compliance Matrix: (Units=1/GPa)
#
#
# Indices 1 2 3 4 5 6 
#
# 1 0.014907 -0.006794 -0.005368 0.000000 0.000000 0.000000
# 2 -0.006794 0.037912 -0.005187 0.000000 0.000000 0.000000
# 3 -0.005368 -0.005187 0.009773 0.000000 0.000000 0.000000
# 4 0.000000 0.000000 0.000000 0.040416 0.000000 0.000000
# 5 0.000000 0.000000 0.000000 0.000000 0.037877 0.000000
# 6 0.000000 0.000000 0.000000 0.000000 0.000000 0.065204
#
#
# Mechanical properties :
#
#
# Convention : Reuss Voigt Hill
#
# Bulk Modulus (GPa) = 35.84960 65.03154 50.44057
# Shear Modulus (GPa) = 19.99315 24.39277 22.19296
#
# Velocity S-wave (km/s) = 3.52502 3.89361 3.71389
# Velocity P-wave (km/s) = 6.23284 7.78658 7.05263
#
# Compressibility (1/GPa) = 0.02789432
#
# Stress axis : x y z
#
# Youngs Moduli (GPa) = 67.08211 26.37679 102.32188
#
# Poissons Ratio (x) = 0.17920 0.54930
# Poissons Ratio (y) = 0.45575 0.53072
# Poissons Ratio (z) = 0.36012 0.13681
#
# Static dielectric constant tensor:
#      x y z
#    x 1.520070 0.000000 0.000000 
#    y 0.000000 1.535380 0.000000 
#    z 0.000000 0.000000 1.575320 
# 
# From -- ./inp_files/23264.got.cif
#   From: 2010.05.17/outbox.ucp.g08.bks.cvg/sg44_12_cif.got.tgz:23264.got - 2010.06.11 16:32:36.
