data_PCOD9375979
_publ_section_title
;
Structure prediction by ZEFSAII (Michael W. Deem and Ramdas Pophale) SiO2 
 PCOD9375979
Probable space group: I M M 2
;
_chemical_formula_sum "Si O2"
_cell_formula_units_Z 28
_cell_length_a 9.000000
_cell_length_b 21.000000
_cell_length_c 15.000000
_cell_angle_alpha 90.000000
_cell_angle_beta 90.000000
_cell_angle_gamma 90.000000
_cell_volume 2835.000000
_symmetry_space_group_name_H-M "I M M 2"
_symmetry_group_IT_number 44
_symmetry_cell_setting 'orthorhombic'
loop_
_space_group_symop_operation_xyz
x,y,z
-x,-y,z
-x,y,z
x,-y,z
1/2+x,1/2+y,1/2+z
1/2-x,1/2-y,1/2+z
1/2-x,1/2+y,1/2+z
1/2+x,1/2-y,1/2+z
loop_
_atom_site_type_symbol
_atom_site_label
_atom_site_fract_x
_atom_site_fract_y
_atom_site_fract_z
Si Si1 0.832742 0.575818 0.224300
Si Si2 0.323506 0.693728 0.298138
Si Si3 0.178733 0.073841 0.180313
Si Si4 0.657104 0.573113 0.064905
Si Si5 0.323979 0.238776 0.469136
Si Si6 0.170298 0.877419 0.375946
Si Si7 0.821271 0.290517 0.643069
O O1 0.814745 0.500000 0.240109
O O2 0.723579 0.622843 0.273884
O O3 0.798497 0.593723 0.120943
O O4 0.000000 0.592428 0.247315
O O5 0.500000 0.699249 0.293885
O O6 0.280037 0.706411 0.399620
O O7 0.268499 0.749181 0.229781
O O8 0.208542 0.086850 0.285389
O O9 0.252996 0.137684 0.138224
O O10 0.000000 0.077049 0.166209
O O11 0.223957 0.000000 0.157822
O O12 0.500000 0.606453 0.089693
O O13 0.643218 0.500000 0.090741
O O14 0.670011 0.576098 0.960070
O O15 0.500000 0.239639 0.487496
O O16 0.279779 0.176735 0.411891
O O17 0.232134 0.249251 0.558621
O O18 0.000000 0.852411 0.366291
O O19 0.000000 0.295690 0.645453
#
# Coordination Sequence:
#
# PCOD9375979 Si02
#       7
#     8   8   8   8   8   8   8
#     4  10  21  35  53  81 114 147 188 239 293 349
#     4  10  22  40  60  83 115 152 194 241 293 357
#     4  10  21  38  61  89 123 164 209 256 309 370
#     4   9  17  30  49  75 110 150 186 221 272 341
#     4  11  23  39  59  86 117 152 198 250 303 362
#     4  10  19  33  55  85 117 151 194 244 297 354
#     4  11  23  41  62  89 122 159 205 255 306 365
#
# _framework density 9.8765429999999999
#
# number of rings (size 3 to 8) (size 9 to 14) (size 15 to 20)
#    0.000    1.857    1.429    2.571    0.000    9.143 
#    0.000    0.714    0.000    3.429    0.000    0.000 
#    0.000    0.000    0.000    0.000    0.000    0.000 
#
# Total GULP energy -155867.958780 kJ/mol
# GULP energy per Si atom -5566.712814 kJ/mol
# Density = 0.985406 g / cm^3
# Si number density = 9.876543 Si / 1000 Ang^3
#
#
#
# Elastic Constant Matrix: (Units=GPa)
#
#
# Indices 1 2 3 4 5 6 
#
# 1 15.5867 11.6771 17.3382 0.0000 0.0000 0.0000
# 2 11.6771 49.5025 1.4719 0.0000 0.0000 0.0000
# 3 17.3382 1.4719 49.4401 0.0001 0.0000 0.0000
# 4 0.0000 0.0000 0.0001 16.3152 0.0000 0.0000
# 5 0.0000 0.0000 0.0000 0.0000 19.6249 0.0000
# 6 0.0000 0.0000 0.0000 0.0000 0.0000 33.4808
#
#
#
# Elastic Compliance Matrix: (Units=1/GPa)
#
#
# Indices 1 2 3 4 5 6 
#
# 1 0.143108 -0.032294 -0.049225 0.000000 0.000000 0.000000
# 2 -0.032294 0.027506 0.010506 0.000000 0.000000 0.000000
# 3 -0.049225 0.010506 0.037177 0.000000 0.000000 0.000000
# 4 0.000000 0.000000 0.000000 0.061293 0.000000 0.000000
# 5 0.000000 0.000000 0.000000 0.000000 0.050956 0.000000
# 6 0.000000 0.000000 0.000000 0.000000 0.000000 0.029868
#
#
# Mechanical properties :
#
#
# Convention : Reuss Voigt Hill
#
# Bulk Modulus (GPa) = 15.20563 19.50042 17.35303
# Shear Modulus (GPa) = 9.73037 19.48697 14.60867
#
# Velocity S-wave (km/s) = 2.22187 3.14431 2.72244
# Velocity P-wave (km/s) = 3.78111 4.80373 4.32277
#
# Compressibility (1/GPa) = 0.06576510
#
# Stress axis : x y z
#
# Youngs Moduli (GPa) = 6.98772 36.35511 26.89869
#
# Poissons Ratio (x) = 1.17406 1.32410
# Poissons Ratio (y) = 0.22566 -0.28261
# Poissons Ratio (z) = 0.34397 -0.38196
#
# Static dielectric constant tensor:
#      x y z
#    x 1.720310 0.000000 0.000000 
#    y 0.000000 1.767230 0.000000 
#    z 0.000000 0.000000 1.719010 
# 
# From -- ./inp_files/16433.got.cif
#   From: 2010.05.17/outbox.ucp.g08.bks.cvg/sg44_9_cif.got.tgz:16433.got - 2010.06.11 16:32:36.
