data_PCOD9375924
_publ_section_title
;
Structure prediction by ZEFSAII (Michael W. Deem and Ramdas Pophale) SiO2 
 PCOD9375924
Probable space group: I M M 2
;
_chemical_formula_sum "Si O2"
_cell_formula_units_Z 48
_cell_length_a 13.501755
_cell_length_b 21.300914
_cell_length_c 7.573347
_cell_angle_alpha 90.000000
_cell_angle_beta 90.000000
_cell_angle_gamma 90.000000
_cell_volume 2178.092493
_symmetry_space_group_name_H-M "I M M 2"
_symmetry_group_IT_number 44
_symmetry_cell_setting 'orthorhombic'
loop_
_space_group_symop_operation_xyz
x,y,z
-x,-y,z
-x,y,z
x,-y,z
1/2+x,1/2+y,1/2+z
1/2-x,1/2-y,1/2+z
1/2-x,1/2+y,1/2+z
1/2+x,1/2-y,1/2+z
loop_
_atom_site_type_symbol
_atom_site_label
_atom_site_fract_x
_atom_site_fract_y
_atom_site_fract_z
Si Si1 0.113656 0.569270 0.827530
Si Si2 0.320110 0.568356 0.702927
Si Si3 0.881437 0.796300 0.245748
Si Si4 0.880677 0.297831 0.956955
Si Si5 0.621030 0.296362 0.152543
Si Si6 0.120037 0.932718 0.619137
O O1 0.118855 0.500000 0.912604
O O2 0.201105 0.569648 0.684594
O O3 0.139607 0.628458 0.948506
O O4 0.000000 0.577276 0.764102
O O5 0.357198 0.500000 0.635610
O O6 0.359244 0.636787 0.652548
O O7 0.346117 0.567714 0.913865
O O8 0.846776 0.791331 0.448099
O O9 0.000000 0.793350 0.256067
O O10 0.845060 0.739064 0.127419
O O11 0.850093 0.260223 0.780961
O O12 0.000000 0.293490 0.961034
O O13 0.500000 0.295708 0.152674
O O14 0.651203 0.367296 0.207959
O O15 0.000000 0.932431 0.616972
O O16 0.152919 0.000000 0.695474
#
# Coordination Sequence:
#
# PCOD9375924 Si02
#       6
#     8   8   8   8   8   8
#     4   9  18  33  52  71  95 134 179 219 257 293
#     4   9  16  28  46  70 100 132 169 208 246 298
#     4   9  17  30  49  76 106 132 161 201 251 308
#     4   9  17  31  50  71  98 130 166 210 254 298
#     4   8  14  26  45  69  99 132 162 197 243 295
#     4   8  13  23  42  67  96 131 164 195 240 299
#
# _framework density 22.037631999999999
#
# number of rings (size 3 to 8) (size 9 to 14) (size 15 to 20)
#    0.000    3.333    0.000    1.500    0.000    1.000 
#    6.000    0.833    0.000    4.000    0.000   16.333 
#    0.000    0.000    0.000    0.000    0.000    0.000 
#
# Total GULP energy -133688.970904 kJ/mol
# GULP energy per Si atom -5570.373788 kJ/mol
# Density = 2.198747 g / cm^3
# Si number density = 22.037632 Si / 1000 Ang^3
#
#
#
# Elastic Constant Matrix: (Units=GPa)
#
#
# Indices 1 2 3 4 5 6 
#
# 1 64.7746 11.4640 6.1351 -0.0001 0.0000 0.0000
# 2 11.4640 181.6036 49.1766 0.0003 0.0000 0.0000
# 3 6.1351 49.1766 59.7894 0.0006 0.0001 0.0001
# 4 -0.0001 0.0003 0.0006 -5.4746 0.0001 0.0000
# 5 0.0000 0.0000 0.0001 0.0001 17.9811 0.0000
# 6 0.0000 0.0000 0.0001 0.0000 0.0000 22.5114
#
#
#
# Elastic Compliance Matrix: (Units=1/GPa)
#
#
# Indices 1 2 3 4 5 6 
#
# 1 0.015661 -0.000712 -0.001021 0.000000 0.000000 0.000000
# 2 -0.000712 0.007117 -0.005780 0.000000 0.000000 0.000000
# 3 -0.001021 -0.005780 0.021585 0.000002 0.000000 0.000000
# 4 0.000000 0.000000 0.000002 -0.182663 0.000001 0.000000
# 5 0.000000 0.000000 0.000000 0.000001 0.055614 0.000000
# 6 0.000000 0.000000 0.000000 0.000000 0.000000 0.044422
#
#
# Mechanical properties :
#
#
# Convention : Reuss Voigt Hill
#
# Bulk Modulus (GPa) = 34.08949 48.85770 41.47359
# Shear Modulus (GPa) = -371.50370 22.96304 -174.27033
#
# Velocity S-wave (km/s) = -12.99780 3.23149 -8.90226
# Velocity P-wave (km/s) = 14.48292 6.01179 9.31701
#
# Compressibility (1/GPa) = 0.02933456
#
# Stress axis : x y z
#
# Youngs Moduli (GPa) = 63.85330 140.51382 46.32935
#
# Poissons Ratio (x) = 0.10005 0.04732
# Poissons Ratio (y) = 0.04547 0.26780
# Poissons Ratio (z) = 0.06522 0.81223
#
# Static dielectric constant tensor:
#      x y z
#    x 1.870800 0.000000 0.000000 
#    y 0.000000 1.861500 0.000000 
#    z 0.000000 0.000000 1.778510 
# 
# From -- ./inp_files/7280.got.cif
#   From: 2010.05.17/outbox.cif.g08.bks.cpg/sg44_4_cif.got.tgz:7280.got - 2010.06.03 19:37:08.
