data_PCOD9375822
_publ_section_title
;
Structure prediction by ZEFSAII (Michael W. Deem and Ramdas Pophale) SiO2 
 PCOD9375822
Probable space group: I M M 2
;
_chemical_formula_sum "Si O2"
_cell_formula_units_Z 58
_cell_length_a 8.836520
_cell_length_b 22.775952
_cell_length_c 15.132185
_cell_angle_alpha 90.000000
_cell_angle_beta 90.000000
_cell_angle_gamma 90.000000
_cell_volume 3045.505904
_symmetry_space_group_name_H-M "I M M 2"
_symmetry_group_IT_number 44
_symmetry_cell_setting 'orthorhombic'
loop_
_space_group_symop_operation_xyz
x,y,z
-x,-y,z
-x,y,z
x,-y,z
1/2+x,1/2+y,1/2+z
1/2-x,1/2-y,1/2+z
1/2-x,1/2+y,1/2+z
1/2+x,1/2-y,1/2+z
loop_
_atom_site_type_symbol
_atom_site_label
_atom_site_fract_x
_atom_site_fract_y
_atom_site_fract_z
Si Si1 0.817925 0.815208 0.922250
Si Si2 0.680318 0.256705 0.757204
Si Si3 0.825486 0.629668 0.984259
Si Si4 0.315999 0.433498 0.336470
Si Si5 0.171556 0.930065 0.641119
Si Si6 0.833785 0.888730 0.310286
Si Si7 0.678956 0.258802 0.068256
Si Si8 0.000000 0.000000 0.245047
O O1 0.753160 0.774965 0.842432
O O2 0.773307 0.882555 0.903217
O O3 0.000000 0.810355 0.921453
O O4 0.753407 0.794978 0.015820
O O5 0.500000 0.246496 0.757242
O O6 0.705149 0.327544 0.762425
O O7 0.752133 0.234178 0.665856
O O8 0.781210 0.602703 0.890259
O O9 0.000000 0.646645 0.985744
O O10 0.782599 0.586408 0.063289
O O11 0.725381 0.686295 0.007213
O O12 0.500000 0.436140 0.334478
O O13 0.262058 0.500000 0.353352
O O14 0.272179 0.412383 0.238079
O O15 0.000000 0.906433 0.626043
O O16 0.158640 0.000000 0.645628
O O17 0.869311 0.946884 0.253435
O O18 0.000000 0.877868 0.354024
O O19 0.500000 0.252811 0.073885
#
# Coordination Sequence:
#
# PCOD9375822 Si02
#       8
#     8   8   8   8   8   8   8   2
#     4  11  21  36  62  93 123 156 201 251 308 370
#     4  11  22  39  63  91 121 157 200 260 314 368
#     4  12  23  34  52  84 121 154 198 251 305 372
#     4   8  16  33  56  82 112 150 195 240 290 356
#     4   9  18  32  53  79 113 156 196 232 286 365
#     4   9  20  38  62  84 115 156 204 246 311 377
#     4  12  25  40  59  84 120 162 205 254 315 373
#     4   8  20  40  66  88 112 168 210 252 304 404
#
# _framework density 19.044454999999999
#
# number of rings (size 3 to 8) (size 9 to 14) (size 15 to 20)
#    0.414    1.379    1.379    4.966    0.966    1.931 
#    0.000    0.690    1.517    3.310    0.000    0.000 
#    0.000    0.000    0.000    0.000    0.000    0.000 
#
# Total GULP energy -161435.851891 kJ/mol
# GULP energy per Si atom -5566.753513 kJ/mol
# Density = 1.900111 g / cm^3
# Si number density = 19.044455 Si / 1000 Ang^3
#
#
#
# Elastic Constant Matrix: (Units=GPa)
#
#
# Indices 1 2 3 4 5 6 
#
# 1 73.5358 8.1546 17.7036 0.0000 0.0000 0.0000
# 2 8.1546 66.5639 0.1721 0.0000 0.0000 0.0000
# 3 17.7036 0.1721 44.9608 0.0000 0.0000 0.0000
# 4 0.0000 0.0000 0.0000 25.0109 0.0000 0.0000
# 5 0.0000 0.0000 0.0000 0.0000 19.4403 0.0000
# 6 0.0000 0.0000 0.0000 0.0000 0.0000 19.1573
#
#
#
# Elastic Compliance Matrix: (Units=1/GPa)
#
#
# Indices 1 2 3 4 5 6 
#
# 1 0.015248 -0.001852 -0.005997 0.000000 0.000000 0.000000
# 2 -0.001852 0.015248 0.000671 0.000000 0.000000 0.000000
# 3 -0.005997 0.000671 0.024600 0.000000 0.000000 0.000000
# 4 0.000000 0.000000 0.000000 0.039983 0.000000 0.000000
# 5 0.000000 0.000000 0.000000 0.000000 0.051440 0.000000
# 6 0.000000 0.000000 0.000000 0.000000 0.000000 0.052199
#
#
# Mechanical properties :
#
#
# Convention : Reuss Voigt Hill
#
# Bulk Modulus (GPa) = 24.54584 26.34676 25.44630
# Shear Modulus (GPa) = 22.05997 23.32371 22.69184
#
# Velocity S-wave (km/s) = 3.40713 3.50337 3.45558
# Velocity P-wave (km/s) = 5.32867 5.49810 5.41405
#
# Compressibility (1/GPa) = 0.04074009
#
# Stress axis : x y z
#
# Youngs Moduli (GPa) = 65.58242 65.58076 40.64982
#
# Poissons Ratio (x) = 0.12149 0.24377
# Poissons Ratio (y) = 0.12149 -0.02728
# Poissons Ratio (z) = 0.39329 -0.04401
#
# Static dielectric constant tensor:
#      x y z
#    x 1.646320 0.000000 0.000000 
#    y 0.000000 1.732060 0.000000 
#    z 0.000000 0.000000 1.661770 
# 
# From -- ./inp_files/16694.got.cif
#   From: 2010.05.17/outbox.cif.g08.bks.cpg/sg44_9_cif.got.tgz:16694.got - 2010.06.03 19:37:08.
