data_PCOD9375108
_publ_section_title
;
Structure prediction by ZEFSAII (Michael W. Deem and Ramdas Pophale) SiO2 
 PCOD9375108
Probable space group: I M M 2
;
_chemical_formula_sum "Si O2"
_cell_formula_units_Z 40
_cell_length_a 8.033426
_cell_length_b 11.951868
_cell_length_c 20.888868
_cell_angle_alpha 90.000000
_cell_angle_beta 90.000000
_cell_angle_gamma 90.000000
_cell_volume 2005.633112
_symmetry_space_group_name_H-M "I M M 2"
_symmetry_group_IT_number 44
_symmetry_cell_setting 'orthorhombic'
loop_
_space_group_symop_operation_xyz
x,y,z
-x,-y,z
-x,y,z
x,-y,z
1/2+x,1/2+y,1/2+z
1/2-x,1/2-y,1/2+z
1/2-x,1/2+y,1/2+z
1/2+x,1/2-y,1/2+z
loop_
_atom_site_type_symbol
_atom_site_label
_atom_site_fract_x
_atom_site_fract_y
_atom_site_fract_z
Si Si1 0.698602 0.500000 0.113950
Si Si2 0.700071 0.753653 0.636395
Si Si3 0.303581 0.776149 0.393224
Si Si4 0.199285 0.126992 0.261889
Si Si5 0.201003 0.000000 0.466177
Si Si6 0.296184 0.628667 0.508384
O O1 0.500000 0.500000 0.114081
O O2 0.757721 0.616180 0.143925
O O3 0.755695 0.500000 0.039859
O O4 0.500000 0.743727 0.635347
O O5 0.763509 0.680739 0.696065
O O6 0.760635 0.704543 0.568282
O O7 0.500000 0.760164 0.386322
O O8 0.233298 0.794546 0.322605
O O9 0.238695 0.679509 0.440640
O O10 0.267746 0.890695 0.431098
O O11 0.000000 0.118624 0.256131
O O12 0.263279 0.000000 0.272441
O O13 0.000000 0.000000 0.462745
O O14 0.500000 0.632117 0.508101
O O15 0.247023 0.500000 0.517120
#
# Coordination Sequence:
#
# PCOD9375108 Si02
#       6
#     4   8   8   8   4   8
#     4  11  23  37  57  85 117 148 183 238 297 331
#     4  10  20  37  61  84 110 148 195 232 272 341
#     4  11  21  34  58  87 114 145 187 234 281 337
#     4  10  21  37  58  84 115 150 185 230 285 337
#     4  11  21  35  57  83 115 146 183 234 289 339
#     4   9  18  34  57  84 111 143 186 233 277 328
#
# _framework density 19.943826999999999
#
# number of rings (size 3 to 8) (size 9 to 14) (size 15 to 20)
#    0.000    1.800    3.000    1.800    0.000    4.000 
#    1.800    0.000    0.000    6.000    0.000    0.000 
#    0.000    0.000    0.000    0.000    0.000    0.000 
#
# Total GULP energy -111664.065931 kJ/mol
# GULP energy per Si atom -5583.203297 kJ/mol
# Density = 1.989843 g / cm^3
# Si number density = 19.943827 Si / 1000 Ang^3
#
#
#
# Elastic Constant Matrix: (Units=GPa)
#
#
# Indices 1 2 3 4 5 6 
#
# 1 12.3437 0.9009 12.8374 0.0000 0.0000 0.0000
# 2 0.9009 122.4020 54.3259 0.0000 0.0000 0.0000
# 3 12.8374 54.3259 134.1502 0.0000 0.0000 0.0000
# 4 0.0000 0.0000 0.0000 37.4224 0.0000 0.0000
# 5 0.0000 0.0000 0.0000 0.0000 23.6312 0.0000
# 6 0.0000 0.0000 0.0000 0.0000 0.0000 7.3795
#
#
#
# Elastic Compliance Matrix: (Units=1/GPa)
#
#
# Indices 1 2 3 4 5 6 
#
# 1 0.091481 0.003916 -0.010340 0.000000 0.000000 0.000000
# 2 0.003916 0.010128 -0.004476 0.000000 0.000000 0.000000
# 3 -0.010340 -0.004476 0.010256 0.000000 0.000000 0.000000
# 4 0.000000 0.000000 0.000000 0.026722 0.000000 0.000000
# 5 0.000000 0.000000 0.000000 0.000000 0.042317 0.000000
# 6 0.000000 0.000000 0.000000 0.000000 0.000000 0.135511
#
#
# Mechanical properties :
#
#
# Convention : Reuss Voigt Hill
#
# Bulk Modulus (GPa) = 11.10316 45.00273 28.05295
# Shear Modulus (GPa) = 13.57824 27.07539 20.32682
#
# Velocity S-wave (km/s) = 2.61209 3.68854 3.19596
# Velocity P-wave (km/s) = 3.83101 6.38390 5.26454
#
# Compressibility (1/GPa) = 0.09006441
#
# Stress axis : x y z
#
# Youngs Moduli (GPa) = 10.93127 98.74027 97.49975
#
# Poissons Ratio (x) = -0.38665 1.00814
# Poissons Ratio (y) = -0.04281 0.43641
# Poissons Ratio (z) = 0.11303 0.44196
#
# Static dielectric constant tensor:
#      x y z
#    x 1.715300 0.000000 0.000000 
#    y 0.000000 1.679510 0.000000 
#    z 0.000000 0.000000 1.700570 
# 
# From -- ./inp_files/22762.got.cif
#   From: 2010.05.17/outbox.cif.g08.bks.cpg/sg44_12_cif.got.tgz:22762.got - 2010.06.03 19:37:08.
