data_PCOD9375812
_publ_section_title
;
Structure prediction by ZEFSAII (Michael W. Deem and Ramdas Pophale) SiO2 
 PCOD9375812
Probable space group: I M M 2
;
_chemical_formula_sum "Si O2"
_cell_formula_units_Z 56
_cell_length_a 7.551046
_cell_length_b 15.085701
_cell_length_c 23.128887
_cell_angle_alpha 90.000000
_cell_angle_beta 90.000000
_cell_angle_gamma 90.000000
_cell_volume 2634.676792
_symmetry_space_group_name_H-M "I M M 2"
_symmetry_group_IT_number 44
_symmetry_cell_setting 'orthorhombic'
loop_
_space_group_symop_operation_xyz
x,y,z
-x,-y,z
-x,y,z
x,-y,z
1/2+x,1/2+y,1/2+z
1/2-x,1/2-y,1/2+z
1/2-x,1/2+y,1/2+z
1/2+x,1/2-y,1/2+z
loop_
_atom_site_type_symbol
_atom_site_label
_atom_site_fract_x
_atom_site_fract_y
_atom_site_fract_z
Si Si1 0.717333 0.102207 0.117750
Si Si2 0.787303 0.901048 0.900635
Si Si3 0.216524 0.714979 0.728889
Si Si4 0.288833 0.098094 0.468430
Si Si5 0.216150 0.900831 0.767917
Si Si6 0.206905 0.715300 0.510273
Si Si7 0.715509 0.101618 0.337698
O O1 0.500000 0.100569 0.117760
O O2 0.772364 0.157058 0.174284
O O3 0.783320 0.153916 0.060902
O O4 0.774383 0.000000 0.118807
O O5 0.728795 0.884598 0.834759
O O6 0.000000 0.903140 0.898411
O O7 0.725123 0.000000 0.917929
O O8 0.740775 0.828877 0.948073
O O9 0.272972 0.817479 0.729832
O O10 0.275346 0.668484 0.788427
O O11 0.000000 0.714337 0.728959
O O12 0.500000 0.091271 0.463297
O O13 0.257004 0.181774 0.508836
O O14 0.222127 0.118325 0.403199
O O15 0.222773 0.000000 0.485767
O O16 0.000000 0.901723 0.767652
O O17 0.273918 0.000000 0.751258
O O18 0.000000 0.713784 0.520065
O O19 0.500000 0.106872 0.338529
O O20 0.760966 0.000000 0.322792
#
# Coordination Sequence:
#
# PCOD9375812 Si02
#       7
#     8   8   8   8   8   8   8
#     4   9  18  30  41  58  89 126 159 189 225 274
#     4   9  17  30  49  72  97 125 158 197 239 283
#     4   9  14  22  39  61  88 121 150 181 229 282
#     4   9  18  33  52  73  96 121 153 195 238 282
#     4   8  14  24  40  65  92 114 144 192 243 284
#     4  11  21  31  45  67  98 132 161 193 233 277
#     4   8  13  22  41  69  92 109 138 185 235 276
#
# _framework density 21.254977
#
# number of rings (size 3 to 8) (size 9 to 14) (size 15 to 20)
#    0.000    3.000    0.000    3.857    0.000    5.143 
#    0.000    0.714    0.000    2.571    0.000    8.000 
#    0.000    9.143    0.000    0.000    0.000    0.000 
#
# Total GULP energy -156211.005897 kJ/mol
# GULP energy per Si atom -5578.964496 kJ/mol
# Density = 2.120660 g / cm^3
# Si number density = 21.254977 Si / 1000 Ang^3
#
#
#
# Elastic Constant Matrix: (Units=GPa)
#
#
# Indices 1 2 3 4 5 6 
#
# 1 46.1175 9.6125 6.5036 0.0000 0.0000 0.0000
# 2 9.6125 214.8667 94.5461 0.0000 0.0000 0.0000
# 3 6.5036 94.5461 65.6584 0.0000 0.0000 0.0000
# 4 0.0000 0.0000 0.0000 36.9514 0.0000 0.0000
# 5 0.0000 0.0000 0.0000 0.0000 5.0323 0.0000
# 6 0.0000 0.0000 0.0000 0.0000 0.0000 4.5396
#
#
#
# Elastic Compliance Matrix: (Units=1/GPa)
#
#
# Indices 1 2 3 4 5 6 
#
# 1 0.021991 -0.000069 -0.002079 0.000000 0.000000 0.000000
# 2 -0.000069 0.012703 -0.018285 0.000000 0.000000 0.000000
# 3 -0.002079 -0.018285 0.041766 0.000000 0.000000 0.000000
# 4 0.000000 0.000000 0.000000 0.027063 0.000000 0.000000
# 5 0.000000 0.000000 0.000000 0.000000 0.198717 0.000000
# 6 0.000000 0.000000 0.000000 0.000000 0.000000 0.220284
#
#
# Mechanical properties :
#
#
# Convention : Reuss Voigt Hill
#
# Bulk Modulus (GPa) = 28.09414 60.88524 44.48969
# Shear Modulus (GPa) = 8.69180 23.70334 16.19757
#
# Velocity S-wave (km/s) = 2.02440 3.34307 2.76354
# Velocity P-wave (km/s) = 4.32558 6.60370 5.58209
#
# Compressibility (1/GPa) = 0.03559462
#
# Stress axis : x y z
#
# Youngs Moduli (GPa) = 45.47252 78.72167 23.94278
#
# Poissons Ratio (x) = 0.00544 0.04977
# Poissons Ratio (y) = 0.00314 0.43780
# Poissons Ratio (z) = 0.09453 1.43943
#
# Static dielectric constant tensor:
#      x y z
#    x 1.870040 0.000000 0.000000 
#    y 0.000000 1.731770 0.000000 
#    z 0.000000 0.000000 1.745240 
# 
# From -- ./inp_files/23105.got.cif
#   From: 2010.05.17/outbox.cif.g08.bks.cpg/sg44_12_cif.got.tgz:23105.got - 2010.06.03 19:37:08.
