data_PCOD9375795
_publ_section_title
;
Structure prediction by ZEFSAII (Michael W. Deem and Ramdas Pophale) SiO2 
 PCOD9375795
Probable space group: I M M 2
;
_chemical_formula_sum "Si O2"
_cell_formula_units_Z 64
_cell_length_a 15.114953
_cell_length_b 28.742699
_cell_length_c 8.339967
_cell_angle_alpha 90.000000
_cell_angle_beta 90.000000
_cell_angle_gamma 90.000000
_cell_volume 3623.253164
_symmetry_space_group_name_H-M "I M M 2"
_symmetry_group_IT_number 44
_symmetry_cell_setting 'orthorhombic'
loop_
_space_group_symop_operation_xyz
x,y,z
-x,-y,z
-x,y,z
x,-y,z
1/2+x,1/2+y,1/2+z
1/2-x,1/2-y,1/2+z
1/2-x,1/2+y,1/2+z
1/2+x,1/2-y,1/2+z
loop_
_atom_site_type_symbol
_atom_site_label
_atom_site_fract_x
_atom_site_fract_y
_atom_site_fract_z
Si Si1 0.223232 0.635403 0.432270
Si Si2 0.899939 0.446526 0.316929
Si Si3 0.899939 0.446526 0.930027
Si Si4 0.100469 0.174590 0.430193
Si Si5 0.100469 0.174590 0.816762
Si Si6 0.601452 0.219597 0.318756
Si Si7 0.223232 0.364597 0.814681
Si Si8 0.898548 0.719597 0.428202
O O1 0.172042 0.589486 0.378061
O O2 0.323632 0.640441 0.375229
O O3 0.221850 0.637192 0.623476
O O4 0.168442 0.680384 0.369506
O O5 0.883827 0.500000 0.367013
O O6 0.000000 0.433534 0.369761
O O7 0.899455 0.445727 0.123478
O O8 0.883828 0.500000 0.879942
O O9 0.827957 0.410515 0.868891
O O10 0.000000 0.433534 0.877197
O O11 0.100586 0.174902 0.623477
O O12 0.176368 0.140442 0.371724
O O13 0.121657 0.227632 0.375773
O O14 0.000000 0.163807 0.378007
O O15 0.121656 0.227632 0.871185
O O16 0.000000 0.163807 0.868949
O O17 0.500000 0.208855 0.365035
O O18 0.668442 0.180383 0.377448
O O19 0.603778 0.219661 0.123479
O O20 0.000000 0.708855 0.381921
#
# Coordination Sequence:
#
# PCOD9375795 Si02
#       8
#     8   8   8   8   8   8   8   8
#     4  11  20  29  48  76 103 129 158 199 249 294
#     4   9  19  36  55  74  98 128 161 196 234 283
#     4   9  19  36  55  74  98 128 161 196 234 283
#     4   9  18  33  50  66  92 134 176 207 235 275
#     4   9  18  33  50  66  92 134 176 207 235 275
#     4   8  15  28  45  68  99 132 164 197 235 282
#     4  11  20  29  48  76 103 129 158 199 249 294
#     4   8  15  28  45  68  99 132 164 197 235 282
#
# _framework density 17.663684
#
# number of rings (size 3 to 8) (size 9 to 14) (size 15 to 20)
#    0.000    2.750    0.000    4.500    0.000    2.500 
#    0.000    2.500    0.000    3.750    0.000    5.250 
#    0.000    0.000    0.000    0.000    0.000    0.000 
#
# Total GULP energy -178480.449557 kJ/mol
# GULP energy per Si atom -5577.514049 kJ/mol
# Density = 1.762348 g / cm^3
# Si number density = 17.663684 Si / 1000 Ang^3
#
#
#
# Elastic Constant Matrix: (Units=GPa)
#
#
# Indices 1 2 3 4 5 6 
#
# 1 145.7492 98.8767 23.4547 0.0001 -0.0001 -0.0001
# 2 98.8767 96.6031 20.4565 0.0008 -0.0007 -0.0003
# 3 23.4547 20.4565 14.0572 -0.0054 0.0013 -0.0006
# 4 0.0001 0.0008 -0.0054 18.7829 0.0000 -0.0003
# 5 -0.0001 -0.0007 0.0013 0.0000 15.4479 -0.0003
# 6 -0.0001 -0.0003 -0.0006 -0.0003 -0.0003 32.8955
#
#
#
# Elastic Compliance Matrix: (Units=1/GPa)
#
#
# Indices 1 2 3 4 5 6 
#
# 1 0.022782 -0.022070 -0.005896 -0.000001 0.000000 0.000000
# 2 -0.022070 0.036342 -0.016063 -0.000006 0.000003 0.000000
# 3 -0.005896 -0.016063 0.104350 0.000031 -0.000010 0.000002
# 4 -0.000001 -0.000006 0.000031 0.053240 0.000000 0.000000
# 5 0.000000 0.000003 -0.000010 0.000000 0.064734 0.000001
# 6 0.000000 0.000000 0.000002 0.000000 0.000001 0.030399
#
#
# Mechanical properties :
#
#
# Convention : Reuss Voigt Hill
#
# Bulk Modulus (GPa) = 13.25940 60.22060 36.74000
# Shear Modulus (GPa) = 11.76353 21.00004 16.38178
#
# Velocity S-wave (km/s) = 2.58344 3.45176 3.04867
# Velocity P-wave (km/s) = 4.05238 7.07482 5.76519
#
# Compressibility (1/GPa) = 0.07541818
#
# Stress axis : x y z
#
# Youngs Moduli (GPa) = 43.89413 27.51616 9.58314
#
# Poissons Ratio (x) = 0.60728 0.05650
# Poissons Ratio (y) = 0.96874 0.15393
# Poissons Ratio (z) = 0.25878 0.44198
#
# Static dielectric constant tensor:
#      x y z
#    x 1.603160 0.000000 0.000000 
#    y 0.000000 1.592440 0.000000 
#    z 0.000000 0.000000 1.607550 
# 
# From -- ./inp_files/7569.got.cif
#   From: 2010.05.17/outbox.cif.g08.bks.cpg/sg44_4_cif.got.tgz:7569.got - 2010.06.03 19:37:08.
