data_PCOD9375251
_publ_section_title
;
Structure prediction by ZEFSAII (Michael W. Deem and Ramdas Pophale) SiO2 
 PCOD9375251
Probable space group: I M M 2
;
_chemical_formula_sum "Si O2"
_cell_formula_units_Z 58
_cell_length_a 15.660195
_cell_length_b 7.323505
_cell_length_c 24.671426
_cell_angle_alpha 90.000000
_cell_angle_beta 90.000000
_cell_angle_gamma 90.000000
_cell_volume 2829.504574
_symmetry_space_group_name_H-M "I M M 2"
_symmetry_group_IT_number 44
_symmetry_cell_setting 'orthorhombic'
loop_
_space_group_symop_operation_xyz
x,y,z
-x,-y,z
-x,y,z
x,-y,z
1/2+x,1/2+y,1/2+z
1/2-x,1/2-y,1/2+z
1/2-x,1/2+y,1/2+z
1/2+x,1/2-y,1/2+z
loop_
_atom_site_type_symbol
_atom_site_label
_atom_site_fract_x
_atom_site_fract_y
_atom_site_fract_z
Si Si1 0.096897 0.718891 0.087160
Si Si2 0.755028 0.789211 0.519670
Si Si3 0.259016 0.278537 0.794170
Si Si4 0.903657 0.277575 0.729220
Si Si5 0.839517 0.777223 0.408198
Si Si6 0.500000 0.000000 0.902200
Si Si7 0.902873 0.279578 0.605067
Si Si8 0.096039 0.782690 0.212448
O O1 0.093988 0.500000 0.081605
O O2 0.170043 0.790741 0.047274
O O3 0.120601 0.754249 0.149856
O O4 0.000000 0.787262 0.078577
O O5 0.791168 0.718793 0.463115
O O6 0.831378 0.782102 0.563416
O O7 0.734609 0.000000 0.508619
O O8 0.257936 0.500000 0.790542
O O9 0.168848 0.215659 0.770326
O O10 0.281848 0.236012 0.855652
O O11 0.334599 0.212532 0.754525
O O12 0.903750 0.500000 0.729088
O O13 0.884732 0.223082 0.667010
O O14 0.000000 0.219798 0.742420
O O15 0.925315 0.660803 0.403213
O O16 0.854814 0.000000 0.409642
O O17 0.902426 0.500000 0.603910
O O18 0.000000 0.222019 0.591065
O O19 0.000000 0.709508 0.220511
O O20 0.091516 0.000000 0.220623
#
# Coordination Sequence:
#
# PCOD9375251 Si02
#       8
#     8   8   8   8   8   2   8   8
#     4   9  18  34  52  75 107 143 181 232 284 334
#     4  10  21  35  52  75 108 146 185 229 283 338
#     4   9  17  32  53  75 109 148 184 231 285 334
#     4   8  14  27  49  81 110 139 182 234 283 336
#     4  10  24  42  60  86 117 151 192 237 282 340
#     4  12  26  44  64  86 114 152 198 232 288 336
#     4   9  18  30  51  80 109 139 180 228 278 337
#     4   9  17  29  49  77 104 139 183 225 283 345
#
# _framework density 20.498287000000001
#
# number of rings (size 3 to 8) (size 9 to 14) (size 15 to 20)
#    0.000    2.759    0.000    1.862    2.897    1.931 
#    1.241    0.690    1.517    4.138    0.000    0.966 
#    0.000    0.000    0.000    0.000    0.000    0.414 
#
# Total GULP energy -161593.038702 kJ/mol
# GULP energy per Si atom -5572.173748 kJ/mol
# Density = 2.045163 g / cm^3
# Si number density = 20.498287 Si / 1000 Ang^3
#
#
#
# Elastic Constant Matrix: (Units=GPa)
#
#
# Indices 1 2 3 4 5 6 
#
# 1 151.0226 10.5245 130.1832 0.0000 0.0000 0.0000
# 2 10.5245 92.2574 12.0620 0.0000 0.0000 0.0000
# 3 130.1832 12.0620 153.2347 0.0000 0.0000 0.0000
# 4 0.0000 0.0000 0.0000 13.2364 0.0000 0.0000
# 5 0.0000 0.0000 0.0000 0.0000 -16.2705 0.0000
# 6 0.0000 0.0000 0.0000 0.0000 0.0000 11.8529
#
#
#
# Elastic Compliance Matrix: (Units=1/GPa)
#
#
# Indices 1 2 3 4 5 6 
#
# 1 0.024739 -0.000075 -0.021011 0.000000 0.000000 0.000000
# 2 -0.000075 0.010952 -0.000798 0.000000 0.000000 0.000000
# 3 -0.021011 -0.000798 0.024439 0.000000 0.000000 0.000000
# 4 0.000000 0.000000 0.000000 0.075549 0.000000 0.000000
# 5 0.000000 0.000000 0.000000 0.000000 -0.061461 0.000000
# 6 0.000000 0.000000 0.000000 0.000000 0.000000 0.084367
#
#
# Mechanical properties :
#
#
# Convention : Reuss Voigt Hill
#
# Bulk Modulus (GPa) = 61.12175 78.00602 69.56388
# Shear Modulus (GPa) = 24.06058 18.01345 21.03701
#
# Velocity S-wave (km/s) = 3.42977 2.96764 3.20704
# Velocity P-wave (km/s) = 6.75034 7.06258 6.90822
#
# Compressibility (1/GPa) = 0.01636079
#
# Stress axis : x y z
#
# Youngs Moduli (GPa) = 40.42234 91.30607 40.91759
#
# Poissons Ratio (x) = 0.00685 0.85973
# Poissons Ratio (y) = 0.00303 0.03267
# Poissons Ratio (z) = 0.84933 0.07289
#
# Static dielectric constant tensor:
#      x y z
#    x 1.719600 0.000000 0.000000 
#    y 0.000000 1.812250 0.000000 
#    z 0.000000 0.000000 1.696880 
# 
# From -- ./inp_files/25034.got.cif
#   From: 2010.05.17/outbox.cif.g08.bks.cpg/sg44_13_cif.got.tgz:25034.got - 2010.06.03 19:37:08.
