data_PCOD9375729
_publ_section_title
;
Structure prediction by ZEFSAII (Michael W. Deem and Ramdas Pophale) SiO2 
 PCOD9375729
Probable space group: I M M 2
;
_chemical_formula_sum "Si O2"
_cell_formula_units_Z 36
_cell_length_a 13.821680
_cell_length_b 15.683496
_cell_length_c 8.834516
_cell_angle_alpha 90.000000
_cell_angle_beta 90.000000
_cell_angle_gamma 90.000000
_cell_volume 1915.078026
_symmetry_space_group_name_H-M "I M M 2"
_symmetry_group_IT_number 44
_symmetry_cell_setting 'orthorhombic'
loop_
_space_group_symop_operation_xyz
x,y,z
-x,-y,z
-x,y,z
x,-y,z
1/2+x,1/2+y,1/2+z
1/2-x,1/2-y,1/2+z
1/2-x,1/2+y,1/2+z
1/2+x,1/2-y,1/2+z
loop_
_atom_site_type_symbol
_atom_site_label
_atom_site_fract_x
_atom_site_fract_y
_atom_site_fract_z
Si Si1 0.297400 0.000000 0.552881
Si Si2 0.282559 0.845788 0.054251
Si Si3 0.788718 0.167103 0.396557
Si Si4 0.500000 0.330833 0.005320
Si Si5 0.204240 0.000000 0.870575
Si Si6 0.500000 0.854825 0.122526
Si Si7 0.000000 0.000000 0.705224
Si Si8 0.000000 0.500000 0.880252
O O1 0.245897 0.084777 0.489292
O O2 0.281089 0.000000 0.732388
O O3 0.405319 0.000000 0.485536
O O4 0.255895 0.839240 0.230452
O O5 0.396540 0.871327 0.042840
O O6 0.260575 0.755177 0.977660
O O7 0.221528 0.917690 0.972314
O O8 0.904872 0.170229 0.402379
O O9 0.500000 0.249482 0.120954
O O10 0.500000 0.416305 0.102025
O O11 0.097639 0.000000 0.801532
O O12 0.500000 0.915518 0.271381
#
# Coordination Sequence:
#
# PCOD9375729 Si02
#       8
#     4   8   8   4   4   4   2   2
#     4  12  23  39  65  96 128 169 213 264 313 382
#     4  11  24  42  67  96 131 169 216 266 323 384
#     4  11  22  42  66  96 126 171 214 264 323 381
#     4  10  22  41  68  94 130 169 212 266 328 380
#     4  12  26  42  62  98 132 173 217 263 318 384
#     4  10  22  41  68  93 126 175 207 265 335 378
#     4  12  24  40  66  94 130 176 214 262 322 384
#     4  12  22  38  68 100 126 168 220 258 318 392
#
# _framework density 18.798190000000002
#
# number of rings (size 3 to 8) (size 9 to 14) (size 15 to 20)
#    0.000    0.889    4.444    2.667    3.111    1.778 
#    0.000    4.444    0.000    0.000    0.000    0.000 
#    0.000    0.000    0.000    0.000    0.000    0.000 
#
# Total GULP energy -100505.196828 kJ/mol
# GULP energy per Si atom -5583.622046 kJ/mol
# Density = 1.875540 g / cm^3
# Si number density = 18.798190 Si / 1000 Ang^3
#
#
#
# Elastic Constant Matrix: (Units=GPa)
#
#
# Indices 1 2 3 4 5 6 
#
# 1 88.0774 22.4008 4.1028 0.0000 0.0000 0.0000
# 2 22.4008 104.3504 25.4407 0.0000 0.0000 0.0000
# 3 4.1028 25.4407 83.4553 0.0000 0.0000 0.0000
# 4 0.0000 0.0000 0.0000 41.4914 0.0000 0.0000
# 5 0.0000 0.0000 0.0000 0.0000 -8.9204 0.0000
# 6 0.0000 0.0000 0.0000 0.0000 0.0000 30.4176
#
#
#
# Elastic Compliance Matrix: (Units=1/GPa)
#
#
# Indices 1 2 3 4 5 6 
#
# 1 0.012013 -0.002630 0.000211 0.000000 0.000000 0.000000
# 2 -0.002630 0.010928 -0.003202 0.000000 0.000000 0.000000
# 3 0.000211 -0.003202 0.012948 0.000000 0.000000 0.000000
# 4 0.000000 0.000000 0.000000 0.024101 0.000000 0.000000
# 5 0.000000 0.000000 0.000000 0.000000 -0.112103 0.000000
# 6 0.000000 0.000000 0.000000 0.000000 0.000000 0.032876
#
#
# Mechanical properties :
#
#
# Convention : Reuss Voigt Hill
#
# Bulk Modulus (GPa) = 40.57274 42.19686 41.38480
# Shear Modulus (GPa) = 22521.54073 27.52696 11274.53384
#
# Velocity S-wave (km/s) = 109.57511 3.83082 77.52864
# Velocity P-wave (km/s) = 126.61189 6.48560 89.64551
#
# Compressibility (1/GPa) = 0.02464709
#
# Stress axis : x y z
#
# Youngs Moduli (GPa) = 83.24478 91.50452 77.23070
#
# Poissons Ratio (x) = 0.24068 -0.01631
# Poissons Ratio (y) = 0.21896 0.24730
# Poissons Ratio (z) = -0.01759 0.29301
#
# Static dielectric constant tensor:
#      x y z
#    x 1.652240 0.000000 0.000000 
#    y 0.000000 1.638190 0.000000 
#    z 0.000000 0.000000 1.603440 
# 
# From -- ./inp_files/6790.got.cif
#   From: 2010.05.17/outbox.cif.g08.bks.cpg/sg44_4_cif.got.tgz:6790.got - 2010.06.03 19:37:08.
