data_PCOD9375087
_publ_section_title
;
Structure prediction by ZEFSAII (Michael W. Deem and Ramdas Pophale) SiO2 
 PCOD9375087
Probable space group: I M M 2
;
_chemical_formula_sum "Si O2"
_cell_formula_units_Z 56
_cell_length_a 16.254813
_cell_length_b 19.854902
_cell_length_c 9.352665
_cell_angle_alpha 90.000000
_cell_angle_beta 90.000000
_cell_angle_gamma 90.000000
_cell_volume 3018.457770
_symmetry_space_group_name_H-M "I M M 2"
_symmetry_group_IT_number 44
_symmetry_cell_setting 'orthorhombic'
loop_
_space_group_symop_operation_xyz
x,y,z
-x,-y,z
-x,y,z
x,-y,z
1/2+x,1/2+y,1/2+z
1/2-x,1/2-y,1/2+z
1/2-x,1/2+y,1/2+z
1/2+x,1/2-y,1/2+z
loop_
_atom_site_type_symbol
_atom_site_label
_atom_site_fract_x
_atom_site_fract_y
_atom_site_fract_z
Si Si1 0.794438 0.424470 0.762040
Si Si2 0.090500 0.221294 0.427649
Si Si3 0.730138 0.074155 0.748998
Si Si4 0.908189 0.764818 0.084278
Si Si5 0.354333 0.575593 0.990376
Si Si6 0.093060 0.606025 0.022473
Si Si7 0.267223 0.822114 0.005448
O O1 0.798399 0.500000 0.701225
O O2 0.714975 0.421194 0.865987
O O3 0.788272 0.368226 0.641649
O O4 0.870267 0.412905 0.868982
O O5 0.097804 0.228533 0.256077
O O6 0.093467 0.142538 0.467629
O O7 0.167807 0.260768 0.495006
O O8 0.000000 0.248999 0.468854
O O9 0.807154 0.081666 0.641579
O O10 0.651718 0.077111 0.644794
O O11 0.735145 0.000000 0.816734
O O12 0.724650 0.132567 0.864229
O O13 0.904694 0.686633 0.041434
O O14 0.827417 0.798914 0.018956
O O15 0.000000 0.790740 0.043016
O O16 0.391524 0.500000 0.983200
O O17 0.000000 0.583124 0.038552
#
# Coordination Sequence:
#
# PCOD9375087 Si02
#       7
#     8   8   8   8   8   8   8
#     4  10  21  36  57  86 116 156 205 244 289 349
#     4  11  23  38  60  91 122 155 198 245 294 355
#     4  10  21  36  58  85 115 156 200 238 294 360
#     4  10  22  39  61  88 116 152 202 248 294 357
#     4   9  19  38  60  83 113 153 198 240 289 352
#     4  10  20  37  58  83 116 156 203 248 289 348
#     4  12  22  37  63  87 123 158 191 246 310 341
#
# _framework density 18.552520999999999
#
# number of rings (size 3 to 8) (size 9 to 14) (size 15 to 20)
#    0.000    1.714    2.857    3.429    0.000    2.000 
#    0.000    2.143    0.000    5.143    0.000    0.000 
#    0.000    0.000    0.000    0.000    0.000    0.000 
#
# Total GULP energy -156255.576968 kJ/mol
# GULP energy per Si atom -5580.556320 kJ/mol
# Density = 1.851029 g / cm^3
# Si number density = 18.552521 Si / 1000 Ang^3
#
#
#
# Elastic Constant Matrix: (Units=GPa)
#
#
# Indices 1 2 3 4 5 6 
#
# 1 123.0982 46.9407 27.6011 0.0000 0.0000 0.0000
# 2 46.9407 115.5700 34.2322 0.0000 0.0000 0.0000
# 3 27.6011 34.2322 59.2725 0.0000 0.0000 0.0000
# 4 0.0000 0.0000 0.0000 -12.7701 0.0000 0.0000
# 5 0.0000 0.0000 0.0000 0.0000 0.9541 0.0000
# 6 0.0000 0.0000 0.0000 0.0000 0.0000 -62.2911
#
#
#
# Elastic Compliance Matrix: (Units=1/GPa)
#
#
# Indices 1 2 3 4 5 6 
#
# 1 0.009979 -0.003229 -0.002782 0.000000 0.000000 0.000000
# 2 -0.003229 0.011483 -0.005128 0.000000 0.000000 0.000000
# 3 -0.002782 -0.005128 0.021129 0.000000 0.000000 0.000000
# 4 0.000000 0.000000 0.000000 -0.078308 0.000000 0.000000
# 5 0.000000 0.000000 0.000000 0.000000 1.048141 0.000000
# 6 0.000000 0.000000 0.000000 0.000000 0.000000 -0.016054
#
#
# Mechanical properties :
#
#
# Convention : Reuss Voigt Hill
#
# Bulk Modulus (GPa) = 49.23210 57.27650 53.25430
# Shear Modulus (GPa) = 4.87606 -2.21029 1.33288
#
# Velocity S-wave (km/s) = 1.62294 -1.09268 0.84853
# Velocity P-wave (km/s) = 5.48691 5.41735 5.45224
#
# Compressibility (1/GPa) = 0.02031195
#
# Stress axis : x y z
#
# Youngs Moduli (GPa) = 100.21402 87.08271 47.32943
#
# Poissons Ratio (x) = 0.28119 0.13166
# Poissons Ratio (y) = 0.32359 0.24273
# Poissons Ratio (z) = 0.27878 0.44660
#
# Static dielectric constant tensor:
#      x y z
#    x 1.649870 0.000000 0.000000 
#    y 0.000000 1.655710 0.000000 
#    z 0.000000 0.000000 1.603680 
# 
# From -- ./inp_files/7391.got.cif
#   From: 2010.05.17/outbox.cif.g08.bks.cpg/sg44_4_cif.got.tgz:7391.got - 2010.06.03 19:37:08.
