data_PCOD9375021
_publ_section_title
;
Structure prediction by ZEFSAII (Michael W. Deem and Ramdas Pophale) SiO2 
 PCOD9375021
Probable space group: I M M 2
;
_chemical_formula_sum "Si O2"
_cell_formula_units_Z 64
_cell_length_a 8.898584
_cell_length_b 25.720712
_cell_length_c 15.194412
_cell_angle_alpha 90.000000
_cell_angle_beta 90.000000
_cell_angle_gamma 90.000000
_cell_volume 3477.665358
_symmetry_space_group_name_H-M "I M M 2"
_symmetry_group_IT_number 44
_symmetry_cell_setting 'orthorhombic'
loop_
_space_group_symop_operation_xyz
x,y,z
-x,-y,z
-x,y,z
x,-y,z
1/2+x,1/2+y,1/2+z
1/2-x,1/2-y,1/2+z
1/2-x,1/2+y,1/2+z
1/2+x,1/2-y,1/2+z
loop_
_atom_site_type_symbol
_atom_site_label
_atom_site_fract_x
_atom_site_fract_y
_atom_site_fract_z
Si Si1 0.319726 0.850914 0.443320
Si Si2 0.821077 0.639814 0.577234
Si Si3 0.819203 0.893014 0.748418
Si Si4 0.824682 0.235604 0.982006
Si Si5 0.318726 0.059989 0.925248
Si Si6 0.175597 0.776065 0.771017
Si Si7 0.181049 0.940380 0.561328
Si Si8 0.822104 0.832432 0.253459
O O1 0.500000 0.851484 0.437354
O O2 0.278088 0.795887 0.489492
O O3 0.258345 0.899435 0.497138
O O4 0.252442 0.849329 0.345317
O O5 0.774495 0.694889 0.534562
O O6 0.773326 0.595520 0.507928
O O7 0.741247 0.635844 0.671043
O O8 0.000000 0.637485 0.588649
O O9 0.746838 0.916430 0.835724
O O10 0.776140 0.832489 0.737319
O O11 0.779671 0.925334 0.661672
O O12 0.000000 0.893855 0.758973
O O13 0.815587 0.222950 0.877605
O O14 0.000000 0.230058 0.008210
O O15 0.500000 0.061832 0.920244
O O16 0.272572 0.000000 0.935187
O O17 0.273146 0.727695 0.739446
O O18 0.000000 0.766865 0.748211
O O19 0.000000 0.935684 0.553265
O O20 0.222718 0.000000 0.543112
O O21 0.000000 0.836437 0.259478
#
# Coordination Sequence:
#
# PCOD9375021 Si02
#       8
#     8   8   8   8   8   8   8   8
#     4  10  22  41  62  85 115 152 197 246 299 352
#     4  11  22  36  57  84 117 157 197 240 291 347
#     4  10  20  36  59  87 119 156 195 236 285 343
#     4   9  18  34  55  83 116 147 186 239 287 343
#     4  10  22  39  58  84 119 157 198 242 287 342
#     4   9  18  34  55  84 120 154 190 233 282 343
#     4  10  22  39  59  87 120 155 200 247 292 347
#     4  11  23  38  59  85 118 154 192 243 300 353
#
# _framework density 18.40315
#
# number of rings (size 3 to 8) (size 9 to 14) (size 15 to 20)
#    0.000    2.000    1.250    3.000    1.750    5.000 
#    0.000    0.625    0.000    2.250    0.000    0.000 
#    0.000    0.000    0.000    0.000    0.000    0.000 
#
# Total GULP energy -178765.636059 kJ/mol
# GULP energy per Si atom -5586.426127 kJ/mol
# Density = 1.836126 g / cm^3
# Si number density = 18.403150 Si / 1000 Ang^3
#
#
#
# Elastic Constant Matrix: (Units=GPa)
#
#
# Indices 1 2 3 4 5 6 
#
# 1 45.4587 42.7641 37.6462 0.0000 0.0000 0.0000
# 2 42.7641 134.4424 68.6464 0.0000 0.0000 0.0000
# 3 37.6462 68.6464 94.1261 0.0001 0.0000 0.0000
# 4 0.0000 0.0000 0.0001 27.6549 0.0000 0.0000
# 5 0.0000 0.0000 0.0000 0.0000 31.4890 0.0000
# 6 0.0000 0.0000 0.0000 0.0000 0.0000 26.6003
#
#
#
# Elastic Compliance Matrix: (Units=1/GPa)
#
#
# Indices 1 2 3 4 5 6 
#
# 1 0.036200 -0.006568 -0.009688 0.000000 0.000000 0.000000
# 2 -0.006568 0.013043 -0.006885 0.000000 0.000000 0.000000
# 3 -0.009688 -0.006885 0.019521 0.000000 0.000000 0.000000
# 4 0.000000 0.000000 0.000000 0.036160 0.000000 0.000000
# 5 0.000000 0.000000 0.000000 0.000000 0.031757 0.000000
# 6 0.000000 0.000000 0.000000 0.000000 0.000000 0.037594
#
#
# Mechanical properties :
#
#
# Convention : Reuss Voigt Hill
#
# Bulk Modulus (GPa) = 44.48386 63.57121 54.02753
# Shear Modulus (GPa) = 21.92497 25.48020 23.70258
#
# Velocity S-wave (km/s) = 3.45537 3.72500 3.59271
# Velocity P-wave (km/s) = 6.33591 7.28831 6.82874
#
# Compressibility (1/GPa) = 0.02248006
#
# Stress axis : x y z
#
# Youngs Moduli (GPa) = 27.62450 76.66989 51.22794
#
# Poissons Ratio (x) = 0.50354 0.49632
# Poissons Ratio (y) = 0.18143 0.35273
# Poissons Ratio (z) = 0.26764 0.52791
#
# Static dielectric constant tensor:
#      x y z
#    x 1.616890 0.000000 0.000000 
#    y 0.000000 1.627550 0.000000 
#    z 0.000000 0.000000 1.623180 
# 
# From -- ./inp_files/16846.got.cif
#   From: 2010.05.17/outbox.cif.g08.bks.cpg/sg44_9_cif.got.tgz:16846.got - 2010.06.03 19:37:08.
