data_PCOD9375857
_publ_section_title
;
Structure prediction by ZEFSAII (Michael W. Deem and Ramdas Pophale) SiO2 
 PCOD9375857
Probable space group: I M M 2
;
_chemical_formula_sum "Si O2"
_cell_formula_units_Z 24
_cell_length_a 10.121789
_cell_length_b 10.477489
_cell_length_c 9.963497
_cell_angle_alpha 90.000000
_cell_angle_beta 90.000000
_cell_angle_gamma 90.000000
_cell_volume 1056.638152
_symmetry_space_group_name_H-M "I M M 2"
_symmetry_group_IT_number 44
_symmetry_cell_setting 'orthorhombic'
loop_
_space_group_symop_operation_xyz
x,y,z
-x,-y,z
-x,y,z
x,-y,z
1/2+x,1/2+y,1/2+z
1/2-x,1/2-y,1/2+z
1/2-x,1/2+y,1/2+z
1/2+x,1/2-y,1/2+z
loop_
_atom_site_type_symbol
_atom_site_label
_atom_site_fract_x
_atom_site_fract_y
_atom_site_fract_z
Si Si1 0.152041 0.500000 0.188890
Si Si2 0.663729 0.500000 0.920926
Si Si3 0.273445 0.263927 0.727577
Si Si4 0.500000 0.655742 0.220754
Si Si5 0.500000 0.649727 0.537090
O O1 0.180848 0.375426 0.277327
O O2 0.000000 0.500000 0.143630
O O3 0.250354 0.500000 0.059080
O O4 0.500000 0.500000 0.930571
O O5 0.707228 0.624346 0.835030
O O6 0.371405 0.293305 0.605997
O O7 0.127738 0.233180 0.673799
O O8 0.500000 0.500000 0.202267
O O9 0.500000 0.672246 0.380595
O O10 0.500000 0.500000 0.565049
#
# Coordination Sequence:
#
# PCOD9375857 Si02
#       5
#     4   4   8   4   4
#     4  12  26  44  72 104 139 189 237 291 356 420
#     4  12  26  46  72 104 139 187 237 289 356 426
#     4  12  23  46  67 101 136 183 226 297 339 422
#     4  11  26  43  69 100 137 185 234 282 357 419
#     4  11  22  47  69  96 137 185 226 286 357 423
#
# _framework density 22.713546000000001
#
# number of rings (size 3 to 8) (size 9 to 14) (size 15 to 20)
#    0.000    0.333    6.667    2.000    4.667    0.000 
#    0.000    0.000    0.000    4.000    0.000    0.000 
#    0.000    0.000    0.000    0.000    0.000    0.000 
#
# Total GULP energy -67083.939329 kJ/mol
# GULP energy per Si atom -5590.328277 kJ/mol
# Density = 2.266185 g / cm^3
# Si number density = 22.713546 Si / 1000 Ang^3
#
#
#
# Elastic Constant Matrix: (Units=GPa)
#
#
# Indices 1 2 3 4 5 6 
#
# 1 233.0368 51.4056 34.9783 0.0000 0.0000 0.0000
# 2 51.4056 181.2629 42.6446 0.0000 0.0000 0.0000
# 3 34.9783 42.6446 74.4011 0.0000 0.0000 0.0000
# 4 0.0000 0.0000 0.0000 22.3276 0.0000 0.0000
# 5 0.0000 0.0000 0.0000 0.0000 17.7598 0.0000
# 6 0.0000 0.0000 0.0000 0.0000 0.0000 267.3800
#
#
#
# Elastic Compliance Matrix: (Units=1/GPa)
#
#
# Indices 1 2 3 4 5 6 
#
# 1 0.004755 -0.000951 -0.001690 0.000000 0.000000 0.000000
# 2 -0.000951 0.006567 -0.003317 0.000000 0.000000 0.000000
# 3 -0.001690 -0.003317 0.016137 0.000000 0.000000 0.000000
# 4 0.000000 0.000000 0.000000 0.044788 0.000000 0.000000
# 5 0.000000 0.000000 0.000000 0.000000 0.056307 0.000000
# 6 0.000000 0.000000 0.000000 0.000000 0.000000 0.003740
#
#
# Mechanical properties :
#
#
# Convention : Reuss Voigt Hill
#
# Bulk Modulus (GPa) = 64.34219 82.97308 73.65763
# Shear Modulus (GPa) = 33.46963 85.47163 59.47063
#
# Velocity S-wave (km/s) = 3.84285 6.14100 5.12247
# Velocity P-wave (km/s) = 6.93392 9.32159 8.21497
#
# Compressibility (1/GPa) = 0.01554190
#
# Stress axis : x y z
#
# Youngs Moduli (GPa) = 210.32241 152.28043 61.97107
#
# Poissons Ratio (x) = 0.14477 0.10475
# Poissons Ratio (y) = 0.19996 0.20556
# Poissons Ratio (z) = 0.35552 0.50511
#
# Static dielectric constant tensor:
#      x y z
#    x 1.968110 0.000000 0.000000 
#    y 0.000000 1.872980 0.000000 
#    z 0.000000 0.000000 1.810020 
# 
# From -- ./inp_files/10503.got.cif
#   From: 2010.05.17/outbox.cif.g08.bks.cpg/sg44_6_cif.got.tgz:10503.got - 2010.06.03 19:37:08.
