data_PCOD9375636
_publ_section_title
;
Structure prediction by ZEFSAII (Michael W. Deem and Ramdas Pophale) SiO2 
 PCOD9375636
Probable space group: I M M 2
;
_chemical_formula_sum "Si O2"
_cell_formula_units_Z 40
_cell_length_a 9.057722
_cell_length_b 29.109234
_cell_length_c 7.909889
_cell_angle_alpha 90.000000
_cell_angle_beta 90.000000
_cell_angle_gamma 90.000000
_cell_volume 2085.547826
_symmetry_space_group_name_H-M "I M M 2"
_symmetry_group_IT_number 44
_symmetry_cell_setting 'orthorhombic'
loop_
_space_group_symop_operation_xyz
x,y,z
-x,-y,z
-x,y,z
x,-y,z
1/2+x,1/2+y,1/2+z
1/2-x,1/2-y,1/2+z
1/2-x,1/2+y,1/2+z
1/2+x,1/2-y,1/2+z
loop_
_atom_site_type_symbol
_atom_site_label
_atom_site_fract_x
_atom_site_fract_y
_atom_site_fract_z
Si Si1 0.823472 0.445893 0.224410
Si Si2 0.828648 0.799280 0.503643
Si Si3 0.176617 0.105583 0.037212
Si Si4 0.328038 0.705780 0.406371
Si Si5 0.823721 0.390719 0.884857
O O1 0.792962 0.500000 0.213318
O O2 0.739742 0.423326 0.381339
O O3 0.000000 0.439762 0.248470
O O4 0.783349 0.420609 0.049599
O O5 0.770378 0.749205 0.453594
O O6 0.817197 0.803623 0.706273
O O7 0.733350 0.839200 0.418979
O O8 0.000000 0.804716 0.454675
O O9 0.214214 0.159208 0.002539
O O10 0.000000 0.101905 0.042907
O O11 0.248140 0.091481 0.214366
O O12 0.500000 0.716234 0.444993
O O13 0.000000 0.391281 0.866076
#
# Coordination Sequence:
#
# PCOD9375636 Si02
#       5
#     8   8   8   8   8
#     4  10  23  44  68  93 124 166 214 264 318 378
#     4  11  22  37  58  86 123 165 211 261 310 370
#     4  11  23  41  65  94 129 165 209 263 319 376
#     4  10  22  38  56  85 124 165 208 258 313 375
#     4  11  23  40  64  93 127 167 211 259 316 377
#
# _framework density 19.179613
#
# number of rings (size 3 to 8) (size 9 to 14) (size 15 to 20)
#    0.000    1.400    2.000    3.000    0.000    8.400 
#    0.000    2.000    0.000    0.000    0.000    0.000 
#    0.000    0.000    0.000    0.000    0.000    0.000 
#
# Total GULP energy -111852.485975 kJ/mol
# GULP energy per Si atom -5592.624299 kJ/mol
# Density = 1.913596 g / cm^3
# Si number density = 19.179613 Si / 1000 Ang^3
#
#
#
# Elastic Constant Matrix: (Units=GPa)
#
#
# Indices 1 2 3 4 5 6 
#
# 1 64.4911 57.4010 70.7901 -0.0003 0.0007 0.0000
# 2 57.4010 103.0043 66.8432 -0.0002 -0.0001 0.0001
# 3 70.7901 66.8432 152.4151 -0.0028 0.0001 -0.0003
# 4 -0.0003 -0.0002 -0.0028 21.6758 0.0000 -0.0003
# 5 0.0007 -0.0001 0.0001 0.0000 33.2259 -0.0001
# 6 0.0000 0.0001 -0.0003 -0.0003 -0.0001 28.9021
#
#
#
# Elastic Compliance Matrix: (Units=1/GPa)
#
#
# Indices 1 2 3 4 5 6 
#
# 1 0.045073 -0.016121 -0.013865 -0.000001 -0.000001 0.000000
# 2 -0.016121 0.019336 -0.000993 0.000000 0.000000 0.000000
# 3 -0.013865 -0.000993 0.013436 0.000002 0.000000 0.000000
# 4 -0.000001 0.000000 0.000002 0.046134 0.000000 0.000000
# 5 -0.000001 0.000000 0.000000 0.000000 0.030097 0.000000
# 6 0.000000 0.000000 0.000000 0.000000 0.000000 0.034600
#
#
# Mechanical properties :
#
#
# Convention : Reuss Voigt Hill
#
# Bulk Modulus (GPa) = 62.93571 78.88657 70.91114
# Shear Modulus (GPa) = 19.53670 25.08583 22.31126
#
# Velocity S-wave (km/s) = 3.19504 3.62047 3.41439
# Velocity P-wave (km/s) = 6.81881 7.66138 7.25234
#
# Compressibility (1/GPa) = 0.01588923
#
# Stress axis : x y z
#
# Youngs Moduli (GPa) = 22.18612 51.71696 74.42722
#
# Poissons Ratio (x) = 0.83371 1.03191
# Poissons Ratio (y) = 0.35765 0.07389
# Poissons Ratio (z) = 0.30760 0.05134
#
# Static dielectric constant tensor:
#      x y z
#    x 1.637860 0.000000 0.000000 
#    y 0.000000 1.633500 0.000000 
#    z 0.000000 0.000000 1.664450 
# 
# From -- ./inp_files/4425.got.cif
#   From: 2010.05.17/outbox.cif.g08.bks.cpg/sg44_3_cif.got.tgz:4425.got - 2010.06.03 19:37:08.
