data_PCOD9375562
_publ_section_title
;
Structure prediction by ZEFSAII (Michael W. Deem and Ramdas Pophale) SiO2 
 PCOD9375562
Probable space group: I M M 2
;
_chemical_formula_sum "Si O2"
_cell_formula_units_Z 48
_cell_length_a 9.019230
_cell_length_b 17.091975
_cell_length_c 17.239035
_cell_angle_alpha 90.000000
_cell_angle_beta 90.000000
_cell_angle_gamma 90.000000
_cell_volume 2657.508500
_symmetry_space_group_name_H-M "I M M 2"
_symmetry_group_IT_number 44
_symmetry_cell_setting 'orthorhombic'
loop_
_space_group_symop_operation_xyz
x,y,z
-x,-y,z
-x,y,z
x,-y,z
1/2+x,1/2+y,1/2+z
1/2-x,1/2-y,1/2+z
1/2-x,1/2+y,1/2+z
1/2+x,1/2-y,1/2+z
loop_
_atom_site_type_symbol
_atom_site_label
_atom_site_fract_x
_atom_site_fract_y
_atom_site_fract_z
Si Si1 0.677037 0.316494 0.066880
Si Si2 0.322487 0.347829 0.530547
Si Si3 0.821949 0.000000 0.132050
Si Si4 0.823659 0.500000 0.800807
Si Si5 0.177699 0.407970 0.207905
Si Si6 0.822397 0.677143 0.367809
Si Si7 0.676347 0.641986 0.891414
O O1 0.500000 0.307811 0.072100
O O2 0.751481 0.231115 0.064861
O O3 0.739900 0.366809 0.137101
O O4 0.709331 0.356372 0.983441
O O5 0.500000 0.340094 0.528398
O O6 0.284442 0.422897 0.582410
O O7 0.260007 0.355205 0.443419
O O8 0.742187 0.000000 0.214380
O O9 0.000000 0.000000 0.144523
O O10 0.764710 0.576216 0.846104
O O11 0.000000 0.500000 0.798444
O O12 0.210677 0.500000 0.210553
O O13 0.217842 0.367322 0.289288
O O14 0.000000 0.398520 0.197875
O O15 0.790745 0.769974 0.362161
O O16 0.000000 0.669698 0.380107
O O17 0.500000 0.628262 0.881595
#
# Coordination Sequence:
#
# PCOD9375562 Si02
#       7
#     8   8   4   4   8   8   8
#     4  10  22  40  62  88 117 155 198 241 294 350
#     4  10  21  39  63  88 116 154 197 241 291 347
#     4  10  24  42  60  85 120 159 192 231 294 359
#     4  12  26  38  58  91 118 145 196 251 290 335
#     4  10  22  38  59  90 124 157 195 240 290 343
#     4   9  20  39  62  88 118 156 194 235 291 350
#     4   9  20  40  61  81 115 158 195 231 291 357
#
# _framework density 18.062031000000001
#
# number of rings (size 3 to 8) (size 9 to 14) (size 15 to 20)
#    0.000    2.167    0.000    2.750    4.667    5.667 
#    0.000    0.000    0.000    0.000    0.000    0.000 
#    0.000    0.000    0.000    0.000    0.000    0.000 
#
# Total GULP energy -134062.704411 kJ/mol
# GULP energy per Si atom -5585.946017 kJ/mol
# Density = 1.802092 g / cm^3
# Si number density = 18.062031 Si / 1000 Ang^3
#
#
#
# Elastic Constant Matrix: (Units=GPa)
#
#
# Indices 1 2 3 4 5 6 
#
# 1 67.3509 83.5409 89.9511 0.0000 0.0000 0.0000
# 2 83.5409 143.2056 140.3989 0.0000 0.0000 0.0000
# 3 89.9511 140.3989 178.7488 0.0000 0.0000 0.0000
# 4 0.0000 0.0000 0.0000 25.8188 0.0000 0.0000
# 5 0.0000 0.0000 0.0000 0.0000 37.8855 0.0000
# 6 0.0000 0.0000 0.0000 0.0000 0.0000 24.7883
#
#
#
# Elastic Compliance Matrix: (Units=1/GPa)
#
#
# Indices 1 2 3 4 5 6 
#
# 1 0.058684 -0.022969 -0.011490 0.000000 0.000000 0.000000
# 2 -0.022969 0.039359 -0.019356 0.000000 0.000000 0.000000
# 3 -0.011490 -0.019356 0.026580 0.000000 0.000000 0.000000
# 4 0.000000 0.000000 0.000000 0.038731 0.000000 0.000000
# 5 0.000000 0.000000 0.000000 0.000000 0.026395 0.000000
# 6 0.000000 0.000000 0.000000 0.000000 0.000000 0.040342
#
#
# Mechanical properties :
#
#
# Convention : Reuss Voigt Hill
#
# Bulk Modulus (GPa) = 58.85057 113.00966 85.93012
# Shear Modulus (GPa) = 14.56093 22.72614 18.64354
#
# Velocity S-wave (km/s) = 2.84238 3.55100 3.21626
# Velocity P-wave (km/s) = 6.58979 8.91718 7.84033
#
# Compressibility (1/GPa) = 0.01699219
#
# Stress axis : x y z
#
# Youngs Moduli (GPa) = 17.04055 25.40723 37.62269
#
# Poissons Ratio (x) = 0.58358 0.43228
# Poissons Ratio (y) = 0.39141 0.72822
# Poissons Ratio (z) = 0.19580 0.49178
#
# Static dielectric constant tensor:
#      x y z
#    x 1.602170 0.000000 0.000000 
#    y 0.000000 1.596510 0.000000 
#    z 0.000000 0.000000 1.591570 
# 
# From -- ./inp_files/16221.got.cif
#   From: 2010.05.17/outbox.cif.g08.bks.cpg/sg44_9_cif.got.tgz:16221.got - 2010.06.03 19:37:08.
