data_PCOD9375150
_publ_section_title
;
Structure prediction by ZEFSAII (Michael W. Deem and Ramdas Pophale) SiO2 
 PCOD9375150
Probable space group: I M M 2
;
_chemical_formula_sum "Si O2"
_cell_formula_units_Z 64
_cell_length_a 28.579612
_cell_length_b 8.707141
_cell_length_c 12.915512
_cell_angle_alpha 90.000000
_cell_angle_beta 90.000000
_cell_angle_gamma 90.000000
_cell_volume 3213.982687
_symmetry_space_group_name_H-M "I M M 2"
_symmetry_group_IT_number 44
_symmetry_cell_setting 'orthorhombic'
loop_
_space_group_symop_operation_xyz
x,y,z
-x,-y,z
-x,y,z
x,-y,z
1/2+x,1/2+y,1/2+z
1/2-x,1/2-y,1/2+z
1/2-x,1/2+y,1/2+z
1/2+x,1/2-y,1/2+z
loop_
_atom_site_type_symbol
_atom_site_label
_atom_site_fract_x
_atom_site_fract_y
_atom_site_fract_z
Si Si1 0.052533 0.677356 0.119480
Si Si2 0.446409 0.687256 0.965155
Si Si3 0.403647 0.313912 0.186022
Si Si4 0.070817 0.175424 0.907943
Si Si5 0.697023 0.817811 0.244692
Si Si6 0.680852 0.675231 0.459939
Si Si7 0.208471 0.680481 0.172901
Si Si8 0.378799 0.318269 0.779205
O O1 0.066684 0.500000 0.133029
O O2 0.088319 0.784798 0.180143
O O3 0.000000 0.697974 0.161266
O O4 0.051430 0.719387 0.998538
O O5 0.500000 0.738619 0.946955
O O6 0.447054 0.500000 0.961675
O O7 0.428305 0.731382 0.079213
O O8 0.409202 0.736603 0.877743
O O9 0.400045 0.500000 0.188585
O O10 0.432908 0.270975 0.289259
O O11 0.351388 0.247405 0.197717
O O12 0.053433 0.000000 0.917321
O O13 0.126268 0.171203 0.930509
O O14 0.704442 0.745563 0.358557
O O15 0.742471 0.767828 0.181692
O O16 0.693154 0.000000 0.252541
O O17 0.696105 0.500000 0.479949
O O18 0.687947 0.777370 0.560645
O O19 0.216008 0.500000 0.183324
O O20 0.170425 0.736989 0.256997
O O21 0.370568 0.500000 0.788639
#
# Coordination Sequence:
#
# PCOD9375150 Si02
#       8
#     8   8   8   8   8   8   8   8
#     4  11  23  36  53  81 117 154 194 243 300 362
#     4   9  19  37  63  92 122 162 211 263 314 369
#     4   9  19  38  62  88 121 157 203 259 311 366
#     4   9  18  33  57  84 112 147 188 241 302 363
#     4  11  23  39  60  89 124 164 207 253 310 375
#     4  10  20  38  61  86 116 150 194 249 307 367
#     4  12  24  39  61  88 121 162 207 257 315 376
#     4  11  22  38  60  87 119 157 206 260 313 375
#
# _framework density 19.912989
#
# number of rings (size 3 to 8) (size 9 to 14) (size 15 to 20)
#    0.000    1.750    1.250    4.500    0.000    5.000 
#    0.000    6.250    0.000    1.875    0.000    0.000 
#    0.000    0.000    0.000    0.000    0.000    0.000 
#
# Total GULP energy -178712.210477 kJ/mol
# GULP energy per Si atom -5584.756577 kJ/mol
# Density = 1.986767 g / cm^3
# Si number density = 19.912989 Si / 1000 Ang^3
#
#
#
# Elastic Constant Matrix: (Units=GPa)
#
#
# Indices 1 2 3 4 5 6 
#
# 1 49.5933 -1.7343 8.3300 0.0000 0.0000 0.0000
# 2 -1.7343 28.4851 -13.7098 0.0000 0.0000 0.0000
# 3 8.3300 -13.7098 80.5864 0.0000 0.0000 0.0000
# 4 0.0000 0.0000 0.0000 10.4860 0.0000 0.0000
# 5 0.0000 0.0000 0.0000 0.0000 16.0562 0.0000
# 6 0.0000 0.0000 0.0000 0.0000 0.0000 4.9093
#
#
#
# Elastic Compliance Matrix: (Units=1/GPa)
#
#
# Indices 1 2 3 4 5 6 
#
# 1 0.020522 0.000249 -0.002079 0.000000 0.000000 0.000000
# 2 0.000249 0.038240 0.006480 0.000000 0.000000 0.000000
# 3 -0.002079 0.006480 0.013726 0.000000 0.000000 0.000000
# 4 0.000000 0.000000 0.000000 0.095365 0.000000 0.000000
# 5 0.000000 0.000000 0.000000 0.000000 0.062281 0.000000
# 6 0.000000 0.000000 0.000000 0.000000 0.000000 0.203693
#
#
# Mechanical properties :
#
#
# Convention : Reuss Voigt Hill
#
# Bulk Modulus (GPa) = 12.22676 16.04850 14.13763
# Shear Modulus (GPa) = 11.06708 17.34225 14.20467
#
# Velocity S-wave (km/s) = 2.36004 2.95431 2.67373
# Velocity P-wave (km/s) = 3.68508 4.44005 4.08006
#
# Compressibility (1/GPa) = 0.08178780
#
# Stress axis : x y z
#
# Youngs Moduli (GPa) = 48.72839 26.15065 72.85265
#
# Poissons Ratio (x) = -0.00651 0.15146
# Poissons Ratio (y) = -0.01213 -0.47208
# Poissons Ratio (z) = 0.10130 -0.16945
#
# Static dielectric constant tensor:
#      x y z
#    x 1.709140 0.000000 0.000000 
#    y 0.000000 1.674490 0.000000 
#    z 0.000000 0.000000 1.707560 
# 
# From -- ./inp_files/15104.got.cif
#   From: 2010.05.17/outbox.cif.g08.bks.cpg/sg44_8_cif.got.tgz:15104.got - 2010.06.03 19:37:08.
