data_PCOD9375901
_publ_section_title
;
Structure prediction by ZEFSAII (Michael W. Deem and Ramdas Pophale) SiO2 
 PCOD9375901
Probable space group: I M M 2
;
_chemical_formula_sum "Si O2"
_cell_formula_units_Z 56
_cell_length_a 14.327021
_cell_length_b 7.371389
_cell_length_c 30.597017
_cell_angle_alpha 90.000000
_cell_angle_beta 90.000000
_cell_angle_gamma 90.000000
_cell_volume 3231.352342
_symmetry_space_group_name_H-M "I M M 2"
_symmetry_group_IT_number 44
_symmetry_cell_setting 'orthorhombic'
loop_
_space_group_symop_operation_xyz
x,y,z
-x,-y,z
-x,y,z
x,-y,z
1/2+x,1/2+y,1/2+z
1/2-x,1/2-y,1/2+z
1/2-x,1/2+y,1/2+z
1/2+x,1/2-y,1/2+z
loop_
_atom_site_type_symbol
_atom_site_label
_atom_site_fract_x
_atom_site_fract_y
_atom_site_fract_z
Si Si1 0.608383 0.777914 0.394700
Si Si2 0.386498 0.789820 0.490251
Si Si3 0.605098 0.221204 0.219779
Si Si4 0.894853 0.778619 0.259922
Si Si5 0.894136 0.283372 0.084823
Si Si6 0.210589 0.279321 0.807797
Si Si7 0.788776 0.216473 0.173613
O O1 0.500000 0.726284 0.387853
O O2 0.639968 0.713859 0.442852
O O3 0.671460 0.718548 0.354273
O O4 0.609167 0.000000 0.395646
O O5 0.500000 0.787600 0.490471
O O6 0.360063 0.711768 0.537577
O O7 0.356076 0.000000 0.489729
O O8 0.500000 0.283637 0.211707
O O9 0.642418 0.273110 0.267885
O O10 0.684856 0.281375 0.185766
O O11 0.603201 0.000000 0.219110
O O12 0.814795 0.722690 0.294068
O O13 0.858788 0.720039 0.211930
O O14 0.000000 0.717754 0.268525
O O15 0.895939 0.000000 0.260023
O O16 0.901337 0.500000 0.079462
O O17 0.827818 0.253271 0.125815
O O18 0.000000 0.216244 0.093727
O O19 0.210524 0.500000 0.808479
O O20 0.785835 0.000000 0.178168
#
# Coordination Sequence:
#
# PCOD9375901 Si02
#       7
#     8   8   8   8   8   8   8
#     4   8  11  15  25  41  61  83 106 133 164 200
#     4   7  11  19  29  42  61  84 108 135 169 203
#     4   8  13  21  32  48  71  93 112 140 176 208
#     4   8  13  20  28  41  65  92 113 135 164 198
#     4   9  16  25  36  50  70  95 119 143 173 207
#     4   8  12  16  25  43  64  87 112 134 163 202
#     4   9  16  24  36  53  70  92 120 144 170 205
#
# _framework density 17.330204999999999
#
# number of rings (size 3 to 8) (size 9 to 14) (size 15 to 20)
#    0.000    3.857    0.000    4.286    0.000    2.571 
#    0.000    0.000    0.000    0.429    0.000    1.000 
#    0.000    8.000    0.000    9.143    0.000    7.286 
#
# Total GULP energy -155884.773651 kJ/mol
# GULP energy per Si atom -5567.313345 kJ/mol
# Density = 1.729076 g / cm^3
# Si number density = 17.330205 Si / 1000 Ang^3
#
#
#
# Elastic Constant Matrix: (Units=GPa)
#
#
# Indices 1 2 3 4 5 6 
#
# 1 132.9377 5.6679 96.2472 0.0000 0.0000 0.0000
# 2 5.6679 59.5266 4.4520 0.0000 0.0000 0.0000
# 3 96.2472 4.4520 189.8532 0.0000 0.0000 0.0000
# 4 0.0000 0.0000 0.0000 5.6973 0.0000 0.0000
# 5 0.0000 0.0000 0.0000 0.0000 27.1283 0.0000
# 6 0.0000 0.0000 0.0000 0.0000 0.0000 -8.8368
#
#
#
# Elastic Compliance Matrix: (Units=1/GPa)
#
#
# Indices 1 2 3 4 5 6 
#
# 1 0.011912 -0.000684 -0.006023 0.000000 0.000000 0.000000
# 2 -0.000684 0.016868 -0.000049 0.000000 0.000000 0.000000
# 3 -0.006023 -0.000049 0.008322 0.000000 0.000000 0.000000
# 4 0.000000 0.000000 0.000000 0.175520 0.000000 0.000000
# 5 0.000000 0.000000 0.000000 0.000000 0.036862 0.000000
# 6 0.000000 0.000000 0.000000 0.000000 0.000000 -0.113163
#
#
# Mechanical properties :
#
#
# Convention : Reuss Voigt Hill
#
# Bulk Modulus (GPa) = 42.38965 66.11685 54.25325
# Shear Modulus (GPa) = 31.70661 23.19446 27.45054
#
# Velocity S-wave (km/s) = 4.28197 3.66236 3.98423
# Velocity P-wave (km/s) = 6.99715 7.49119 7.24838
#
# Compressibility (1/GPa) = 0.02359067
#
# Stress axis : x y z
#
# Youngs Moduli (GPa) = 83.94890 59.28390 120.16808
#
# Poissons Ratio (x) = 0.04054 0.72375
# Poissons Ratio (y) = 0.05740 0.00588
# Poissons Ratio (z) = 0.50561 0.00290
#
# Static dielectric constant tensor:
#      x y z
#    x 1.568000 0.000000 0.000000 
#    y 0.000000 1.744730 0.000000 
#    z 0.000000 0.000000 1.612840 
# 
# From -- ./inp_files/27215.got.cif
#   From: 2010.05.17/outbox.cif.g08.bks.cpg/sg44_14_cif.got.tgz:27215.got - 2010.06.03 19:37:08.
