data_PCOD9375473
_publ_section_title
;
Structure prediction by ZEFSAII (Michael W. Deem and Ramdas Pophale) SiO2 
 PCOD9375473
Probable space group: I M M 2
;
_chemical_formula_sum "Si O2"
_cell_formula_units_Z 56
_cell_length_a 8.089512
_cell_length_b 20.947990
_cell_length_c 16.036658
_cell_angle_alpha 90.000000
_cell_angle_beta 90.000000
_cell_angle_gamma 90.000000
_cell_volume 2717.556292
_symmetry_space_group_name_H-M "I M M 2"
_symmetry_group_IT_number 44
_symmetry_cell_setting 'orthorhombic'
loop_
_space_group_symop_operation_xyz
x,y,z
-x,-y,z
-x,y,z
x,-y,z
1/2+x,1/2+y,1/2+z
1/2-x,1/2-y,1/2+z
1/2-x,1/2+y,1/2+z
1/2+x,1/2-y,1/2+z
loop_
_atom_site_type_symbol
_atom_site_label
_atom_site_fract_x
_atom_site_fract_y
_atom_site_fract_z
Si Si1 0.186462 0.073474 0.193580
Si Si2 0.302258 0.195028 0.462091
Si Si3 0.804824 0.749684 0.128946
Si Si4 0.200384 0.072896 0.369993
Si Si5 0.687489 0.877109 0.036837
Si Si6 0.801873 0.788806 0.812027
Si Si7 0.304540 0.427301 0.362135
O O1 0.253851 0.101233 0.279514
O O2 0.302283 0.075928 0.114831
O O3 0.000000 0.097694 0.175123
O O4 0.166631 0.000000 0.216793
O O5 0.500000 0.204899 0.465537
O O6 0.237742 0.203477 0.556315
O O7 0.263948 0.123744 0.434754
O O8 0.239939 0.245758 0.391043
O O9 0.769403 0.816199 0.081442
O O10 0.732614 0.741361 0.221274
O O11 0.000000 0.741275 0.139462
O O12 0.000000 0.073049 0.368947
O O13 0.256571 0.000000 0.384470
O O14 0.500000 0.863123 0.012250
O O15 0.780341 0.907775 0.959029
O O16 0.739091 0.862774 0.816423
O O17 0.000000 0.791974 0.822007
O O18 0.500000 0.430967 0.344391
O O19 0.237304 0.500000 0.348134
#
# Coordination Sequence:
#
# PCOD9375473 Si02
#       7
#     8   8   8   8   8   8   8
#     4   9  18  33  52  76 110 151 188 225 283 354
#     4  10  21  38  59  83 116 152 190 241 297 352
#     4  11  23  40  60  84 115 155 199 245 304 367
#     4   9  19  35  55  81 112 147 190 238 287 348
#     4  12  23  34  53  85 119 151 195 250 301 352
#     4  10  21  40  62  90 122 155 202 255 301 359
#     4  10  21  40  64  86 119 167 207 248 310 376
#
# _framework density 20.606749000000001
#
# number of rings (size 3 to 8) (size 9 to 14) (size 15 to 20)
#    0.000    1.857    1.429    3.857    0.000    7.714 
#    0.000    2.143    0.000    2.571    0.000    0.000 
#    0.000    0.000    0.000    0.000    0.000    0.000 
#
# Total GULP energy -155959.769977 kJ/mol
# GULP energy per Si atom -5569.991785 kJ/mol
# Density = 2.055985 g / cm^3
# Si number density = 20.606749 Si / 1000 Ang^3
#
#
#
# Elastic Constant Matrix: (Units=GPa)
#
#
# Indices 1 2 3 4 5 6 
#
# 1 15.4631 -1.9149 -0.3785 0.0000 0.0000 0.0000
# 2 -1.9149 102.9318 29.8818 0.0000 0.0000 0.0000
# 3 -0.3785 29.8818 81.7157 0.0000 0.0000 0.0000
# 4 0.0000 0.0000 0.0000 33.4978 0.0000 0.0000
# 5 0.0000 0.0000 0.0000 0.0000 -2.9781 0.0000
# 6 0.0000 0.0000 0.0000 0.0000 0.0000 15.7009
#
#
#
# Elastic Compliance Matrix: (Units=1/GPa)
#
#
# Indices 1 2 3 4 5 6 
#
# 1 0.064821 0.001252 -0.000157 0.000000 0.000000 0.000000
# 2 0.001252 0.010893 -0.003978 0.000000 0.000000 0.000000
# 3 -0.000157 -0.003978 0.013691 0.000000 0.000000 0.000000
# 4 0.000000 0.000000 0.000000 0.029853 0.000000 0.000000
# 5 0.000000 0.000000 0.000000 0.000000 -0.335782 0.000000
# 6 0.000000 0.000000 0.000000 0.000000 0.000000 0.063690
#
#
# Mechanical properties :
#
#
# Convention : Reuss Voigt Hill
#
# Bulk Modulus (GPa) = 11.95616 28.36526 20.16071
# Shear Modulus (GPa) = -41.95116 20.74562 -10.60277
#
# Velocity S-wave (km/s) = -4.51688 3.17636 -2.27078
# Velocity P-wave (km/s) = 4.62474 5.21989 1.71158
#
# Compressibility (1/GPa) = 0.08363891
#
# Stress axis : x y z
#
# Youngs Moduli (GPa) = 15.42704 91.80057 73.03882
#
# Poissons Ratio (x) = -0.11490 0.01150
# Poissons Ratio (y) = -0.01931 0.29052
# Poissons Ratio (z) = 0.00243 0.36515
#
# Static dielectric constant tensor:
#      x y z
#    x 1.777740 0.000000 0.000000 
#    y 0.000000 1.759460 0.000000 
#    z 0.000000 0.000000 1.763970 
# 
# From -- ./inp_files/16445.got.cif
#   From: 2010.05.17/outbox.cif.g08.bks.cpg/sg44_9_cif.got.tgz:16445.got - 2010.06.03 19:37:08.
