data_PCOD9375158
_publ_section_title
;
Structure prediction by ZEFSAII (Michael W. Deem and Ramdas Pophale) SiO2 
 PCOD9375158
Probable space group: I M M 2
;
_chemical_formula_sum "Si O2"
_cell_formula_units_Z 48
_cell_length_a 31.616551
_cell_length_b 9.239266
_cell_length_c 7.262848
_cell_angle_alpha 90.000000
_cell_angle_beta 90.000000
_cell_angle_gamma 90.000000
_cell_volume 2121.577581
_symmetry_space_group_name_H-M "I M M 2"
_symmetry_group_IT_number 44
_symmetry_cell_setting 'orthorhombic'
loop_
_space_group_symop_operation_xyz
x,y,z
-x,-y,z
-x,y,z
x,-y,z
1/2+x,1/2+y,1/2+z
1/2-x,1/2-y,1/2+z
1/2-x,1/2+y,1/2+z
1/2+x,1/2-y,1/2+z
loop_
_atom_site_type_symbol
_atom_site_label
_atom_site_fract_x
_atom_site_fract_y
_atom_site_fract_z
Si Si1 0.691475 0.846699 0.511560
Si Si2 0.161489 0.157888 0.477718
Si Si3 0.606883 0.255917 0.321665
Si Si4 0.451911 0.000000 0.725625
Si Si5 0.737536 0.156270 0.121901
Si Si6 0.083902 0.831145 0.215696
Si Si7 0.048474 0.500000 0.780977
O O1 0.644989 0.821353 0.432786
O O2 0.720320 0.852133 0.328564
O O3 0.716796 0.729078 0.623899
O O4 0.691883 0.000000 0.610592
O O5 0.130103 0.162192 0.656307
O O6 0.198811 0.267641 0.518533
O O7 0.130713 0.178733 0.304408
O O8 0.181451 0.000000 0.466420
O O9 0.583931 0.334441 0.492152
O O10 0.575020 0.141613 0.229578
O O11 0.434728 0.167422 0.767950
O O12 0.500000 0.000000 0.791741
O O13 0.450956 0.000000 0.503438
O O14 0.743722 0.000000 0.037274
O O15 0.069043 0.000000 0.271368
O O16 0.000000 0.500000 0.720601
#
# Coordination Sequence:
#
# PCOD9375158 Si02
#       7
#     8   8   8   4   8   8   4
#     4  10  21  38  56  80 118 158 200 250 309 362
#     4  10  22  39  59  85 121 160 205 257 310 369
#     4  10  20  38  63  87 122 164 200 253 316 372
#     4   9  20  39  63  95 128 161 209 256 319 387
#     4  10  23  37  55  82 114 156 203 255 303 361
#     4  10  22  38  62  93 120 161 211 254 311 380
#     4   9  18  37  65  97 126 159 207 258 313 385
#
# _framework density 22.624673999999999
#
# number of rings (size 3 to 8) (size 9 to 14) (size 15 to 20)
#    0.000    2.167    0.833    1.000    4.667    4.333 
#    0.000    1.667    0.000    2.500    0.000    0.000 
#    0.000    0.000    0.000    0.000    0.000    0.000 
#
# Total GULP energy -133628.051447 kJ/mol
# GULP energy per Si atom -5567.835477 kJ/mol
# Density = 2.257318 g / cm^3
# Si number density = 22.624674 Si / 1000 Ang^3
#
#
#
# Elastic Constant Matrix: (Units=GPa)
#
#
# Indices 1 2 3 4 5 6 
#
# 1 110.8167 64.0770 -5.1692 0.0000 0.0000 0.0000
# 2 64.0770 164.6588 -0.8527 0.0000 0.0000 0.0000
# 3 -5.1692 -0.8527 74.0084 0.0000 0.0000 0.0000
# 4 0.0000 0.0000 0.0000 12.4769 0.0000 0.0000
# 5 0.0000 0.0000 0.0000 0.0000 7.7938 0.0000
# 6 0.0000 0.0000 0.0000 0.0000 0.0000 150.8078
#
#
#
# Elastic Compliance Matrix: (Units=1/GPa)
#
#
# Indices 1 2 3 4 5 6 
#
# 1 0.011687 -0.004544 0.000764 0.000000 0.000000 0.000000
# 2 -0.004544 0.007840 -0.000227 0.000000 0.000000 0.000000
# 3 0.000764 -0.000227 0.013563 0.000000 0.000000 0.000000
# 4 0.000000 0.000000 0.000000 0.080148 0.000000 0.000000
# 5 0.000000 0.000000 0.000000 0.000000 0.128307 0.000000
# 6 0.000000 0.000000 0.000000 0.000000 0.000000 0.006631
#
#
# Mechanical properties :
#
#
# Convention : Reuss Voigt Hill
#
# Bulk Modulus (GPa) = 39.87919 51.73267 45.80593
# Shear Modulus (GPa) = 18.90011 53.64431 36.27221
#
# Velocity S-wave (km/s) = 2.89342 4.87463 4.00836
# Velocity P-wave (km/s) = 5.36910 7.38904 6.45853
#
# Compressibility (1/GPa) = 0.02507574
#
# Stress axis : x y z
#
# Youngs Moduli (GPa) = 85.56487 127.54602 73.73153
#
# Poissons Ratio (x) = 0.57958 -0.05633
# Poissons Ratio (y) = 0.38881 0.01674
# Poissons Ratio (z) = -0.06537 0.02896
#
# Static dielectric constant tensor:
#      x y z
#    x 1.796500 0.000000 0.000000 
#    y 0.000000 1.666110 0.000000 
#    z 0.000000 0.000000 1.895010 
# 
# From -- ./inp_files/4945.got.cif
#   From: 2010.05.17/outbox.cif.g08.bks.cpg/sg44_3_cif.got.tgz:4945.got - 2010.06.03 19:37:08.
