data_PCOD9375352
_publ_section_title
;
Structure prediction by ZEFSAII (Michael W. Deem and Ramdas Pophale) SiO2 
 PCOD9375352
Probable space group: I M M 2
;
_chemical_formula_sum "Si O2"
_cell_formula_units_Z 64
_cell_length_a 9.814872
_cell_length_b 13.837340
_cell_length_c 24.062823
_cell_angle_alpha 90.000000
_cell_angle_beta 90.000000
_cell_angle_gamma 90.000000
_cell_volume 3268.013402
_symmetry_space_group_name_H-M "I M M 2"
_symmetry_group_IT_number 44
_symmetry_cell_setting 'orthorhombic'
loop_
_space_group_symop_operation_xyz
x,y,z
-x,-y,z
-x,y,z
x,-y,z
1/2+x,1/2+y,1/2+z
1/2-x,1/2-y,1/2+z
1/2-x,1/2+y,1/2+z
1/2+x,1/2-y,1/2+z
loop_
_atom_site_type_symbol
_atom_site_label
_atom_site_fract_x
_atom_site_fract_y
_atom_site_fract_z
Si Si1 0.658234 0.320626 0.440070
Si Si2 0.659155 0.115698 0.706641
Si Si3 0.662484 0.892606 0.035714
Si Si4 0.149304 0.614116 0.734982
Si Si5 0.649221 0.613982 0.826937
Si Si6 0.658111 0.384470 0.316003
Si Si7 0.656738 0.745539 0.131283
Si Si8 0.156092 0.393836 0.931832
O O1 0.500000 0.350575 0.445549
O O2 0.757225 0.381854 0.478342
O O3 0.690849 0.331134 0.374229
O O4 0.669505 0.209327 0.461096
O O5 0.500000 0.146062 0.710164
O O6 0.742488 0.133866 0.764040
O O7 0.739714 0.167229 0.656210
O O8 0.661540 0.000000 0.698441
O O9 0.500000 0.886380 0.026903
O O10 0.699580 0.804295 0.076457
O O11 0.690403 0.000000 0.059706
O O12 0.166562 0.500000 0.724641
O O13 0.263276 0.652633 0.776240
O O14 0.151485 0.672064 0.678481
O O15 0.000000 0.625932 0.761677
O O16 0.500000 0.657701 0.833188
O O17 0.634459 0.500000 0.814393
O O18 0.736759 0.614309 0.882439
O O19 0.500000 0.361471 0.300943
O O20 0.664135 0.500000 0.327452
O O21 0.500000 0.708775 0.124652
O O22 0.175974 0.500000 0.959390
O O23 0.000000 0.394260 0.910363
#
# Coordination Sequence:
#
# PCOD9375352 Si02
#       8
#     8   8   8   8   8   8   8   8
#     4  10  21  36  58  86 115 153 201 244 287 341
#     4  10  22  39  58  84 118 152 190 240 294 345
#     4  10  22  41  63  88 118 149 186 237 293 348
#     4   9  17  30  49  73 103 141 183 223 266 325
#     4   9  17  28  43  68 104 141 176 219 271 323
#     4   9  18  34  56  82 113 150 193 241 292 348
#     4  10  21  37  59  83 110 148 192 232 280 343
#     4   9  18  33  51  73 107 150 192 231 272 325
#
# _framework density 19.583763000000001
#
# number of rings (size 3 to 8) (size 9 to 14) (size 15 to 20)
#    0.000    2.500    0.000    1.500    1.750    6.500 
#    0.000    1.875    0.000    4.500    0.000    0.000 
#    0.000    0.000    0.000    0.000    0.000    0.000 
#
# Total GULP energy -178342.951394 kJ/mol
# GULP energy per Si atom -5573.217231 kJ/mol
# Density = 1.953919 g / cm^3
# Si number density = 19.583763 Si / 1000 Ang^3
#
#
#
# Elastic Constant Matrix: (Units=GPa)
#
#
# Indices 1 2 3 4 5 6 
#
# 1 93.4316 38.9923 46.9753 0.0000 0.0000 0.0000
# 2 38.9923 98.7592 21.9547 0.0000 0.0000 0.0000
# 3 46.9753 21.9547 66.6289 0.0000 0.0000 0.0000
# 4 0.0000 0.0000 0.0000 21.7590 0.0000 0.0000
# 5 0.0000 0.0000 0.0000 0.0000 26.3941 0.0000
# 6 0.0000 0.0000 0.0000 0.0000 0.0000 0.0079
#
#
#
# Elastic Compliance Matrix: (Units=1/GPa)
#
#
# Indices 1 2 3 4 5 6 
#
# 1 0.018426 -0.004734 -0.011431 0.000000 0.000000 0.000001
# 2 -0.004734 0.012142 -0.000663 0.000000 0.000000 -0.000001
# 3 -0.011431 -0.000663 0.023286 0.000000 0.000000 -0.000001
# 4 0.000000 0.000000 0.000000 0.045958 0.000000 -0.000002
# 5 0.000000 0.000000 0.000000 0.000000 0.037887 0.000000
# 6 0.000001 -0.000001 -0.000001 -0.000002 0.000000127.099721
#
#
# Mechanical properties :
#
#
# Convention : Reuss Voigt Hill
#
# Bulk Modulus (GPa) = 49.51021 52.74050 51.12535
# Shear Modulus (GPa) = 0.03928 19.69202 9.86565
#
# Velocity S-wave (km/s) = 0.14179 3.17445 2.24691
# Velocity P-wave (km/s) = 5.03616 6.35809 5.73534
#
# Compressibility (1/GPa) = 0.02019786
#
# Stress axis : x y z
#
# Youngs Moduli (GPa) = 54.27181 82.35797 42.94382
#
# Poissons Ratio (x) = 0.38986 0.49089
# Poissons Ratio (y) = 0.25691 0.02849
# Poissons Ratio (z) = 0.62038 0.05464
#
# Static dielectric constant tensor:
#      x y z
#    x 1.697930 0.000000 0.000000 
#    y 0.000000 1.747080 0.000000 
#    z 0.000000 0.000000 1.644280 
# 
# From -- ./inp_files/25172.got.cif
#   From: 2010.05.17/outbox.cif.g08.bks.cpg/sg44_13_cif.got.tgz:25172.got - 2010.06.03 19:37:08.
