data_PCOD9375694
_publ_section_title
;
Structure prediction by ZEFSAII (Michael W. Deem and Ramdas Pophale) SiO2 
 PCOD9375694
Probable space group: I M M 2
;
_chemical_formula_sum "Si O2"
_cell_formula_units_Z 64
_cell_length_a 31.622427
_cell_length_b 8.758148
_cell_length_c 12.197079
_cell_angle_alpha 90.000000
_cell_angle_beta 90.000000
_cell_angle_gamma 90.000000
_cell_volume 3378.028546
_symmetry_space_group_name_H-M "I M M 2"
_symmetry_group_IT_number 44
_symmetry_cell_setting 'orthorhombic'
loop_
_space_group_symop_operation_xyz
x,y,z
-x,-y,z
-x,y,z
x,-y,z
1/2+x,1/2+y,1/2+z
1/2-x,1/2-y,1/2+z
1/2-x,1/2+y,1/2+z
1/2+x,1/2-y,1/2+z
loop_
_atom_site_type_symbol
_atom_site_label
_atom_site_fract_x
_atom_site_fract_y
_atom_site_fract_z
Si Si1 0.873535 0.183019 0.564570
Si Si2 0.453030 0.182254 0.194460
Si Si3 0.569823 0.318946 0.425147
Si Si4 0.295897 0.181430 0.200702
Si Si5 0.453488 0.685857 0.670904
Si Si6 0.703452 0.818268 0.666833
Si Si7 0.871956 0.184690 0.309390
Si Si8 0.161641 0.319032 0.932651
O O1 0.915043 0.242812 0.626985
O O2 0.831835 0.247657 0.623207
O O3 0.874438 0.228092 0.436802
O O4 0.872774 0.000000 0.571119
O O5 0.500000 0.224927 0.153741
O O6 0.449252 0.234408 0.320640
O O7 0.448564 0.000000 0.189066
O O8 0.562702 0.500000 0.413321
O O9 0.552325 0.269909 0.543704
O O10 0.619510 0.280626 0.426350
O O11 0.249897 0.250013 0.180499
O O12 0.310136 0.209902 0.325951
O O13 0.294837 0.000000 0.183547
O O14 0.500000 0.734974 0.710019
O O15 0.452709 0.500000 0.673120
O O16 0.413717 0.737588 0.743094
O O17 0.669775 0.748931 0.751578
O O18 0.686171 0.786479 0.544650
O O19 0.705170 0.000000 0.681206
O O20 0.870530 0.000000 0.303414
O O21 0.150018 0.500000 0.931887
#
# Coordination Sequence:
#
# PCOD9375694 Si02
#       8
#     8   8   8   8   8   8   8   8
#     4  11  24  41  63  90 121 158 205 256 301 356
#     4  11  24  41  61  87 124 165 202 246 304 364
#     4  11  20  34  62  93 123 156 199 253 300 355
#     4  11  24  42  64  89 122 161 200 246 307 364
#     4   9  18  34  58  89 121 154 195 244 299 357
#     4  11  24  41  63  92 124 158 203 250 297 359
#     4  10  22  41  62  87 122 161 201 250 307 359
#     4  10  22  40  62  88 123 161 196 249 306 357
#
# _framework density 18.945962999999999
#
# number of rings (size 3 to 8) (size 9 to 14) (size 15 to 20)
#    0.000    1.500    2.500    2.250    1.750    4.000 
#    0.000    1.250    0.000    1.125    0.000    0.000 
#    0.000    0.000    0.000    0.000    0.000    0.000 
#
# Total GULP energy -178846.752729 kJ/mol
# GULP energy per Si atom -5588.961023 kJ/mol
# Density = 1.890284 g / cm^3
# Si number density = 18.945963 Si / 1000 Ang^3
#
#
#
# Elastic Constant Matrix: (Units=GPa)
#
#
# Indices 1 2 3 4 5 6 
#
# 1 182.3766 43.6455 81.2010 0.0000 0.0000 0.0000
# 2 43.6455 31.0648 41.3737 0.0000 0.0000 0.0000
# 3 81.2010 41.3737 143.1236 0.0000 0.0000 0.0000
# 4 0.0000 0.0000 0.0000 25.4736 0.0000 0.0000
# 5 0.0000 0.0000 0.0000 0.0000 39.1446 0.0000
# 6 0.0000 0.0000 0.0000 0.0000 0.0000 -49.6357
#
#
#
# Elastic Compliance Matrix: (Units=1/GPa)
#
#
# Indices 1 2 3 4 5 6 
#
# 1 0.008695 -0.009181 -0.002279 0.000000 0.000000 0.000000
# 2 -0.009181 0.062037 -0.012725 0.000000 0.000000 0.000000
# 3 -0.002279 -0.012725 0.011958 0.000000 0.000000 0.000000
# 4 0.000000 0.000000 0.000000 0.039256 0.000000 0.000000
# 5 0.000000 0.000000 0.000000 0.000000 0.025546 0.000000
# 6 0.000000 0.000000 0.000000 0.000000 0.000000 -0.020147
#
#
# Mechanical properties :
#
#
# Convention : Reuss Voigt Hill
#
# Bulk Modulus (GPa) = 29.13655 76.55615 52.84635
# Shear Modulus (GPa) = 26.71563 15.68616 21.20089
#
# Velocity S-wave (km/s) = 3.75920 2.88052 3.34880
# Velocity P-wave (km/s) = 5.85271 7.18043 6.55030
#
# Compressibility (1/GPa) = 0.03432115
#
# Stress axis : x y z
#
# Youngs Moduli (GPa) = 115.00798 16.11937 83.62283
#
# Poissons Ratio (x) = 0.14799 0.19059
# Poissons Ratio (y) = 1.05588 1.06408
# Poissons Ratio (z) = 0.26212 0.20511
#
# Static dielectric constant tensor:
#      x y z
#    x 1.637030 0.000000 0.000000 
#    y 0.000000 1.639320 0.000000 
#    z 0.000000 0.000000 1.640540 
# 
# From -- ./inp_files/15064.got.cif
#   From: 2010.05.17/outbox.cif.g08.bks.cpg/sg44_8_cif.got.tgz:15064.got - 2010.06.03 19:37:08.
