data_PCOD9375679
_publ_section_title
;
Structure prediction by ZEFSAII (Michael W. Deem and Ramdas Pophale) SiO2 
 PCOD9375679
Probable space group: I M M 2
;
_chemical_formula_sum "Si O2"
_cell_formula_units_Z 64
_cell_length_a 8.978608
_cell_length_b 25.707068
_cell_length_c 15.156428
_cell_angle_alpha 90.000000
_cell_angle_beta 90.000000
_cell_angle_gamma 90.000000
_cell_volume 3498.311019
_symmetry_space_group_name_H-M "I M M 2"
_symmetry_group_IT_number 44
_symmetry_cell_setting 'orthorhombic'
loop_
_space_group_symop_operation_xyz
x,y,z
-x,-y,z
-x,y,z
x,-y,z
1/2+x,1/2+y,1/2+z
1/2-x,1/2-y,1/2+z
1/2-x,1/2+y,1/2+z
1/2+x,1/2-y,1/2+z
loop_
_atom_site_type_symbol
_atom_site_label
_atom_site_fract_x
_atom_site_fract_y
_atom_site_fract_z
Si Si1 0.826122 0.776431 0.180850
Si Si2 0.823487 0.168276 0.663668
Si Si3 0.178879 0.440835 0.484425
Si Si4 0.677065 0.139130 0.489294
Si Si5 0.179016 0.560764 0.833901
Si Si6 0.826515 0.233891 0.392647
Si Si7 0.320535 0.848886 0.852844
Si Si8 0.178590 0.893793 0.156773
O O1 0.728728 0.728098 0.149585
O O2 0.817161 0.777856 0.287738
O O3 0.779683 0.832905 0.146593
O O4 0.000000 0.766816 0.158508
O O5 0.757642 0.135584 0.582930
O O6 0.754764 0.151504 0.757318
O O7 0.000000 0.165380 0.666237
O O8 0.214863 0.500000 0.458732
O O9 0.221228 0.398370 0.411192
O O10 0.256469 0.426273 0.575950
O O11 0.000000 0.437321 0.496281
O O12 0.500000 0.138248 0.501856
O O13 0.719268 0.093916 0.420386
O O14 0.726673 0.193383 0.444732
O O15 0.216447 0.500000 0.842791
O O16 0.257057 0.584812 0.748352
O O17 0.000000 0.565035 0.822447
O O18 0.782301 0.294358 0.401018
O O19 0.000000 0.227631 0.419077
O O20 0.500000 0.847924 0.840636
O O21 0.000000 0.896458 0.158884
#
# Coordination Sequence:
#
# PCOD9375679 Si02
#       8
#     8   8   8   8   8   8   8   8
#     4   9  19  36  55  81 118 154 187 227 278 340
#     4  11  23  37  58  85 116 151 190 238 290 346
#     4  10  22  40  61  85 114 152 198 240 282 338
#     4  11  22  36  57  84 116 153 192 237 285 338
#     4  10  22  40  60  83 114 154 198 239 281 337
#     4   9  17  33  55  81 113 146 184 232 281 337
#     4   9  20  40  61  82 113 151 190 239 292 338
#     4  11  22  36  57  87 120 154 190 233 286 340
#
# _framework density 18.294543000000001
#
# number of rings (size 3 to 8) (size 9 to 14) (size 15 to 20)
#    0.000    2.000    1.250    3.000    1.750    6.000 
#    0.000    0.625    0.000    3.750    0.000    0.000 
#    0.000    0.000    0.000    0.000    0.000    0.000 
#
# Total GULP energy -178761.664739 kJ/mol
# GULP energy per Si atom -5586.302023 kJ/mol
# Density = 1.825290 g / cm^3
# Si number density = 18.294543 Si / 1000 Ang^3
#
#
#
# Elastic Constant Matrix: (Units=GPa)
#
#
# Indices 1 2 3 4 5 6 
#
# 1 41.7756 36.9231 37.7797 0.0000 0.0000 0.0000
# 2 36.9231 122.1718 56.3822 0.0000 0.0000 0.0000
# 3 37.7797 56.3822 82.8490 0.0000 0.0000 0.0000
# 4 0.0000 0.0000 0.0000 28.1494 0.0000 0.0000
# 5 0.0000 0.0000 0.0000 0.0000 24.0658 0.0000
# 6 0.0000 0.0000 0.0000 0.0000 0.0000 10.7639
#
#
#
# Elastic Compliance Matrix: (Units=1/GPa)
#
#
# Indices 1 2 3 4 5 6 
#
# 1 0.043388 -0.005805 -0.015835 0.000000 0.000000 0.000000
# 2 -0.005805 0.012710 -0.006002 0.000000 0.000000 0.000000
# 3 -0.015835 -0.006002 0.023376 0.000000 0.000000 0.000000
# 4 0.000000 0.000000 0.000000 0.035525 0.000000 0.000000
# 5 0.000000 0.000000 0.000000 0.000000 0.041553 0.000000
# 6 0.000000 0.000000 0.000000 0.000000 0.000000 0.092903
#
#
# Mechanical properties :
#
#
# Convention : Reuss Voigt Hill
#
# Bulk Modulus (GPa) = 41.34040 56.55180 48.94610
# Shear Modulus (GPa) = 15.98456 20.30992 18.14724
#
# Velocity S-wave (km/s) = 2.95911 3.33552 3.15294
# Velocity P-wave (km/s) = 5.85843 6.76855 6.32987
#
# Compressibility (1/GPa) = 0.02418941
#
# Stress axis : x y z
#
# Youngs Moduli (GPa) = 23.04761 78.68004 42.77959
#
# Poissons Ratio (x) = 0.45676 0.67740
# Poissons Ratio (y) = 0.13380 0.25677
# Poissons Ratio (z) = 0.36495 0.47226
#
# Static dielectric constant tensor:
#      x y z
#    x 1.607230 0.000000 0.000000 
#    y 0.000000 1.626460 0.000000 
#    z 0.000000 0.000000 1.614720 
# 
# From -- ./inp_files/16895.got.cif
#   From: 2010.05.17/outbox.cif.g08.bks.cpg/sg44_9_cif.got.tgz:16895.got - 2010.06.03 19:37:08.
