data_PCOD9375971
_publ_section_title
;
Structure prediction by ZEFSAII (Michael W. Deem and Ramdas Pophale) SiO2 
 PCOD9375971
Probable space group: I M M 2
;
_chemical_formula_sum "Si O2"
_cell_formula_units_Z 32
_cell_length_a 9.000000
_cell_length_b 30.000000
_cell_length_c 15.000000
_cell_angle_alpha 90.000000
_cell_angle_beta 90.000000
_cell_angle_gamma 90.000000
_cell_volume 4050.000000
_symmetry_space_group_name_H-M "I M M 2"
_symmetry_group_IT_number 44
_symmetry_cell_setting 'orthorhombic'
loop_
_space_group_symop_operation_xyz
x,y,z
-x,-y,z
-x,y,z
x,-y,z
1/2+x,1/2+y,1/2+z
1/2-x,1/2-y,1/2+z
1/2-x,1/2+y,1/2+z
1/2+x,1/2-y,1/2+z
loop_
_atom_site_type_symbol
_atom_site_label
_atom_site_fract_x
_atom_site_fract_y
_atom_site_fract_z
Si Si1 0.172025 0.052360 0.667600
Si Si2 0.676231 0.269856 0.764228
Si Si3 0.178917 0.781716 0.058782
Si Si4 0.673018 0.363653 0.445686
Si Si5 0.181924 0.950390 0.873685
Si Si6 0.676924 0.697322 0.958285
Si Si7 0.830030 0.176739 0.748897
Si Si8 0.825201 0.369794 0.083296
O O1 0.222415 0.058264 0.770402
O O2 0.271733 0.080276 0.601312
O O3 0.000000 0.067865 0.662492
O O4 0.174558 0.000000 0.649727
O O5 0.500000 0.258822 0.768266
O O6 0.704009 0.287595 0.664353
O O7 0.709662 0.298051 0.852843
O O8 0.773619 0.225748 0.769980
O O9 0.000000 0.777237 0.045325
O O10 0.237479 0.824920 0.006204
O O11 0.253270 0.738287 0.014916
O O12 0.500000 0.367383 0.473167
O O13 0.738737 0.412915 0.440693
O O14 0.675258 0.348643 0.342651
O O15 0.000000 0.949274 0.873830
O O16 0.228678 0.000000 0.897268
O O17 0.500000 0.698455 0.969579
O O18 0.743965 0.653037 0.000776
O O19 0.728643 0.155999 0.672415
O O20 0.000000 0.176825 0.717053
O O21 0.000000 0.365837 0.073716
#
# Coordination Sequence:
#
# PCOD9375971 Si02
#       8
#     8   8   8   8   8   8   8   8
#     4   9  17  31  51  73  98 127 160 199 243 295
#     4  10  21  34  47  67  97 127 162 207 250 286
#     4  10  19  32  48  69  95 125 159 202 251 292
#     4   9  16  26  44  69  95 126 161 192 235 289
#     4   8  13  23  42  69  97 123 155 193 229 276
#     4  11  22  34  48  68  93 127 168 204 243 294
#     4  11  19  29  48  71  96 129 166 199 238 291
#     4  12  23  33  47  70 100 134 167 204 243 286
#
# _framework density 7.9012349999999998
#
# number of rings (size 3 to 8) (size 9 to 14) (size 15 to 20)
#    0.000    2.000    3.750    2.625    0.000    0.750 
#    0.000    0.000    0.000    0.000    0.000    0.875 
#    0.000    5.000    0.000    0.000    0.000    0.000 
#
# Total GULP energy -178275.600948 kJ/mol
# GULP energy per Si atom -5571.112530 kJ/mol
# Density = 0.788325 g / cm^3
# Si number density = 7.901235 Si / 1000 Ang^3
#
#
#
# Elastic Constant Matrix: (Units=GPa)
#
#
# Indices 1 2 3 4 5 6 
#
# 1 29.8404 16.8238 21.4421 0.0000 0.0000 0.0000
# 2 16.8238 73.7579 13.2035 0.0000 0.0000 0.0000
# 3 21.4421 13.2035 38.1628 0.0002 0.0000 0.0000
# 4 0.0000 0.0000 0.0002 18.0104 0.0000 0.0000
# 5 0.0000 0.0000 0.0000 0.0000 12.8902 0.0000
# 6 0.0000 0.0000 0.0000 0.0000 0.0000 12.7582
#
#
#
# Elastic Compliance Matrix: (Units=1/GPa)
#
#
# Indices 1 2 3 4 5 6 
#
# 1 0.060553 -0.008231 -0.031174 0.000000 0.000000 0.000000
# 2 -0.008231 0.015572 -0.000763 0.000000 0.000000 0.000000
# 3 -0.031174 -0.000763 0.043983 0.000000 0.000000 0.000000
# 4 0.000000 0.000000 0.000000 0.055523 0.000000 0.000000
# 5 0.000000 0.000000 0.000000 0.000000 0.077578 0.000000
# 6 0.000000 0.000000 0.000000 0.000000 0.000000 0.078381
#
#
# Mechanical properties :
#
#
# Convention : Reuss Voigt Hill
#
# Bulk Modulus (GPa) = 25.14385 27.18888 26.16636
# Shear Modulus (GPa) = 11.75962 14.75121 13.25542
#
# Velocity S-wave (km/s) = 2.73090 3.05860 2.89938
# Velocity P-wave (km/s) = 5.08818 5.45125 5.27284
#
# Compressibility (1/GPa) = 0.03977116
#
# Stress axis : x y z
#
# Youngs Moduli (GPa) = 16.51449 64.21813 22.73611
#
# Poissons Ratio (x) = 0.52859 0.70878
# Poissons Ratio (y) = 0.13593 0.01734
# Poissons Ratio (z) = 0.51483 0.04898
#
# Static dielectric constant tensor:
#      x y z
#    x 1.528200 0.000000 0.000000 
#    y 0.000000 1.578290 0.000000 
#    z 0.000000 0.000000 1.549150 
# 
# From -- ./inp_files/17124.got.cif
#   From: 2010.05.17/outbox.ucp.g08.bks.cvg/sg44_9_cif.got.tgz:17124.got - 2010.06.11 16:32:36.
