data_PCOD9375092
_publ_section_title
;
Structure prediction by ZEFSAII (Michael W. Deem and Ramdas Pophale) SiO2 
 PCOD9375092
Probable space group: I M M 2
;
_chemical_formula_sum "Si O2"
_cell_formula_units_Z 56
_cell_length_a 7.550958
_cell_length_b 20.056736
_cell_length_c 15.989695
_cell_angle_alpha 90.000000
_cell_angle_beta 90.000000
_cell_angle_gamma 90.000000
_cell_volume 2421.600471
_symmetry_space_group_name_H-M "I M M 2"
_symmetry_group_IT_number 44
_symmetry_cell_setting 'orthorhombic'
loop_
_space_group_symop_operation_xyz
x,y,z
-x,-y,z
-x,y,z
x,-y,z
1/2+x,1/2+y,1/2+z
1/2-x,1/2-y,1/2+z
1/2-x,1/2+y,1/2+z
1/2+x,1/2-y,1/2+z
loop_
_atom_site_type_symbol
_atom_site_label
_atom_site_fract_x
_atom_site_fract_y
_atom_site_fract_z
Si Si1 0.717273 0.924280 0.764010
Si Si2 0.286329 0.125896 0.944138
Si Si3 0.712607 0.000000 0.348333
Si Si4 0.210207 0.223428 0.440002
Si Si5 0.288808 0.425767 0.626331
Si Si6 0.801631 0.643819 0.106626
Si Si7 0.210131 0.000000 0.543644
Si Si8 0.202837 0.143754 0.280014
O O1 0.500000 0.923304 0.760715
O O2 0.772420 0.908589 0.858413
O O3 0.780188 0.867215 0.698910
O O4 0.772440 0.000000 0.742135
O O5 0.500000 0.126921 0.941209
O O6 0.220013 0.201835 0.946723
O O7 0.237888 0.089484 0.029397
O O8 0.791938 0.067326 0.311042
O O9 0.500000 0.000000 0.338567
O O10 0.762051 0.000000 0.445034
O O11 0.230039 0.184818 0.527936
O O12 0.282566 0.185547 0.357318
O O13 0.000000 0.227397 0.426739
O O14 0.500000 0.427801 0.640762
O O15 0.216458 0.500000 0.644965
O O16 0.217538 0.366951 0.687150
O O17 0.797825 0.567056 0.076890
O O18 0.000000 0.669354 0.118898
O O19 0.000000 0.000000 0.561749
O O20 0.000000 0.167299 0.269548
#
# Coordination Sequence:
#
# PCOD9375092 Si02
#       8
#     8   8   4   8   8   8   4   8
#     4   9  18  35  60  87 113 143 191 249 295 337
#     4  10  22  40  60  83 114 157 202 241 288 347
#     4  12  22  32  54  89 120 147 192 241 288 342
#     4  10  22  38  57  84 119 159 197 230 285 362
#     4  10  21  38  61  89 116 147 195 247 296 349
#     4  11  21  35  59  89 117 147 193 246 292 343
#     4  12  22  34  54  83 122 159 188 229 296 356
#     4  10  20  37  59  82 117 158 192 233 293 353
#
# _framework density 23.125202000000002
#
# number of rings (size 3 to 8) (size 9 to 14) (size 15 to 20)
#    0.000    1.714    2.857    2.143    0.000    3.143 
#    0.000    4.286    0.000    0.000    0.000    0.000 
#    0.000    0.000    0.000    0.000    0.000    0.000 
#
# Total GULP energy -156286.102550 kJ/mol
# GULP energy per Si atom -5581.646520 kJ/mol
# Density = 2.307257 g / cm^3
# Si number density = 23.125202 Si / 1000 Ang^3
#
#
#
# Elastic Constant Matrix: (Units=GPa)
#
#
# Indices 1 2 3 4 5 6 
#
# 1 75.8683 -1.0419 3.9344 0.0000 0.0000 0.0000
# 2 -1.0419 72.8981 30.9138 0.0000 0.0000 0.0000
# 3 3.9344 30.9138 179.6296 -0.0001 0.0000 0.0000
# 4 0.0000 0.0000 -0.0001 32.0556 0.0000 0.0000
# 5 0.0000 0.0000 0.0000 0.0000 26.8982 0.0000
# 6 0.0000 0.0000 0.0000 0.0000 0.0000 8.1275
#
#
#
# Elastic Compliance Matrix: (Units=1/GPa)
#
#
# Indices 1 2 3 4 5 6 
#
# 1 0.013203 0.000336 -0.000347 0.000000 0.000000 0.000000
# 2 0.000336 0.014806 -0.002555 0.000000 0.000000 0.000000
# 3 -0.000347 -0.002555 0.006014 0.000000 0.000000 0.000000
# 4 0.000000 0.000000 0.000000 0.031196 0.000000 0.000000
# 5 0.000000 0.000000 0.000000 0.000000 0.037177 0.000000
# 6 0.000000 0.000000 0.000000 0.000000 0.000000 0.123039
#
#
# Mechanical properties :
#
#
# Convention : Reuss Voigt Hill
#
# Bulk Modulus (GPa) = 34.61311 44.00097 39.30704
# Shear Modulus (GPa) = 20.81605 33.05556 26.93580
#
# Velocity S-wave (km/s) = 3.00350 3.78487 3.41659
# Velocity P-wave (km/s) = 5.19886 6.17810 5.70951
#
# Compressibility (1/GPa) = 0.02889079
#
# Stress axis : x y z
#
# Youngs Moduli (GPa) = 75.73839 67.53892 166.26752
#
# Poissons Ratio (x) = -0.02268 0.05769
# Poissons Ratio (y) = -0.02544 0.42489
# Poissons Ratio (z) = 0.02628 0.17259
#
# Static dielectric constant tensor:
#      x y z
#    x 1.882800 0.000000 0.000000 
#    y 0.000000 1.827670 0.000000 
#    z 0.000000 0.000000 1.938330 
# 
# From -- ./inp_files/16564.got.cif
#   From: 2010.05.17/outbox.cif.g08.bks.cpg/sg44_9_cif.got.tgz:16564.got - 2010.06.03 19:37:08.
