data_PCOD9375180
_publ_section_title
;
Structure prediction by ZEFSAII (Michael W. Deem and Ramdas Pophale) SiO2 
 PCOD9375180
Probable space group: I M M 2
;
_chemical_formula_sum "Si O2"
_cell_formula_units_Z 38
_cell_length_a 24.086231
_cell_length_b 9.594995
_cell_length_c 7.903002
_cell_angle_alpha 90.000000
_cell_angle_beta 90.000000
_cell_angle_gamma 90.000000
_cell_volume 1826.441186
_symmetry_space_group_name_H-M "I M M 2"
_symmetry_group_IT_number 44
_symmetry_cell_setting 'orthorhombic'
loop_
_space_group_symop_operation_xyz
x,y,z
-x,-y,z
-x,y,z
x,-y,z
1/2+x,1/2+y,1/2+z
1/2-x,1/2-y,1/2+z
1/2-x,1/2+y,1/2+z
1/2+x,1/2-y,1/2+z
loop_
_atom_site_type_symbol
_atom_site_label
_atom_site_fract_x
_atom_site_fract_y
_atom_site_fract_z
Si Si1 0.562560 0.000000 0.627060
Si Si2 0.801749 0.000000 0.637793
Si Si3 0.710176 0.000000 0.927475
Si Si4 0.000000 0.000000 0.736353
Si Si5 0.867310 0.741629 0.292464
Si Si6 0.705246 0.500000 0.732744
Si Si7 0.401296 0.699826 0.134780
Si Si8 0.437370 0.000000 0.226228
O O1 0.595921 0.862413 0.682373
O O2 0.500000 0.000000 0.698876
O O3 0.559064 0.000000 0.426837
O O4 0.784119 0.000000 0.438180
O O5 0.842052 0.131088 0.673314
O O6 0.752644 0.000000 0.769860
O O7 0.673832 0.861367 0.895902
O O8 0.742664 0.000000 0.105844
O O9 0.950922 0.120212 0.726295
O O10 0.905899 0.817391 0.431404
O O11 0.831429 0.860705 0.201375
O O12 0.406355 0.861573 0.171945
O O13 0.500000 0.000000 0.154280
#
# Coordination Sequence:
#
# PCOD9375180 Si02
#       8
#     4   4   4   2   8   4   8   4
#     4  10  24  42  63  95 138 163 209 273 325 392
#     4   9  23  43  63  95 132 168 221 268 327 380
#     4  11  24  44  68  92 132 178 210 272 333 368
#     4  10  20  38  70  90 126 164 198 278 320 370
#     4  10  24  45  62  99 126 168 222 261 327 396
#     4  10  24  43  66  96 133 165 227 263 317 397
#     4  10  21  40  65  95 123 162 220 265 315 395
#     4  11  21  37  63  95 126 173 214 259 332 386
#
# _framework density 20.805485999999998
#
# number of rings (size 3 to 8) (size 9 to 14) (size 15 to 20)
#    0.000    1.895    1.053    1.895   10.316    0.842 
#    7.579    0.000    0.000    0.000    0.000    0.000 
#    0.000    0.000    0.000    0.000    0.000    0.000 
#
# Total GULP energy -105834.303338 kJ/mol
# GULP energy per Si atom -5570.226491 kJ/mol
# Density = 2.075813 g / cm^3
# Si number density = 20.805486 Si / 1000 Ang^3
#
#
#
# Elastic Constant Matrix: (Units=GPa)
#
#
# Indices 1 2 3 4 5 6 
#
# 1 107.7743 55.4747 54.9846 0.0000 0.0000 0.0000
# 2 55.4747 165.0007 12.3918 0.0000 0.0000 0.0000
# 3 54.9846 12.3918 60.1120 0.0000 0.0000 0.0000
# 4 0.0000 0.0000 0.0000 19.1793 0.0000 0.0000
# 5 0.0000 0.0000 0.0000 0.0000 59.9133 0.0000
# 6 0.0000 0.0000 0.0000 0.0000 0.0000 29.9363
#
#
#
# Elastic Compliance Matrix: (Units=1/GPa)
#
#
# Indices 1 2 3 4 5 6 
#
# 1 0.021985 -0.005974 -0.018878 0.000000 0.000000 0.000000
# 2 -0.005974 0.007779 0.003861 0.000000 0.000000 0.000000
# 3 -0.018878 0.003861 0.033108 0.000000 0.000000 0.000000
# 4 0.000000 0.000000 0.000000 0.052139 0.000000 0.000000
# 5 0.000000 0.000000 0.000000 0.000000 0.016691 0.000000
# 6 0.000000 0.000000 0.000000 0.000000 0.000000 0.033404
#
#
# Mechanical properties :
#
#
# Convention : Reuss Voigt Hill
#
# Bulk Modulus (GPa) = 47.87218 64.28770 56.07994
# Shear Modulus (GPa) = 23.35889 35.80819 29.58354
#
# Velocity S-wave (km/s) = 3.35435 4.15311 3.77491
# Velocity P-wave (km/s) = 6.16940 7.34603 6.78328
#
# Compressibility (1/GPa) = 0.02088896
#
# Stress axis : x y z
#
# Youngs Moduli (GPa) = 45.48607 128.55031 30.20457
#
# Poissons Ratio (x) = 0.76792 0.57020
# Poissons Ratio (y) = 0.27172 -0.11661
# Poissons Ratio (z) = 0.85869 -0.49627
#
# Static dielectric constant tensor:
#      x y z
#    x 1.716240 0.000000 0.000000 
#    y 0.000000 1.811490 0.000000 
#    z 0.000000 0.000000 1.764320 
# 
# From -- ./inp_files/9265.got.cif
#   From: 2010.05.17/outbox.cif.g08.bks.cpg/sg44_5_cif.got.tgz:9265.got - 2010.06.03 19:37:08.
