data_PCOD9375334
_publ_section_title
;
Structure prediction by ZEFSAII (Michael W. Deem and Ramdas Pophale) SiO2 
 PCOD9375334
Probable space group: I M M 2
;
_chemical_formula_sum "Si O2"
_cell_formula_units_Z 40
_cell_length_a 7.957765
_cell_length_b 29.254800
_cell_length_c 9.005616
_cell_angle_alpha 90.000000
_cell_angle_beta 90.000000
_cell_angle_gamma 90.000000
_cell_volume 2096.532832
_symmetry_space_group_name_H-M "I M M 2"
_symmetry_group_IT_number 44
_symmetry_cell_setting 'orthorhombic'
loop_
_space_group_symop_operation_xyz
x,y,z
-x,-y,z
-x,y,z
x,-y,z
1/2+x,1/2+y,1/2+z
1/2-x,1/2-y,1/2+z
1/2-x,1/2+y,1/2+z
1/2+x,1/2-y,1/2+z
loop_
_atom_site_type_symbol
_atom_site_label
_atom_site_fract_x
_atom_site_fract_y
_atom_site_fract_z
Si Si1 0.500000 0.554389 0.333390
Si Si2 0.203902 0.209191 0.833854
Si Si3 0.301098 0.697474 0.675577
Si Si4 0.500000 0.445621 0.682868
Si Si5 0.684476 0.105404 0.322494
Si Si6 0.691644 0.377880 0.143832
O O1 0.500000 0.500000 0.312512
O O2 0.500000 0.565576 0.507441
O O3 0.342780 0.579455 0.253609
O O4 0.271275 0.255627 0.763252
O O5 0.256015 0.165441 0.735960
O O6 0.000000 0.210648 0.831603
O O7 0.254784 0.203505 0.005063
O O8 0.500000 0.686749 0.675419
O O9 0.207550 0.655852 0.754093
O O10 0.500000 0.500000 0.698463
O O11 0.665021 0.424834 0.758460
O O12 0.500000 0.087428 0.284467
O O13 0.704745 0.109782 0.499589
O O14 0.500000 0.365970 0.090623
#
# Coordination Sequence:
#
# PCOD9375334 Si02
#       6
#     4   8   8   4   8   8
#     4   9  19  39  71  95 119 171 213 259 326 385
#     4  10  21  36  56  84 123 170 218 262 316 376
#     4  11  22  37  58  84 124 169 214 262 318 375
#     4  11  23  45  71  95 129 165 211 267 326 381
#     4  12  24  40  65  96 129 167 212 261 319 386
#     4   9  19  37  61  89 126 163 208 260 314 376
#
# _framework density 19.079121000000001
#
# number of rings (size 3 to 8) (size 9 to 14) (size 15 to 20)
#    0.600    1.000    2.000    3.000    0.000    7.600 
#    0.000    3.000    0.000    1.200    0.000    0.000 
#    0.000    0.000    0.000    0.000    0.000    0.000 
#
# Total GULP energy -111691.964171 kJ/mol
# GULP energy per Si atom -5584.598209 kJ/mol
# Density = 1.903570 g / cm^3
# Si number density = 19.079121 Si / 1000 Ang^3
#
#
#
# Elastic Constant Matrix: (Units=GPa)
#
#
# Indices 1 2 3 4 5 6 
#
# 1 90.6052 37.2421 50.0804 0.0001 0.0000 0.0000
# 2 37.2421 89.9735 62.9092 0.0006 0.0000 0.0000
# 3 50.0804 62.9092 143.6456 0.0004 0.0000 0.0000
# 4 0.0001 0.0006 0.0004 34.9405 0.0000 0.0000
# 5 0.0000 0.0000 0.0000 0.0000 0.3512 -0.0001
# 6 0.0000 0.0000 0.0000 0.0000 -0.0001 22.0270
#
#
#
# Elastic Compliance Matrix: (Units=1/GPa)
#
#
# Indices 1 2 3 4 5 6 
#
# 1 0.014411 -0.003534 -0.003476 0.000000 0.000000 0.000000
# 2 -0.003534 0.016887 -0.006163 0.000000 0.000000 0.000000
# 3 -0.003476 -0.006163 0.010873 0.000000 0.000000 0.000000
# 4 0.000000 0.000000 0.000000 0.028620 -0.000002 0.000000
# 5 0.000000 0.000000 0.000000 -0.000002 2.847099 0.000007
# 6 0.000000 0.000000 0.000000 0.000000 0.000007 0.045399
#
#
# Mechanical properties :
#
#
# Convention : Reuss Voigt Hill
#
# Bulk Modulus (GPa) = 63.20120 69.40975 66.30547
# Shear Modulus (GPa) = 1.66950 23.06324 12.36637
#
# Velocity S-wave (km/s) = 0.93645 3.48058 2.54867
# Velocity P-wave (km/s) = 5.86234 7.25338 6.59464
#
# Compressibility (1/GPa) = 0.01582248
#
# Stress axis : x y z
#
# Youngs Moduli (GPa) = 69.39047 59.21827 91.97302
#
# Poissons Ratio (x) = 0.20930 0.31974
# Poissons Ratio (y) = 0.24526 0.56685
# Poissons Ratio (z) = 0.24123 0.36498
#
# Static dielectric constant tensor:
#      x y z
#    x 1.704760 0.000000 0.000000 
#    y 0.000000 1.627070 0.000000 
#    z 0.000000 0.000000 1.646680 
# 
# From -- ./inp_files/4666.got.cif
#   From: 2010.05.17/outbox.cif.g08.bks.cpg/sg44_3_cif.got.tgz:4666.got - 2010.06.03 19:37:08.
