data_PCOD9375600
_publ_section_title
;
Structure prediction by ZEFSAII (Michael W. Deem and Ramdas Pophale) SiO2 
 PCOD9375600
Probable space group: I M M 2
;
_chemical_formula_sum "Si O2"
_cell_formula_units_Z 48
_cell_length_a 14.293232
_cell_length_b 27.487070
_cell_length_c 5.344662
_cell_angle_alpha 90.000000
_cell_angle_beta 90.000000
_cell_angle_gamma 90.000000
_cell_volume 2099.805828
_symmetry_space_group_name_H-M "I M M 2"
_symmetry_group_IT_number 44
_symmetry_cell_setting 'orthorhombic'
loop_
_space_group_symop_operation_xyz
x,y,z
-x,-y,z
-x,y,z
x,-y,z
1/2+x,1/2+y,1/2+z
1/2-x,1/2-y,1/2+z
1/2-x,1/2+y,1/2+z
1/2+x,1/2-y,1/2+z
loop_
_atom_site_type_symbol
_atom_site_label
_atom_site_fract_x
_atom_site_fract_y
_atom_site_fract_z
Si Si1 0.897820 0.848591 0.494110
Si Si2 0.256119 0.811768 0.130027
Si Si3 0.395296 0.255868 0.366090
Si Si4 0.208529 0.591629 0.438664
Si Si5 0.608644 0.942071 0.433779
Si Si6 0.102367 0.054617 0.819771
O O1 0.807032 0.841392 0.326294
O O2 0.898603 0.804148 0.692484
O O3 0.895025 0.901140 0.623871
O O4 0.000000 0.844989 0.358824
O O5 0.353597 0.789667 0.217937
O O6 0.185918 0.767861 0.063800
O O7 0.274527 0.850700 0.913717
O O8 0.500000 0.247448 0.463094
O O9 0.145075 0.582864 0.680969
O O10 0.307211 0.564625 0.486178
O O11 0.165131 0.571922 0.182733
O O12 0.500000 0.929902 0.474272
O O13 0.616669 0.000000 0.396627
O O14 0.000000 0.057715 0.946326
O O15 0.109558 0.000000 0.712614
#
# Coordination Sequence:
#
# PCOD9375600 Si02
#       6
#     8   8   8   8   8   8
#     4  10  21  41  68  97 135 185 232 285 354 420
#     4  12  24  42  69  98 136 181 231 296 351 427
#     4  11  24  43  67  96 129 175 231 287 354 421
#     4  12  25  42  73 106 143 185 237 295 355 417
#     4  11  25  47  73 102 141 190 239 292 356 422
#     4  10  21  40  68 104 144 185 233 285 343 421
#
# _framework density 22.859254
#
# number of rings (size 3 to 8) (size 9 to 14) (size 15 to 20)
#    0.000    1.000    3.333    3.500    0.000    3.333 
#    0.000    2.500    0.000    9.000    0.000    0.000 
#    0.000    0.000    0.000    0.000    0.000    0.000 
#
# Total GULP energy -134183.635182 kJ/mol
# GULP energy per Si atom -5590.984799 kJ/mol
# Density = 2.280723 g / cm^3
# Si number density = 22.859254 Si / 1000 Ang^3
#
#
#
# Elastic Constant Matrix: (Units=GPa)
#
#
# Indices 1 2 3 4 5 6 
#
# 1 129.3909 38.4560 21.4314 0.0019 -0.0532 -0.0217
# 2 38.4560 103.6633 5.9504 -0.0200 -0.0128 -0.0079
# 3 21.4314 5.9504 51.7451 -0.1270 0.0099 -0.0342
# 4 0.0019 -0.0200 -0.1270 36.4041 0.0097 0.0081
# 5 -0.0532 -0.0128 0.0099 0.0097 10.5004 -0.0047
# 6 -0.0217 -0.0079 -0.0342 0.0081 -0.0047 18.1915
#
#
#
# Elastic Compliance Matrix: (Units=1/GPa)
#
#
# Indices 1 2 3 4 5 6 
#
# 1 0.009265 -0.003238 -0.003465 -0.000014 0.000046 0.000003
# 2 -0.003238 0.010842 0.000094 0.000006 -0.000003 0.000001
# 3 -0.003465 0.000094 0.020750 0.000073 -0.000037 0.000035
# 4 -0.000014 0.000006 0.000073 0.027470 -0.000025 -0.000012
# 5 0.000046 -0.000003 -0.000037 -0.000025 0.095235 0.000024
# 6 0.000003 0.000001 0.000035 -0.000012 0.000024 0.054971
#
#
# Mechanical properties :
#
#
# Convention : Reuss Voigt Hill
#
# Bulk Modulus (GPa) = 36.17964 46.27498 41.22731
# Shear Modulus (GPa) = 20.75006 27.61664 24.18335
#
# Velocity S-wave (km/s) = 3.01613 3.47957 3.25610
# Velocity P-wave (km/s) = 5.29064 6.03577 5.67545
#
# Compressibility (1/GPa) = 0.02763985
#
# Stress axis : x y z
#
# Youngs Moduli (GPa) = 107.93510 92.23022 48.19293
#
# Poissons Ratio (x) = 0.29865 0.16698
# Poissons Ratio (y) = 0.34950 -0.00455
# Poissons Ratio (z) = 0.37399 -0.00870
#
# Static dielectric constant tensor:
#      x y z
#    x 1.874120 0.000000 0.000010 
#    y 0.000000 1.830660 -0.000040 
#    z 0.000010 -0.000040 1.870040 
# 
# From -- ./inp_files/1569.got.cif
#   From: 2010.05.17/outbox.cif.g08.bks.cpg/sg44_1_cif.got.tgz:1569.got - 2010.06.03 19:37:08.
