data_PCOD9375529
_publ_section_title
;
Structure prediction by ZEFSAII (Michael W. Deem and Ramdas Pophale) SiO2 
 PCOD9375529
Probable space group: I M M 2
;
_chemical_formula_sum "Si O2"
_cell_formula_units_Z 48
_cell_length_a 7.970139
_cell_length_b 19.288091
_cell_length_c 16.320709
_cell_angle_alpha 90.000000
_cell_angle_beta 90.000000
_cell_angle_gamma 90.000000
_cell_volume 2508.962460
_symmetry_space_group_name_H-M "I M M 2"
_symmetry_group_IT_number 44
_symmetry_cell_setting 'orthorhombic'
loop_
_space_group_symop_operation_xyz
x,y,z
-x,-y,z
-x,y,z
x,-y,z
1/2+x,1/2+y,1/2+z
1/2-x,1/2-y,1/2+z
1/2-x,1/2+y,1/2+z
1/2+x,1/2-y,1/2+z
loop_
_atom_site_type_symbol
_atom_site_label
_atom_site_fract_x
_atom_site_fract_y
_atom_site_fract_z
Si Si1 0.198363 0.684752 0.532600
Si Si2 0.311735 0.836916 0.509855
Si Si3 0.000000 0.921595 0.772022
Si Si4 0.688265 0.163084 0.838874
Si Si5 0.000000 0.921595 0.576707
Si Si6 0.301637 0.184752 0.316129
Si Si7 0.204755 0.420185 0.674365
O O1 0.291511 0.757880 0.541221
O O2 0.212958 0.664147 0.437370
O O3 0.254594 0.624693 0.594599
O O4 0.000000 0.697690 0.548379
O O5 0.500000 0.861642 0.527567
O O6 0.165601 0.882315 0.547436
O O7 0.287042 0.835853 0.411359
O O8 0.834399 0.882315 0.801293
O O9 0.000000 0.922640 0.674365
O O10 0.000000 0.000000 0.803712
O O11 0.500000 0.138358 0.821162
O O12 0.708489 0.242120 0.807508
O O13 0.000000 0.000000 0.545017
O O14 0.500000 0.197690 0.300350
O O15 0.245406 0.124693 0.254130
O O16 0.263640 0.500000 0.674365
O O17 0.000000 0.422915 0.674365
#
# Coordination Sequence:
#
# PCOD9375529 Si02
#       7
#     8   8   4   8   4   8   8
#     4   9  18  34  60  92 125 160 203 246 291 359
#     4  10  21  38  64  92 118 157 207 253 301 357
#     4  11  26  44  62  87 119 159 205 257 320 368
#     4  10  21  38  64  92 118 157 207 253 301 357
#     4  11  26  44  62  87 119 159 205 257 320 368
#     4   9  18  34  60  92 125 160 203 246 291 359
#     4   9  18  32  55  89 127 165 197 236 299 368
#
# _framework density 19.131413999999999
#
# number of rings (size 3 to 8) (size 9 to 14) (size 15 to 20)
#    0.000    2.333    1.667    0.000    4.667    2.667 
#    0.000    5.000    0.000    1.000    0.000    0.000 
#    0.000    0.000    0.000    0.000    0.000    0.000 
#
# Total GULP energy -133981.296853 kJ/mol
# GULP energy per Si atom -5582.554036 kJ/mol
# Density = 1.908787 g / cm^3
# Si number density = 19.131414 Si / 1000 Ang^3
#
#
#
# Elastic Constant Matrix: (Units=GPa)
#
#
# Indices 1 2 3 4 5 6 
#
# 1 116.9123 68.5541 39.3721 0.0000 0.0000 0.0000
# 2 68.5541 152.8161 74.3454 0.0000 0.0000 0.0000
# 3 39.3721 74.3454 65.5803 0.0000 0.0000 0.0000
# 4 0.0000 0.0000 0.0000 44.0357 0.0000 0.0000
# 5 0.0000 0.0000 0.0000 0.0000 12.5944 0.0000
# 6 0.0000 0.0000 0.0000 0.0000 0.0000 2.5410
#
#
#
# Elastic Compliance Matrix: (Units=1/GPa)
#
#
# Indices 1 2 3 4 5 6 
#
# 1 0.011775 -0.004110 -0.002410 0.000000 0.000000 0.000000
# 2 -0.004110 0.016026 -0.015700 0.000000 0.000000 0.000000
# 3 -0.002410 -0.015700 0.034494 0.000000 0.000000 0.000000
# 4 0.000000 0.000000 0.000000 0.022709 0.000000 0.000000
# 5 0.000000 0.000000 0.000000 0.000000 0.079401 0.000000
# 6 0.000000 0.000000 0.000000 0.000000 0.000000 0.393552
#
#
# Mechanical properties :
#
#
# Convention : Reuss Voigt Hill
#
# Bulk Modulus (GPa) = 56.00878 77.76133 66.88506
# Shear Modulus (GPa) = 8.21897 22.03667 15.12782
#
# Velocity S-wave (km/s) = 2.07494 3.39759 2.81505
# Velocity P-wave (km/s) = 5.92283 7.49170 6.75298
#
# Compressibility (1/GPa) = 0.01785434
#
# Stress axis : x y z
#
# Youngs Moduli (GPa) = 84.92623 62.39996 28.99034
#
# Poissons Ratio (x) = 0.25644 0.06988
# Poissons Ratio (y) = 0.34902 0.45516
# Poissons Ratio (z) = 0.20470 0.97970
#
# Static dielectric constant tensor:
#      x y z
#    x 1.707940 0.000000 0.000000 
#    y 0.000000 1.643340 0.000000 
#    z 0.000000 0.000000 1.653780 
# 
# From -- ./inp_files/16193.got.cif
#   From: 2010.05.17/outbox.cif.g08.bks.cpg/sg44_9_cif.got.tgz:16193.got - 2010.06.03 19:37:08.
