data_PCOD9375942
_publ_section_title
;
Structure prediction by ZEFSAII (Michael W. Deem and Ramdas Pophale) SiO2 
 PCOD9375942
Probable space group: I M M 2
;
_chemical_formula_sum "Si O2"
_cell_formula_units_Z 64
_cell_length_a 12.886140
_cell_length_b 10.475495
_cell_length_c 23.549818
_cell_angle_alpha 90.000000
_cell_angle_beta 90.000000
_cell_angle_gamma 90.000000
_cell_volume 3178.959203
_symmetry_space_group_name_H-M "I M M 2"
_symmetry_group_IT_number 44
_symmetry_cell_setting 'orthorhombic'
loop_
_space_group_symop_operation_xyz
x,y,z
-x,-y,z
-x,y,z
x,-y,z
1/2+x,1/2+y,1/2+z
1/2-x,1/2-y,1/2+z
1/2-x,1/2+y,1/2+z
1/2+x,1/2-y,1/2+z
loop_
_atom_site_type_symbol
_atom_site_label
_atom_site_fract_x
_atom_site_fract_y
_atom_site_fract_z
Si Si1 0.792674 0.150991 0.776120
Si Si2 0.880384 0.855241 0.428393
Si Si3 0.157326 0.141927 0.654543
Si Si4 0.657326 0.358073 0.522184
Si Si5 0.119616 0.144759 0.248334
Si Si6 0.887350 0.283431 0.541779
Si Si7 0.792674 0.150991 0.900607
Si Si8 0.612650 0.783431 0.634948
O O1 0.860189 0.179340 0.720040
O O2 0.694442 0.246027 0.772398
O O3 0.841537 0.167027 0.838363
O O4 0.763487 0.000000 0.771163
O O5 0.879715 0.833066 0.496679
O O6 0.805558 0.746027 0.404329
O O7 0.000000 0.839155 0.409988
O O8 0.847641 0.000000 0.414884
O O9 0.117461 0.235465 0.606242
O O10 0.282725 0.140181 0.647043
O O11 0.117529 0.000000 0.644778
O O12 0.617529 0.500000 0.531949
O O13 0.782725 0.359819 0.529684
O O14 0.639811 0.320660 0.456687
O O15 0.617461 0.264535 0.570485
O O16 0.120285 0.166934 0.180048
O O17 0.000000 0.160845 0.266739
O O18 0.152359 0.000000 0.261842
O O19 0.000000 0.344412 0.531078
O O20 0.763487 0.000000 0.905564
O O21 0.500000 0.844412 0.645649
#
# Coordination Sequence:
#
# PCOD9375942 Si02
#       8
#     8   8   8   8   8   8   8   8
#     4   9  18  31  44  59  84 119 154 186 220 260
#     4   9  17  28  43  65  90 113 141 181 227 274
#     4   9  17  29  46  67  90 119 154 187 223 272
#     4   9  17  29  46  67  90 119 154 187 223 272
#     4   9  17  28  43  65  90 113 141 181 227 274
#     4   9  17  29  46  69  95 119 145 184 233 278
#     4   9  18  31  44  59  84 119 154 186 220 260
#     4   9  17  29  46  69  95 119 145 184 233 278
#
# _framework density 20.132375
#
# number of rings (size 3 to 8) (size 9 to 14) (size 15 to 20)
#    0.000    3.000    0.000    0.750    0.000    3.500 
#    0.000    7.500    0.000    0.750    0.000    3.500 
#    0.000    0.000    0.000   18.250    0.000    4.000 
#
# Total GULP energy -178168.516592 kJ/mol
# GULP energy per Si atom -5567.766143 kJ/mol
# Density = 2.008655 g / cm^3
# Si number density = 20.132375 Si / 1000 Ang^3
#
#
#
# Elastic Constant Matrix: (Units=GPa)
#
#
# Indices 1 2 3 4 5 6 
#
# 1 65.7151 2.4647 -6.5687 0.0000 0.0000 0.0000
# 2 2.4647 59.9235 15.6567 0.0000 0.0000 0.0000
# 3 -6.5687 15.6567 157.9756 0.0000 0.0000 0.0000
# 4 0.0000 0.0000 0.0000 13.5016 0.0000 0.0000
# 5 0.0000 0.0000 0.0000 0.0000 9.4509 0.0000
# 6 0.0000 0.0000 0.0000 0.0000 0.0000 -9.9099
#
#
#
# Elastic Compliance Matrix: (Units=1/GPa)
#
#
# Indices 1 2 3 4 5 6 
#
# 1 0.015320 -0.000818 0.000718 0.000000 0.000000 0.000000
# 2 -0.000818 0.017175 -0.001736 0.000000 0.000000 0.000000
# 3 0.000718 -0.001736 0.006532 0.000000 0.000000 0.000000
# 4 0.000000 0.000000 0.000000 0.074065 0.000000 0.000000
# 5 0.000000 0.000000 0.000000 0.000000 0.105811 0.000000
# 6 0.000000 0.000000 0.000000 0.000000 0.000000 -0.100909
#
#
# Mechanical properties :
#
#
# Convention : Reuss Voigt Hill
#
# Bulk Modulus (GPa) = 28.28444 34.07994 31.18219
# Shear Modulus (GPa) = 37.46705 20.74594 29.10650
#
# Velocity S-wave (km/s) = 4.31865 3.21359 3.80643
# Velocity P-wave (km/s) = 6.24079 5.54384 5.90261
#
# Compressibility (1/GPa) = 0.03535513
#
# Stress axis : x y z
#
# Youngs Moduli (GPa) = 65.27563 58.22343 153.09202
#
# Poissons Ratio (x) = 0.04761 -0.10993
# Poissons Ratio (y) = 0.05338 0.26580
# Poissons Ratio (z) = -0.04687 0.10109
#
# Static dielectric constant tensor:
#      x y z
#    x 1.714290 0.000000 0.000000 
#    y 0.000000 1.675970 0.000000 
#    z 0.000000 0.000000 1.771100 
# 
# From -- ./inp_files/25511.got.cif
#   From: 2010.05.17/outbox.cif.g08.bks.cpg/sg44_13_cif.got.tgz:25511.got - 2010.06.03 19:37:08.
