data_PCOD9375145
_publ_section_title
;
Structure prediction by ZEFSAII (Michael W. Deem and Ramdas Pophale) SiO2 
 PCOD9375145
Probable space group: I M M 2
;
_chemical_formula_sum "Si O2"
_cell_formula_units_Z 56
_cell_length_a 16.688822
_cell_length_b 29.458099
_cell_length_c 5.249204
_cell_angle_alpha 90.000000
_cell_angle_beta 90.000000
_cell_angle_gamma 90.000000
_cell_volume 2580.618766
_symmetry_space_group_name_H-M "I M M 2"
_symmetry_group_IT_number 44
_symmetry_cell_setting 'orthorhombic'
loop_
_space_group_symop_operation_xyz
x,y,z
-x,-y,z
-x,y,z
x,-y,z
1/2+x,1/2+y,1/2+z
1/2-x,1/2-y,1/2+z
1/2-x,1/2+y,1/2+z
1/2+x,1/2-y,1/2+z
loop_
_atom_site_type_symbol
_atom_site_label
_atom_site_fract_x
_atom_site_fract_y
_atom_site_fract_z
Si Si1 0.308377 0.376078 0.612940
Si Si2 0.695561 0.753682 0.207203
Si Si3 0.592931 0.156117 0.290253
Si Si4 0.088448 0.078645 0.744483
Si Si5 0.839881 0.613671 0.305883
Si Si6 0.409089 0.677136 0.973547
Si Si7 0.251648 0.450317 0.995751
O O1 0.382023 0.407843 0.525489
O O2 0.248325 0.366027 0.380060
O O3 0.347052 0.332796 0.745093
O O4 0.257109 0.408330 0.799901
O O5 0.745846 0.746800 0.463831
O O6 0.648461 0.801038 0.226691
O O7 0.629554 0.714655 0.154310
O O8 0.500000 0.168720 0.295161
O O9 0.618786 0.138050 0.567629
O O10 0.607839 0.120603 0.058663
O O11 0.086762 0.127934 0.608308
O O12 0.160465 0.050440 0.624401
O O13 0.000000 0.058775 0.735569
O O14 0.814229 0.563901 0.206085
O O15 0.500000 0.689167 0.894374
O O16 0.236307 0.500000 0.885401
#
# Coordination Sequence:
#
# PCOD9375145 Si02
#       7
#     8   8   8   8   8   8   8
#     4  10  20  37  69  94 133 176 231 266 331 391
#     4  12  28  41  67  98 138 175 227 276 326 388
#     4  12  26  47  72 101 134 178 221 276 340 398
#     4   9  20  36  59  91 134 181 224 269 325 387
#     4  11  23  44  71  98 134 170 225 272 332 397
#     4  10  22  40  60  91 133 180 224 274 323 380
#     4  10  22  39  66  97 132 174 222 275 335 402
#
# _framework density 21.700223000000001
#
# number of rings (size 3 to 8) (size 9 to 14) (size 15 to 20)
#    0.000    1.429    1.429    3.000   12.000    3.143 
#    0.000    1.429    0.000    2.571    0.000    0.000 
#    0.000    0.000    0.000    0.000    0.000    0.000 
#
# Total GULP energy -156406.598746 kJ/mol
# GULP energy per Si atom -5585.949955 kJ/mol
# Density = 2.165083 g / cm^3
# Si number density = 21.700223 Si / 1000 Ang^3
#
#
#
# Elastic Constant Matrix: (Units=GPa)
#
#
# Indices 1 2 3 4 5 6 
#
# 1 126.9265 29.4838 44.5445 0.0211 0.0026 0.0038
# 2 29.4838 61.8456 20.9979 0.0260 -0.0047 0.0050
# 3 44.5445 20.9979 119.5254 -0.0080 0.0458 0.0324
# 4 0.0211 0.0260 -0.0080 8.9492 0.0059 0.0151
# 5 0.0026 -0.0047 0.0458 0.0059 26.3251 -0.0055
# 6 0.0038 0.0050 0.0324 0.0151 -0.0055 9.8001
#
#
#
# Elastic Compliance Matrix: (Units=1/GPa)
#
#
# Indices 1 2 3 4 5 6 
#
# 1 0.009779 -0.003642 -0.003005 -0.000015 0.000004 0.000008
# 2 -0.003642 0.018551 -0.001902 -0.000047 0.000007 -0.000002
# 3 -0.003005 -0.001902 0.009820 0.000021 -0.000017 -0.000030
# 4 -0.000015 -0.000047 0.000021 0.111742 -0.000025 -0.000173
# 5 0.000004 0.000007 -0.000017 -0.000025 0.037987 0.000021
# 6 0.000008 -0.000002 -0.000030 -0.000173 0.000021 0.102040
#
#
# Mechanical properties :
#
#
# Convention : Reuss Voigt Hill
#
# Bulk Modulus (GPa) = 47.49696 55.37221 51.43459
# Shear Modulus (GPa) = 15.92184 23.23296 19.57740
#
# Velocity S-wave (km/s) = 2.71166 3.27560 3.00688
# Velocity P-wave (km/s) = 5.63378 6.31493 5.98405
#
# Compressibility (1/GPa) = 0.02105398
#
# Stress axis : x y z
#
# Youngs Moduli (GPa) = 102.25983 53.90482 101.82977
#
# Poissons Ratio (x) = 0.19631 0.30596
# Poissons Ratio (y) = 0.37241 0.19366
# Poissons Ratio (z) = 0.30725 0.10252
#
# Static dielectric constant tensor:
#      x y z
#    x 1.787380 0.000010 -0.000020 
#    y 0.000010 1.796490 -0.000050 
#    z -0.000020 -0.000050 1.864590 
# 
# From -- ./inp_files/1693.got.cif
#   From: 2010.05.17/outbox.cif.g08.bks.cpg/sg44_1_cif.got.tgz:1693.got - 2010.06.03 19:37:08.
