data_PCOD9375799
_publ_section_title
;
Structure prediction by ZEFSAII (Michael W. Deem and Ramdas Pophale) SiO2 
 PCOD9375799
Probable space group: I M M 2
;
_chemical_formula_sum "Si O2"
_cell_formula_units_Z 64
_cell_length_a 21.478231
_cell_length_b 7.587981
_cell_length_c 20.227269
_cell_angle_alpha 90.000000
_cell_angle_beta 90.000000
_cell_angle_gamma 90.000000
_cell_volume 3296.567660
_symmetry_space_group_name_H-M "I M M 2"
_symmetry_group_IT_number 44
_symmetry_cell_setting 'orthorhombic'
loop_
_space_group_symop_operation_xyz
x,y,z
-x,-y,z
-x,y,z
x,-y,z
1/2+x,1/2+y,1/2+z
1/2-x,1/2-y,1/2+z
1/2-x,1/2+y,1/2+z
1/2+x,1/2-y,1/2+z
loop_
_atom_site_type_symbol
_atom_site_label
_atom_site_fract_x
_atom_site_fract_y
_atom_site_fract_z
Si Si1 0.115166 0.715442 0.866460
Si Si2 0.931309 0.283986 0.153176
Si Si3 0.194787 0.296842 0.659341
Si Si4 0.316509 0.202394 0.738685
Si Si5 0.243022 0.793546 0.373928
Si Si6 0.931959 0.284471 0.725431
Si Si7 0.761724 0.787679 0.517890
Si Si8 0.114871 0.286413 0.012582
O O1 0.113637 0.500000 0.866150
O O2 0.187305 0.774865 0.859041
O O3 0.077933 0.769947 0.801754
O O4 0.094185 0.773015 0.939610
O O5 0.928512 0.500000 0.152025
O O6 0.874682 0.219789 0.198692
O O7 0.920840 0.225410 0.077483
O O8 0.000000 0.233512 0.176291
O O9 0.198124 0.500000 0.681482
O O10 0.254919 0.210618 0.693173
O O11 0.128617 0.225847 0.684571
O O12 0.202624 0.287147 0.580717
O O13 0.299588 0.276795 0.810184
O O14 0.331858 0.000000 0.750751
O O15 0.218575 0.725689 0.444536
O O16 0.252976 0.000000 0.386162
O O17 0.931923 0.500000 0.723491
O O18 0.000000 0.226377 0.701781
O O19 0.688061 0.744187 0.521745
O O20 0.767326 0.000000 0.523424
O O21 0.110744 0.500000 0.011613
#
# Coordination Sequence:
#
# PCOD9375799 Si02
#       8
#     8   8   8   8   8   8   8   8
#     4   8  13  23  41  66  95 124 154 189 231 280
#     4   9  17  28  43  67  98 129 162 202 243 282
#     4  11  20  31  50  74 100 130 166 204 243 290
#     4  11  20  31  50  74 100 130 166 204 243 290
#     4   9  17  31  51  74  99 125 159 205 251 290
#     4   9  17  28  43  67  98 129 162 202 243 282
#     4   9  17  31  51  74  99 125 159 205 251 290
#     4   8  13  23  41  66  95 124 154 189 231 280
#
# _framework density 19.414133
#
# number of rings (size 3 to 8) (size 9 to 14) (size 15 to 20)
#    0.000    2.750    2.500    2.250    0.000    1.000 
#    0.000    2.500    0.000    3.750    0.000    5.250 
#    0.000    4.000    0.000    0.000    0.000    0.000 
#
# Total GULP energy -178418.099203 kJ/mol
# GULP energy per Si atom -5575.565600 kJ/mol
# Density = 1.936995 g / cm^3
# Si number density = 19.414133 Si / 1000 Ang^3
#
#
#
# Elastic Constant Matrix: (Units=GPa)
#
#
# Indices 1 2 3 4 5 6 
#
# 1 113.5686 -2.5837 58.9448 0.0000 0.0000 0.0000
# 2 -2.5837 35.7319 -8.1819 0.0000 0.0000 0.0000
# 3 58.9448 -8.1819 113.8095 0.0000 0.0000 0.0000
# 4 0.0000 0.0000 0.0000 17.4941 0.0000 0.0000
# 5 0.0000 0.0000 0.0000 0.0000 22.6565 0.0000
# 6 0.0000 0.0000 0.0000 0.0000 0.0000 8.3694
#
#
#
# Elastic Compliance Matrix: (Units=1/GPa)
#
#
# Indices 1 2 3 4 5 6 
#
# 1 0.012054 -0.000567 -0.006284 0.000000 0.000000 0.000000
# 2 -0.000567 0.028481 0.002341 0.000000 0.000000 0.000000
# 3 -0.006284 0.002341 0.012209 0.000000 0.000000 0.000000
# 4 0.000000 0.000000 0.000000 0.057162 0.000000 0.000000
# 5 0.000000 0.000000 0.000000 0.000000 0.044137 0.000000
# 6 0.000000 0.000000 0.000000 0.000000 0.000000 0.119483
#
#
# Mechanical properties :
#
#
# Convention : Reuss Voigt Hill
#
# Bulk Modulus (GPa) = 22.87012 39.94095 31.40554
# Shear Modulus (GPa) = 16.82815 24.03272 20.43044
#
# Velocity S-wave (km/s) = 2.94734 3.52219 3.24751
# Velocity P-wave (km/s) = 4.83613 6.09581 5.50214
#
# Compressibility (1/GPa) = 0.04372517
#
# Stress axis : x y z
#
# Youngs Moduli (GPa) = 82.96176 35.11078 81.90391
#
# Poissons Ratio (x) = 0.01992 0.51466
# Poissons Ratio (y) = 0.04706 -0.19177
# Poissons Ratio (z) = 0.52131 -0.08221
#
# Static dielectric constant tensor:
#      x y z
#    x 1.674630 0.000000 0.000000 
#    y 0.000000 1.756240 0.000000 
#    z 0.000000 0.000000 1.688530 
# 
# From -- ./inp_files/24457.got.cif
#   From: 2010.05.17/outbox.cif.g08.bks.cpg/sg44_13_cif.got.tgz:24457.got - 2010.06.03 19:37:08.
