data_PCOD9375582
_publ_section_title
;
Structure prediction by ZEFSAII (Michael W. Deem and Ramdas Pophale) SiO2 
 PCOD9375582
Probable space group: I M M 2
;
_chemical_formula_sum "Si O2"
_cell_formula_units_Z 64
_cell_length_a 31.748177
_cell_length_b 7.801623
_cell_length_c 12.244631
_cell_angle_alpha 90.000000
_cell_angle_beta 90.000000
_cell_angle_gamma 90.000000
_cell_volume 3032.839689
_symmetry_space_group_name_H-M "I M M 2"
_symmetry_group_IT_number 44
_symmetry_cell_setting 'orthorhombic'
loop_
_space_group_symop_operation_xyz
x,y,z
-x,-y,z
-x,y,z
x,-y,z
1/2+x,1/2+y,1/2+z
1/2-x,1/2-y,1/2+z
1/2-x,1/2+y,1/2+z
1/2+x,1/2-y,1/2+z
loop_
_atom_site_type_symbol
_atom_site_label
_atom_site_fract_x
_atom_site_fract_y
_atom_site_fract_z
Si Si1 0.869847 0.200590 0.564570
Si Si2 0.453871 0.199628 0.188900
Si Si3 0.565174 0.302737 0.430818
Si Si4 0.294032 0.201129 0.217768
Si Si5 0.453789 0.709430 0.673262
Si Si6 0.701587 0.708362 0.659133
Si Si7 0.874220 0.209345 0.316113
Si Si8 0.160402 0.297884 0.931434
O O1 0.913292 0.219433 0.631453
O O2 0.830938 0.282342 0.629084
O O3 0.874923 0.267791 0.441347
O O4 0.859752 0.000000 0.557313
O O5 0.500000 0.271260 0.158120
O O6 0.449233 0.214079 0.319805
O O7 0.453028 0.000000 0.159411
O O8 0.551361 0.500000 0.422857
O O9 0.550215 0.232225 0.547479
O O10 0.615667 0.294170 0.435095
O O11 0.248869 0.271339 0.181860
O O12 0.312147 0.272051 0.331072
O O13 0.286481 0.000000 0.237740
O O14 0.500000 0.756828 0.716044
O O15 0.451641 0.500000 0.669914
O O16 0.414747 0.767998 0.746598
O O17 0.701301 0.500000 0.653026
O O18 0.668489 0.758228 0.753379
O O19 0.684393 0.775321 0.544519
O O20 0.875797 0.000000 0.317020
O O21 0.151675 0.500000 0.912503
#
# Coordination Sequence:
#
# PCOD9375582 Si02
#       8
#     8   8   8   8   8   8   8   8
#     4  11  23  38  62  88 115 153 201 251 292 350
#     4  11  24  41  60  84 121 162 195 239 301 357
#     4  11  20  35  61  90 119 152 194 243 290 352
#     4  10  23  40  60  84 119 159 193 242 302 356
#     4   9  17  31  55  86 116 144 180 235 297 347
#     4  10  21  40  62  85 116 156 199 244 297 353
#     4   9  19  36  57  84 115 149 192 245 298 342
#     4  11  22  37  60  89 120 155 193 243 303 357
#
# _framework density 21.102336999999999
#
# number of rings (size 3 to 8) (size 9 to 14) (size 15 to 20)
#    0.000    1.750    2.500    1.875    1.750    3.000 
#    0.000    2.500    0.000    0.000    0.000    0.000 
#    0.000    0.000    0.000    0.000    0.000    0.000 
#
# Total GULP energy -178804.895330 kJ/mol
# GULP energy per Si atom -5587.652979 kJ/mol
# Density = 2.105431 g / cm^3
# Si number density = 21.102337 Si / 1000 Ang^3
#
#
#
# Elastic Constant Matrix: (Units=GPa)
#
#
# Indices 1 2 3 4 5 6 
#
# 1 171.1557 -9.3174 57.7566 0.0000 0.0000 0.0000
# 2 -9.3174 29.6847 -10.7185 0.0000 0.0000 0.0000
# 3 57.7566 -10.7185 129.2334 0.0000 0.0000 0.0000
# 4 0.0000 0.0000 0.0000 -6.5027 0.0000 0.0000
# 5 0.0000 0.0000 0.0000 0.0000 31.7624 0.0000
# 6 0.0000 0.0000 0.0000 0.0000 0.0000 598.5450
#
#
#
# Elastic Compliance Matrix: (Units=1/GPa)
#
#
# Indices 1 2 3 4 5 6 
#
# 1 0.006914 0.001087 -0.003000 0.000000 0.000000 0.000000
# 2 0.001087 0.034898 0.002409 0.000000 0.000000 0.000000
# 3 -0.003000 0.002409 0.009278 0.000000 0.000000 0.000000
# 4 0.000000 0.000000 0.000000 -0.153782 0.000000 0.000000
# 5 0.000000 0.000000 0.000000 0.000000 0.031484 0.000000
# 6 0.000000 0.000000 0.000000 0.000000 0.000000 0.001671
#
#
# Mechanical properties :
#
#
# Convention : Reuss Voigt Hill
#
# Bulk Modulus (GPa) = 19.20039 45.05725 32.12882
# Shear Modulus (GPa) = -94.04207 144.25114 25.10453
#
# Velocity S-wave (km/s) = -6.68293 8.27685 3.45288
# Velocity P-wave (km/s) = 7.10142 10.61790 5.58165
#
# Compressibility (1/GPa) = 0.05208228
#
# Stress axis : x y z
#
# Youngs Moduli (GPa) = 144.63150 28.65473 107.77713
#
# Poissons Ratio (x) = -0.03115 0.32332
# Poissons Ratio (y) = -0.15722 -0.25959
# Poissons Ratio (z) = 0.43388 -0.06902
#
# Static dielectric constant tensor:
#      x y z
#    x 1.748520 0.000000 0.000000 
#    y 0.000000 1.768280 0.000000 
#    z 0.000000 0.000000 1.730720 
# 
# From -- ./inp_files/15063.got.cif
#   From: 2010.05.17/outbox.cif.g08.bks.cpg/sg44_8_cif.got.tgz:15063.got - 2010.06.03 19:37:08.
