data_PCOD9375833
_publ_section_title
;
Structure prediction by ZEFSAII (Michael W. Deem and Ramdas Pophale) SiO2 
 PCOD9375833
Probable space group: I M M 2
;
_chemical_formula_sum "Si O2"
_cell_formula_units_Z 48
_cell_length_a 13.580387
_cell_length_b 19.539341
_cell_length_c 9.458679
_cell_angle_alpha 90.000000
_cell_angle_beta 90.000000
_cell_angle_gamma 90.000000
_cell_volume 2509.877617
_symmetry_space_group_name_H-M "I M M 2"
_symmetry_group_IT_number 44
_symmetry_cell_setting 'orthorhombic'
loop_
_space_group_symop_operation_xyz
x,y,z
-x,-y,z
-x,y,z
x,-y,z
1/2+x,1/2+y,1/2+z
1/2-x,1/2-y,1/2+z
1/2-x,1/2+y,1/2+z
1/2+x,1/2-y,1/2+z
loop_
_atom_site_type_symbol
_atom_site_label
_atom_site_fract_x
_atom_site_fract_y
_atom_site_fract_z
Si Si1 0.118989 0.210281 0.886790
Si Si2 0.301864 0.424048 0.234021
Si Si3 0.114491 0.291885 0.627825
Si Si4 0.381256 0.720526 0.706075
Si Si5 0.383003 0.866347 0.855860
Si Si6 0.114776 0.144186 0.471220
O O1 0.146371 0.136511 0.823125
O O2 0.157015 0.269458 0.779658
O O3 0.000000 0.214801 0.888087
O O4 0.156753 0.218440 0.046254
O O5 0.340691 0.500000 0.261382
O O6 0.188238 0.419544 0.280996
O O7 0.320666 0.403908 0.070756
O O8 0.147174 0.350266 0.518439
O O9 0.115659 0.219869 0.542497
O O10 0.000000 0.308799 0.653364
O O11 0.500000 0.714590 0.699588
O O12 0.363818 0.794985 0.772874
O O13 0.352234 0.659106 0.811241
O O14 0.500000 0.880506 0.849966
O O15 0.000000 0.121450 0.474350
#
# Coordination Sequence:
#
# PCOD9375833 Si02
#       6
#     8   8   8   8   8   8
#     4   9  17  30  51  80 106 122 147 196 254 313
#     4  11  22  32  45  67  96 139 182 203 232 286
#     4   7  12  26  48  71  93 117 146 189 248 297
#     4   8  15  30  53  79 101 120 149 198 263 316
#     4   9  18  33  50  69  95 125 163 212 255 292
#     4   8  15  30  50  71  97 125 156 199 248 302
#
# _framework density 19.124438000000001
#
# number of rings (size 3 to 8) (size 9 to 14) (size 15 to 20)
#    0.000    3.333    0.000    3.500    0.000    5.667 
#    0.000    0.833    0.000    3.000    0.000    0.000 
#    0.000    9.333    0.000    0.000    0.000    0.000 
#
# Total GULP energy -133672.924526 kJ/mol
# GULP energy per Si atom -5569.705189 kJ/mol
# Density = 1.908091 g / cm^3
# Si number density = 19.124438 Si / 1000 Ang^3
#
#
#
# Elastic Constant Matrix: (Units=GPa)
#
#
# Indices 1 2 3 4 5 6 
#
# 1 79.5019 7.8797 14.7385 0.0000 0.0000 0.0000
# 2 7.8797 54.5111 36.8162 0.0000 0.0000 0.0000
# 3 14.7385 36.8162 160.4836 0.0000 0.0000 0.0000
# 4 0.0000 0.0000 0.0000 5.9202 0.0000 0.0000
# 5 0.0000 0.0000 0.0000 0.0000 15.9304 0.0000
# 6 0.0000 0.0000 0.0000 0.0000 0.0000 10.3197
#
#
#
# Elastic Compliance Matrix: (Units=1/GPa)
#
#
# Indices 1 2 3 4 5 6 
#
# 1 0.012869 -0.001257 -0.000894 0.000000 0.000000 0.000000
# 2 -0.001257 0.021831 -0.004893 0.000000 0.000000 0.000000
# 3 -0.000894 -0.004893 0.007436 0.000000 0.000000 0.000000
# 4 0.000000 0.000000 0.000000 0.168914 0.000000 0.000000
# 5 0.000000 0.000000 0.000000 0.000000 0.062773 0.000000
# 6 0.000000 0.000000 0.000000 0.000000 0.000000 0.096902
#
#
# Mechanical properties :
#
#
# Convention : Reuss Voigt Hill
#
# Bulk Modulus (GPa) = 35.65159 45.92948 40.79053
# Shear Modulus (GPa) = 12.68518 22.10486 17.39502
#
# Velocity S-wave (km/s) = 2.57825 3.40346 3.01918
# Velocity P-wave (km/s) = 5.24838 6.28593 5.79044
#
# Compressibility (1/GPa) = 0.02804924
#
# Stress axis : x y z
#
# Youngs Moduli (GPa) = 77.70904 45.80617 134.48676
#
# Poissons Ratio (x) = 0.05756 0.12017
# Poissons Ratio (y) = 0.09766 0.65802
# Poissons Ratio (z) = 0.06943 0.22412
#
# Static dielectric constant tensor:
#      x y z
#    x 1.750250 0.000000 0.000000 
#    y 0.000000 1.620510 0.000000 
#    z 0.000000 0.000000 1.733600 
# 
# From -- ./inp_files/7272.got.cif
#   From: 2010.05.17/outbox.cif.g08.bks.cpg/sg44_4_cif.got.tgz:7272.got - 2010.06.03 19:37:08.
