data_PCOD9375188
_publ_section_title
;
Structure prediction by ZEFSAII (Michael W. Deem and Ramdas Pophale) SiO2 
 PCOD9375188
Probable space group: I M M 2
;
_chemical_formula_sum "Si O2"
_cell_formula_units_Z 48
_cell_length_a 18.777908
_cell_length_b 8.159545
_cell_length_c 15.290694
_cell_angle_alpha 90.000000
_cell_angle_beta 90.000000
_cell_angle_gamma 90.000000
_cell_volume 2342.827678
_symmetry_space_group_name_H-M "I M M 2"
_symmetry_group_IT_number 44
_symmetry_cell_setting 'orthorhombic'
loop_
_space_group_symop_operation_xyz
x,y,z
-x,-y,z
-x,y,z
x,-y,z
1/2+x,1/2+y,1/2+z
1/2-x,1/2-y,1/2+z
1/2-x,1/2+y,1/2+z
1/2+x,1/2-y,1/2+z
loop_
_atom_site_type_symbol
_atom_site_label
_atom_site_fract_x
_atom_site_fract_y
_atom_site_fract_z
Si Si1 0.000000 0.800165 0.783641
Si Si2 0.753221 0.695683 0.003693
Si Si3 0.606119 0.811404 0.940700
Si Si4 0.845626 0.800816 0.851594
Si Si5 0.077476 0.809996 0.254977
Si Si6 0.000000 0.196531 0.583272
Si Si7 0.266853 0.805029 0.702977
O O1 0.925717 0.749418 0.827188
O O2 0.000000 0.746897 0.682702
O O3 0.000000 0.000000 0.783774
O O4 0.740556 0.500000 0.003303
O O5 0.689313 0.784165 0.953470
O O6 0.822181 0.734744 0.945949
O O7 0.754400 0.754904 0.103947
O O8 0.579410 0.704701 0.860025
O O9 0.590388 0.000000 0.920548
O O10 0.567549 0.759623 0.029451
O O11 0.788698 0.743349 0.776830
O O12 0.843170 0.000000 0.853541
O O13 0.150606 0.726989 0.225227
O O14 0.000000 0.743316 0.225551
O O15 0.080971 0.000000 0.229386
O O16 0.000000 0.000000 0.582401
O O17 0.255985 0.000000 0.700912
#
# Coordination Sequence:
#
# PCOD9375188 Si02
#       7
#     4   8   8   8   8   4   8
#     4   9  20  39  63  88 121 164 203 247 306 364
#     4  11  23  40  62  90 121 162 207 255 307 363
#     4  12  23  36  58  89 124 161 198 247 307 369
#     4  10  20  39  64  89 119 161 208 254 303 365
#     4  11  23  39  61  89 122 159 201 251 306 364
#     4  11  21  37  61  90 121 158 201 253 310 372
#     4  10  22  40  63  89 121 161 208 254 308 369
#
# _framework density 20.488063
#
# number of rings (size 3 to 8) (size 9 to 14) (size 15 to 20)
#    0.000    1.333    2.500    3.750    0.000    5.000 
#    1.500    3.750    0.000    0.000    0.000    0.000 
#    0.000    0.000    0.000    0.000    0.000    0.000 
#
# Total GULP energy -134061.096244 kJ/mol
# GULP energy per Si atom -5585.879010 kJ/mol
# Density = 2.044143 g / cm^3
# Si number density = 20.488063 Si / 1000 Ang^3
#
#
#
# Elastic Constant Matrix: (Units=GPa)
#
#
# Indices 1 2 3 4 5 6 
#
# 1 113.0357 -5.0759 19.2986 0.0000 0.0000 0.0000
# 2 -5.0759 27.7480 -0.6785 0.0000 0.0000 0.0000
# 3 19.2986 -0.6785 65.9180 0.0000 0.0000 0.0000
# 4 0.0000 0.0000 0.0000 23.6932 0.0000 0.0000
# 5 0.0000 0.0000 0.0000 0.0000 26.8854 0.0000
# 6 0.0000 0.0000 0.0000 0.0000 0.0000 24.7297
#
#
#
# Elastic Compliance Matrix: (Units=1/GPa)
#
#
# Indices 1 2 3 4 5 6 
#
# 1 0.009387 0.001650 -0.002731 0.000000 0.000000 0.000000
# 2 0.001650 0.036338 -0.000109 0.000000 0.000000 0.000000
# 3 -0.002731 -0.000109 0.015969 0.000000 0.000000 0.000000
# 4 0.000000 0.000000 0.000000 0.042206 0.000000 0.000000
# 5 0.000000 0.000000 0.000000 0.000000 0.037195 0.000000
# 6 0.000000 0.000000 0.000000 0.000000 0.000000 0.040437
#
#
# Mechanical properties :
#
#
# Convention : Reuss Voigt Hill
#
# Bulk Modulus (GPa) = 16.85946 25.97669 21.41808
# Shear Modulus (GPa) = 24.54787 27.93882 26.24334
#
# Velocity S-wave (km/s) = 3.46519 3.69679 3.58286
# Velocity P-wave (km/s) = 4.92513 5.56130 5.25285
#
# Compressibility (1/GPa) = 0.05931388
#
# Stress axis : x y z
#
# Youngs Moduli (GPa) = 106.52828 27.51947 62.62191
#
# Poissons Ratio (x) = -0.04542 0.17104
# Poissons Ratio (y) = -0.17581 0.00684
# Poissons Ratio (z) = 0.29096 0.00300
#
# Static dielectric constant tensor:
#      x y z
#    x 1.760410 0.000000 0.000000 
#    y 0.000000 1.719870 0.000000 
#    z 0.000000 0.000000 1.715710 
# 
# From -- ./inp_files/16128.got.cif
#   From: 2010.05.17/outbox.cif.g08.bks.cpg/sg44_9_cif.got.tgz:16128.got - 2010.06.03 19:37:08.
