data_PCOD9375853
_publ_section_title
;
Structure prediction by ZEFSAII (Michael W. Deem and Ramdas Pophale) SiO2 
 PCOD9375853
Probable space group: I M M 2
;
_chemical_formula_sum "Si O2"
_cell_formula_units_Z 48
_cell_length_a 27.702825
_cell_length_b 8.040223
_cell_length_c 9.752909
_cell_angle_alpha 90.000000
_cell_angle_beta 90.000000
_cell_angle_gamma 90.000000
_cell_volume 2172.332626
_symmetry_space_group_name_H-M "I M M 2"
_symmetry_group_IT_number 44
_symmetry_cell_setting 'orthorhombic'
loop_
_space_group_symop_operation_xyz
x,y,z
-x,-y,z
-x,y,z
x,-y,z
1/2+x,1/2+y,1/2+z
1/2-x,1/2-y,1/2+z
1/2-x,1/2+y,1/2+z
1/2+x,1/2-y,1/2+z
loop_
_atom_site_type_symbol
_atom_site_label
_atom_site_fract_x
_atom_site_fract_y
_atom_site_fract_z
Si Si1 0.631521 0.804766 0.072710
Si Si2 0.584982 0.805486 0.577515
Si Si3 0.309785 0.304959 0.663074
Si Si4 0.771821 0.806696 0.461845
Si Si5 0.051298 0.702693 0.369033
Si Si6 0.554796 0.692905 0.285804
O O1 0.597222 0.784332 0.203588
O O2 0.642219 0.000000 0.053414
O O3 0.681841 0.711412 0.061324
O O4 0.597500 0.738439 0.950874
O O5 0.640952 0.784056 0.618777
O O6 0.555854 0.751361 0.711515
O O7 0.568671 0.707365 0.444654
O O8 0.575213 0.000000 0.551591
O O9 0.320722 0.500000 0.681614
O O10 0.271532 0.283121 0.540251
O O11 0.287765 0.244624 0.809751
O O12 0.758389 0.000000 0.446293
O O13 0.052473 0.500000 0.376714
O O14 0.000000 0.758690 0.427471
O O15 0.500000 0.758122 0.264845
O O16 0.555491 0.500000 0.243972
#
# Coordination Sequence:
#
# PCOD9375853 Si02
#       6
#     8   8   8   8   8   8
#     4  11  22  40  66  94 128 166 211 263 317 378
#     4  11  22  40  66  94 128 166 211 263 317 378
#     4  11  25  44  67  95 129 167 212 261 319 383
#     4  11  25  44  67  95 129 167 212 261 319 383
#     4   9  18  34  60  93 124 157 201 254 308 365
#     4  11  25  43  62  91 132 175 217 262 316 377
#
# _framework density 22.096063999999998
#
# number of rings (size 3 to 8) (size 9 to 14) (size 15 to 20)
#    0.000    1.333    1.667    3.500    2.333    4.667 
#    0.000    0.000    0.000    4.000    0.000    0.000 
#    0.000    0.000    0.000    0.000    0.000    0.000 
#
# Total GULP energy -134165.809589 kJ/mol
# GULP energy per Si atom -5590.242066 kJ/mol
# Density = 2.204577 g / cm^3
# Si number density = 22.096064 Si / 1000 Ang^3
#
#
#
# Elastic Constant Matrix: (Units=GPa)
#
#
# Indices 1 2 3 4 5 6 
#
# 1 83.9494 -11.5839 2.5281 0.0000 0.0000 0.0000
# 2 -11.5839 35.7673 -2.7694 0.0000 0.0000 0.0000
# 3 2.5281 -2.7694 72.1814 0.0000 0.0000 0.0000
# 4 0.0000 0.0000 0.0000 20.6548 0.0000 0.0000
# 5 0.0000 0.0000 0.0000 0.0000 40.3270 0.0000
# 6 0.0000 0.0000 0.0000 0.0000 0.0000 -81.6922
#
#
#
# Elastic Compliance Matrix: (Units=1/GPa)
#
#
# Indices 1 2 3 4 5 6 
#
# 1 0.012475 0.004018 -0.000283 0.000000 0.000000 0.000000
# 2 0.004018 0.029336 0.000985 0.000000 0.000000 0.000000
# 3 -0.000283 0.000985 0.013902 0.000000 0.000000 0.000000
# 4 0.000000 0.000000 0.000000 0.048415 0.000000 0.000000
# 5 0.000000 0.000000 0.000000 0.000000 0.024797 0.000000
# 6 0.000000 0.000000 0.000000 0.000000 0.000000 -0.012241
#
#
# Mechanical properties :
#
#
# Convention : Reuss Voigt Hill
#
# Bulk Modulus (GPa) = 15.34836 18.69419 17.02127
# Shear Modulus (GPa) = 38.77146 9.43949 24.10548
#
# Velocity S-wave (km/s) = 4.19343 2.06913 3.30652
# Velocity P-wave (km/s) = 5.51432 3.76659 4.72202
#
# Compressibility (1/GPa) = 0.06515354
#
# Stress axis : x y z
#
# Youngs Moduli (GPa) = 80.16076 34.08764 71.93383
#
# Poissons Ratio (x) = -0.13698 0.02034
# Poissons Ratio (y) = -0.32211 -0.07084
# Poissons Ratio (z) = 0.02267 -0.03357
#
# Static dielectric constant tensor:
#      x y z
#    x 1.737340 0.000000 0.000000 
#    y 0.000000 1.776580 0.000000 
#    z 0.000000 0.000000 1.817250 
# 
# From -- ./inp_files/9969.got.cif
#   From: 2010.05.17/outbox.cif.g08.bks.cpg/sg44_5_cif.got.tgz:9969.got - 2010.06.03 19:37:08.
