data_PCOD9375661
_publ_section_title
;
Structure prediction by ZEFSAII (Michael W. Deem and Ramdas Pophale) SiO2 
 PCOD9375661
Probable space group: I M M 2
;
_chemical_formula_sum "Si O2"
_cell_formula_units_Z 48
_cell_length_a 8.716971
_cell_length_b 20.836099
_cell_length_c 14.744405
_cell_angle_alpha 90.000000
_cell_angle_beta 90.000000
_cell_angle_gamma 90.000000
_cell_volume 2677.991937
_symmetry_space_group_name_H-M "I M M 2"
_symmetry_group_IT_number 44
_symmetry_cell_setting 'orthorhombic'
loop_
_space_group_symop_operation_xyz
x,y,z
-x,-y,z
-x,y,z
x,-y,z
1/2+x,1/2+y,1/2+z
1/2-x,1/2-y,1/2+z
1/2-x,1/2+y,1/2+z
1/2+x,1/2-y,1/2+z
loop_
_atom_site_type_symbol
_atom_site_label
_atom_site_fract_x
_atom_site_fract_y
_atom_site_fract_z
Si Si1 0.317596 0.808775 0.000000
Si Si2 0.317373 0.630067 0.193744
Si Si3 0.682595 0.272864 0.691730
Si Si4 0.684141 0.573688 0.391021
Si Si5 0.184279 0.572934 0.011532
Si Si6 0.184111 0.690918 0.883023
O O1 0.500000 0.801291 0.997086
O O2 0.267451 0.875496 0.954877
O O3 0.241715 0.751286 0.942010
O O4 0.258141 0.803048 0.102478
O O5 0.500000 0.641440 0.189720
O O6 0.232837 0.698333 0.194792
O O7 0.283416 0.592512 0.286613
O O8 0.264081 0.591243 0.105809
O O9 0.500000 0.277105 0.685412
O O10 0.742216 0.304749 0.784063
O O11 0.500000 0.579812 0.403522
O O12 0.727457 0.500000 0.407905
O O13 0.222232 0.500000 0.985255
O O14 0.000000 0.577043 0.024464
O O15 0.225663 0.626037 0.936691
O O16 0.000000 0.694680 0.875140
#
# Coordination Sequence:
#
# PCOD9375661 Si02
#       6
#     8   8   8   8   8   8
#     4  12  24  39  62  90 121 160 204 250 301 361
#     4  11  21  35  60  91 124 159 197 245 303 363
#     4  12  24  39  61  90 121 157 204 256 301 354
#     4  10  22  40  61  88 125 165 202 247 304 361
#     4  10  22  39  60  88 124 163 200 243 300 362
#     4  11  22  39  62  88 122 160 201 250 300 358
#
# _framework density 17.923878999999999
#
# number of rings (size 3 to 8) (size 9 to 14) (size 15 to 20)
#    0.000    1.000    3.333    4.500    0.000    2.667 
#    0.000    0.833    0.000    3.000    0.000    0.000 
#    0.000    0.000    0.000    0.000    0.000    0.000 
#
# Total GULP energy -134219.746138 kJ/mol
# GULP energy per Si atom -5592.489422 kJ/mol
# Density = 1.788308 g / cm^3
# Si number density = 17.923879 Si / 1000 Ang^3
#
#
#
# Elastic Constant Matrix: (Units=GPa)
#
#
# Indices 1 2 3 4 5 6 
#
# 1 53.5741 41.1386 22.4746 0.0000 0.0000 0.0000
# 2 41.1386 126.0082 47.0689 -0.0001 0.0000 0.0001
# 3 22.4746 47.0689 103.6912 -0.0001 0.0000 0.0002
# 4 0.0000 -0.0001 -0.0001 7.1148 0.0000 0.0002
# 5 0.0000 0.0000 0.0000 0.0000 34.7257 0.0000
# 6 0.0000 0.0001 0.0002 0.0002 0.0000 -6.2779
#
#
#
# Elastic Compliance Matrix: (Units=1/GPa)
#
#
# Indices 1 2 3 4 5 6 
#
# 1 0.025280 -0.007474 -0.002087 0.000000 0.000000 0.000000
# 2 -0.007474 0.011766 -0.003721 0.000000 0.000000 0.000000
# 3 -0.002087 -0.003721 0.011785 0.000000 0.000000 0.000000
# 4 0.000000 0.000000 0.000000 0.140553 0.000000 0.000005
# 5 0.000000 0.000000 0.000000 0.000000 0.028797 0.000000
# 6 0.000000 0.000000 0.000000 0.000005 0.000000 -0.159290
#
#
# Mechanical properties :
#
#
# Convention : Reuss Voigt Hill
#
# Bulk Modulus (GPa) = 44.90692 56.07086 50.48889
# Shear Modulus (GPa) = 53.83392 18.61862 36.22627
#
# Velocity S-wave (km/s) = 5.48634 3.22648 4.50056
# Velocity P-wave (km/s) = 8.07725 6.72539 7.43212
#
# Compressibility (1/GPa) = 0.02226828
#
# Stress axis : x y z
#
# Youngs Moduli (GPa) = 39.55668 84.99073 84.85062
#
# Poissons Ratio (x) = 0.63521 0.17706
# Poissons Ratio (y) = 0.29564 0.31573
# Poissons Ratio (z) = 0.08254 0.31625
#
# Static dielectric constant tensor:
#      x y z
#    x 1.601090 0.000000 0.000000 
#    y 0.000000 1.598530 0.000000 
#    z 0.000000 0.000000 1.586420 
# 
# From -- ./inp_files/16080.got.cif
#   From: 2010.05.17/outbox.cif.g08.bks.cpg/sg44_9_cif.got.tgz:16080.got - 2010.06.03 19:37:08.
