data_PCOD9375651
_publ_section_title
;
Structure prediction by ZEFSAII (Michael W. Deem and Ramdas Pophale) SiO2 
 PCOD9375651
Probable space group: I M M 2
;
_chemical_formula_sum "Si O2"
_cell_formula_units_Z 48
_cell_length_a 32.653765
_cell_length_b 8.930984
_cell_length_c 9.200345
_cell_angle_alpha 90.000000
_cell_angle_beta 90.000000
_cell_angle_gamma 90.000000
_cell_volume 2683.098938
_symmetry_space_group_name_H-M "I M M 2"
_symmetry_group_IT_number 44
_symmetry_cell_setting 'orthorhombic'
loop_
_space_group_symop_operation_xyz
x,y,z
-x,-y,z
-x,y,z
x,-y,z
1/2+x,1/2+y,1/2+z
1/2-x,1/2-y,1/2+z
1/2-x,1/2+y,1/2+z
1/2+x,1/2-y,1/2+z
loop_
_atom_site_type_symbol
_atom_site_label
_atom_site_fract_x
_atom_site_fract_y
_atom_site_fract_z
Si Si1 0.209839 0.819222 0.566510
Si Si2 0.866239 0.179167 0.049846
Si Si3 0.871654 0.179392 0.394111
Si Si4 0.455807 0.679712 0.565950
Si Si5 0.455329 0.820981 0.887654
Si Si6 0.709689 0.179149 0.384446
O O1 0.168345 0.774130 0.483081
O O2 0.249820 0.775814 0.474342
O O3 0.211390 0.748525 0.724850
O O4 0.209514 0.000000 0.578285
O O5 0.865533 0.214652 0.222651
O O6 0.912246 0.217851 0.994646
O O7 0.860334 0.000000 0.034519
O O8 0.830565 0.263251 0.966801
O O9 0.913771 0.251902 0.450428
O O10 0.875860 0.000000 0.403097
O O11 0.500000 0.712773 0.494308
O O12 0.454287 0.500000 0.591991
O O13 0.456068 0.760817 0.721769
O O14 0.500000 0.778347 0.951740
O O15 0.452531 0.000000 0.887822
O O16 0.709152 0.000000 0.374984
#
# Coordination Sequence:
#
# PCOD9375651 Si02
#       6
#     8   8   8   8   8   8
#     4  10  22  39  56  75 101 132 167 208 251 297
#     4   9  17  31  52  77 106 136 167 209 253 292
#     4   9  18  33  53  75 100 134 174 210 246 293
#     4   8  14  26  45  69  98 134 173 208 243 288
#     4   9  16  25  41  70 105 135 164 204 252 295
#     4  11  23  37  55  78 102 131 167 205 251 306
#
# _framework density 17.889761
#
# number of rings (size 3 to 8) (size 9 to 14) (size 15 to 20)
#    0.000    2.667    0.000    3.000    0.000    7.000 
#    0.000    0.000    0.000    1.000    0.000    2.333 
#    0.000    0.000    0.000    0.000    0.000    0.000 
#
# Total GULP energy -133721.107003 kJ/mol
# GULP energy per Si atom -5571.712792 kJ/mol
# Density = 1.784904 g / cm^3
# Si number density = 17.889761 Si / 1000 Ang^3
#
#
#
# Elastic Constant Matrix: (Units=GPa)
#
#
# Indices 1 2 3 4 5 6 
#
# 1 230.7402 53.9948 76.8033 0.0000 0.0000 0.0000
# 2 53.9948 19.4317 27.7620 0.0000 0.0000 0.0000
# 3 76.8033 27.7620 71.0006 0.0000 0.0000 0.0000
# 4 0.0000 0.0000 0.0000 21.8098 0.0000 0.0000
# 5 0.0000 0.0000 0.0000 0.0000 20.9362 0.0000
# 6 0.0000 0.0000 0.0000 0.0000 0.0000 29.7790
#
#
#
# Elastic Compliance Matrix: (Units=1/GPa)
#
#
# Indices 1 2 3 4 5 6 
#
# 1 0.012391 -0.034623 0.000134 0.000000 0.000000 0.000000
# 2 -0.034623 0.213341 -0.045966 0.000000 0.000000 0.000000
# 3 0.000134 -0.045966 0.031912 0.000000 0.000000 0.000000
# 4 0.000000 0.000000 0.000000 0.045851 0.000000 0.000000
# 5 0.000000 0.000000 0.000000 0.000000 0.047764 0.000000
# 6 0.000000 0.000000 0.000000 0.000000 0.000000 0.033581
#
#
# Mechanical properties :
#
#
# Convention : Reuss Voigt Hill
#
# Bulk Modulus (GPa) = 10.33752 70.92141 40.62946
# Shear Modulus (GPa) = 8.65058 25.34584 16.99821
#
# Velocity S-wave (km/s) = 2.20136 3.76810 3.08582
# Velocity P-wave (km/s) = 3.50033 7.65905 5.95455
#
# Compressibility (1/GPa) = 0.09673503
#
# Stress axis : x y z
#
# Youngs Moduli (GPa) = 80.70117 4.68733 31.33572
#
# Poissons Ratio (x) = 0.16229 -0.00420
# Poissons Ratio (y) = 2.79415 1.44037
# Poissons Ratio (z) = -0.01082 0.21546
#
# Static dielectric constant tensor:
#      x y z
#    x 1.664030 0.000000 0.000000 
#    y 0.000000 1.596450 0.000000 
#    z 0.000000 0.000000 1.583110 
# 
# From -- ./inp_files/4916.got.cif
#   From: 2010.05.17/outbox.cif.g08.bks.cpg/sg44_3_cif.got.tgz:4916.got - 2010.06.03 19:37:08.
