data_PCOD9375249
_publ_section_title
;
Structure prediction by ZEFSAII (Michael W. Deem and Ramdas Pophale) SiO2 
 PCOD9375249
Probable space group: I M M 2
;
_chemical_formula_sum "Si O2"
_cell_formula_units_Z 48
_cell_length_a 19.162851
_cell_length_b 21.393514
_cell_length_c 6.611759
_cell_angle_alpha 90.000000
_cell_angle_beta 90.000000
_cell_angle_gamma 90.000000
_cell_volume 2710.561488
_symmetry_space_group_name_H-M "I M M 2"
_symmetry_group_IT_number 44
_symmetry_cell_setting 'orthorhombic'
loop_
_space_group_symop_operation_xyz
x,y,z
-x,-y,z
-x,y,z
x,-y,z
1/2+x,1/2+y,1/2+z
1/2-x,1/2-y,1/2+z
1/2-x,1/2+y,1/2+z
1/2+x,1/2-y,1/2+z
loop_
_atom_site_type_symbol
_atom_site_label
_atom_site_fract_x
_atom_site_fract_y
_atom_site_fract_z
Si Si1 0.424737 0.925625 0.429500
Si Si2 0.828442 0.261093 0.934798
Si Si3 0.634537 0.856600 0.786713
Si Si4 0.808379 0.175684 0.279002
Si Si5 0.419110 0.256379 0.046677
Si Si6 0.792819 0.574995 0.645275
O O1 0.500000 0.899047 0.364440
O O2 0.410253 0.906093 0.660267
O O3 0.360790 0.909703 0.282423
O O4 0.428217 0.000000 0.420724
O O5 0.754862 0.276390 0.831424
O O6 0.887671 0.258895 0.766002
O O7 0.835659 0.314188 0.105306
O O8 0.831696 0.196592 0.056317
O O9 0.591137 0.807239 0.918349
O O10 0.689885 0.891312 0.931470
O O11 0.869611 0.191586 0.437324
O O12 0.772528 0.108153 0.256301
O O13 0.500000 0.274167 0.051678
O O14 0.785760 0.500000 0.626084
#
# Coordination Sequence:
#
# PCOD9375249 Si02
#       6
#     8   8   8   8   8   8
#     4  10  21  35  51  76 116 160 196 232 275 330
#     4  11  20  35  60  82 114 151 186 237 299 352
#     4  11  20  35  55  81 116 150 192 233 286 345
#     4  11  20  38  60  83 115 154 193 239 298 350
#     4  11  24  37  58  90 120 148 190 245 304 358
#     4  11  23  38  57  84 116 157 207 248 284 345
#
# _framework density 17.708507999999998
#
# number of rings (size 3 to 8) (size 9 to 14) (size 15 to 20)
#    0.000    1.167    5.000    2.000    0.000    6.000 
#    0.000    1.667    0.000    0.500    0.000    0.000 
#    0.000    0.000    0.000    0.000    0.000    0.000 
#
# Total GULP energy -133826.389469 kJ/mol
# GULP energy per Si atom -5576.099561 kJ/mol
# Density = 1.766820 g / cm^3
# Si number density = 17.708508 Si / 1000 Ang^3
#
#
#
# Elastic Constant Matrix: (Units=GPa)
#
#
# Indices 1 2 3 4 5 6 
#
# 1 119.8937 48.4752 49.8490 0.0000 0.0000 0.0000
# 2 48.4752 79.3128 41.1686 0.0000 0.0000 0.0000
# 3 49.8490 41.1686 104.6345 0.0000 0.0000 0.0000
# 4 0.0000 0.0000 0.0000 23.6359 0.0000 0.0000
# 5 0.0000 0.0000 0.0000 0.0000 18.5811 0.0000
# 6 0.0000 0.0000 0.0000 0.0000 0.0000 18.8547
#
#
#
# Elastic Compliance Matrix: (Units=1/GPa)
#
#
# Indices 1 2 3 4 5 6 
#
# 1 0.012056 -0.005513 -0.003574 0.000000 0.000000 0.000000
# 2 -0.005513 0.018365 -0.004599 0.000000 0.000000 0.000000
# 3 -0.003574 -0.004599 0.013070 0.000000 0.000000 0.000000
# 4 0.000000 0.000000 0.000000 0.042308 0.000000 0.000000
# 5 0.000000 0.000000 0.000000 0.000000 0.053818 0.000000
# 6 0.000000 0.000000 0.000000 0.000000 0.000000 0.053037
#
#
# Mechanical properties :
#
#
# Convention : Reuss Voigt Hill
#
# Bulk Modulus (GPa) = 62.04623 64.75851 63.40237
# Shear Modulus (GPa) = 22.18272 23.17089 22.67680
#
# Velocity S-wave (km/s) = 3.54313 3.62119 3.58237
# Velocity P-wave (km/s) = 7.20083 7.35748 7.27958
#
# Compressibility (1/GPa) = 0.01611702
#
# Stress axis : x y z
#
# Youngs Moduli (GPa) = 82.94670 54.45077 76.51354
#
# Poissons Ratio (x) = 0.30019 0.27349
# Poissons Ratio (y) = 0.45729 0.35191
# Poissons Ratio (z) = 0.29649 0.25044
#
# Static dielectric constant tensor:
#      x y z
#    x 1.640750 0.000000 0.000000 
#    y 0.000000 1.640790 0.000000 
#    z 0.000000 0.000000 1.638860 
# 
# From -- ./inp_files/2032.got.cif
#   From: 2010.05.17/outbox.cif.g08.bks.cpg/sg44_2_cif.got.tgz:2032.got - 2010.06.03 19:37:08.
