data_PCOD9375568
_publ_section_title
;
Structure prediction by ZEFSAII (Michael W. Deem and Ramdas Pophale) SiO2 
 PCOD9375568
Probable space group: I M M 2
;
_chemical_formula_sum "Si O2"
_cell_formula_units_Z 48
_cell_length_a 7.437908
_cell_length_b 9.212702
_cell_length_c 35.561173
_cell_angle_alpha 90.000000
_cell_angle_beta 90.000000
_cell_angle_gamma 90.000000
_cell_volume 2436.766433
_symmetry_space_group_name_H-M "I M M 2"
_symmetry_group_IT_number 44
_symmetry_cell_setting 'orthorhombic'
loop_
_space_group_symop_operation_xyz
x,y,z
-x,-y,z
-x,y,z
x,-y,z
1/2+x,1/2+y,1/2+z
1/2-x,1/2-y,1/2+z
1/2-x,1/2+y,1/2+z
1/2+x,1/2-y,1/2+z
loop_
_atom_site_type_symbol
_atom_site_label
_atom_site_fract_x
_atom_site_fract_y
_atom_site_fract_z
Si Si1 0.714314 0.334697 0.257480
Si Si2 0.285058 0.165712 0.841456
Si Si3 0.500000 0.672352 0.467666
Si Si4 0.500000 0.327530 0.556958
Si Si5 0.785278 0.828239 0.607947
Si Si6 0.715359 0.671555 0.916652
Si Si7 0.280858 0.834268 0.184436
O O1 0.500000 0.343899 0.252570
O O2 0.785695 0.500000 0.255817
O O3 0.744626 0.278002 0.299645
O O4 0.782488 0.237220 0.223361
O O5 0.500000 0.157908 0.844111
O O6 0.226087 0.263423 0.876252
O O7 0.214625 0.000000 0.844308
O O8 0.500000 0.500000 0.460405
O O9 0.500000 0.696018 0.512306
O O10 0.673026 0.745285 0.448314
O O11 0.500000 0.500000 0.564173
O O12 0.327508 0.253977 0.576332
O O13 0.732226 0.761537 0.648357
O O14 0.000000 0.807188 0.603217
O O15 0.749010 0.000000 0.607205
O O16 0.500000 0.693334 0.920805
O O17 0.750615 0.500000 0.918111
O O18 0.500000 0.836476 0.185401
O O19 0.220541 0.000000 0.180374
#
# Coordination Sequence:
#
# PCOD9375568 Si02
#       7
#     8   8   4   4   8   8   8
#     4   9  17  29  47  73 106 146 193 243 291 346
#     4   9  18  33  52  76 109 150 195 241 291 350
#     4  11  25  43  65  91 121 157 199 245 297 363
#     4  11  25  43  63  93 125 153 195 249 301 361
#     4  10  21  39  64  90 119 159 200 243 297 357
#     4  10  22  40  62  89 121 157 197 246 301 357
#     4   9  17  31  52  78 110 150 195 242 292 346
#
# _framework density 19.698236999999999
#
# number of rings (size 3 to 8) (size 9 to 14) (size 15 to 20)
#    0.000    2.333    0.000    2.000    1.167    6.667 
#    1.500    3.333    0.000    0.000    0.000    0.000 
#    0.000    0.000    0.000    0.000    0.000    0.000 
#
# Total GULP energy -134041.592409 kJ/mol
# GULP energy per Si atom -5585.066350 kJ/mol
# Density = 1.965340 g / cm^3
# Si number density = 19.698237 Si / 1000 Ang^3
#
#
#
# Elastic Constant Matrix: (Units=GPa)
#
#
# Indices 1 2 3 4 5 6 
#
# 1 79.3448 54.4175 54.1271 0.0000 0.0000 0.0000
# 2 54.4175 148.6618 122.2155 0.0000 0.0000 0.0000
# 3 54.1271 122.2155 181.9481 0.0000 0.0000 0.0000
# 4 0.0000 0.0000 0.0000 35.3474 0.0000 0.0000
# 5 0.0000 0.0000 0.0000 0.0000 33.1381 0.0000
# 6 0.0000 0.0000 0.0000 0.0000 0.0000 19.5680
#
#
#
# Elastic Compliance Matrix: (Units=1/GPa)
#
#
# Indices 1 2 3 4 5 6 
#
# 1 0.017140 -0.004650 -0.001975 0.000000 0.000000 0.000000
# 2 -0.004650 0.016284 -0.009554 0.000000 0.000000 0.000000
# 3 -0.001975 -0.009554 0.012502 0.000000 0.000000 0.000000
# 4 0.000000 0.000000 0.000000 0.028291 0.000000 0.000000
# 5 0.000000 0.000000 0.000000 0.000000 0.030177 0.000000
# 6 0.000000 0.000000 0.000000 0.000000 0.000000 0.051104
#
#
# Mechanical properties :
#
#
# Convention : Reuss Voigt Hill
#
# Bulk Modulus (GPa) = 73.71803 96.83054 85.27428
# Shear Modulus (GPa) = 25.99051 29.55701 27.77376
#
# Velocity S-wave (km/s) = 3.63634 3.87782 3.75902
# Velocity P-wave (km/s) = 7.42533 8.32548 7.88826
#
# Compressibility (1/GPa) = 0.01356520
#
# Stress axis : x y z
#
# Youngs Moduli (GPa) = 58.34306 61.41157 79.99032
#
# Poissons Ratio (x) = 0.28557 0.15802
# Poissons Ratio (y) = 0.27130 0.76426
# Poissons Ratio (z) = 0.11525 0.58675
#
# Static dielectric constant tensor:
#      x y z
#    x 1.726930 0.000000 0.000000 
#    y 0.000000 1.668650 0.000000 
#    z 0.000000 0.000000 1.659770 
# 
# From -- ./inp_files/26919.got.cif
#   From: 2010.05.17/outbox.cif.g08.bks.cpg/sg44_14_cif.got.tgz:26919.got - 2010.06.03 19:37:08.
