data_PCOD9375522
_publ_section_title
;
Structure prediction by ZEFSAII (Michael W. Deem and Ramdas Pophale) SiO2 
 PCOD9375522
Probable space group: I M M 2
;
_chemical_formula_sum "Si O2"
_cell_formula_units_Z 64
_cell_length_a 19.626318
_cell_length_b 19.605558
_cell_length_c 7.271632
_cell_angle_alpha 90.000000
_cell_angle_beta 90.000000
_cell_angle_gamma 90.000000
_cell_volume 2798.014307
_symmetry_space_group_name_H-M "I M M 2"
_symmetry_group_IT_number 44
_symmetry_cell_setting 'orthorhombic'
loop_
_space_group_symop_operation_xyz
x,y,z
-x,-y,z
-x,y,z
x,-y,z
1/2+x,1/2+y,1/2+z
1/2-x,1/2-y,1/2+z
1/2-x,1/2+y,1/2+z
1/2+x,1/2-y,1/2+z
loop_
_atom_site_type_symbol
_atom_site_label
_atom_site_fract_x
_atom_site_fract_y
_atom_site_fract_z
Si Si1 0.296340 0.835505 0.627800
Si Si2 0.079756 0.428858 0.721035
Si Si3 0.079996 0.579068 0.282222
Si Si4 0.693241 0.421495 0.638641
Si Si5 0.779476 0.297240 0.702423
Si Si6 0.665806 0.579734 0.072451
Si Si7 0.077475 0.866416 0.876363
Si Si8 0.922151 0.277015 0.739989
O O1 0.365494 0.870222 0.694870
O O2 0.292064 0.818722 0.412012
O O3 0.233897 0.887837 0.658723
O O4 0.275440 0.762893 0.712135
O O5 0.114597 0.500000 0.783585
O O6 0.091296 0.420981 0.502766
O O7 0.087028 0.354642 0.806576
O O8 0.000000 0.438407 0.743787
O O9 0.089410 0.500000 0.220946
O O10 0.000000 0.596416 0.248968
O O11 0.715037 0.500000 0.610983
O O12 0.751227 0.364721 0.604179
O O13 0.670830 0.413418 0.852237
O O14 0.629564 0.402919 0.511402
O O15 0.851836 0.269750 0.624312
O O16 0.662782 0.500000 0.115609
O O17 0.601924 0.615495 0.169972
O O18 0.081658 0.784022 0.886674
O O19 0.000000 0.887408 0.907816
O O20 0.000000 0.272742 0.660480
#
# Coordination Sequence:
#
# PCOD9375522 Si02
#       8
#     8   8   8   8   8   8   8   8
#     4  11  23  39  61  91 129 172 221 272 328 395
#     4   8  16  32  56  90 128 166 212 265 327 400
#     4   9  19  37  64  97 131 170 218 275 339 402
#     4  10  24  44  65  96 134 173 222 279 334 398
#     4  11  24  40  63  90 127 174 223 270 332 398
#     4  10  22  41  65  94 129 176 223 270 333 399
#     4  11  23  42  68 100 134 173 221 278 335 396
#     4  10  21  38  62  92 130 170 215 274 332 391
#
# _framework density 22.873366000000001
#
# number of rings (size 3 to 8) (size 9 to 14) (size 15 to 20)
#    0.000    2.000    1.250    2.250    1.750    3.000 
#    0.000    3.125    0.000    1.500    0.000    0.000 
#    0.000    0.000    0.000    0.000    0.000    0.000 
#
# Total GULP energy -178603.042317 kJ/mol
# GULP energy per Si atom -5581.345072 kJ/mol
# Density = 2.282130 g / cm^3
# Si number density = 22.873366 Si / 1000 Ang^3
#
#
#
# Elastic Constant Matrix: (Units=GPa)
#
#
# Indices 1 2 3 4 5 6 
#
# 1 167.9505 62.9425 31.0589 0.0000 0.0000 0.0000
# 2 62.9425 154.6080 19.1945 0.0000 0.0000 0.0000
# 3 31.0589 19.1945 42.8342 0.0000 0.0000 0.0000
# 4 0.0000 0.0000 0.0000 27.8024 0.0000 0.0000
# 5 0.0000 0.0000 0.0000 0.0000 25.8697 0.0000
# 6 0.0000 0.0000 0.0000 0.0000 0.0000 34.2846
#
#
#
# Elastic Compliance Matrix: (Units=1/GPa)
#
#
# Indices 1 2 3 4 5 6 
#
# 1 0.007754 -0.002603 -0.004456 0.000000 0.000000 0.000000
# 2 -0.002603 0.007723 -0.001573 0.000000 0.000000 0.000000
# 3 -0.004456 -0.001573 0.027281 0.000000 0.000000 0.000000
# 4 0.000000 0.000000 0.000000 0.035968 0.000000 0.000000
# 5 0.000000 0.000000 0.000000 0.000000 0.038655 0.000000
# 6 0.000000 0.000000 0.000000 0.000000 0.000000 0.029168
#
#
# Mechanical properties :
#
#
# Convention : Reuss Voigt Hill
#
# Bulk Modulus (GPa) = 39.22466 65.75383 52.48925
# Shear Modulus (GPa) = 29.01714 34.40444 31.71079
#
# Velocity S-wave (km/s) = 3.56560 3.88251 3.72743
# Velocity P-wave (km/s) = 5.84271 6.99342 6.44380
#
# Compressibility (1/GPa) = 0.02549416
#
# Stress axis : x y z
#
# Youngs Moduli (GPa) = 128.96881 129.48042 36.65490
#
# Poissons Ratio (x) = 0.33710 0.16332
# Poissons Ratio (y) = 0.33577 0.05766
# Poissons Ratio (z) = 0.57463 0.20368
#
# Static dielectric constant tensor:
#      x y z
#    x 1.844020 0.000000 0.000000 
#    y 0.000000 2.034600 0.000000 
#    z 0.000000 0.000000 1.881780 
# 
# From -- ./inp_files/8528.got.cif
#   From: 2010.05.17/outbox.cif.g08.bks.cpg/sg44_5_cif.got.tgz:8528.got - 2010.06.03 19:37:08.
