data_PCOD9375476
_publ_section_title
;
Structure prediction by ZEFSAII (Michael W. Deem and Ramdas Pophale) SiO2 
 PCOD9375476
Probable space group: I M M 2
;
_chemical_formula_sum "Si O2"
_cell_formula_units_Z 56
_cell_length_a 15.537095
_cell_length_b 21.203850
_cell_length_c 8.014788
_cell_angle_alpha 90.000000
_cell_angle_beta 90.000000
_cell_angle_gamma 90.000000
_cell_volume 2640.441705
_symmetry_space_group_name_H-M "I M M 2"
_symmetry_group_IT_number 44
_symmetry_cell_setting 'orthorhombic'
loop_
_space_group_symop_operation_xyz
x,y,z
-x,-y,z
-x,y,z
x,-y,z
1/2+x,1/2+y,1/2+z
1/2-x,1/2-y,1/2+z
1/2-x,1/2+y,1/2+z
1/2+x,1/2-y,1/2+z
loop_
_atom_site_type_symbol
_atom_site_label
_atom_site_fract_x
_atom_site_fract_y
_atom_site_fract_z
Si Si1 0.908694 0.207846 0.011660
Si Si2 0.094618 0.568097 0.013788
Si Si3 0.364416 0.676890 0.856449
Si Si4 0.595236 0.387944 0.208834
Si Si5 0.102463 0.316077 0.480526
Si Si6 0.782747 0.429461 0.328974
Si Si7 0.165753 0.684466 0.843394
O O1 0.900987 0.163505 0.172197
O O2 0.000000 0.242531 0.023686
O O3 0.908415 0.168208 0.843231
O O4 0.838431 0.261482 0.984512
O O5 0.101355 0.500000 0.928289
O O6 0.164756 0.571481 0.156746
O O7 0.000000 0.572195 0.091967
O O8 0.108774 0.625260 0.892423
O O9 0.263874 0.664884 0.836545
O O10 0.395092 0.639558 0.020413
O O11 0.383578 0.751859 0.875717
O O12 0.500000 0.419606 0.217278
O O13 0.682893 0.421442 0.272527
O O14 0.169783 0.372229 0.429735
O O15 0.129103 0.294652 0.666360
O O16 0.000000 0.333304 0.471643
O O17 0.793142 0.500000 0.405220
#
# Coordination Sequence:
#
# PCOD9375476 Si02
#       7
#     8   8   8   8   8   8   8
#     4  11  23  38  60  91 129 172 214 265 333 402
#     4  10  21  38  59  84 119 165 216 269 322 387
#     4  12  23  40  63  98 135 173 220 274 342 407
#     4  11  23  43  67  98 133 171 225 284 338 402
#     4  12  25  40  63  99 137 177 223 278 341 413
#     4  11  24  44  65  92 129 177 232 280 333 406
#     4  12  22  38  60  90 134 173 220 272 335 403
#
# _framework density 21.208573999999999
#
# number of rings (size 3 to 8) (size 9 to 14) (size 15 to 20)
#    0.000    0.714    2.857    6.429    0.000    1.714 
#    0.000    0.000    0.000    0.000    0.000    2.000 
#    0.000    0.000    0.000    0.000    0.000    0.000 
#
# Total GULP energy -156129.420816 kJ/mol
# GULP energy per Si atom -5576.050743 kJ/mol
# Density = 2.116030 g / cm^3
# Si number density = 21.208574 Si / 1000 Ang^3
#
#
#
# Elastic Constant Matrix: (Units=GPa)
#
#
# Indices 1 2 3 4 5 6 
#
# 1 151.3276 16.9836 6.4108 0.0000 0.0000 0.0000
# 2 16.9836 53.0847 8.4660 0.0000 0.0000 0.0000
# 3 6.4108 8.4660 95.7797 0.0000 0.0000 0.0000
# 4 0.0000 0.0000 0.0000 13.0089 0.0000 0.0000
# 5 0.0000 0.0000 0.0000 0.0000 35.1576 0.0000
# 6 0.0000 0.0000 0.0000 0.0000 0.0000 -12.7673
#
#
#
# Elastic Compliance Matrix: (Units=1/GPa)
#
#
# Indices 1 2 3 4 5 6 
#
# 1 0.006861 -0.002152 -0.000269 0.000000 0.000000 0.000000
# 2 -0.002152 0.019782 -0.001605 0.000000 0.000000 0.000000
# 3 -0.000269 -0.001605 0.010600 0.000000 0.000000 0.000000
# 4 0.000000 0.000000 0.000000 0.076871 0.000000 0.000000
# 5 0.000000 0.000000 0.000000 0.000000 0.028443 0.000000
# 6 0.000000 0.000000 0.000000 0.000000 0.000000 -0.078325
#
#
# Mechanical properties :
#
#
# Convention : Reuss Voigt Hill
#
# Bulk Modulus (GPa) = 34.25548 40.43476 37.34512
# Shear Modulus (GPa) = 60.96421 24.96858 42.96640
#
# Velocity S-wave (km/s) = 5.36726 3.43488 4.50588
# Velocity P-wave (km/s) = 7.38896 5.90237 6.68710
#
# Compressibility (1/GPa) = 0.02919241
#
# Stress axis : x y z
#
# Youngs Moduli (GPa) = 145.74879 50.55034 94.33556
#
# Poissons Ratio (x) = 0.10879 0.02538
# Poissons Ratio (y) = 0.31368 0.15136
# Poissons Ratio (z) = 0.03921 0.08111
#
# Static dielectric constant tensor:
#      x y z
#    x 1.741930 0.000000 0.000000 
#    y 0.000000 1.806820 0.000000 
#    z 0.000000 0.000000 1.786900 
# 
# From -- ./inp_files/7373.got.cif
#   From: 2010.05.17/outbox.cif.g08.bks.cpg/sg44_4_cif.got.tgz:7373.got - 2010.06.03 19:37:08.
