data_PCOD9375794
_publ_section_title
;
Structure prediction by ZEFSAII (Michael W. Deem and Ramdas Pophale) SiO2 
 PCOD9375794
Probable space group: I M M 2
;
_chemical_formula_sum "Si O2"
_cell_formula_units_Z 64
_cell_length_a 15.264414
_cell_length_b 7.481218
_cell_length_c 28.906095
_cell_angle_alpha 90.000000
_cell_angle_beta 90.000000
_cell_angle_gamma 90.000000
_cell_volume 3300.972241
_symmetry_space_group_name_H-M "I M M 2"
_symmetry_group_IT_number 44
_symmetry_cell_setting 'orthorhombic'
loop_
_space_group_symop_operation_xyz
x,y,z
-x,-y,z
-x,y,z
x,-y,z
1/2+x,1/2+y,1/2+z
1/2-x,1/2-y,1/2+z
1/2-x,1/2+y,1/2+z
1/2+x,1/2-y,1/2+z
loop_
_atom_site_type_symbol
_atom_site_label
_atom_site_fract_x
_atom_site_fract_y
_atom_site_fract_z
Si Si1 0.225104 0.206651 0.100970
Si Si2 0.901065 0.718029 0.291892
Si Si3 0.097049 0.788131 0.646023
Si Si4 0.099342 0.284391 0.185895
Si Si5 0.776759 0.781229 0.833668
Si Si6 0.900782 0.218626 0.021990
Si Si7 0.900455 0.217823 0.915989
Si Si8 0.100665 0.782312 0.749778
O O1 0.323792 0.264188 0.110965
O O2 0.168671 0.227539 0.147764
O O3 0.169460 0.287459 0.058844
O O4 0.231594 0.000000 0.090025
O O5 0.901612 0.500000 0.291870
O O6 0.881586 0.771984 0.238669
O O7 0.823213 0.775802 0.325508
O O8 0.000000 0.775680 0.303301
O O9 0.120667 0.719892 0.697593
O O10 0.000000 0.719331 0.633192
O O11 0.088711 0.000000 0.651632
O O12 0.099847 0.500000 0.186069
O O13 0.000000 0.225740 0.174272
O O14 0.827989 0.722046 0.879433
O O15 0.832810 0.723201 0.789015
O O16 0.776883 0.000000 0.834268
O O17 0.000000 0.273004 0.034597
O O18 0.900811 0.000000 0.022495
O O19 0.883767 0.272309 0.968965
O O20 0.000000 0.271973 0.903240
O O21 0.900296 0.000000 0.915312
O O22 0.000000 0.733639 0.760246
O O23 0.104531 0.000000 0.749998
#
# Coordination Sequence:
#
# PCOD9375794 Si02
#       8
#     8   8   8   8   8   8   8   8
#     4  11  20  28  43  64  86 114 146 180 217 256
#     4   8  14  23  34  51  77 108 138 168 205 246
#     4   9  18  32  47  62  85 117 147 175 209 250
#     4   9  17  29  44  62  87 118 148 177 211 254
#     4   9  13  17  31  53  76 102 132 166 200 240
#     4   8  15  27  39  53  78 110 139 168 208 256
#     4   8  13  21  33  50  74 104 135 164 198 246
#     4   8  13  21  35  57  81 102 127 162 204 245
#
# _framework density 19.388227000000001
#
# number of rings (size 3 to 8) (size 9 to 14) (size 15 to 20)
#    0.000    3.250    0.000    4.125    0.000    4.500 
#    0.000    0.000    0.000    0.750    0.000    3.500 
#    0.000    8.000    0.000   19.500    0.000   16.625 
#
# Total GULP energy -178439.965302 kJ/mol
# GULP energy per Si atom -5576.248916 kJ/mol
# Density = 1.934410 g / cm^3
# Si number density = 19.388227 Si / 1000 Ang^3
#
#
#
# Elastic Constant Matrix: (Units=GPa)
#
#
# Indices 1 2 3 4 5 6 
#
# 1 169.1512 2.5056 115.3372 0.0000 0.0000 0.0000
# 2 2.5056 48.3926 3.0857 0.0000 0.0000 0.0000
# 3 115.3372 3.0857 113.2463 0.0000 0.0000 0.0000
# 4 0.0000 0.0000 0.0000 1.5530 0.0000 0.0000
# 5 0.0000 0.0000 0.0000 0.0000 34.8140 0.0000
# 6 0.0000 0.0000 0.0000 0.0000 0.0000 -2.8359
#
#
#
# Elastic Compliance Matrix: (Units=1/GPa)
#
#
# Indices 1 2 3 4 5 6 
#
# 1 0.019351 0.000255 -0.019716 0.000000 0.000000 0.000000
# 2 0.000255 0.020704 -0.000824 0.000000 0.000000 0.000000
# 3 -0.019716 -0.000824 0.028932 0.000000 0.000000 0.000000
# 4 0.000000 0.000000 0.000000 0.643904 0.000000 0.000000
# 5 0.000000 0.000000 0.000000 0.000000 0.028724 0.000000
# 6 0.000000 0.000000 0.000000 0.000000 0.000000 -0.352624
#
#
# Mechanical properties :
#
#
# Convention : Reuss Voigt Hill
#
# Bulk Modulus (GPa) = 35.18832 63.62746 49.40789
# Shear Modulus (GPa) = 11.38866 20.69698 16.04282
#
# Velocity S-wave (km/s) = 2.42626 3.27081 2.87967
# Velocity P-wave (km/s) = 5.10272 6.86681 6.04941
#
# Compressibility (1/GPa) = 0.02841852
#
# Stress axis : x y z
#
# Youngs Moduli (GPa) = 51.67603 48.30064 34.56338
#
# Poissons Ratio (x) = -0.01233 0.68144
# Poissons Ratio (y) = -0.01319 0.02848
# Poissons Ratio (z) = 1.01882 0.03980
#
# Static dielectric constant tensor:
#      x y z
#    x 1.709230 0.000000 0.000000 
#    y 0.000000 1.996580 0.000000 
#    z 0.000000 0.000000 1.664560 
# 
# From -- ./inp_files/27510.got.cif
#   From: 2010.05.17/outbox.cif.g08.bks.cpg/sg44_14_cif.got.tgz:27510.got - 2010.06.03 19:37:08.
