data_PCOD9375649
_publ_section_title
;
Structure prediction by ZEFSAII (Michael W. Deem and Ramdas Pophale) SiO2 
 PCOD9375649
Probable space group: I M M 2
;
_chemical_formula_sum "Si O2"
_cell_formula_units_Z 44
_cell_length_a 13.313799
_cell_length_b 11.653341
_cell_length_c 15.092835
_cell_angle_alpha 90.000000
_cell_angle_beta 90.000000
_cell_angle_gamma 90.000000
_cell_volume 2341.656969
_symmetry_space_group_name_H-M "I M M 2"
_symmetry_group_IT_number 44
_symmetry_cell_setting 'orthorhombic'
loop_
_space_group_symop_operation_xyz
x,y,z
-x,-y,z
-x,y,z
x,-y,z
1/2+x,1/2+y,1/2+z
1/2-x,1/2-y,1/2+z
1/2-x,1/2+y,1/2+z
1/2+x,1/2-y,1/2+z
loop_
_atom_site_type_symbol
_atom_site_label
_atom_site_fract_x
_atom_site_fract_y
_atom_site_fract_z
Si Si1 0.886572 0.000000 0.678550
Si Si2 0.500000 0.138088 0.152089
Si Si3 0.787749 0.000000 0.501728
Si Si4 0.214460 0.729548 0.929800
Si Si5 0.500000 0.860161 0.361310
Si Si6 0.221970 0.362603 0.602066
Si Si7 0.887620 0.500000 0.148303
Si Si8 0.269988 0.813763 0.743535
O O1 0.877369 0.000000 0.572146
O O2 0.825748 0.890050 0.713293
O O3 0.000000 0.000000 0.708667
O O4 0.500000 0.171355 0.256169
O O5 0.396645 0.170986 0.104069
O O6 0.500000 0.000000 0.153781
O O7 0.778065 0.885853 0.445454
O O8 0.689734 0.000000 0.566828
O O9 0.261379 0.797054 0.847446
O O10 0.101012 0.691010 0.904996
O O11 0.223634 0.803812 0.018974
O O12 0.500000 0.000000 0.368104
O O13 0.230582 0.500000 0.600815
O O14 0.264790 0.306195 0.691747
O O15 0.862337 0.389100 0.207787
O O16 0.000000 0.500000 0.115396
#
# Coordination Sequence:
#
# PCOD9375649 Si02
#       8
#     4   4   4   8   4   8   4   8
#     4  10  22  42  64  89 126 168 206 262 327 370
#     4   9  20  40  62  93 118 165 211 260 308 371
#     4  10  22  38  62  96 119 162 212 267 307 364
#     4  12  23  39  62  97 128 157 210 265 311 371
#     4  11  22  36  71  96 117 162 225 261 311 368
#     4  11  23  40  62  92 133 165 205 261 323 375
#     4  10  22  46  66  83 119 172 218 253 306 376
#     4  10  23  40  61  95 123 164 210 260 314 368
#
# _framework density 18.790112000000001
#
# number of rings (size 3 to 8) (size 9 to 14) (size 15 to 20)
#    0.000    1.636    6.364    0.000    7.636    0.000 
#    1.636    0.455    0.000    0.000    0.000    0.000 
#    0.000    0.000    0.000    0.000    0.000    0.000 
#
# Total GULP energy -122812.869149 kJ/mol
# GULP energy per Si atom -5582.403143 kJ/mol
# Density = 1.874735 g / cm^3
# Si number density = 18.790112 Si / 1000 Ang^3
#
#
#
# Elastic Constant Matrix: (Units=GPa)
#
#
# Indices 1 2 3 4 5 6 
#
# 1 57.8471 10.4747 19.4876 0.0000 0.0000 0.0000
# 2 10.4747 85.3979 6.8510 0.0000 0.0000 0.0000
# 3 19.4876 6.8510 71.0245 0.0000 0.0000 0.0000
# 4 0.0000 0.0000 0.0000 30.8775 0.0000 0.0000
# 5 0.0000 0.0000 0.0000 0.0000 21.0057 0.0000
# 6 0.0000 0.0000 0.0000 0.0000 0.0000 6.3708
#
#
#
# Elastic Compliance Matrix: (Units=1/GPa)
#
#
# Indices 1 2 3 4 5 6 
#
# 1 0.019369 -0.001965 -0.005125 0.000000 0.000000 0.000000
# 2 -0.001965 0.012000 -0.000619 0.000000 0.000000 0.000000
# 3 -0.005125 -0.000619 0.015546 0.000000 0.000000 0.000000
# 4 0.000000 0.000000 0.000000 0.032386 0.000000 0.000000
# 5 0.000000 0.000000 0.000000 0.000000 0.047606 0.000000
# 6 0.000000 0.000000 0.000000 0.000000 0.000000 0.156966
#
#
# Mechanical properties :
#
#
# Convention : Reuss Voigt Hill
#
# Bulk Modulus (GPa) = 31.74709 31.98844 31.86777
# Shear Modulus (GPa) = 16.14004 23.48123 19.81063
#
# Velocity S-wave (km/s) = 2.93399 3.53889 3.25054
# Velocity P-wave (km/s) = 5.33011 5.81028 5.57536
#
# Compressibility (1/GPa) = 0.03149895
#
# Stress axis : x y z
#
# Youngs Moduli (GPa) = 51.62835 83.32999 64.32729
#
# Poissons Ratio (x) = 0.16371 0.32968
# Poissons Ratio (y) = 0.10143 0.03979
# Poissons Ratio (z) = 0.26459 0.05154
#
# Static dielectric constant tensor:
#      x y z
#    x 1.647530 0.000000 0.000000 
#    y 0.000000 1.667830 0.000000 
#    z 0.000000 0.000000 1.635220 
# 
# From -- ./inp_files/18362.got.cif
#   From: 2010.05.17/outbox.cif.g08.bks.cpg/sg44_10_cif.got.tgz:18362.got - 2010.06.03 19:37:08.
