data_PCOD9375393
_publ_section_title
;
Structure prediction by ZEFSAII (Michael W. Deem and Ramdas Pophale) SiO2 
 PCOD9375393
Probable space group: I M M 2
;
_chemical_formula_sum "Si O2"
_cell_formula_units_Z 58
_cell_length_a 15.032091
_cell_length_b 9.166612
_cell_length_c 24.524342
_cell_angle_alpha 90.000000
_cell_angle_beta 90.000000
_cell_angle_gamma 90.000000
_cell_volume 3379.291136
_symmetry_space_group_name_H-M "I M M 2"
_symmetry_group_IT_number 44
_symmetry_cell_setting 'orthorhombic'
loop_
_space_group_symop_operation_xyz
x,y,z
-x,-y,z
-x,y,z
x,-y,z
1/2+x,1/2+y,1/2+z
1/2-x,1/2-y,1/2+z
1/2-x,1/2+y,1/2+z
1/2+x,1/2-y,1/2+z
loop_
_atom_site_type_symbol
_atom_site_label
_atom_site_fract_x
_atom_site_fract_y
_atom_site_fract_z
Si Si1 0.394871 0.325911 0.951240
Si Si2 0.759978 0.324794 0.368651
Si Si3 0.395921 0.674523 0.077511
Si Si4 0.395597 0.326949 0.543712
Si Si5 0.105196 0.672993 0.929829
Si Si6 0.315198 0.839039 0.747235
Si Si7 0.739970 0.673943 0.639801
Si Si8 0.500000 0.000000 0.747494
O O1 0.500000 0.298822 0.942068
O O2 0.379993 0.500000 0.945100
O O3 0.333979 0.238196 0.909760
O O4 0.374981 0.287453 0.014309
O O5 0.757849 0.500000 0.372830
O O6 0.666915 0.255501 0.386990
O O7 0.785519 0.286226 0.306714
O O8 0.500000 0.707178 0.086596
O O9 0.384460 0.500000 0.082716
O O10 0.331191 0.757521 0.117964
O O11 0.500000 0.302923 0.555936
O O12 0.383624 0.500000 0.532486
O O13 0.372833 0.236120 0.489772
O O14 0.335049 0.286017 0.594852
O O15 0.121708 0.500000 0.928467
O O16 0.000000 0.698435 0.920821
O O17 0.287806 0.736290 0.698076
O O18 0.420286 0.875153 0.747785
O O19 0.272271 0.000000 0.738132
O O20 0.746246 0.500000 0.641479
#
# Coordination Sequence:
#
# PCOD9375393 Si02
#       8
#     8   8   8   8   8   8   8   2
#     4   9  19  34  55  84 115 147 184 224 273 329
#     4  11  22  35  57  81 110 145 184 229 277 326
#     4   9  19  37  57  78 109 150 189 226 269 326
#     4   9  19  34  53  80 115 147 178 220 277 336
#     4  10  21  37  56  81 110 145 185 228 275 329
#     4   9  22  39  59  78 107 146 187 223 264 322
#     4  11  22  35  55  84 114 141 183 232 282 329
#     4   8  20  44  62  76 110 144 198 224 260 314
#
# _framework density 17.163363
#
# number of rings (size 3 to 8) (size 9 to 14) (size 15 to 20)
#    0.414    1.931    0.000    2.897    1.931    6.345 
#    0.000    2.069    0.000    0.828    0.000    0.000 
#    0.000    0.000    0.000    0.000    0.000    0.000 
#
# Total GULP energy -161503.169055 kJ/mol
# GULP energy per Si atom -5569.074795 kJ/mol
# Density = 1.712430 g / cm^3
# Si number density = 17.163363 Si / 1000 Ang^3
#
#
#
# Elastic Constant Matrix: (Units=GPa)
#
#
# Indices 1 2 3 4 5 6 
#
# 1 99.6133 60.1688 97.3305 0.0000 0.0000 0.0000
# 2 60.1688 57.4817 72.5973 0.0000 0.0000 0.0000
# 3 97.3305 72.5973 145.7202 0.0000 0.0000 0.0000
# 4 0.0000 0.0000 0.0000 31.5495 0.0000 0.0000
# 5 0.0000 0.0000 0.0000 0.0000 2.6910 0.0000
# 6 0.0000 0.0000 0.0000 0.0000 0.0000 30.3101
#
#
#
# Elastic Compliance Matrix: (Units=1/GPa)
#
#
# Indices 1 2 3 4 5 6 
#
# 1 0.035456 -0.019428 -0.014003 0.000000 0.000000 0.000000
# 2 -0.019428 0.057564 -0.015701 0.000000 0.000000 0.000000
# 3 -0.014003 -0.015701 0.024038 0.000000 0.000000 0.000000
# 4 0.000000 0.000000 0.000000 0.031696 0.000000 0.000000
# 5 0.000000 0.000000 0.000000 0.000000 0.371612 0.000000
# 6 0.000000 0.000000 0.000000 0.000000 0.000000 0.032992
#
#
# Mechanical properties :
#
#
# Convention : Reuss Voigt Hill
#
# Bulk Modulus (GPa) = 53.21339 84.77870 68.99604
# Shear Modulus (GPa) = 7.60010 17.75801 12.67906
#
# Velocity S-wave (km/s) = 2.10659 3.22008 2.72090
# Velocity P-wave (km/s) = 6.08180 7.95787 7.08223
#
# Compressibility (1/GPa) = 0.01879226
#
# Stress axis : x y z
#
# Youngs Moduli (GPa) = 28.20396 17.37211 41.60138
#
# Poissons Ratio (x) = 0.33751 0.58254
# Poissons Ratio (y) = 0.54796 0.65319
# Poissons Ratio (z) = 0.39494 0.27276
#
# Static dielectric constant tensor:
#      x y z
#    x 1.576860 0.000000 0.000000 
#    y 0.000000 1.574490 0.000000 
#    z 0.000000 0.000000 1.558960 
# 
# From -- ./inp_files/25723.got.cif
#   From: 2010.05.17/outbox.cif.g08.bks.cpg/sg44_13_cif.got.tgz:25723.got - 2010.06.03 19:37:08.
