data_PCOD9375771
_publ_section_title
;
Structure prediction by ZEFSAII (Michael W. Deem and Ramdas Pophale) SiO2 
 PCOD9375771
Probable space group: I M M 2
;
_chemical_formula_sum "Si O2"
_cell_formula_units_Z 40
_cell_length_a 19.375909
_cell_length_b 7.767735
_cell_length_c 11.032777
_cell_angle_alpha 90.000000
_cell_angle_beta 90.000000
_cell_angle_gamma 90.000000
_cell_volume 1660.509357
_symmetry_space_group_name_H-M "I M M 2"
_symmetry_group_IT_number 44
_symmetry_cell_setting 'orthorhombic'
loop_
_space_group_symop_operation_xyz
x,y,z
-x,-y,z
-x,y,z
x,-y,z
1/2+x,1/2+y,1/2+z
1/2-x,1/2-y,1/2+z
1/2-x,1/2+y,1/2+z
1/2+x,1/2-y,1/2+z
loop_
_atom_site_type_symbol
_atom_site_label
_atom_site_fract_x
_atom_site_fract_y
_atom_site_fract_z
Si Si1 0.219769 0.198428 0.891640
Si Si2 0.577233 0.703362 0.763939
Si Si3 0.420546 0.790282 0.300958
Si Si4 0.788631 0.202400 0.146744
Si Si5 0.583769 0.195632 0.032231
O O1 0.363378 0.220571 0.679802
O O2 0.136680 0.216956 0.889989
O O3 0.240462 0.000000 0.877862
O O4 0.243372 0.271569 0.021838
O O5 0.500000 0.777086 0.751234
O O6 0.572864 0.500000 0.739504
O O7 0.600830 0.720568 0.904191
O O8 0.500000 0.741666 0.326019
O O9 0.254215 0.787196 0.269929
O O10 0.417784 0.000000 0.300560
O O11 0.599649 0.270299 0.164343
O O12 0.797719 0.000000 0.120286
O O13 0.500000 0.188837 0.033553
O O14 0.610502 0.000000 0.029219
#
# Coordination Sequence:
#
# PCOD9375771 Si02
#       5
#     8   8   8   8   8
#     4  11  25  42  63  90 120 162 210 255 306 363
#     4   9  18  34  58  86 116 152 195 245 300 356
#     4   9  19  37  61  89 124 162 198 246 307 364
#     4  10  24  44  62  86 123 163 202 252 312 369
#     4   8  15  29  51  82 118 153 187 229 285 347
#
# _framework density 24.088995000000001
#
# number of rings (size 3 to 8) (size 9 to 14) (size 15 to 20)
#    0.000    2.600    0.000    1.800    2.800    4.400 
#    0.000    4.000    0.000    2.400    0.000    0.000 
#    0.000    0.000    0.000    0.000    0.000    0.000 
#
# Total GULP energy -111671.286407 kJ/mol
# GULP energy per Si atom -5583.564320 kJ/mol
# Density = 2.403417 g / cm^3
# Si number density = 24.088995 Si / 1000 Ang^3
#
#
#
# Elastic Constant Matrix: (Units=GPa)
#
#
# Indices 1 2 3 4 5 6 
#
# 1 85.6055 -8.1433 36.6692 0.0000 0.0000 0.0000
# 2 -8.1433 37.0987 1.7790 0.0000 0.0000 0.0000
# 3 36.6692 1.7790 140.8941 0.0000 0.0000 0.0000
# 4 0.0000 0.0000 0.0000 17.8321 0.0000 0.0000
# 5 0.0000 0.0000 0.0000 0.0000 43.2764 0.0000
# 6 0.0000 0.0000 0.0000 0.0000 0.0000 17.2156
#
#
#
# Elastic Compliance Matrix: (Units=1/GPa)
#
#
# Indices 1 2 3 4 5 6 
#
# 1 0.013502 0.003134 -0.003554 0.000000 0.000000 0.000000
# 2 0.003134 0.027699 -0.001165 0.000000 0.000000 0.000000
# 3 -0.003554 -0.001165 0.008037 0.000000 0.000000 0.000000
# 4 0.000000 0.000000 0.000000 0.056079 0.000000 0.000000
# 5 0.000000 0.000000 0.000000 0.000000 0.023107 0.000000
# 6 0.000000 0.000000 0.000000 0.000000 0.000000 0.058087
#
#
# Mechanical properties :
#
#
# Convention : Reuss Voigt Hill
#
# Bulk Modulus (GPa) = 21.70701 36.02314 28.86507
# Shear Modulus (GPa) = 24.38589 31.21770 27.80180
#
# Velocity S-wave (km/s) = 3.18516 3.60381 3.40093
# Velocity P-wave (km/s) = 4.74949 5.68360 5.23741
#
# Compressibility (1/GPa) = 0.04606807
#
# Stress axis : x y z
#
# Youngs Moduli (GPa) = 74.06426 36.10241 124.42299
#
# Poissons Ratio (x) = -0.11315 0.44214
# Poissons Ratio (y) = -0.23212 0.14501
# Poissons Ratio (z) = 0.26319 0.04207
#
# Static dielectric constant tensor:
#      x y z
#    x 1.982040 0.000000 0.000000 
#    y 0.000000 1.874580 0.000000 
#    z 0.000000 0.000000 1.943360 
# 
# From -- ./inp_files/18708.got.cif
#   From: 2010.05.17/outbox.cif.g08.bks.cpg/sg44_10_cif.got.tgz:18708.got - 2010.06.03 19:37:08.
