data_PCOD9375777
_publ_section_title
;
Structure prediction by ZEFSAII (Michael W. Deem and Ramdas Pophale) SiO2 
 PCOD9375777
Probable space group: I M M 2
;
_chemical_formula_sum "Si O2"
_cell_formula_units_Z 32
_cell_length_a 15.388921
_cell_length_b 8.690814
_cell_length_c 12.198749
_cell_angle_alpha 90.000000
_cell_angle_beta 90.000000
_cell_angle_gamma 90.000000
_cell_volume 1631.488139
_symmetry_space_group_name_H-M "I M M 2"
_symmetry_group_IT_number 44
_symmetry_cell_setting 'orthorhombic'
loop_
_space_group_symop_operation_xyz
x,y,z
-x,-y,z
-x,y,z
x,-y,z
1/2+x,1/2+y,1/2+z
1/2-x,1/2-y,1/2+z
1/2-x,1/2+y,1/2+z
1/2+x,1/2-y,1/2+z
loop_
_atom_site_type_symbol
_atom_site_label
_atom_site_fract_x
_atom_site_fract_y
_atom_site_fract_z
Si Si1 0.102073 0.822923 0.991960
Si Si2 0.642784 0.182681 0.256342
Si Si3 0.000000 0.183860 0.594541
Si Si4 0.500000 0.814376 0.849631
Si Si5 0.670737 0.182494 0.708562
O O1 0.113260 0.756102 0.871007
O O2 0.000000 0.821421 0.018712
O O3 0.132892 0.000000 0.995588
O O4 0.149942 0.722447 0.082819
O O5 0.583893 0.252169 0.159386
O O6 0.743128 0.226969 0.241320
O O7 0.630915 0.000000 0.258687
O O8 0.000000 0.239778 0.469275
O O9 0.000000 0.000000 0.599651
O O10 0.413296 0.772881 0.781330
O O11 0.500000 0.000000 0.861120
O O12 0.684934 0.000000 0.721874
#
# Coordination Sequence:
#
# PCOD9375777 Si02
#       5
#     8   8   4   4   8
#     4  11  23  42  69  98 132 169 216 272 329 388
#     4  12  26  44  68  97 133 174 221 270 329 391
#     4  12  26  45  68  95 132 173 221 273 329 392
#     4  10  24  45  68  95 132 173 215 267 327 390
#     4  11  24  44  69  98 133 172 220 269 326 391
#
# _framework density 19.613994999999999
#
# number of rings (size 3 to 8) (size 9 to 14) (size 15 to 20)
#    0.000    0.750    2.500    4.875    3.500    3.000 
#    0.000    0.000    0.000    0.000    0.000    0.000 
#    0.000    0.000    0.000    0.000    0.000    0.000 
#
# Total GULP energy -89533.245226 kJ/mol
# GULP energy per Si atom -5595.827827 kJ/mol
# Density = 1.956935 g / cm^3
# Si number density = 19.613995 Si / 1000 Ang^3
#
#
#
# Elastic Constant Matrix: (Units=GPa)
#
#
# Indices 1 2 3 4 5 6 
#
# 1 89.5684 19.2297 13.2582 0.0000 0.0000 0.0000
# 2 19.2297 65.4068 12.1351 0.0000 0.0000 0.0000
# 3 13.2582 12.1351 98.8273 0.0000 0.0000 0.0000
# 4 0.0000 0.0000 0.0000 36.7989 0.0000 0.0000
# 5 0.0000 0.0000 0.0000 0.0000 -51.7624 0.0000
# 6 0.0000 0.0000 0.0000 0.0000 0.0000 20.5231
#
#
#
# Elastic Compliance Matrix: (Units=1/GPa)
#
#
# Indices 1 2 3 4 5 6 
#
# 1 0.012057 -0.003320 -0.001210 0.000000 0.000000 0.000000
# 2 -0.003320 0.016560 -0.001588 0.000000 0.000000 0.000000
# 3 -0.001210 -0.001588 0.010476 0.000000 0.000000 0.000000
# 4 0.000000 0.000000 0.000000 0.027175 0.000000 0.000000
# 5 0.000000 0.000000 0.000000 0.000000 -0.019319 0.000000
# 6 0.000000 0.000000 0.000000 0.000000 0.000000 0.048726
#
#
# Mechanical properties :
#
#
# Convention : Reuss Voigt Hill
#
# Bulk Modulus (GPa) = 37.23513 38.11649 37.67581
# Shear Modulus (GPa) = 42.78576 15.05723 28.92149
#
# Velocity S-wave (km/s) = 4.67560 2.77371 3.84413
# Velocity P-wave (km/s) = 6.94071 5.45284 6.24127
#
# Compressibility (1/GPa) = 0.02685636
#
# Stress axis : x y z
#
# Youngs Moduli (GPa) = 82.94246 60.38764 95.45675
#
# Poissons Ratio (x) = 0.20050 0.11548
# Poissons Ratio (y) = 0.27538 0.15158
# Poissons Ratio (z) = 0.10034 0.09589
#
# Static dielectric constant tensor:
#      x y z
#    x 1.931810 0.000000 0.000000 
#    y 0.000000 1.657310 0.000000 
#    z 0.000000 0.000000 1.644590 
# 
# From -- ./inp_files/10625.got.cif
#   From: 2010.05.17/outbox.cif.g08.bks.cpg/sg44_6_cif.got.tgz:10625.got - 2010.06.03 19:37:08.
