data_PCOD9375192
_publ_section_title
;
Structure prediction by ZEFSAII (Michael W. Deem and Ramdas Pophale) SiO2 
 PCOD9375192
Probable space group: I M M 2
;
_chemical_formula_sum "Si O2"
_cell_formula_units_Z 58
_cell_length_a 7.713203
_cell_length_b 19.779033
_cell_length_c 16.884478
_cell_angle_alpha 90.000000
_cell_angle_beta 90.000000
_cell_angle_gamma 90.000000
_cell_volume 2575.890842
_symmetry_space_group_name_H-M "I M M 2"
_symmetry_group_IT_number 44
_symmetry_cell_setting 'orthorhombic'
loop_
_space_group_symop_operation_xyz
x,y,z
-x,-y,z
-x,y,z
x,-y,z
1/2+x,1/2+y,1/2+z
1/2-x,1/2-y,1/2+z
1/2-x,1/2+y,1/2+z
1/2+x,1/2-y,1/2+z
loop_
_atom_site_type_symbol
_atom_site_label
_atom_site_fract_x
_atom_site_fract_y
_atom_site_fract_z
Si Si1 0.295272 0.675687 0.722180
Si Si2 0.789603 0.173021 0.487552
Si Si3 0.296765 0.577339 0.418733
Si Si4 0.805942 0.394976 0.151851
Si Si5 0.000000 0.000000 0.685413
Si Si6 0.708787 0.309804 0.293141
Si Si7 0.798040 0.318415 0.540901
Si Si8 0.712302 0.576343 0.846688
O O1 0.500000 0.673193 0.709439
O O2 0.260221 0.731460 0.790905
O O3 0.217352 0.688480 0.635610
O O4 0.235602 0.605632 0.761551
O O5 0.735907 0.131241 0.564833
O O6 0.725855 0.250290 0.498673
O O7 0.728823 0.128083 0.414326
O O8 0.000000 0.176304 0.485441
O O9 0.500000 0.570840 0.398849
O O10 0.225790 0.500000 0.414068
O O11 0.228447 0.635136 0.357927
O O12 0.281869 0.613478 0.504014
O O13 0.652987 0.442759 0.181203
O O14 0.792419 0.332516 0.210874
O O15 0.000000 0.423097 0.155124
O O16 0.500000 0.312017 0.291536
O O17 0.000000 0.322261 0.521084
O O18 0.500000 0.576431 0.848944
O O19 0.769769 0.500000 0.861132
#
# Coordination Sequence:
#
# PCOD9375192 Si02
#       8
#     8   8   8   8   2   8   8   8
#     4  11  22  39  65  97 128 168 227 278 327 406
#     4  10  20  39  65  93 130 172 217 275 338 393
#     4  10  24  43  66  93 128 174 219 274 343 407
#     4  12  25  40  66  99 132 182 229 269 334 404
#     4  12  26  44  60  94 148 180 218 280 336 394
#     4  11  22  41  67  94 132 173 218 276 342 399
#     4  11  23  40  64  94 129 171 220 278 340 393
#     4   9  20  37  62  92 126 172 218 271 340 403
#
# _framework density 22.516480999999999
#
# number of rings (size 3 to 8) (size 9 to 14) (size 15 to 20)
#    0.000    1.379    2.759    2.276    1.931    3.586 
#    0.000    2.759    0.000    2.897    0.000    0.000 
#    0.000    0.000    0.000    0.000    0.000    0.000 
#
# Total GULP energy -161660.142248 kJ/mol
# GULP energy per Si atom -5574.487664 kJ/mol
# Density = 2.246523 g / cm^3
# Si number density = 22.516481 Si / 1000 Ang^3
#
#
#
# Elastic Constant Matrix: (Units=GPa)
#
#
# Indices 1 2 3 4 5 6 
#
# 1 71.3714 -15.4825 -12.8822 0.0000 0.0000 0.0000
# 2 -15.4825 65.9592 52.4137 0.0000 0.0000 0.0000
# 3 -12.8822 52.4137 88.5341 0.0000 0.0000 0.0000
# 4 0.0000 0.0000 0.0000 43.3847 0.0000 0.0000
# 5 0.0000 0.0000 0.0000 0.0000 8.1892 0.0000
# 6 0.0000 0.0000 0.0000 0.0000 0.0000 84.8049
#
#
#
# Elastic Compliance Matrix: (Units=1/GPa)
#
#
# Indices 1 2 3 4 5 6 
#
# 1 0.014764 0.003321 0.000182 0.000000 0.000000 0.000000
# 2 0.003321 0.029376 -0.016908 0.000000 0.000000 0.000000
# 3 0.000182 -0.016908 0.021331 0.000000 0.000000 0.000000
# 4 0.000000 0.000000 0.000000 0.023050 0.000000 0.000000
# 5 0.000000 0.000000 0.000000 0.000000 0.122112 0.000000
# 6 0.000000 0.000000 0.000000 0.000000 0.000000 0.011792
#
#
# Mechanical properties :
#
#
# Convention : Reuss Voigt Hill
#
# Bulk Modulus (GPa) = 25.86502 30.44030 28.15266
# Shear Modulus (GPa) = 19.07505 40.73014 29.90260
#
# Velocity S-wave (km/s) = 2.91376 4.25773 3.64817
# Velocity P-wave (km/s) = 4.77829 6.14162 5.50235
#
# Compressibility (1/GPa) = 0.03866226
#
# Stress axis : x y z
#
# Youngs Moduli (GPa) = 67.73009 34.04137 46.87922
#
# Poissons Ratio (x) = -0.11304 -0.00855
# Poissons Ratio (y) = -0.22491 0.79263
# Poissons Ratio (z) = -0.01236 0.57557
#
# Static dielectric constant tensor:
#      x y z
#    x 1.831320 0.000000 0.000000 
#    y 0.000000 1.847650 0.000000 
#    z 0.000000 0.000000 1.855840 
# 
# From -- ./inp_files/20563.got.cif
#   From: 2010.05.17/outbox.cif.g08.bks.cpg/sg44_11_cif.got.tgz:20563.got - 2010.06.03 19:37:08.
