data_PCOD9375330
_publ_section_title
;
Structure prediction by ZEFSAII (Michael W. Deem and Ramdas Pophale) SiO2 
 PCOD9375330
Probable space group: I M M 2
;
_chemical_formula_sum "Si O2"
_cell_formula_units_Z 64
_cell_length_a 13.848983
_cell_length_b 9.379798
_cell_length_c 24.367171
_cell_angle_alpha 90.000000
_cell_angle_beta 90.000000
_cell_angle_gamma 90.000000
_cell_volume 3165.311669
_symmetry_space_group_name_H-M "I M M 2"
_symmetry_group_IT_number 44
_symmetry_cell_setting 'orthorhombic'
loop_
_space_group_symop_operation_xyz
x,y,z
-x,-y,z
-x,y,z
x,-y,z
1/2+x,1/2+y,1/2+z
1/2-x,1/2-y,1/2+z
1/2-x,1/2+y,1/2+z
1/2+x,1/2-y,1/2+z
loop_
_atom_site_type_symbol
_atom_site_label
_atom_site_fract_x
_atom_site_fract_y
_atom_site_fract_z
Si Si1 0.883555 0.335959 0.165950
Si Si2 0.383713 0.161060 0.340795
Si Si3 0.382272 0.338445 0.236139
Si Si4 0.388969 0.167061 0.883161
Si Si5 0.382289 0.663602 0.773428
Si Si6 0.386363 0.669767 0.109593
Si Si7 0.302457 0.667610 0.442583
Si Si8 0.710765 0.671243 0.565615
O O1 0.849886 0.500000 0.163167
O O2 0.850769 0.259414 0.221993
O O3 0.849300 0.246785 0.113555
O O4 0.000000 0.337967 0.166658
O O5 0.500000 0.158344 0.338271
O O6 0.349763 0.235205 0.284522
O O7 0.354450 0.247010 0.394700
O O8 0.347838 0.000000 0.344324
O O9 0.500000 0.340778 0.237451
O O10 0.349498 0.500000 0.247350
O O11 0.359283 0.300122 0.173367
O O12 0.500000 0.198554 0.898234
O O13 0.359570 0.263807 0.831561
O O14 0.312008 0.186735 0.931308
O O15 0.384836 0.000000 0.866413
O O16 0.500000 0.661835 0.771457
O O17 0.349820 0.500000 0.768946
O O18 0.500000 0.698507 0.102490
O O19 0.371617 0.500000 0.100586
O O20 0.318205 0.765788 0.072552
O O21 0.324085 0.500000 0.435893
O O22 0.326607 0.708372 0.504747
O O23 0.709994 0.500000 0.571274
#
# Coordination Sequence:
#
# PCOD9375330 Si02
#       8
#     8   8   8   8   8   8   8   8
#     4  10  21  38  60  83 109 145 185 225 275 334
#     4  10  21  36  56  83 112 141 176 223 276 324
#     4   8  15  31  56  83 110 141 177 216 263 324
#     4   9  18  35  58  81 108 143 181 221 266 320
#     4   9  17  31  54  85 116 141 172 219 273 328
#     4   9  19  37  60  85 114 149 186 224 270 326
#     4  10  23  40  56  77 106 145 190 228 267 321
#     4  11  24  39  56  81 111 145 189 236 278 323
#
# _framework density 20.219176999999998
#
# number of rings (size 3 to 8) (size 9 to 14) (size 15 to 20)
#    0.000    2.500    0.000    2.250    0.000    7.250 
#    0.000    6.250    0.000    1.500    0.000    0.000 
#    0.000    0.000    0.000    0.000    0.000    0.000 
#
# Total GULP energy -178784.493635 kJ/mol
# GULP energy per Si atom -5587.015426 kJ/mol
# Density = 2.017316 g / cm^3
# Si number density = 20.219177 Si / 1000 Ang^3
#
#
#
# Elastic Constant Matrix: (Units=GPa)
#
#
# Indices 1 2 3 4 5 6 
#
# 1 42.7762 9.0045 -1.9353 0.0000 0.0000 0.0000
# 2 9.0045 74.9451 52.8407 0.0000 0.0000 0.0000
# 3 -1.9353 52.8407 100.9754 0.0000 0.0000 0.0000
# 4 0.0000 0.0000 0.0000 29.5429 0.0000 0.0000
# 5 0.0000 0.0000 0.0000 0.0000 24.8733 0.0000
# 6 0.0000 0.0000 0.0000 0.0000 0.0000 27.9458
#
#
#
# Elastic Compliance Matrix: (Units=1/GPa)
#
#
# Indices 1 2 3 4 5 6 
#
# 1 0.024620 -0.005215 0.003201 0.000000 0.000000 0.000000
# 2 -0.005215 0.022249 -0.011743 0.000000 0.000000 0.000000
# 3 0.003201 -0.011743 0.016110 0.000000 0.000000 0.000000
# 4 0.000000 0.000000 0.000000 0.033849 0.000000 0.000000
# 5 0.000000 0.000000 0.000000 0.000000 0.040204 0.000000
# 6 0.000000 0.000000 0.000000 0.000000 0.000000 0.035784
#
#
# Mechanical properties :
#
#
# Convention : Reuss Voigt Hill
#
# Bulk Modulus (GPa) = 28.19675 37.61296 32.90485
# Shear Modulus (GPa) = 23.56811 27.05819 25.31315
#
# Velocity S-wave (km/s) = 3.41784 3.66217 3.54211
# Velocity P-wave (km/s) = 5.43611 6.04359 5.74788
#
# Compressibility (1/GPa) = 0.03546508
#
# Stress axis : x y z
#
# Youngs Moduli (GPa) = 40.61730 44.94557 62.07368
#
# Poissons Ratio (x) = 0.23438 -0.19868
# Poissons Ratio (y) = 0.21181 0.72893
# Poissons Ratio (z) = -0.13001 0.52780
#
# Static dielectric constant tensor:
#      x y z
#    x 1.776900 0.000000 0.000000 
#    y 0.000000 1.679610 0.000000 
#    z 0.000000 0.000000 1.671490 
# 
# From -- ./inp_files/25144.got.cif
#   From: 2010.05.17/outbox.cif.g08.bks.cpg/sg44_13_cif.got.tgz:25144.got - 2010.06.03 19:37:08.
