data_PCOD9375193
_publ_section_title
;
Structure prediction by ZEFSAII (Michael W. Deem and Ramdas Pophale) SiO2 
 PCOD9375193
Probable space group: I M M 2
;
_chemical_formula_sum "Si O2"
_cell_formula_units_Z 58
_cell_length_a 18.944718
_cell_length_b 7.706668
_cell_length_c 17.667716
_cell_angle_alpha 90.000000
_cell_angle_beta 90.000000
_cell_angle_gamma 90.000000
_cell_volume 2579.498055
_symmetry_space_group_name_H-M "I M M 2"
_symmetry_group_IT_number 44
_symmetry_cell_setting 'orthorhombic'
loop_
_space_group_symop_operation_xyz
x,y,z
-x,-y,z
-x,y,z
x,-y,z
1/2+x,1/2+y,1/2+z
1/2-x,1/2-y,1/2+z
1/2-x,1/2+y,1/2+z
1/2+x,1/2-y,1/2+z
loop_
_atom_site_type_symbol
_atom_site_label
_atom_site_fract_x
_atom_site_fract_y
_atom_site_fract_z
Si Si1 0.351995 0.710364 0.668680
Si Si2 0.890960 0.303532 0.842902
Si Si3 0.921596 0.293405 0.323496
Si Si4 0.321570 0.200835 0.951864
Si Si5 0.302694 0.204045 0.208832
Si Si6 0.919386 0.795761 0.588772
Si Si7 0.166366 0.211248 0.000344
Si Si8 0.500000 0.500000 0.309875
O O1 0.352275 0.500000 0.670469
O O2 0.403133 0.767903 0.735575
O O3 0.273112 0.776101 0.687655
O O4 0.363401 0.764270 0.582009
O O5 0.914560 0.500000 0.825514
O O6 0.817851 0.278271 0.797553
O O7 0.940241 0.152588 0.813890
O O8 0.879721 0.280451 0.931604
O O9 0.923832 0.500000 0.337972
O O10 0.859801 0.220749 0.377910
O O11 0.000000 0.223513 0.340801
O O12 0.305774 0.000000 0.934358
O O13 0.379621 0.209265 0.018447
O O14 0.247357 0.271019 0.984557
O O15 0.368515 0.273678 0.160917
O O16 0.300518 0.000000 0.189827
O O17 0.000000 0.733860 0.601199
O O18 0.923079 0.000000 0.572457
O O19 0.165276 0.000000 0.998909
#
# Coordination Sequence:
#
# PCOD9375193 Si02
#       8
#     8   8   8   8   8   8   8   2
#     4  10  21  40  65  93 127 165 212 267 327 392
#     4  11  25  43  69  97 129 179 224 271 343 395
#     4  10  22  39  60  91 126 165 213 262 320 389
#     4  10  20  39  66  89 122 168 214 267 330 388
#     4  10  22  41  63  92 125 165 217 265 320 402
#     4  11  24  36  55  90 130 169 209 261 327 392
#     4  10  20  40  65  93 126 165 217 278 333 386
#     4  12  26  48  68  94 140 172 218 296 316 410
#
# _framework density 22.484994
#
# number of rings (size 3 to 8) (size 9 to 14) (size 15 to 20)
#    0.000    1.655    2.069    1.862    1.931    4.138 
#    1.241    0.000    0.000    0.000    0.000    0.000 
#    0.000    0.000    0.000    0.000    0.000    0.000 
#
# Total GULP energy -161733.732216 kJ/mol
# GULP energy per Si atom -5577.025249 kJ/mol
# Density = 2.243382 g / cm^3
# Si number density = 22.484994 Si / 1000 Ang^3
#
#
#
# Elastic Constant Matrix: (Units=GPa)
#
#
# Indices 1 2 3 4 5 6 
#
# 1 33.4529 2.1416 -13.2049 0.0000 0.0000 0.0000
# 2 2.1416 72.4227 -2.9420 0.0000 0.0000 0.0000
# 3 -13.2049 -2.9420 98.9237 0.0000 0.0000 0.0000
# 4 0.0000 0.0000 0.0000 20.2739 0.0000 0.0000
# 5 0.0000 0.0000 0.0000 0.0000 -31.1194 0.0000
# 6 0.0000 0.0000 0.0000 0.0000 0.0000 21.0150
#
#
#
# Elastic Compliance Matrix: (Units=1/GPa)
#
#
# Indices 1 2 3 4 5 6 
#
# 1 0.031598 -0.000764 0.004195 0.000000 0.000000 0.000000
# 2 -0.000764 0.013843 0.000310 0.000000 0.000000 0.000000
# 3 0.004195 0.000310 0.010678 0.000000 0.000000 0.000000
# 4 0.000000 0.000000 0.000000 0.049324 0.000000 0.000000
# 5 0.000000 0.000000 0.000000 0.000000 -0.032134 0.000000
# 6 0.000000 0.000000 0.000000 0.000000 0.000000 0.047585
#
#
# Mechanical properties :
#
#
# Convention : Reuss Voigt Hill
#
# Bulk Modulus (GPa) = 15.72320 19.64320 17.68320
# Shear Modulus (GPa) = 37.14378 16.62089 26.88233
#
# Velocity S-wave (km/s) = 4.06881 2.72177 3.46145
# Velocity P-wave (km/s) = 5.39273 4.31654 4.88437
#
# Compressibility (1/GPa) = 0.06360030
#
# Stress axis : x y z
#
# Youngs Moduli (GPa) = 31.64801 72.23874 93.65059
#
# Poissons Ratio (x) = 0.05519 -0.39287
# Poissons Ratio (y) = 0.02418 -0.02901
# Poissons Ratio (z) = -0.13277 -0.02237
#
# Static dielectric constant tensor:
#      x y z
#    x 1.849940 0.000000 0.000000 
#    y 0.000000 1.855230 0.000000 
#    z 0.000000 0.000000 1.832690 
# 
# From -- ./inp_files/22117.got.cif
#   From: 2010.05.17/outbox.cif.g08.bks.cpg/sg44_12_cif.got.tgz:22117.got - 2010.06.03 19:37:08.
