data_PCOD9375281
_publ_section_title
;
Structure prediction by ZEFSAII (Michael W. Deem and Ramdas Pophale) SiO2 
 PCOD9375281
Probable space group: I M M 2
;
_chemical_formula_sum "Si O2"
_cell_formula_units_Z 42
_cell_length_a 7.592499
_cell_length_b 10.202813
_cell_length_c 25.308606
_cell_angle_alpha 90.000000
_cell_angle_beta 90.000000
_cell_angle_gamma 90.000000
_cell_volume 1960.527304
_symmetry_space_group_name_H-M "I M M 2"
_symmetry_group_IT_number 44
_symmetry_cell_setting 'orthorhombic'
loop_
_space_group_symop_operation_xyz
x,y,z
-x,-y,z
-x,y,z
x,-y,z
1/2+x,1/2+y,1/2+z
1/2-x,1/2-y,1/2+z
1/2-x,1/2+y,1/2+z
1/2+x,1/2-y,1/2+z
loop_
_atom_site_type_symbol
_atom_site_label
_atom_site_fract_x
_atom_site_fract_y
_atom_site_fract_z
Si Si1 0.289515 0.850003 0.529240
Si Si2 0.213520 0.358508 0.317873
Si Si3 0.795049 0.715937 0.915766
Si Si4 0.500000 0.500000 0.890859
Si Si5 0.793911 0.852337 0.236278
Si Si6 0.203861 0.148964 0.648558
O O1 0.500000 0.850010 0.535551
O O2 0.246361 0.766336 0.477551
O O3 0.215336 0.816936 0.586454
O O4 0.232283 0.000000 0.516472
O O5 0.269069 0.500000 0.296228
O O6 0.276659 0.339082 0.377502
O O7 0.282651 0.238492 0.282578
O O8 0.000000 0.356550 0.316682
O O9 0.655560 0.612918 0.892937
O O10 0.000000 0.670957 0.915168
O O11 0.784758 0.762871 0.184024
O O12 0.000000 0.867598 0.249310
O O13 0.721081 0.000000 0.231187
O O14 0.000000 0.142931 0.663483
O O15 0.278592 0.000000 0.654728
#
# Coordination Sequence:
#
# PCOD9375281 Si02
#       6
#     8   8   8   2   8   8
#     4   9  18  33  55  86 120 155 200 246 295 359
#     4  10  22  40  63  90 122 162 205 255 318 379
#     4  11  23  37  61  94 126 167 210 255 311 367
#     4  12  22  36  62  90 140 160 204 264 308 356
#     4  10  22  39  62  88 117 156 202 249 306 366
#     4  10  21  35  57  86 118 157 200 246 302 356
#
# _framework density 21.422806999999999
#
# number of rings (size 3 to 8) (size 9 to 14) (size 15 to 20)
#    0.000    1.905    1.905    1.429    2.667    3.429 
#    0.000    0.952    0.000    1.143    0.000    0.000 
#    0.000    0.000    0.000    0.000    0.000    0.000 
#
# Total GULP energy -116917.488899 kJ/mol
# GULP energy per Si atom -5567.499471 kJ/mol
# Density = 2.137405 g / cm^3
# Si number density = 21.422807 Si / 1000 Ang^3
#
#
#
# Elastic Constant Matrix: (Units=GPa)
#
#
# Indices 1 2 3 4 5 6 
#
# 1 81.8243 21.6525 -7.8413 0.0000 0.0000 0.0000
# 2 21.6525 146.0327 73.1236 0.0000 0.0000 0.0000
# 3 -7.8413 73.1236 122.8826 0.0000 0.0000 0.0000
# 4 0.0000 0.0000 0.0000 20.6385 0.0000 0.0000
# 5 0.0000 0.0000 0.0000 0.0000 18.4870 0.0000
# 6 0.0000 0.0000 0.0000 0.0000 0.0000 15.8596
#
#
#
# Elastic Compliance Matrix: (Units=1/GPa)
#
#
# Indices 1 2 3 4 5 6 
#
# 1 0.013411 -0.003443 0.002904 0.000000 0.000000 0.000000
# 2 -0.003443 0.010638 -0.006550 0.000000 0.000000 0.000000
# 3 0.002904 -0.006550 0.012221 0.000000 0.000000 0.000000
# 4 0.000000 0.000000 0.000000 0.048453 0.000000 0.000000
# 5 0.000000 0.000000 0.000000 0.000000 0.054092 0.000000
# 6 0.000000 0.000000 0.000000 0.000000 0.000000 0.063053
#
#
# Mechanical properties :
#
#
# Convention : Reuss Voigt Hill
#
# Bulk Modulus (GPa) = 45.26345 58.28991 51.77668
# Shear Modulus (GPa) = 22.38044 28.58401 25.48223
#
# Velocity S-wave (km/s) = 3.23569 3.65674 3.45264
# Velocity P-wave (km/s) = 5.92740 6.71546 6.33370
#
# Compressibility (1/GPa) = 0.02209288
#
# Stress axis : x y z
#
# Youngs Moduli (GPa) = 74.56741 94.00170 81.82672
#
# Poissons Ratio (x) = 0.32363 -0.23766
# Poissons Ratio (y) = 0.25672 0.53597
# Poissons Ratio (z) = -0.21658 0.61572
#
# Static dielectric constant tensor:
#      x y z
#    x 1.791080 0.000000 0.000000 
#    y 0.000000 1.793250 0.000000 
#    z 0.000000 0.000000 1.806850 
# 
# From -- ./inp_files/25972.got.cif
#   From: 2010.05.17/outbox.cif.g08.bks.cpg/sg44_13_cif.got.tgz:25972.got - 2010.06.03 19:37:08.
