data_PCOD9375560
_publ_section_title
;
Structure prediction by ZEFSAII (Michael W. Deem and Ramdas Pophale) SiO2 
 PCOD9375560
Probable space group: I M M 2
;
_chemical_formula_sum "Si O2"
_cell_formula_units_Z 48
_cell_length_a 19.196960
_cell_length_b 8.041037
_cell_length_c 16.131559
_cell_angle_alpha 90.000000
_cell_angle_beta 90.000000
_cell_angle_gamma 90.000000
_cell_volume 2490.123354
_symmetry_space_group_name_H-M "I M M 2"
_symmetry_group_IT_number 44
_symmetry_cell_setting 'orthorhombic'
loop_
_space_group_symop_operation_xyz
x,y,z
-x,-y,z
-x,y,z
x,-y,z
1/2+x,1/2+y,1/2+z
1/2-x,1/2-y,1/2+z
1/2-x,1/2+y,1/2+z
1/2+x,1/2-y,1/2+z
loop_
_atom_site_type_symbol
_atom_site_label
_atom_site_fract_x
_atom_site_fract_y
_atom_site_fract_z
Si Si1 0.689284 0.691935 0.493650
Si Si2 0.332641 0.690496 0.296563
Si Si3 0.327789 0.198670 0.788327
Si Si4 0.919705 0.701026 0.131043
Si Si5 0.921476 0.500000 0.537974
Si Si6 0.161064 0.817518 0.473972
Si Si7 0.078666 0.500000 0.735576
O O1 0.708310 0.500000 0.509632
O O2 0.669771 0.703664 0.396679
O O3 0.626290 0.741374 0.553210
O O4 0.759209 0.798315 0.504822
O O5 0.352744 0.500000 0.275488
O O6 0.253492 0.718668 0.264983
O O7 0.381787 0.834163 0.263760
O O8 0.379267 0.251620 0.715048
O O9 0.338566 0.293466 0.874430
O O10 0.337549 0.000000 0.804227
O O11 0.920347 0.500000 0.130586
O O12 0.000000 0.758592 0.128531
O O13 0.882507 0.334611 0.509158
O O14 0.923397 0.500000 0.636736
O O15 0.000000 0.500000 0.504368
O O16 0.134381 0.000000 0.496092
O O17 0.000000 0.500000 0.768735
#
# Coordination Sequence:
#
# PCOD9375560 Si02
#       7
#     8   8   8   8   4   8   4
#     4  10  21  39  62  91 128 167 209 258 305 367
#     4   9  21  40  64  92 121 160 213 260 306 366
#     4   9  19  38  60  93 128 166 209 254 304 369
#     4  10  22  37  58  93 133 171 207 253 315 378
#     4  11  26  46  62  91 129 161 207 265 322 374
#     4  11  22  40  68  95 121 165 214 259 311 368
#     4  11  26  42  64  91 117 163 209 255 328 374
#
# _framework density 19.276153999999998
#
# number of rings (size 3 to 8) (size 9 to 14) (size 15 to 20)
#    0.000    2.000    1.667    1.500    8.167    3.667 
#    0.000    3.333    0.000    0.000    0.000    0.000 
#    0.000    0.000    0.000    0.000    0.000    0.000 
#
# Total GULP energy -134040.262347 kJ/mol
# GULP energy per Si atom -5585.010931 kJ/mol
# Density = 1.923228 g / cm^3
# Si number density = 19.276154 Si / 1000 Ang^3
#
#
#
# Elastic Constant Matrix: (Units=GPa)
#
#
# Indices 1 2 3 4 5 6 
#
# 1 139.4210 71.1962 61.5662 0.0000 0.0000 0.0000
# 2 71.1962 131.5117 29.6549 0.0000 0.0000 0.0000
# 3 61.5662 29.6549 52.2345 0.0000 0.0000 0.0000
# 4 0.0000 0.0000 0.0000 14.4068 0.0000 0.0000
# 5 0.0000 0.0000 0.0000 0.0000 88.8833 0.0000
# 6 0.0000 0.0000 0.0000 0.0000 0.0000 21.6618
#
#
#
# Elastic Compliance Matrix: (Units=1/GPa)
#
#
# Indices 1 2 3 4 5 6 
#
# 1 0.018050 -0.005705 -0.018036 0.000000 0.000000 0.000000
# 2 -0.005705 0.010523 0.000750 0.000000 0.000000 0.000000
# 3 -0.018036 0.000750 0.039977 0.000000 0.000000 0.000000
# 4 0.000000 0.000000 0.000000 0.069412 0.000000 0.000000
# 5 0.000000 0.000000 0.000000 0.000000 0.011251 0.000000
# 6 0.000000 0.000000 0.000000 0.000000 0.000000 0.046164
#
#
# Mechanical properties :
#
#
# Convention : Reuss Voigt Hill
#
# Bulk Modulus (GPa) = 44.31050 72.00017 58.15534
# Shear Modulus (GPa) = 20.08985 35.70705 27.89845
#
# Velocity S-wave (km/s) = 3.23183 4.30862 3.80847
# Velocity P-wave (km/s) = 6.07976 7.88576 7.04091
#
# Compressibility (1/GPa) = 0.02256801
#
# Stress axis : x y z
#
# Youngs Moduli (GPa) = 55.40121 95.02783 25.01436
#
# Poissons Ratio (x) = 0.54211 0.45116
# Poissons Ratio (y) = 0.31605 -0.01875
# Poissons Ratio (z) = 0.99922 -0.07124
#
# Static dielectric constant tensor:
#      x y z
#    x 1.656850 0.000000 0.000000 
#    y 0.000000 1.689250 0.000000 
#    z 0.000000 0.000000 1.655230 
# 
# From -- ./inp_files/16212.got.cif
#   From: 2010.05.17/outbox.cif.g08.bks.cpg/sg44_9_cif.got.tgz:16212.got - 2010.06.03 19:37:08.
