data_PCOD9375262
_publ_section_title
;
Structure prediction by ZEFSAII (Michael W. Deem and Ramdas Pophale) SiO2 
 PCOD9375262
Probable space group: I M M 2
;
_chemical_formula_sum "Si O2"
_cell_formula_units_Z 56
_cell_length_a 11.020403
_cell_length_b 15.542885
_cell_length_c 16.435283
_cell_angle_alpha 90.000000
_cell_angle_beta 90.000000
_cell_angle_gamma 90.000000
_cell_volume 2815.180831
_symmetry_space_group_name_H-M "I M M 2"
_symmetry_group_IT_number 44
_symmetry_cell_setting 'orthorhombic'
loop_
_space_group_symop_operation_xyz
x,y,z
-x,-y,z
-x,y,z
x,-y,z
1/2+x,1/2+y,1/2+z
1/2-x,1/2-y,1/2+z
1/2-x,1/2+y,1/2+z
1/2+x,1/2-y,1/2+z
loop_
_atom_site_type_symbol
_atom_site_label
_atom_site_fract_x
_atom_site_fract_y
_atom_site_fract_z
Si Si1 0.137956 0.631415 0.072670
Si Si2 0.370137 0.699213 0.481102
Si Si3 0.643423 0.095792 0.763948
Si Si4 0.632124 0.100766 0.019916
Si Si5 0.252958 0.728955 0.836465
Si Si6 0.141288 0.402622 0.714881
Si Si7 0.864472 0.903767 0.456093
O O1 0.156024 0.607183 0.166377
O O2 0.000000 0.602140 0.049084
O O3 0.136458 0.733766 0.055735
O O4 0.252307 0.600511 0.019356
O O5 0.500000 0.653691 0.483892
O O6 0.250018 0.643092 0.482877
O O7 0.358179 0.754296 0.398515
O O8 0.500000 0.096876 0.781997
O O9 0.701257 0.178758 0.805986
O O10 0.690123 0.000000 0.786671
O O11 0.500000 0.137462 0.995631
O O12 0.643393 0.108606 0.117562
O O13 0.630754 0.000000 0.000389
O O14 0.214486 0.669864 0.761369
O O15 0.344450 0.671760 0.890857
O O16 0.184142 0.500000 0.732977
O O17 0.000000 0.397642 0.739459
O O18 0.000000 0.894013 0.492985
O O19 0.859680 0.000000 0.419250
#
# Coordination Sequence:
#
# PCOD9375262 Si02
#       7
#     8   8   8   8   8   8   8
#     4   9  19  37  60  83 107 139 184 233 277 326
#     4  10  21  35  53  81 113 145 182 224 274 331
#     4  10  21  37  57  80 106 143 193 239 274 317
#     4   9  19  36  58  82 106 139 187 235 276 324
#     4  11  21  35  54  80 115 152 182 221 277 336
#     4   9  18  35  60  87 111 138 179 230 280 333
#     4  10  21  36  55  83 116 146 179 223 279 340
#
# _framework density 19.892150000000001
#
# number of rings (size 3 to 8) (size 9 to 14) (size 15 to 20)
#    0.000    2.286    0.000    3.429    0.000    5.143 
#    0.000    3.571    0.000    4.714    0.000    0.000 
#    0.000    0.000    0.000    0.000    0.000    0.000 
#
# Total GULP energy -156117.362402 kJ/mol
# GULP energy per Si atom -5575.620086 kJ/mol
# Density = 1.984687 g / cm^3
# Si number density = 19.892150 Si / 1000 Ang^3
#
#
#
# Elastic Constant Matrix: (Units=GPa)
#
#
# Indices 1 2 3 4 5 6 
#
# 1 145.5948 60.9544 36.2995 0.0000 0.0000 0.0000
# 2 60.9544 122.9429 46.9109 0.0000 0.0000 0.0000
# 3 36.2995 46.9109 60.1532 0.0000 0.0000 0.0000
# 4 0.0000 0.0000 0.0000 13.6885 0.0000 0.0000
# 5 0.0000 0.0000 0.0000 0.0000 1.8285 0.0000
# 6 0.0000 0.0000 0.0000 0.0000 0.0000 29.9284
#
#
#
# Elastic Compliance Matrix: (Units=1/GPa)
#
#
# Indices 1 2 3 4 5 6 
#
# 1 0.008981 -0.003395 -0.002772 0.000000 0.000000 0.000000
# 2 -0.003395 0.012863 -0.007983 0.000000 0.000000 0.000000
# 3 -0.002772 -0.007983 0.024522 0.000000 0.000000 0.000000
# 4 0.000000 0.000000 0.000000 0.073054 0.000000 0.000000
# 5 0.000000 0.000000 0.000000 0.000000 0.546892 0.000000
# 6 0.000000 0.000000 0.000000 0.000000 0.000000 0.033413
#
#
# Mechanical properties :
#
#
# Convention : Reuss Voigt Hill
#
# Bulk Modulus (GPa) = 55.34929 68.55785 61.95357
# Shear Modulus (GPa) = 6.81156 21.39081 14.10119
#
# Velocity S-wave (km/s) = 1.85248 3.28279 2.66537
# Velocity P-wave (km/s) = 5.69743 6.99347 6.37845
#
# Compressibility (1/GPa) = 0.01806708
#
# Stress axis : x y z
#
# Youngs Moduli (GPa) = 111.34878 77.74269 40.77946
#
# Poissons Ratio (x) = 0.26393 0.11304
# Poissons Ratio (y) = 0.37803 0.32552
# Poissons Ratio (z) = 0.30864 0.62059
#
# Static dielectric constant tensor:
#      x y z
#    x 1.708190 0.000000 0.000000 
#    y 0.000000 1.719120 0.000000 
#    z 0.000000 0.000000 1.699640 
# 
# From -- ./inp_files/17767.got.cif
#   From: 2010.05.17/outbox.cif.g08.bks.cpg/sg44_9_cif.got.tgz:17767.got - 2010.06.03 19:37:08.
