data_PCOD9375898
_publ_section_title
;
Structure prediction by ZEFSAII (Michael W. Deem and Ramdas Pophale) SiO2 
 PCOD9375898
Probable space group: I M M 2
;
_chemical_formula_sum "Si O2"
_cell_formula_units_Z 48
_cell_length_a 7.358196
_cell_length_b 9.374833
_cell_length_c 33.058267
_cell_angle_alpha 90.000000
_cell_angle_beta 90.000000
_cell_angle_gamma 90.000000
_cell_volume 2280.420702
_symmetry_space_group_name_H-M "I M M 2"
_symmetry_group_IT_number 44
_symmetry_cell_setting 'orthorhombic'
loop_
_space_group_symop_operation_xyz
x,y,z
-x,-y,z
-x,y,z
x,-y,z
1/2+x,1/2+y,1/2+z
1/2-x,1/2-y,1/2+z
1/2-x,1/2+y,1/2+z
1/2+x,1/2-y,1/2+z
loop_
_atom_site_type_symbol
_atom_site_label
_atom_site_fract_x
_atom_site_fract_y
_atom_site_fract_z
Si Si1 0.277772 0.663808 0.884860
Si Si2 0.222170 0.165738 0.226230
Si Si3 0.281912 0.664140 0.551248
Si Si4 0.284240 0.162759 0.962568
Si Si5 0.778215 0.336195 0.305330
Si Si6 0.285642 0.673495 0.637859
O O1 0.500000 0.663815 0.885031
O O2 0.220066 0.500000 0.883612
O O3 0.215658 0.743186 0.925537
O O4 0.221243 0.748965 0.844879
O O5 0.280385 0.259896 0.264010
O O6 0.286069 0.216893 0.181835
O O7 0.000000 0.167316 0.225433
O O8 0.274317 0.000000 0.231628
O O9 0.500000 0.658818 0.554509
O O10 0.214910 0.500000 0.548835
O O11 0.242415 0.727787 0.507346
O O12 0.214304 0.725007 0.594226
O O13 0.500000 0.151673 0.956919
O O14 0.210943 0.000000 0.961818
O O15 0.720649 0.500000 0.307322
O O16 0.000000 0.335176 0.305168
O O17 0.500000 0.708026 0.638544
O O18 0.271010 0.500000 0.636998
#
# Coordination Sequence:
#
# PCOD9375898 Si02
#       6
#     8   8   8   8   8   8
#     4   9  16  25  36  49  68  97 129 156 186 229
#     4   8  12  18  29  45  65  89 117 148 181 218
#     4   8  13  22  37  56  77 102 131 159 187 223
#     4   9  16  25  38  57  79 100 125 161 198 224
#     4   9  15  21  30  46  69  95 121 150 186 227
#     4   7  10  17  30  48  68  91 121 153 180 211
#
# _framework density 21.048749000000001
#
# number of rings (size 3 to 8) (size 9 to 14) (size 15 to 20)
#    0.000    3.667    0.000    3.000    0.000    4.000 
#    0.000    0.000    0.000    1.500    0.000    2.333 
#    0.000    1.333    0.000    5.333    0.000    6.833 
#
# Total GULP energy -133716.479589 kJ/mol
# GULP energy per Si atom -5571.519983 kJ/mol
# Density = 2.100084 g / cm^3
# Si number density = 21.048749 Si / 1000 Ang^3
#
#
#
# Elastic Constant Matrix: (Units=GPa)
#
#
# Indices 1 2 3 4 5 6 
#
# 1 76.4413 4.3269 7.1325 0.0000 0.0000 0.0000
# 2 4.3269 96.9683 109.0816 0.0000 0.0000 0.0000
# 3 7.1325 109.0816 288.1399 0.0000 0.0000 0.0000
# 4 0.0000 0.0000 0.0000 28.4058 0.0000 0.0000
# 5 0.0000 0.0000 0.0000 0.0000 6.0960 0.0000
# 6 0.0000 0.0000 0.0000 0.0000 0.0000 -17.9671
#
#
#
# Elastic Compliance Matrix: (Units=1/GPa)
#
#
# Indices 1 2 3 4 5 6 
#
# 1 0.013120 -0.000383 -0.000180 0.000000 0.000000 0.000000
# 2 -0.000383 0.017973 -0.006795 0.000000 0.000000 0.000000
# 3 -0.000180 -0.006795 0.006047 0.000000 0.000000 0.000000
# 4 0.000000 0.000000 0.000000 0.035204 0.000000 0.000000
# 5 0.000000 0.000000 0.000000 0.000000 0.164041 0.000000
# 6 0.000000 0.000000 0.000000 0.000000 0.000000 -0.055657
#
#
# Mechanical properties :
#
#
# Convention : Reuss Voigt Hill
#
# Bulk Modulus (GPa) = 44.59207 78.07016 61.33112
# Shear Modulus (GPa) = 24.64029 26.04084 25.34057
#
# Velocity S-wave (km/s) = 3.42516 3.52116 3.47349
# Velocity P-wave (km/s) = 6.07235 7.32817 6.72962
#
# Compressibility (1/GPa) = 0.02242551
#
# Stress axis : x y z
#
# Youngs Moduli (GPa) = 76.21718 55.63839 165.36454
#
# Poissons Ratio (x) = 0.02133 0.02971
# Poissons Ratio (y) = 0.02922 1.12359
# Poissons Ratio (z) = 0.01369 0.37804
#
# Static dielectric constant tensor:
#      x y z
#    x 1.901530 0.000000 0.000000 
#    y 0.000000 1.703330 0.000000 
#    z 0.000000 0.000000 1.793790 
# 
# From -- ./inp_files/26032.got.cif
#   From: 2010.05.17/outbox.cif.g08.bks.cpg/sg44_14_cif.got.tgz:26032.got - 2010.06.03 19:37:08.
