data_PCOD9375644
_publ_section_title
;
Structure prediction by ZEFSAII (Michael W. Deem and Ramdas Pophale) SiO2 
 PCOD9375644
Probable space group: I M M 2
;
_chemical_formula_sum "Si O2"
_cell_formula_units_Z 48
_cell_length_a 10.525444
_cell_length_b 8.752024
_cell_length_c 28.828695
_cell_angle_alpha 90.000000
_cell_angle_beta 90.000000
_cell_angle_gamma 90.000000
_cell_volume 2655.668782
_symmetry_space_group_name_H-M "I M M 2"
_symmetry_group_IT_number 44
_symmetry_cell_setting 'orthorhombic'
loop_
_space_group_symop_operation_xyz
x,y,z
-x,-y,z
-x,y,z
x,-y,z
1/2+x,1/2+y,1/2+z
1/2-x,1/2-y,1/2+z
1/2-x,1/2+y,1/2+z
1/2+x,1/2-y,1/2+z
loop_
_atom_site_type_symbol
_atom_site_label
_atom_site_fract_x
_atom_site_fract_y
_atom_site_fract_z
Si Si1 0.253360 0.316914 0.384000
Si Si2 0.500000 0.317448 0.537295
Si Si3 0.349612 0.683182 0.686118
Si Si4 0.000000 0.682383 0.933800
Si Si5 0.739056 0.817193 0.592648
Si Si6 0.500000 0.183948 0.940043
Si Si7 0.649694 0.316201 0.791851
Si Si8 0.500000 0.315876 0.043062
O O1 0.265414 0.500000 0.386568
O O2 0.375564 0.240114 0.406816
O O3 0.126717 0.269717 0.412375
O O4 0.230619 0.264946 0.331266
O O5 0.500000 0.500000 0.536120
O O6 0.500000 0.251995 0.485387
O O7 0.376058 0.258951 0.564474
O O8 0.500000 0.717082 0.680107
O O9 0.335642 0.500000 0.681346
O O10 0.273428 0.766444 0.645917
O O11 0.315105 0.724724 0.738955
O O12 0.000000 0.500000 0.936771
O O13 0.872805 0.769731 0.570253
O O14 0.727108 0.000000 0.589233
O O15 0.500000 0.000000 0.942422
O O16 0.500000 0.249993 0.991475
O O17 0.500000 0.277868 0.798087
O O18 0.660696 0.500000 0.796287
O O19 0.500000 0.500000 0.040153
#
# Coordination Sequence:
#
# PCOD9375644 Si02
#       8
#     8   4   8   4   8   4   8   4
#     4  11  22  39  60  88 120 153 192 240 291 346
#     4  12  24  40  61  86 115 150 193 244 292 346
#     4   9  18  34  57  86 117 149 191 239 286 339
#     4  12  26  42  59  84 117 156 197 240 290 352
#     4  11  22  38  59  86 116 153 196 239 288 345
#     4  10  22  38  59  86 113 146 193 236 280 338
#     4   9  18  34  58  87 117 152 193 238 288 342
#     4  10  24  40  55  80 117 152 189 234 282 338
#
# _framework density 18.074543999999999
#
# number of rings (size 3 to 8) (size 9 to 14) (size 15 to 20)
#    0.000    1.667    1.667    4.500    0.000    6.000 
#    0.000    2.500    0.000    4.000    0.000    0.000 
#    0.000    0.000    0.000    0.000    0.000    0.000 
#
# Total GULP energy -134108.467281 kJ/mol
# GULP energy per Si atom -5587.852803 kJ/mol
# Density = 1.803341 g / cm^3
# Si number density = 18.074544 Si / 1000 Ang^3
#
#
#
# Elastic Constant Matrix: (Units=GPa)
#
#
# Indices 1 2 3 4 5 6 
#
# 1 143.1397 54.5821 86.8102 0.0000 0.0000 0.0000
# 2 54.5821 64.8436 57.4374 0.0000 0.0000 0.0000
# 3 86.8102 57.4374 168.4052 0.0000 0.0000 0.0000
# 4 0.0000 0.0000 0.0000 38.6197 0.0000 0.0000
# 5 0.0000 0.0000 0.0000 0.0000 -27.9836 0.0000
# 6 0.0000 0.0000 0.0000 0.0000 0.0000 9.5000
#
#
#
# Elastic Compliance Matrix: (Units=1/GPa)
#
#
# Indices 1 2 3 4 5 6 
#
# 1 0.011819 -0.006523 -0.003868 0.000000 0.000000 0.000000
# 2 -0.006523 0.025697 -0.005402 0.000000 0.000000 0.000000
# 3 -0.003868 -0.005402 0.009774 0.000000 0.000000 0.000000
# 4 0.000000 0.000000 0.000000 0.025894 0.000000 0.000000
# 5 0.000000 0.000000 0.000000 0.000000 -0.035735 0.000000
# 6 0.000000 0.000000 0.000000 0.000000 0.000000 0.105263
#
#
# Mechanical properties :
#
#
# Convention : Reuss Voigt Hill
#
# Bulk Modulus (GPa) = 63.67236 86.00534 74.83885
# Shear Modulus (GPa) = 27.85008 15.86449 21.85728
#
# Velocity S-wave (km/s) = 3.92962 2.96586 3.48125
# Velocity P-wave (km/s) = 7.47618 7.70814 7.59305
#
# Compressibility (1/GPa) = 0.01570540
#
# Stress axis : x y z
#
# Youngs Moduli (GPa) = 84.60800 38.91450 102.30767
#
# Poissons Ratio (x) = 0.25383 0.39572
# Poissons Ratio (y) = 0.55187 0.55269
# Poissons Ratio (z) = 0.32726 0.21022
#
# Static dielectric constant tensor:
#      x y z
#    x 1.596220 0.000000 0.000000 
#    y 0.000000 1.605750 0.000000 
#    z 0.000000 0.000000 1.602930 
# 
# From -- ./inp_files/27055.got.cif
#   From: 2010.05.17/outbox.cif.g08.bks.cpg/sg44_14_cif.got.tgz:27055.got - 2010.06.03 19:37:08.
