data_PCOD9375513
_publ_section_title
;
Structure prediction by ZEFSAII (Michael W. Deem and Ramdas Pophale) SiO2 
 PCOD9375513
Probable space group: I M M 2
;
_chemical_formula_sum "Si O2"
_cell_formula_units_Z 40
_cell_length_a 28.155102
_cell_length_b 11.701602
_cell_length_c 5.419133
_cell_angle_alpha 90.000000
_cell_angle_beta 90.000000
_cell_angle_gamma 90.000000
_cell_volume 1785.386463
_symmetry_space_group_name_H-M "I M M 2"
_symmetry_group_IT_number 44
_symmetry_cell_setting 'orthorhombic'
loop_
_space_group_symop_operation_xyz
x,y,z
-x,-y,z
-x,y,z
x,-y,z
1/2+x,1/2+y,1/2+z
1/2-x,1/2-y,1/2+z
1/2-x,1/2+y,1/2+z
1/2+x,1/2-y,1/2+z
loop_
_atom_site_type_symbol
_atom_site_label
_atom_site_fract_x
_atom_site_fract_y
_atom_site_fract_z
Si Si1 0.797198 0.124594 0.219380
Si Si2 0.055014 0.836725 0.913842
Si Si3 0.095686 0.373283 0.687608
Si Si4 0.105988 0.160065 0.417145
Si Si5 0.194920 0.374202 0.972961
O O1 0.839185 0.125960 0.421795
O O2 0.805190 0.248399 0.095453
O O3 0.744307 0.125175 0.324882
O O4 0.802650 0.000000 0.085539
O O5 0.083025 0.872795 0.157753
O O6 0.000000 0.864809 0.933351
O O7 0.062622 0.700706 0.869148
O O8 0.078478 0.880568 0.660167
O O9 0.078600 0.500000 0.644523
O O10 0.100574 0.297301 0.442526
O O11 0.148226 0.375237 0.804266
O O12 0.194025 0.500000 0.110432
#
# Coordination Sequence:
#
# PCOD9375513 Si02
#       5
#     8   8   8   8   8
#     4  11  22  39  65  97 136 181 227 272 332 406
#     4  10  21  39  62  90 129 173 221 281 341 395
#     4   9  20  37  58  91 131 174 219 273 334 400
#     4  10  21  39  61  91 125 173 216 278 324 399
#     4  10  21  38  61  97 140 179 222 275 336 400
#
# _framework density 22.404112999999999
#
# number of rings (size 3 to 8) (size 9 to 14) (size 15 to 20)
#    1.200    0.800    2.000    1.800    0.000    2.800 
#    0.000    6.000    0.000    3.600    0.000    0.000 
#    0.000    0.000    0.000    0.000    0.000    0.000 
#
# Total GULP energy -111377.354278 kJ/mol
# GULP energy per Si atom -5568.867714 kJ/mol
# Density = 2.235312 g / cm^3
# Si number density = 22.404113 Si / 1000 Ang^3
#
#
#
# Elastic Constant Matrix: (Units=GPa)
#
#
# Indices 1 2 3 4 5 6 
#
# 1 90.3909 -0.4531 22.3921 0.0011 -0.0004 -0.0009
# 2 -0.4531 240.3110 35.0208 0.0017 -0.0006 -0.0010
# 3 22.3921 35.0208 83.2620 0.0058 -0.0025 -0.0063
# 4 0.0011 0.0017 0.0058 83.8749 0.0031 0.0085
# 5 -0.0004 -0.0006 -0.0025 0.0031 22.5965 -0.0029
# 6 -0.0009 -0.0010 -0.0063 0.0085 -0.0029 -164.4314
#
#
#
# Elastic Compliance Matrix: (Units=1/GPa)
#
#
# Indices 1 2 3 4 5 6 
#
# 1 0.011914 0.000521 -0.003423 0.000000 0.000000 0.000000
# 2 0.000521 0.004456 -0.002014 0.000000 0.000000 0.000000
# 3 -0.003423 -0.002014 0.013778 -0.000001 0.000001 0.000000
# 4 0.000000 0.000000 -0.000001 0.011923 -0.000002 0.000001
# 5 0.000000 0.000000 0.000001 -0.000002 0.044255 -0.000001
# 6 0.000000 0.000000 0.000000 0.000001 -0.000001 -0.006082
#
#
# Mechanical properties :
#
#
# Convention : Reuss Voigt Hill
#
# Bulk Modulus (GPa) = 49.22452 58.65370 53.93911
# Shear Modulus (GPa) = 51.62749 12.20828 31.91789
#
# Velocity S-wave (km/s) = 4.80560 2.33687 3.77854
# Velocity P-wave (km/s) = 7.26709 5.78947 6.56995
#
# Compressibility (1/GPa) = 0.02031508
#
# Stress axis : x y z
#
# Youngs Moduli (GPa) = 83.93689 224.42590 72.57854
#
# Poissons Ratio (x) = -0.11700 0.24846
# Poissons Ratio (y) = -0.04376 0.14620
# Poissons Ratio (z) = 0.28734 0.45208
#
# Static dielectric constant tensor:
#      x y z
#    x 1.762750 0.000000 0.000000 
#    y 0.000000 1.958140 0.000000 
#    z 0.000000 0.000000 1.821070 
# 
# From -- ./inp_files/3239.got.cif
#   From: 2010.05.17/outbox.cif.g08.bks.cpg/sg44_2_cif.got.tgz:3239.got - 2010.06.03 19:37:08.
