data_PCOD9375877
_publ_section_title
;
Structure prediction by ZEFSAII (Michael W. Deem and Ramdas Pophale) SiO2 
 PCOD9375877
Probable space group: I M M 2
;
_chemical_formula_sum "Si O2"
_cell_formula_units_Z 56
_cell_length_a 18.603771
_cell_length_b 10.610359
_cell_length_c 13.761486
_cell_angle_alpha 90.000000
_cell_angle_beta 90.000000
_cell_angle_gamma 90.000000
_cell_volume 2716.416727
_symmetry_space_group_name_H-M "I M M 2"
_symmetry_group_IT_number 44
_symmetry_cell_setting 'orthorhombic'
loop_
_space_group_symop_operation_xyz
x,y,z
-x,-y,z
-x,y,z
x,-y,z
1/2+x,1/2+y,1/2+z
1/2-x,1/2-y,1/2+z
1/2-x,1/2+y,1/2+z
1/2+x,1/2-y,1/2+z
loop_
_atom_site_type_symbol
_atom_site_label
_atom_site_fract_x
_atom_site_fract_y
_atom_site_fract_z
Si Si1 0.800012 0.750000 0.597950
Si Si2 0.201843 0.857316 0.250056
Si Si3 0.298157 0.857316 0.445844
Si Si4 0.076320 0.142314 0.723887
Si Si5 0.076320 0.642314 0.472013
Si Si6 0.917402 0.357077 0.239170
Si Si7 0.417402 0.642923 0.456730
O O1 0.751952 0.649699 0.654891
O O2 0.751952 0.850301 0.541009
O O3 0.853221 0.799260 0.680248
O O4 0.853221 0.700740 0.515652
O O5 0.250000 0.827867 0.347950
O O6 0.140148 0.754372 0.225679
O O7 0.173885 0.000000 0.264060
O O8 0.359852 0.754372 0.470221
O O9 0.326115 0.000000 0.431840
O O10 0.079939 0.136289 0.839641
O O11 0.000000 0.206520 0.700374
O O12 0.073879 0.000000 0.686181
O O13 0.073879 0.500000 0.509719
O O14 0.079939 0.636289 0.356259
O O15 0.000000 0.706520 0.495526
O O16 0.897513 0.500000 0.204787
O O17 0.000000 0.331321 0.206263
O O18 0.500000 0.668679 0.489637
O O19 0.397513 0.500000 0.491113
#
# Coordination Sequence:
#
# PCOD9375877 Si02
#       7
#     8   8   8   8   8   8   8
#     4  12  21  36  59  84 120 168 198 240 297 364
#     4  11  24  40  58  90 130 162 198 246 302 360
#     4  11  24  40  58  90 130 162 198 246 302 360
#     4   9  18  33  55  85 116 148 194 247 298 361
#     4   9  18  33  55  85 116 148 194 247 298 361
#     4   9  19  39  65  88 113 154 205 250 298 357
#     4   9  19  39  65  88 113 154 205 250 298 357
#
# _framework density 20.615393999999998
#
# number of rings (size 3 to 8) (size 9 to 14) (size 15 to 20)
#    0.000    2.000    2.857    3.000    0.000    3.429 
#    0.000    0.714    0.000    0.000    0.000    0.000 
#    0.000    0.000    0.000    0.000    0.000    0.000 
#
# Total GULP energy -155880.535987 kJ/mol
# GULP energy per Si atom -5567.162000 kJ/mol
# Density = 2.056847 g / cm^3
# Si number density = 20.615394 Si / 1000 Ang^3
#
#
#
# Elastic Constant Matrix: (Units=GPa)
#
#
# Indices 1 2 3 4 5 6 
#
# 1 131.0750 88.4683 10.2210 0.0000 0.0000 0.0000
# 2 88.4683 123.0550 4.4376 0.0000 0.0000 0.0000
# 3 10.2210 4.4376 38.7175 0.0000 0.0000 0.0000
# 4 0.0000 0.0000 0.0000 6.3351 0.0000 0.0000
# 5 0.0000 0.0000 0.0000 0.0000 11.0078 0.0000
# 6 0.0000 0.0000 0.0000 0.0000 0.0000 27.9277
#
#
#
# Elastic Compliance Matrix: (Units=1/GPa)
#
#
# Indices 1 2 3 4 5 6 
#
# 1 0.015108 -0.010762 -0.002755 0.000000 0.000000 0.000000
# 2 -0.010762 0.015827 0.001027 0.000000 0.000000 0.000000
# 3 -0.002755 0.001027 0.026438 0.000000 0.000000 0.000000
# 4 0.000000 0.000000 0.000000 0.157851 0.000000 0.000000
# 5 0.000000 0.000000 0.000000 0.000000 0.090845 0.000000
# 6 0.000000 0.000000 0.000000 0.000000 0.000000 0.035807
#
#
# Mechanical properties :
#
#
# Convention : Reuss Voigt Hill
#
# Bulk Modulus (GPa) = 30.87137 55.45570 43.16354
# Shear Modulus (GPa) = 13.23970 21.70216 17.47093
#
# Velocity S-wave (km/s) = 2.53696 3.24808 2.91429
# Velocity P-wave (km/s) = 4.85685 6.40509 5.68393
#
# Compressibility (1/GPa) = 0.03239247
#
# Stress axis : x y z
#
# Youngs Moduli (GPa) = 66.19020 63.18409 37.82486
#
# Poissons Ratio (x) = 0.68001 0.10420
# Poissons Ratio (y) = 0.71236 -0.03885
# Poissons Ratio (z) = 0.18234 -0.06490
#
# Static dielectric constant tensor:
#      x y z
#    x 1.806150 0.000000 0.000000 
#    y 0.000000 1.763550 0.000000 
#    z 0.000000 0.000000 1.755270 
# 
# From -- ./inp_files/17771.got.cif
#   From: 2010.05.17/outbox.cif.g08.bks.cpg/sg44_9_cif.got.tgz:17771.got - 2010.06.03 19:37:08.
