data_PCOD9375521
_publ_section_title
;
Structure prediction by ZEFSAII (Michael W. Deem and Ramdas Pophale) SiO2 
 PCOD9375521
Probable space group: I M M 2
;
_chemical_formula_sum "Si O2"
_cell_formula_units_Z 40
_cell_length_a 18.239705
_cell_length_b 18.786568
_cell_length_c 5.134333
_cell_angle_alpha 90.000000
_cell_angle_beta 90.000000
_cell_angle_gamma 90.000000
_cell_volume 1759.338033
_symmetry_space_group_name_H-M "I M M 2"
_symmetry_group_IT_number 44
_symmetry_cell_setting 'orthorhombic'
loop_
_space_group_symop_operation_xyz
x,y,z
-x,-y,z
-x,y,z
x,-y,z
1/2+x,1/2+y,1/2+z
1/2-x,1/2-y,1/2+z
1/2-x,1/2+y,1/2+z
1/2+x,1/2-y,1/2+z
loop_
_atom_site_type_symbol
_atom_site_label
_atom_site_fract_x
_atom_site_fract_y
_atom_site_fract_z
Si Si1 0.084048 0.834539 0.243130
Si Si2 0.780056 0.784937 0.489295
Si Si3 0.586313 0.577923 0.258879
Si Si4 0.916477 0.413747 0.506985
Si Si5 0.319085 0.914859 0.506395
O O1 0.138872 0.778574 0.370735
O O2 0.085851 0.896911 0.461140
O O3 0.000000 0.809896 0.216554
O O4 0.113805 0.865002 0.969579
O O5 0.770629 0.751183 0.770739
O O6 0.753492 0.867022 0.503560
O O7 0.500000 0.572889 0.331041
O O8 0.620211 0.500000 0.290272
O O9 0.922318 0.500000 0.507162
O O10 0.870418 0.395566 0.762329
O O11 0.000000 0.385889 0.502115
O O12 0.867192 0.396366 0.258704
O O13 0.304316 0.000000 0.502041
#
# Coordination Sequence:
#
# PCOD9375521 Si02
#       5
#     8   8   8   8   8
#     4  10  21  39  61  84 117 161 205 245 290 360
#     4  12  26  45  63  87 127 164 197 249 313 363
#     4   9  17  31  56  91 123 150 190 247 300 341
#     4   9  17  33  59  91 126 159 200 256 304 350
#     4  10  21  38  62  92 123 161 206 247 299 364
#
# _framework density 22.735824999999998
#
# number of rings (size 3 to 8) (size 9 to 14) (size 15 to 20)
#    0.000    2.000    0.000    3.600    0.000    6.400 
#    0.000    8.000    0.000    0.000    0.000    0.000 
#    0.000    0.000    0.000    0.000    0.000    0.000 
#
# Total GULP energy -111749.825147 kJ/mol
# GULP energy per Si atom -5587.491257 kJ/mol
# Density = 2.268408 g / cm^3
# Si number density = 22.735825 Si / 1000 Ang^3
#
#
#
# Elastic Constant Matrix: (Units=GPa)
#
#
# Indices 1 2 3 4 5 6 
#
# 1 99.2238 23.0196 11.1473 0.0000 0.0000 0.0000
# 2 23.0196 67.4946 5.2242 0.0000 0.0000 0.0000
# 3 11.1473 5.2242 124.4977 0.0000 0.0000 0.0000
# 4 0.0000 0.0000 0.0000 -6.5434 0.0000 0.0000
# 5 0.0000 0.0000 0.0000 0.0000 20.0010 0.0000
# 6 0.0000 0.0000 0.0000 0.0000 0.0000 21.1727
#
#
#
# Elastic Compliance Matrix: (Units=1/GPa)
#
#
# Indices 1 2 3 4 5 6 
#
# 1 0.011029 -0.003697 -0.000832 0.000000 0.000000 0.000000
# 2 -0.003697 0.016104 -0.000345 0.000000 0.000000 0.000000
# 3 -0.000832 -0.000345 0.008121 0.000000 0.000000 0.000000
# 4 0.000000 0.000000 0.000000 -0.152827 0.000000 0.000000
# 5 0.000000 0.000000 0.000000 0.000000 0.049998 0.000000
# 6 0.000000 0.000000 0.000000 0.000000 0.000000 0.047231
#
#
# Mechanical properties :
#
#
# Convention : Reuss Voigt Hill
#
# Bulk Modulus (GPa) = 39.20700 41.11094 40.15897
# Shear Modulus (GPa) = -2388.37835 23.71440 -1182.33197
#
# Velocity S-wave (km/s) = -32.44644 3.23312 -22.82891
# Velocity P-wave (km/s) = 37.23457 5.66204 26.02263
#
# Compressibility (1/GPa) = 0.02550565
#
# Stress axis : x y z
#
# Youngs Moduli (GPa) = 90.66598 62.09769 123.13337
#
# Poissons Ratio (x) = 0.22959 0.10250
# Poissons Ratio (y) = 0.33522 0.04244
# Poissons Ratio (z) = 0.07547 0.02141
#
# Static dielectric constant tensor:
#      x y z
#    x 1.892000 0.000000 0.000000 
#    y 0.000000 1.899770 0.000000 
#    z 0.000000 0.000000 1.771290 
# 
# From -- ./inp_files/1907.got.cif
#   From: 2010.05.17/outbox.cif.g08.bks.cpg/sg44_1_cif.got.tgz:1907.got - 2010.06.03 19:37:08.
