data_PCOD9375768
_publ_section_title
;
Structure prediction by ZEFSAII (Michael W. Deem and Ramdas Pophale) SiO2 
 PCOD9375768
Probable space group: I M M 2
;
_chemical_formula_sum "Si O2"
_cell_formula_units_Z 34
_cell_length_a 9.343074
_cell_length_b 17.307759
_cell_length_c 9.737835
_cell_angle_alpha 90.000000
_cell_angle_beta 90.000000
_cell_angle_gamma 90.000000
_cell_volume 1574.682639
_symmetry_space_group_name_H-M "I M M 2"
_symmetry_group_IT_number 44
_symmetry_cell_setting 'orthorhombic'
loop_
_space_group_symop_operation_xyz
x,y,z
-x,-y,z
-x,y,z
x,-y,z
1/2+x,1/2+y,1/2+z
1/2-x,1/2-y,1/2+z
1/2-x,1/2+y,1/2+z
1/2+x,1/2-y,1/2+z
loop_
_atom_site_type_symbol
_atom_site_label
_atom_site_fract_x
_atom_site_fract_y
_atom_site_fract_z
Si Si1 0.293447 0.082494 0.481800
Si Si2 0.666247 0.862559 0.787836
Si Si3 0.500000 0.500000 0.961962
Si Si4 0.664224 0.796741 0.251095
Si Si5 0.669266 0.587959 0.550363
O O1 0.327653 0.096444 0.640501
O O2 0.339000 0.154721 0.391911
O O3 0.355288 0.000000 0.434745
O O4 0.125199 0.066692 0.465467
O O5 0.500000 0.855466 0.829978
O O6 0.743155 0.779996 0.770648
O O7 0.758649 0.907614 0.901084
O O8 0.500000 0.779459 0.210117
O O9 0.744289 0.852178 0.143288
O O10 0.500000 0.606815 0.544208
O O11 0.680310 0.500000 0.605108
#
# Coordination Sequence:
#
# PCOD9375768 Si02
#       5
#     8   8   2   8   8
#     4  10  24  42  71  96 128 170 222 262 323 388
#     4  12  26  43  68  98 135 173 217 273 327 387
#     4   8  24  40  74  94 132 172 212 270 324 392
#     4  12  26  43  68  98 135 173 217 273 327 387
#     4  11  26  44  68  96 134 175 219 267 327 392
#
# _framework density 21.591652
#
# number of rings (size 3 to 8) (size 9 to 14) (size 15 to 20)
#    0.706    0.235    0.000    5.647    6.588    5.647 
#    0.000    0.000    0.000    0.000    0.000    0.000 
#    0.000    0.000    0.000    0.000    0.000    0.000 
#
# Total GULP energy -94796.630954 kJ/mol
# GULP energy per Si atom -5576.272409 kJ/mol
# Density = 2.154251 g / cm^3
# Si number density = 21.591652 Si / 1000 Ang^3
#
#
#
# Elastic Constant Matrix: (Units=GPa)
#
#
# Indices 1 2 3 4 5 6 
#
# 1 208.9629 31.7619 3.0551 0.0000 0.0000 -0.0001
# 2 31.7619 94.6161 -3.2100 0.0000 0.0000 0.0000
# 3 3.0551 -3.2100 65.7105 -0.0001 0.0000 0.0007
# 4 0.0000 0.0000 -0.0001 41.3435 0.0000 0.0005
# 5 0.0000 0.0000 0.0000 0.0000 -7.5370 0.0000
# 6 -0.0001 0.0000 0.0007 0.0005 0.0000 84.1334
#
#
#
# Elastic Compliance Matrix: (Units=1/GPa)
#
#
# Indices 1 2 3 4 5 6 
#
# 1 0.005049 -0.001706 -0.000318 0.000000 0.000000 0.000000
# 2 -0.001706 0.011163 0.000625 0.000000 0.000000 0.000000
# 3 -0.000318 0.000625 0.015264 0.000000 0.000000 0.000000
# 4 0.000000 0.000000 0.000000 0.024188 0.000000 0.000000
# 5 0.000000 0.000000 0.000000 0.000000 -0.132680 0.000000
# 6 0.000000 0.000000 0.000000 0.000000 0.000000 0.011886
#
#
# Mechanical properties :
#
#
# Convention : Reuss Voigt Hill
#
# Bulk Modulus (GPa) = 34.87087 48.05593 41.46340
# Shear Modulus (GPa) = -94.74634 46.10017 -24.32309
#
# Velocity S-wave (km/s) = -6.63146 4.62572 -3.35998
# Velocity P-wave (km/s) = 6.51535 7.12985 2.04755
#
# Compressibility (1/GPa) = 0.02867723
#
# Stress axis : x y z
#
# Youngs Moduli (GPa) = 198.04036 89.58278 65.51549
#
# Poissons Ratio (x) = 0.15282 0.02084
# Poissons Ratio (y) = 0.33783 -0.04092
# Poissons Ratio (z) = 0.06300 -0.05596
#
# Static dielectric constant tensor:
#      x y z
#    x 1.758950 0.000000 0.000000 
#    y 0.000000 1.756930 0.000000 
#    z 0.000000 0.000000 1.805150 
# 
# From -- ./inp_files/4291.got.cif
#   From: 2010.05.17/outbox.cif.g08.bks.cpg/sg44_3_cif.got.tgz:4291.got - 2010.06.03 19:37:08.
