data_PCOD9375802
_publ_section_title
;
Structure prediction by ZEFSAII (Michael W. Deem and Ramdas Pophale) SiO2 
 PCOD9375802
Probable space group: I M M 2
;
_chemical_formula_sum "Si O2"
_cell_formula_units_Z 56
_cell_length_a 19.025220
_cell_length_b 20.607538
_cell_length_c 7.185449
_cell_angle_alpha 90.000000
_cell_angle_beta 90.000000
_cell_angle_gamma 90.000000
_cell_volume 2817.148290
_symmetry_space_group_name_H-M "I M M 2"
_symmetry_group_IT_number 44
_symmetry_cell_setting 'orthorhombic'
loop_
_space_group_symop_operation_xyz
x,y,z
-x,-y,z
-x,y,z
x,-y,z
1/2+x,1/2+y,1/2+z
1/2-x,1/2-y,1/2+z
1/2-x,1/2+y,1/2+z
1/2+x,1/2-y,1/2+z
loop_
_atom_site_type_symbol
_atom_site_label
_atom_site_fract_x
_atom_site_fract_y
_atom_site_fract_z
Si Si1 0.923661 0.604040 0.510240
Si Si2 0.699649 0.296942 0.599122
Si Si3 0.575629 0.926278 0.583678
Si Si4 0.227759 0.575373 0.139347
Si Si5 0.580404 0.253555 0.885899
Si Si6 0.275834 0.927680 0.091817
Si Si7 0.677860 0.692362 0.164702
O O1 0.925197 0.569614 0.309721
O O2 0.913992 0.678966 0.451683
O O3 0.858512 0.581719 0.632820
O O4 0.000000 0.594731 0.599004
O O5 0.637331 0.270188 0.727914
O O6 0.729502 0.367543 0.659402
O O7 0.674273 0.303990 0.386993
O O8 0.765350 0.247384 0.605423
O O9 0.500000 0.894481 0.534687
O O10 0.653855 0.898352 0.555027
O O11 0.575632 0.000000 0.512443
O O12 0.236171 0.500000 0.085967
O O13 0.224345 0.576316 0.365352
O O14 0.290227 0.624140 0.098093
O O15 0.500000 0.265225 0.829115
O O16 0.604873 0.294243 0.064382
O O17 0.252846 0.000000 0.145826
#
# Coordination Sequence:
#
# PCOD9375802 Si02
#       7
#     8   8   8   8   8   8   8
#     4   9  15  26  45  74 111 144 177 226 282 337
#     4  11  20  36  59  85 113 156 192 235 288 346
#     4   8  12  19  36  66 104 139 171 211 261 320
#     4   8  15  27  46  75 105 142 192 236 276 334
#     4  11  23  38  57  85 117 147 194 247 292 348
#     4   9  16  28  49  79 112 147 190 232 274 340
#     4  11  20  35  60  82 113 152 191 236 291 342
#
# _framework density 19.878257999999999
#
# number of rings (size 3 to 8) (size 9 to 14) (size 15 to 20)
#    0.000    2.429    2.857    3.000    0.000    1.429 
#    0.000    0.714    0.000    1.714    0.000    4.000 
#    0.000    2.286    0.000    0.286    0.000    0.000 
#
# Total GULP energy -156190.840565 kJ/mol
# GULP energy per Si atom -5578.244306 kJ/mol
# Density = 1.983301 g / cm^3
# Si number density = 19.878258 Si / 1000 Ang^3
#
#
#
# Elastic Constant Matrix: (Units=GPa)
#
#
# Indices 1 2 3 4 5 6 
#
# 1 74.6863 32.8230 2.0889 0.0000 0.0000 0.0000
# 2 32.8230 95.4703 -6.4937 0.0000 0.0000 0.0000
# 3 2.0889 -6.4937 78.2430 0.0000 0.0000 0.0000
# 4 0.0000 0.0000 0.0000 2.2928 0.0000 0.0000
# 5 0.0000 0.0000 0.0000 0.0000 15.2684 0.0000
# 6 0.0000 0.0000 0.0000 0.0000 0.0000 19.5639
#
#
#
# Elastic Compliance Matrix: (Units=1/GPa)
#
#
# Indices 1 2 3 4 5 6 
#
# 1 0.015832 -0.005503 -0.000879 0.000000 0.000000 0.000000
# 2 -0.005503 0.012447 0.001180 0.000000 0.000000 0.000000
# 3 -0.000879 0.001180 0.012902 0.000000 0.000000 0.000000
# 4 0.000000 0.000000 0.000000 0.436146 0.000000 0.000000
# 5 0.000000 0.000000 0.000000 0.000000 0.065495 0.000000
# 6 0.000000 0.000000 0.000000 0.000000 0.000000 0.051115
#
#
# Mechanical properties :
#
#
# Convention : Reuss Voigt Hill
#
# Bulk Modulus (GPa) = 32.49274 33.91511 33.20392
# Shear Modulus (GPa) = 8.13537 22.09044 15.11291
#
# Velocity S-wave (km/s) = 2.02521 3.33721 2.76030
# Velocity P-wave (km/s) = 4.67440 5.65224 5.18641
#
# Compressibility (1/GPa) = 0.03077611
#
# Stress axis : x y z
#
# Youngs Moduli (GPa) = 63.16159 80.34273 77.50682
#
# Poissons Ratio (x) = 0.44213 0.06816
# Poissons Ratio (y) = 0.34758 -0.09145
# Poissons Ratio (z) = 0.05554 -0.09480
#
# Static dielectric constant tensor:
#      x y z
#    x 1.710450 0.000000 0.000000 
#    y 0.000000 1.702630 0.000000 
#    z 0.000000 0.000000 1.785820 
# 
# From -- ./inp_files/8401.got.cif
#   From: 2010.05.17/outbox.cif.g08.bks.cpg/sg44_5_cif.got.tgz:8401.got - 2010.06.03 19:37:08.
