data_PCOD9375361
_publ_section_title
;
Structure prediction by ZEFSAII (Michael W. Deem and Ramdas Pophale) SiO2 
 PCOD9375361
Probable space group: I M M 2
;
_chemical_formula_sum "Si O2"
_cell_formula_units_Z 40
_cell_length_a 14.897768
_cell_length_b 15.765359
_cell_length_c 7.412004
_cell_angle_alpha 90.000000
_cell_angle_beta 90.000000
_cell_angle_gamma 90.000000
_cell_volume 1740.847453
_symmetry_space_group_name_H-M "I M M 2"
_symmetry_group_IT_number 44
_symmetry_cell_setting 'orthorhombic'
loop_
_space_group_symop_operation_xyz
x,y,z
-x,-y,z
-x,y,z
x,-y,z
1/2+x,1/2+y,1/2+z
1/2-x,1/2-y,1/2+z
1/2-x,1/2+y,1/2+z
1/2+x,1/2-y,1/2+z
loop_
_atom_site_type_symbol
_atom_site_label
_atom_site_fract_x
_atom_site_fract_y
_atom_site_fract_z
Si Si1 0.398174 0.339563 0.096850
Si Si2 0.778848 0.402882 0.115260
Si Si3 0.900221 0.897358 0.014951
Si Si4 0.597990 0.098274 0.303615
Si Si5 0.711474 0.167909 0.013150
O O1 0.500000 0.339212 0.025465
O O2 0.321600 0.404371 0.032167
O O3 0.405921 0.365092 0.307674
O O4 0.343354 0.252748 0.062244
O O5 0.802369 0.500000 0.159761
O O6 0.785339 0.350874 0.300684
O O7 0.843454 0.363311 0.964395
O O8 0.000000 0.882892 0.094981
O O9 0.883707 0.000000 0.015755
O O10 0.813041 0.846849 0.086074
O O11 0.500000 0.138727 0.289435
O O12 0.650385 0.100983 0.117780
O O13 0.588715 0.000000 0.351724
#
# Coordination Sequence:
#
# PCOD9375361 Si02
#       5
#     8   8   8   8   8
#     4  10  21  36  59  93 125 160 206 256 315 375
#     4  10  23  42  64  90 124 169 215 259 311 376
#     4   9  19  39  67  94 124 168 217 262 313 376
#     4  10  22  39  61  89 122 164 210 256 309 375
#     4  11  21  37  64  92 125 163 202 261 321 374
#
# _framework density 22.977315999999998
#
# number of rings (size 3 to 8) (size 9 to 14) (size 15 to 20)
#    0.000    2.000    0.000    4.200    5.600    2.800 
#    0.000    3.000    0.000    1.200    0.000    0.000 
#    0.000    0.000    0.000    0.000    0.000    0.000 
#
# Total GULP energy -111445.887851 kJ/mol
# GULP energy per Si atom -5572.294393 kJ/mol
# Density = 2.292502 g / cm^3
# Si number density = 22.977316 Si / 1000 Ang^3
#
#
#
# Elastic Constant Matrix: (Units=GPa)
#
#
# Indices 1 2 3 4 5 6 
#
# 1 223.6357 19.2998 60.3283 0.0000 0.0000 0.0000
# 2 19.2998 84.1920 15.4407 0.0000 0.0000 0.0000
# 3 60.3283 15.4407 74.3465 0.0000 0.0000 0.0000
# 4 0.0000 0.0000 0.0000 16.1400 0.0000 0.0000
# 5 0.0000 0.0000 0.0000 0.0000 30.7948 0.0000
# 6 0.0000 0.0000 0.0000 0.0000 0.0000 37.3155
#
#
#
# Elastic Compliance Matrix: (Units=1/GPa)
#
#
# Indices 1 2 3 4 5 6 
#
# 1 0.005743 -0.000480 -0.004561 0.000000 0.000000 0.000000
# 2 -0.000480 0.012388 -0.002183 0.000000 0.000000 0.000000
# 3 -0.004561 -0.002183 0.017605 0.000000 0.000000 0.000000
# 4 0.000000 0.000000 0.000000 0.061958 0.000000 0.000000
# 5 0.000000 0.000000 0.000000 0.000000 0.032473 0.000000
# 6 0.000000 0.000000 0.000000 0.000000 0.000000 0.026798
#
#
# Mechanical properties :
#
#
# Convention : Reuss Voigt Hill
#
# Bulk Modulus (GPa) = 46.97477 63.59019 55.28248
# Shear Modulus (GPa) = 28.00975 35.99045 32.00010
#
# Velocity S-wave (km/s) = 3.49523 3.96200 3.73591
# Velocity P-wave (km/s) = 6.06442 6.97605 6.53615
#
# Compressibility (1/GPa) = 0.02128802
#
# Stress axis : x y z
#
# Youngs Moduli (GPa) = 174.11644 80.72281 56.80303
#
# Poissons Ratio (x) = 0.03876 0.25906
# Poissons Ratio (y) = 0.08360 0.12401
# Poissons Ratio (z) = 0.79408 0.17624
#
# Static dielectric constant tensor:
#      x y z
#    x 1.965970 0.000000 0.000000 
#    y 0.000000 2.033990 0.000000 
#    z 0.000000 0.000000 1.824860 
# 
# From -- ./inp_files/6825.got.cif
#   From: 2010.05.17/outbox.cif.g08.bks.cpg/sg44_4_cif.got.tgz:6825.got - 2010.06.03 19:37:08.
