data_PCOD9375910
_publ_section_title
;
Structure prediction by ZEFSAII (Michael W. Deem and Ramdas Pophale) SiO2 
 PCOD9375910
Probable space group: I M M 2
;
_chemical_formula_sum "Si O2"
_cell_formula_units_Z 48
_cell_length_a 9.708426
_cell_length_b 7.357638
_cell_length_c 32.585396
_cell_angle_alpha 90.000000
_cell_angle_beta 90.000000
_cell_angle_gamma 90.000000
_cell_volume 2327.610161
_symmetry_space_group_name_H-M "I M M 2"
_symmetry_group_IT_number 44
_symmetry_cell_setting 'orthorhombic'
loop_
_space_group_symop_operation_xyz
x,y,z
-x,-y,z
-x,y,z
x,-y,z
1/2+x,1/2+y,1/2+z
1/2-x,1/2-y,1/2+z
1/2-x,1/2+y,1/2+z
1/2+x,1/2-y,1/2+z
loop_
_atom_site_type_symbol
_atom_site_label
_atom_site_fract_x
_atom_site_fract_y
_atom_site_fract_z
Si Si1 0.160730 0.221484 0.804070
Si Si2 0.158956 0.221238 0.650090
Si Si3 0.341357 0.282331 0.393902
Si Si4 0.343738 0.215228 0.483504
Si Si5 0.341504 0.721677 0.057916
Si Si6 0.341305 0.222190 0.726779
O O1 0.212108 0.278710 0.849467
O O2 0.256303 0.281320 0.766848
O O3 0.000000 0.275176 0.799200
O O4 0.160740 0.000000 0.803376
O O5 0.200003 0.277078 0.604006
O O6 0.260402 0.280803 0.685954
O O7 0.000000 0.276240 0.657403
O O8 0.159012 0.000000 0.650519
O O9 0.500000 0.216443 0.395655
O O10 0.344456 0.500000 0.392214
O O11 0.279104 0.237138 0.438103
O O12 0.500000 0.289797 0.483138
O O13 0.254051 0.287075 0.521046
O O14 0.354686 0.000000 0.489928
O O15 0.500000 0.775739 0.051708
O O16 0.339468 0.500000 0.057608
O O17 0.500000 0.279438 0.727400
O O18 0.340824 0.000000 0.726846
#
# Coordination Sequence:
#
# PCOD9375910 Si02
#       6
#     8   8   8   8   8   8
#     4   8  13  22  35  47  62  91 127 153 175 214
#     4   8  13  21  32  45  64  94 128 152 172 213
#     4   8  14  25  40  56  75 102 133 159 185 224
#     4   9  16  25  39  59  79  98 125 163 198 222
#     4   8  14  24  36  50  71 100 129 154 185 228
#     4   9  15  20  28  46  71  94 116 148 189 224
#
# _framework density 20.622008000000001
#
# number of rings (size 3 to 8) (size 9 to 14) (size 15 to 20)
#    0.000    3.667    0.000    2.500    0.000    2.667 
#    0.000    4.167    0.000    1.500    0.000    0.000 
#    0.000    1.333    0.000    5.667    0.000    7.500 
#
# Total GULP energy -133747.339237 kJ/mol
# GULP energy per Si atom -5572.805802 kJ/mol
# Density = 2.057507 g / cm^3
# Si number density = 20.622008 Si / 1000 Ang^3
#
#
#
# Elastic Constant Matrix: (Units=GPa)
#
#
# Indices 1 2 3 4 5 6 
#
# 1 102.2322 3.8569 127.7307 0.0000 0.0000 0.0000
# 2 3.8569 74.6106 5.3909 0.0000 0.0000 0.0000
# 3 127.7307 5.3909 261.1430 0.0000 0.0000 0.0000
# 4 0.0000 0.0000 0.0000 6.9729 0.0000 0.0000
# 5 0.0000 0.0000 0.0000 0.0000 34.7078 0.0000
# 6 0.0000 0.0000 0.0000 0.0000 0.0000 -12.4250
#
#
#
# Elastic Compliance Matrix: (Units=1/GPa)
#
#
# Indices 1 2 3 4 5 6 
#
# 1 0.025166 -0.000412 -0.012301 0.000000 0.000000 0.000000
# 2 -0.000412 0.013430 -0.000076 0.000000 0.000000 0.000000
# 3 -0.012301 -0.000076 0.009847 0.000000 0.000000 0.000000
# 4 0.000000 0.000000 0.000000 0.143412 0.000000 0.000000
# 5 0.000000 0.000000 0.000000 0.000000 0.028812 0.000000
# 6 0.000000 0.000000 0.000000 0.000000 0.000000 -0.080483
#
#
# Mechanical properties :
#
#
# Convention : Reuss Voigt Hill
#
# Bulk Modulus (GPa) = 43.73299 79.10474 61.41887
# Shear Modulus (GPa) = 28.83804 25.91832 27.37818
#
# Velocity S-wave (km/s) = 3.74359 3.54902 3.64760
# Velocity P-wave (km/s) = 6.31973 7.43214 6.89839
#
# Compressibility (1/GPa) = 0.02286603
#
# Stress axis : x y z
#
# Youngs Moduli (GPa) = 39.73643 74.46188 101.54977
#
# Poissons Ratio (x) = 0.03069 1.24913
# Poissons Ratio (y) = 0.01638 0.00768
# Poissons Ratio (z) = 0.48878 0.00563
#
# Static dielectric constant tensor:
#      x y z
#    x 1.692940 0.000000 0.000000 
#    y 0.000000 1.873780 0.000000 
#    z 0.000000 0.000000 1.749580 
# 
# From -- ./inp_files/26031.got.cif
#   From: 2010.05.17/outbox.cif.g08.bks.cpg/sg44_14_cif.got.tgz:26031.got - 2010.06.03 19:37:08.
