data_PCOD9375217
_publ_section_title
;
Structure prediction by ZEFSAII (Michael W. Deem and Ramdas Pophale) SiO2 
 PCOD9375217
Probable space group: I M M 2
;
_chemical_formula_sum "Si O2"
_cell_formula_units_Z 64
_cell_length_a 8.708745
_cell_length_b 23.879586
_cell_length_c 19.766250
_cell_angle_alpha 90.000000
_cell_angle_beta 90.000000
_cell_angle_gamma 90.000000
_cell_volume 4110.613567
_symmetry_space_group_name_H-M "I M M 2"
_symmetry_group_IT_number 44
_symmetry_cell_setting 'orthorhombic'
loop_
_space_group_symop_operation_xyz
x,y,z
-x,-y,z
-x,y,z
x,-y,z
1/2+x,1/2+y,1/2+z
1/2-x,1/2-y,1/2+z
1/2-x,1/2+y,1/2+z
1/2+x,1/2-y,1/2+z
loop_
_atom_site_type_symbol
_atom_site_label
_atom_site_fract_x
_atom_site_fract_y
_atom_site_fract_z
Si Si1 0.183692 0.564738 0.196790
Si Si2 0.315521 0.226535 0.203596
Si Si3 0.814836 0.839587 0.786109
Si Si4 0.815481 0.877784 0.562891
Si Si5 0.813426 0.772744 0.914652
Si Si6 0.685131 0.564169 0.921696
Si Si7 0.815942 0.252135 0.062810
Si Si8 0.685212 0.161066 0.334548
O O1 0.227984 0.500000 0.206518
O O2 0.239971 0.604840 0.256960
O O3 0.256416 0.588617 0.127867
O O4 0.000000 0.568006 0.191410
O O5 0.500000 0.224960 0.197137
O O6 0.277372 0.287156 0.236598
O O7 0.241034 0.222089 0.130483
O O8 0.269508 0.180261 0.259118
O O9 0.764851 0.819936 0.861010
O O10 0.000000 0.845372 0.785434
O O11 0.768498 0.909079 0.493813
O O12 0.748787 0.815261 0.563649
O O13 0.000000 0.874702 0.565466
O O14 0.767116 0.712407 0.883877
O O15 0.000000 0.773229 0.913403
O O16 0.764457 0.776244 0.992319
O O17 0.500000 0.564531 0.919945
O O18 0.737547 0.500000 0.916526
O O19 0.746975 0.604020 0.862803
O O20 0.000000 0.254845 0.062957
O O21 0.500000 0.158425 0.336427
#
# Coordination Sequence:
#
# PCOD9375217 Si02
#       8
#     8   8   8   8   8   8   8   8
#     4  11  23  35  47  68  97 127 163 204 238 272
#     4   9  18  31  48  70  97 126 156 193 237 286
#     4   9  17  32  51  68  91 126 161 193 233 283
#     4  11  21  33  47  66  96 133 168 194 226 276
#     4   8  16  30  48  70  96 123 153 193 238 282
#     4  10  21  34  47  67  96 128 164 204 239 273
#     4  11  19  29  49  74  99 126 157 195 239 280
#     4   9  17  32  50  68  93 126 160 195 236 282
#
# _framework density 15.569452
#
# number of rings (size 3 to 8) (size 9 to 14) (size 15 to 20)
#    0.000    2.250    2.500    3.000    0.000    2.750 
#    0.000    3.125    0.000    0.000    0.000    0.875 
#    0.000    1.000    0.000    0.000    0.000    0.000 
#
# Total GULP energy -178472.267531 kJ/mol
# GULP energy per Si atom -5577.258360 kJ/mol
# Density = 1.553401 g / cm^3
# Si number density = 15.569452 Si / 1000 Ang^3
#
#
#
# Elastic Constant Matrix: (Units=GPa)
#
#
# Indices 1 2 3 4 5 6 
#
# 1 18.0947 20.5722 32.3050 0.0000 0.0000 0.0000
# 2 20.5722 88.1573 71.7178 0.0000 0.0000 0.0000
# 3 32.3050 71.7178 155.3514 0.0000 0.0000 0.0000
# 4 0.0000 0.0000 0.0000 19.6319 0.0000 0.0000
# 5 0.0000 0.0000 0.0000 0.0000 23.4798 0.0000
# 6 0.0000 0.0000 0.0000 0.0000 0.0000 22.8592
#
#
#
# Elastic Compliance Matrix: (Units=1/GPa)
#
#
# Indices 1 2 3 4 5 6 
#
# 1 0.092633 -0.009522 -0.014867 0.000000 0.000000 0.000000
# 2 -0.009522 0.019144 -0.006858 0.000000 0.000000 0.000000
# 3 -0.014867 -0.006858 0.012695 0.000000 0.000000 0.000000
# 4 0.000000 0.000000 0.000000 0.050937 0.000000 0.000000
# 5 0.000000 0.000000 0.000000 0.000000 0.042590 0.000000
# 6 0.000000 0.000000 0.000000 0.000000 0.000000 0.043746
#
#
# Mechanical properties :
#
#
# Convention : Reuss Voigt Hill
#
# Bulk Modulus (GPa) = 16.13472 56.75482 36.44477
# Shear Modulus (GPa) = 14.49700 22.32809 18.41254
#
# Velocity S-wave (km/s) = 3.05473 3.79105 3.44264
# Velocity P-wave (km/s) = 4.77781 7.46288 6.26586
#
# Compressibility (1/GPa) = 0.06197814
#
# Stress axis : x y z
#
# Youngs Moduli (GPa) = 10.79527 52.23436 78.77405
#
# Poissons Ratio (x) = 0.49738 1.17114
# Poissons Ratio (y) = 0.10279 0.54023
# Poissons Ratio (z) = 0.16049 0.35822
#
# Static dielectric constant tensor:
#      x y z
#    x 1.527300 0.000000 0.000000 
#    y 0.000000 1.494290 0.000000 
#    z 0.000000 0.000000 1.530220 
# 
# From -- ./inp_files/22338.got.cif
#   From: 2010.05.17/outbox.cif.g08.bks.cpg/sg44_12_cif.got.tgz:22338.got - 2010.06.03 19:37:08.
