data_PCOD9375465
_publ_section_title
;
Structure prediction by ZEFSAII (Michael W. Deem and Ramdas Pophale) SiO2 
 PCOD9375465
Probable space group: I M M 2
;
_chemical_formula_sum "Si O2"
_cell_formula_units_Z 32
_cell_length_a 29.452703
_cell_length_b 8.549790
_cell_length_c 4.958636
_cell_angle_alpha 90.000000
_cell_angle_beta 90.000000
_cell_angle_gamma 90.000000
_cell_volume 1248.656076
_symmetry_space_group_name_H-M "I M M 2"
_symmetry_group_IT_number 44
_symmetry_cell_setting 'orthorhombic'
loop_
_space_group_symop_operation_xyz
x,y,z
-x,-y,z
-x,y,z
x,-y,z
1/2+x,1/2+y,1/2+z
1/2-x,1/2-y,1/2+z
1/2-x,1/2+y,1/2+z
1/2+x,1/2-y,1/2+z
loop_
_atom_site_type_symbol
_atom_site_label
_atom_site_fract_x
_atom_site_fract_y
_atom_site_fract_z
Si Si1 0.078127 0.000000 0.903720
Si Si2 0.350936 0.171068 0.713153
Si Si3 0.450242 0.830130 0.490492
Si Si4 0.862000 0.000000 0.418734
Si Si5 0.228744 0.673480 0.850360
O O1 0.123197 0.000000 0.726109
O O2 0.053704 0.836150 0.839405
O O3 0.093815 0.000000 0.216709
O O4 0.405104 0.168845 0.671877
O O5 0.339062 0.334359 0.853749
O O6 0.324456 0.179452 0.428265
O O7 0.338267 0.000000 0.830357
O O8 0.500000 0.826961 0.625916
O O9 0.448177 0.000000 0.342191
O O10 0.239995 0.500000 0.753580
O O11 0.252644 0.705312 0.136487
#
# Coordination Sequence:
#
# PCOD9375465 Si02
#       5
#     4   8   8   4   8
#     4  10  21  38  58  92 126 164 212 264 316 380
#     4   9  21  41  65  98 134 171 223 275 333 397
#     4   9  18  37  65  94 130 174 219 269 329 396
#     4  10  22  38  65  90 122 170 210 262 325 384
#     4  11  25  44  69 100 137 180 228 290 347 413
#
# _framework density 25.627555999999998
#
# number of rings (size 3 to 8) (size 9 to 14) (size 15 to 20)
#    0.000    2.250    0.000    1.125    3.500    5.000 
#    0.000   17.500    0.000   12.000    0.000    0.000 
#    0.000    0.000    0.000    0.000    0.000    0.000 
#
# Total GULP energy -89286.053169 kJ/mol
# GULP energy per Si atom -5580.378323 kJ/mol
# Density = 2.556923 g / cm^3
# Si number density = 25.627556 Si / 1000 Ang^3
#
#
#
# Elastic Constant Matrix: (Units=GPa)
#
#
# Indices 1 2 3 4 5 6 
#
# 1 121.2041 28.8088 27.0251 0.0001 0.0001 0.0001
# 2 28.8088 289.5929 20.6884 0.0026 -0.0002 0.0006
# 3 27.0251 20.6884 53.7802 0.0034 -0.0002 0.0004
# 4 0.0001 0.0026 0.0034 15.1629 -0.0002 0.0005
# 5 0.0001 -0.0002 -0.0002 -0.0002 11.6516 0.0000
# 6 0.0001 0.0006 0.0004 0.0005 0.0000 34.8996
#
#
#
# Elastic Compliance Matrix: (Units=1/GPa)
#
#
# Indices 1 2 3 4 5 6 
#
# 1 0.009397 -0.000614 -0.004486 0.000001 0.000000 0.000000
# 2 -0.000614 0.003591 -0.001073 0.000000 0.000000 0.000000
# 3 -0.004486 -0.001073 0.021261 -0.000005 0.000000 0.000000
# 4 0.000001 0.000000 -0.000005 0.065950 0.000001 -0.000001
# 5 0.000000 0.000000 0.000000 0.000001 0.085825 0.000000
# 6 0.000000 0.000000 0.000000 -0.000001 0.000000 0.028654
#
#
# Mechanical properties :
#
#
# Convention : Reuss Voigt Hill
#
# Bulk Modulus (GPa) = 45.65524 68.62464 57.13994
# Shear Modulus (GPa) = 21.33796 38.21314 29.77555
#
# Velocity S-wave (km/s) = 2.88864 3.86566 3.41230
# Velocity P-wave (km/s) = 5.38324 6.83815 6.15384
#
# Compressibility (1/GPa) = 0.02190329
#
# Stress axis : x y z
#
# Youngs Moduli (GPa) = 106.41992 278.48435 47.03469
#
# Poissons Ratio (x) = 0.17108 0.21098
# Poissons Ratio (y) = 0.06538 0.05045
# Poissons Ratio (z) = 0.47736 0.29871
#
# Static dielectric constant tensor:
#      x y z
#    x 2.038150 0.000000 0.000000 
#    y 0.000000 2.041750 0.000000 
#    z 0.000000 0.000000 1.925360 
# 
# From -- ./inp_files/477.got.cif
#   From: 2010.05.17/outbox.cif.g08.bks.cpg/sg44_1_cif.got.tgz:477.got - 2010.06.03 19:37:08.
