data_PCOD9375232
_publ_section_title
;
Structure prediction by ZEFSAII (Michael W. Deem and Ramdas Pophale) SiO2 
 PCOD9375232
Probable space group: I M M 2
;
_chemical_formula_sum "Si O2"
_cell_formula_units_Z 64
_cell_length_a 8.850469
_cell_length_b 14.817137
_cell_length_c 28.921914
_cell_angle_alpha 90.000000
_cell_angle_beta 90.000000
_cell_angle_gamma 90.000000
_cell_volume 3792.779649
_symmetry_space_group_name_H-M "I M M 2"
_symmetry_group_IT_number 44
_symmetry_cell_setting 'orthorhombic'
loop_
_space_group_symop_operation_xyz
x,y,z
-x,-y,z
-x,y,z
x,-y,z
1/2+x,1/2+y,1/2+z
1/2-x,1/2-y,1/2+z
1/2-x,1/2+y,1/2+z
1/2+x,1/2-y,1/2+z
loop_
_atom_site_type_symbol
_atom_site_label
_atom_site_fract_x
_atom_site_fract_y
_atom_site_fract_z
Si Si1 0.679961 0.394100 0.564780
Si Si2 0.817777 0.395557 0.395461
Si Si3 0.319700 0.103951 0.163932
Si Si4 0.819143 0.776566 0.975957
Si Si5 0.183846 0.397545 0.289350
Si Si6 0.819240 0.725259 0.204891
Si Si7 0.317925 0.395853 0.017296
Si Si8 0.180118 0.893263 0.623965
O O1 0.500000 0.382250 0.572229
O O2 0.706655 0.500000 0.554516
O O3 0.765043 0.371823 0.612134
O O4 0.727221 0.334022 0.521433
O O5 0.776700 0.500000 0.406131
O O6 0.745346 0.327185 0.431397
O O7 0.772134 0.377613 0.342214
O O8 0.000000 0.389453 0.398003
O O9 0.500000 0.108959 0.165752
O O10 0.248254 0.175532 0.198592
O O11 0.272992 0.000000 0.172298
O O12 0.756279 0.676448 0.983732
O O13 0.000000 0.775748 0.974040
O O14 0.232610 0.500000 0.277848
O O15 0.234252 0.326556 0.251003
O O16 0.000000 0.398084 0.288697
O O17 0.766863 0.666419 0.160926
O O18 0.000000 0.730207 0.205527
O O19 0.500000 0.389772 0.014778
O O20 0.276209 0.500000 0.007978
O O21 0.275084 0.375035 0.070734
O O22 0.000000 0.876546 0.627966
O O23 0.205301 0.000000 0.632330
#
# Coordination Sequence:
#
# PCOD9375232 Si02
#       8
#     8   8   8   8   8   8   8   8
#     4   9  18  32  48  69 100 133 162 195 238 288
#     4   9  18  34  55  75  97 128 163 197 235 284
#     4  10  21  35  49  67  95 131 169 207 243 282
#     4  11  21  31  48  75 103 128 157 199 249 295
#     4   8  16  32  52  75 101 126 156 195 236 282
#     4  11  20  30  50  76 100 128 162 201 244 289
#     4   9  19  35  51  67  93 132 173 207 236 274
#     4   9  18  32  49  72 103 134 164 199 237 281
#
# _framework density 16.874168000000001
#
# number of rings (size 3 to 8) (size 9 to 14) (size 15 to 20)
#    0.000    2.500    0.000    4.125    0.000    6.000 
#    0.000    3.750    0.000    2.250    0.000    1.750 
#    0.000    0.000    0.000    0.000    0.000    0.000 
#
# Total GULP energy -178566.373082 kJ/mol
# GULP energy per Si atom -5580.199159 kJ/mol
# Density = 1.683576 g / cm^3
# Si number density = 16.874168 Si / 1000 Ang^3
#
#
#
# Elastic Constant Matrix: (Units=GPa)
#
#
# Indices 1 2 3 4 5 6 
#
# 1 24.9338 39.6153 34.6089 0.0000 0.0000 0.0000
# 2 39.6153 117.6314 98.7763 0.0000 0.0000 0.0000
# 3 34.6089 98.7763 110.7403 0.0000 0.0000 0.0000
# 4 0.0000 0.0000 0.0000 33.1708 0.0000 0.0000
# 5 0.0000 0.0000 0.0000 0.0000 22.1796 0.0000
# 6 0.0000 0.0000 0.0000 0.0000 0.0000 24.9656
#
#
#
# Elastic Compliance Matrix: (Units=1/GPa)
#
#
# Indices 1 2 3 4 5 6 
#
# 1 0.086749 -0.025694 -0.004193 0.000000 0.000000 0.000000
# 2 -0.025694 0.041478 -0.028967 0.000000 0.000000 0.000000
# 3 -0.004193 -0.028967 0.036178 0.000000 0.000000 0.000000
# 4 0.000000 0.000000 0.000000 0.030147 0.000000 0.000000
# 5 0.000000 0.000000 0.000000 0.000000 0.045086 0.000000
# 6 0.000000 0.000000 0.000000 0.000000 0.000000 0.040055
#
#
# Mechanical properties :
#
#
# Convention : Reuss Voigt Hill
#
# Bulk Modulus (GPa) = 21.41444 66.58962 44.00203
# Shear Modulus (GPa) = 12.10746 21.41685 16.76215
#
# Velocity S-wave (km/s) = 2.68155 3.56646 3.15518
# Velocity P-wave (km/s) = 4.72291 7.51716 6.27748
#
# Compressibility (1/GPa) = 0.04669747
#
# Stress axis : x y z
#
# Youngs Moduli (GPa) = 11.52745 24.10901 27.64105
#
# Poissons Ratio (x) = 0.61946 0.11589
# Poissons Ratio (y) = 0.29619 0.80068
# Poissons Ratio (z) = 0.04833 0.69837
#
# Static dielectric constant tensor:
#      x y z
#    x 1.563920 0.000000 0.000000 
#    y 0.000000 1.575070 0.000000 
#    z 0.000000 0.000000 1.551070 
# 
# From -- ./inp_files/25115.got.cif
#   From: 2010.05.17/outbox.cif.g08.bks.cpg/sg44_13_cif.got.tgz:25115.got - 2010.06.03 19:37:08.
