data_PCOD9375677
_publ_section_title
;
Structure prediction by ZEFSAII (Michael W. Deem and Ramdas Pophale) SiO2 
 PCOD9375677
Probable space group: I M M 2
;
_chemical_formula_sum "Si O2"
_cell_formula_units_Z 56
_cell_length_a 21.909863
_cell_length_b 21.845703
_cell_length_c 5.191931
_cell_angle_alpha 90.000000
_cell_angle_beta 90.000000
_cell_angle_gamma 90.000000
_cell_volume 2485.046955
_symmetry_space_group_name_H-M "I M M 2"
_symmetry_group_IT_number 44
_symmetry_cell_setting 'orthorhombic'
loop_
_space_group_symop_operation_xyz
x,y,z
-x,-y,z
-x,y,z
x,-y,z
1/2+x,1/2+y,1/2+z
1/2-x,1/2-y,1/2+z
1/2-x,1/2+y,1/2+z
1/2+x,1/2-y,1/2+z
loop_
_atom_site_type_symbol
_atom_site_label
_atom_site_fract_x
_atom_site_fract_y
_atom_site_fract_z
Si Si1 0.253815 0.714488 0.862960
Si Si2 0.932853 0.891853 0.461455
Si Si3 0.858486 0.355924 0.607610
Si Si4 0.808379 0.068227 0.710068
Si Si5 0.431729 0.740828 0.239376
Si Si6 0.830284 0.571348 0.087946
Si Si7 0.358239 0.662708 0.592873
O O1 0.260187 0.770427 0.657673
O O2 0.201788 0.677376 0.717037
O O3 0.318588 0.681167 0.839373
O O4 0.873421 0.927536 0.562315
O O5 0.934003 0.822802 0.579511
O O6 0.916632 0.878281 0.164007
O O7 0.000000 0.918846 0.498906
O O8 0.908317 0.301550 0.597286
O O9 0.848266 0.388686 0.336474
O O10 0.866372 0.405345 0.836565
O O11 0.744262 0.076047 0.559147
O O12 0.804522 0.000000 0.828073
O O13 0.814827 0.121505 0.918786
O O14 0.500000 0.751191 0.340955
O O15 0.382846 0.723378 0.457877
O O16 0.842807 0.500000 0.134647
#
# Coordination Sequence:
#
# PCOD9375677 Si02
#       7
#     8   8   8   8   8   8   8
#     4  12  23  35  59  96 137 166 207 266 324 386
#     4  10  22  40  59  86 124 168 213 263 315 371
#     4  12  23  41  67  96 130 171 212 260 325 390
#     4  10  23  40  59  86 122 167 216 265 317 375
#     4  10  23  40  62  93 129 166 205 255 316 388
#     4  11  25  44  67  97 130 166 213 271 327 380
#     4  11  21  36  60  86 127 165 209 262 319 373
#
# _framework density 22.534783999999998
#
# number of rings (size 3 to 8) (size 9 to 14) (size 15 to 20)
#    0.000    1.143    2.857    3.429    4.000    1.429 
#    0.000    0.000    0.000    2.571    0.000    0.000 
#    0.000    0.000    0.000    0.000    0.000    0.000 
#
# Total GULP energy -156360.831047 kJ/mol
# GULP energy per Si atom -5584.315395 kJ/mol
# Density = 2.248349 g / cm^3
# Si number density = 22.534784 Si / 1000 Ang^3
#
#
#
# Elastic Constant Matrix: (Units=GPa)
#
#
# Indices 1 2 3 4 5 6 
#
# 1 66.7696 33.8234 2.1197 0.0000 0.0000 0.0000
# 2 33.8234 103.3083 26.4253 0.0000 0.0000 0.0000
# 3 2.1197 26.4253 63.7549 0.0000 0.0000 0.0000
# 4 0.0000 0.0000 0.0000 19.7024 0.0000 0.0000
# 5 0.0000 0.0000 0.0000 0.0000 22.7470 0.0000
# 6 0.0000 0.0000 0.0000 0.0000 0.0000 24.0930
#
#
#
# Elastic Compliance Matrix: (Units=1/GPa)
#
#
# Indices 1 2 3 4 5 6 
#
# 1 0.018199 -0.006492 0.002086 0.000000 0.000000 0.000000
# 2 -0.006492 0.013144 -0.005232 0.000000 0.000000 0.000000
# 3 0.002086 -0.005232 0.017784 0.000000 0.000000 0.000000
# 4 0.000000 0.000000 0.000000 0.050755 0.000000 0.000000
# 5 0.000000 0.000000 0.000000 0.000000 0.043962 0.000000
# 6 0.000000 0.000000 0.000000 0.000000 0.000000 0.041506
#
#
# Mechanical properties :
#
#
# Convention : Reuss Voigt Hill
#
# Bulk Modulus (GPa) = 33.50001 39.84106 36.67054
# Shear Modulus (GPa) = 23.30169 24.73944 24.02056
#
# Velocity S-wave (km/s) = 3.21913 3.31695 3.26840
# Velocity P-wave (km/s) = 5.35866 5.69102 5.52734
#
# Compressibility (1/GPa) = 0.02985074
#
# Stress axis : x y z
#
# Youngs Moduli (GPa) = 54.94716 76.08292 56.22941
#
# Poissons Ratio (x) = 0.49393 -0.11728
# Poissons Ratio (y) = 0.35672 0.29419
# Poissons Ratio (z) = -0.11461 0.39806
#
# Static dielectric constant tensor:
#      x y z
#    x 1.823960 0.000000 0.000000 
#    y 0.000000 1.913210 0.000000 
#    z 0.000000 0.000000 1.903290 
# 
# From -- ./inp_files/2444.got.cif
#   From: 2010.05.17/outbox.cif.g08.bks.cpg/sg44_2_cif.got.tgz:2444.got - 2010.06.03 19:37:08.
