data_PCOD9375069
_publ_section_title
;
Structure prediction by ZEFSAII (Michael W. Deem and Ramdas Pophale) SiO2 
 PCOD9375069
Probable space group: I M M 2
;
_chemical_formula_sum "Si O2"
_cell_formula_units_Z 64
_cell_length_a 8.829621
_cell_length_b 29.668655
_cell_length_c 12.985843
_cell_angle_alpha 90.000000
_cell_angle_beta 90.000000
_cell_angle_gamma 90.000000
_cell_volume 3401.810120
_symmetry_space_group_name_H-M "I M M 2"
_symmetry_group_IT_number 44
_symmetry_cell_setting 'orthorhombic'
loop_
_space_group_symop_operation_xyz
x,y,z
-x,-y,z
-x,y,z
x,-y,z
1/2+x,1/2+y,1/2+z
1/2-x,1/2-y,1/2+z
1/2-x,1/2+y,1/2+z
1/2+x,1/2-y,1/2+z
loop_
_atom_site_type_symbol
_atom_site_label
_atom_site_fract_x
_atom_site_fract_y
_atom_site_fract_z
Si Si1 0.822500 0.554054 0.081990
Si Si2 0.326033 0.744988 0.710232
Si Si3 0.180648 0.946683 0.800931
Si Si4 0.325012 0.217371 0.934864
Si Si5 0.681282 0.145946 0.200063
Si Si6 0.317196 0.881958 0.970601
Si Si7 0.681940 0.382392 0.916577
Si Si8 0.182607 0.201088 0.560382
O O1 0.807653 0.500000 0.077720
O O2 0.751675 0.568973 0.191641
O O3 0.000000 0.565783 0.079987
O O4 0.740645 0.575814 0.983772
O O5 0.500000 0.741035 0.676378
O O6 0.327563 0.753550 0.832378
O O7 0.240279 0.697563 0.693503
O O8 0.251507 0.792196 0.672002
O O9 0.243267 0.919597 0.898773
O O10 0.000000 0.941699 0.794440
O O11 0.216150 0.000000 0.811772
O O12 0.500000 0.210725 0.968489
O O13 0.264073 0.167196 0.929412
O O14 0.254572 0.251545 0.015857
O O15 0.500000 0.146950 0.208854
O O16 0.750477 0.123529 0.302663
O O17 0.719036 0.120159 0.092970
O O18 0.500000 0.886245 0.960654
O O19 0.500000 0.382883 0.909180
O O20 0.728086 0.339538 0.987568
O O21 0.000000 0.201077 0.564177
#
# Coordination Sequence:
#
# PCOD9375069 Si02
#       8
#     8   8   8   8   8   8   8   8
#     4  10  22  42  67  92 119 152 191 237 292 356
#     4  11  21  34  53  79 113 155 198 245 292 341
#     4  10  22  41  64  91 121 149 184 238 299 354
#     4   9  18  35  53  75 112 153 192 235 283 336
#     4  11  22  38  59  83 117 161 203 245 294 350
#     4  10  21  38  60  84 114 156 200 242 289 345
#     4  11  23  39  61  88 120 157 198 247 298 350
#     4  10  20  37  54  76 114 155 193 236 287 344
#
# _framework density 18.813511999999999
#
# number of rings (size 3 to 8) (size 9 to 14) (size 15 to 20)
#    0.000    1.750    2.500    1.875    1.750    3.500 
#    0.000    1.250    0.000    0.750    0.000    0.000 
#    0.000    0.000    0.000    0.000    0.000    0.000 
#
# Total GULP energy -178360.461068 kJ/mol
# GULP energy per Si atom -5573.764408 kJ/mol
# Density = 1.877069 g / cm^3
# Si number density = 18.813512 Si / 1000 Ang^3
#
#
#
# Elastic Constant Matrix: (Units=GPa)
#
#
# Indices 1 2 3 4 5 6 
#
# 1 59.7616 31.9576 47.0121 -0.0001 0.0000 0.0000
# 2 31.9576 48.0666 33.4407 -0.0002 0.0000 0.0000
# 3 47.0121 33.4407 102.6832 -0.0005 0.0000 -0.0002
# 4 -0.0001 -0.0002 -0.0005 35.3606 0.0000 0.0000
# 5 0.0000 0.0000 0.0000 0.0000 29.0326 0.0000
# 6 0.0000 0.0000 -0.0002 0.0000 0.0000 16.3268
#
#
#
# Elastic Compliance Matrix: (Units=1/GPa)
#
#
# Indices 1 2 3 4 5 6 
#
# 1 0.032485 -0.014547 -0.010136 0.000000 0.000000 0.000000
# 2 -0.014547 0.033413 -0.004222 0.000000 0.000000 0.000000
# 3 -0.010136 -0.004222 0.015754 0.000000 0.000000 0.000000
# 4 0.000000 0.000000 0.000000 0.028280 0.000000 0.000000
# 5 0.000000 0.000000 0.000000 0.000000 0.034444 0.000000
# 6 0.000000 0.000000 0.000000 0.000000 0.000000 0.061249
#
#
# Mechanical properties :
#
#
# Convention : Reuss Voigt Hill
#
# Bulk Modulus (GPa) = 41.93823 48.37024 45.15424
# Shear Modulus (GPa) = 18.42425 22.68407 20.55416
#
# Velocity S-wave (km/s) = 3.13279 3.47613 3.30892
# Velocity P-wave (km/s) = 5.95195 6.47128 6.21704
#
# Compressibility (1/GPa) = 0.02384459
#
# Stress axis : x y z
#
# Youngs Moduli (GPa) = 30.78313 29.92842 63.47623
#
# Poissons Ratio (x) = 0.43536 0.64337
# Poissons Ratio (y) = 0.44780 0.26797
# Poissons Ratio (z) = 0.31200 0.12634
#
# Static dielectric constant tensor:
#      x y z
#    x 1.668430 0.000000 0.000000 
#    y 0.000000 1.659710 0.000000 
#    z 0.000000 0.000000 1.687870 
# 
# From -- ./inp_files/11433.got.cif
#   From: 2010.05.17/outbox.cif.g08.bks.cpg/sg44_6_cif.got.tgz:11433.got - 2010.06.03 19:37:08.
