data_PCOD9375024
_publ_section_title
;
Structure prediction by ZEFSAII (Michael W. Deem and Ramdas Pophale) SiO2 
 PCOD9375024
Probable space group: I M M 2
;
_chemical_formula_sum "Si O2"
_cell_formula_units_Z 40
_cell_length_a 9.102999
_cell_length_b 7.632835
_cell_length_c 30.727701
_cell_angle_alpha 90.000000
_cell_angle_beta 90.000000
_cell_angle_gamma 90.000000
_cell_volume 2135.012576
_symmetry_space_group_name_H-M "I M M 2"
_symmetry_group_IT_number 44
_symmetry_cell_setting 'orthorhombic'
loop_
_space_group_symop_operation_xyz
x,y,z
-x,-y,z
-x,y,z
x,-y,z
1/2+x,1/2+y,1/2+z
1/2-x,1/2-y,1/2+z
1/2-x,1/2+y,1/2+z
1/2+x,1/2-y,1/2+z
loop_
_atom_site_type_symbol
_atom_site_label
_atom_site_fract_x
_atom_site_fract_y
_atom_site_fract_z
Si Si1 0.822058 0.707970 0.819150
Si Si2 0.677876 0.500000 0.472564
Si Si3 0.665052 0.209838 0.634829
Si Si4 0.820983 0.298773 0.040577
Si Si5 0.176304 0.500000 0.378339
Si Si6 0.165166 0.710103 0.722582
O O1 0.792195 0.500000 0.825060
O O2 0.741132 0.830345 0.853406
O O3 0.776328 0.764115 0.770005
O O4 0.000000 0.729400 0.821843
O O5 0.500000 0.500000 0.465864
O O6 0.717065 0.330888 0.501749
O O7 0.760630 0.500000 0.427094
O O8 0.500000 0.280916 0.638788
O O9 0.730343 0.267356 0.588275
O O10 0.748136 0.246898 0.679192
O O11 0.656578 0.000000 0.630389
O O12 0.774083 0.500000 0.033303
O O13 0.000000 0.299715 0.043480
O O14 0.000000 0.500000 0.377657
O O15 0.157272 0.500000 0.725386
O O16 0.000000 0.779806 0.718309
#
# Coordination Sequence:
#
# PCOD9375024 Si02
#       6
#     8   4   8   8   4   8
#     4   9  20  41  64  83 110 152 201 244 280 336
#     4  10  20  36  60  82 102 144 200 238 281 336
#     4   9  18  31  49  78 113 145 180 222 272 325
#     4   8  16  32  53  79 109 140 183 236 274 318
#     4  12  26  40  58  88 122 150 184 240 311 362
#     4   9  19  34  52  78 109 143 184 228 273 324
#
# _framework density 18.735251999999999
#
# number of rings (size 3 to 8) (size 9 to 14) (size 15 to 20)
#    0.000    2.800    0.000    3.300    2.800    2.800 
#    0.000    5.000    0.000    1.200    0.000    0.000 
#    0.000    0.000    0.000    0.000    0.000    0.000 
#
# Total GULP energy -111478.332320 kJ/mol
# GULP energy per Si atom -5573.916616 kJ/mol
# Density = 1.869261 g / cm^3
# Si number density = 18.735252 Si / 1000 Ang^3
#
#
#
# Elastic Constant Matrix: (Units=GPa)
#
#
# Indices 1 2 3 4 5 6 
#
# 1 47.1435 35.1627 71.6400 0.0000 0.0000 0.0000
# 2 35.1627 90.7680 80.7602 0.0000 0.0000 0.0000
# 3 71.6400 80.7602 223.0598 0.0000 0.0000 0.0000
# 4 0.0000 0.0000 0.0000 36.6753 0.0000 0.0000
# 5 0.0000 0.0000 0.0000 0.0000 29.8986 0.0000
# 6 0.0000 0.0000 0.0000 0.0000 0.0000 17.6664
#
#
#
# Elastic Compliance Matrix: (Units=1/GPa)
#
#
# Indices 1 2 3 4 5 6 
#
# 1 0.043953 -0.006590 -0.011730 0.000000 0.000000 0.000000
# 2 -0.006590 0.017241 -0.004126 0.000000 0.000000 0.000000
# 3 -0.011730 -0.004126 0.009744 0.000000 0.000000 0.000000
# 4 0.000000 0.000000 0.000000 0.027266 0.000000 0.000000
# 5 0.000000 0.000000 0.000000 0.000000 0.033446 0.000000
# 6 0.000000 0.000000 0.000000 0.000000 0.000000 0.056604
#
#
# Mechanical properties :
#
#
# Convention : Reuss Voigt Hill
#
# Bulk Modulus (GPa) = 38.39379 81.78856 60.09117
# Shear Modulus (GPa) = 20.67582 28.40862 24.54222
#
# Velocity S-wave (km/s) = 3.32562 3.89822 3.62325
# Velocity P-wave (km/s) = 5.94000 8.00070 7.04609
#
# Compressibility (1/GPa) = 0.02604588
#
# Stress axis : x y z
#
# Youngs Moduli (GPa) = 22.75181 58.00223 102.62471
#
# Poissons Ratio (x) = 0.38223 1.20382
# Poissons Ratio (y) = 0.14993 0.42339
# Poissons Ratio (z) = 0.26689 0.23930
#
# Static dielectric constant tensor:
#      x y z
#    x 1.650300 0.000000 0.000000 
#    y 0.000000 1.664800 0.000000 
#    z 0.000000 0.000000 1.663720 
# 
# From -- ./inp_files/25940.got.cif
#   From: 2010.05.17/outbox.cif.g08.bks.cpg/sg44_13_cif.got.tgz:25940.got - 2010.06.03 19:37:08.
