data_PCOD9375300
_publ_section_title
;
Structure prediction by ZEFSAII (Michael W. Deem and Ramdas Pophale) SiO2 
 PCOD9375300
Probable space group: I M M 2
;
_chemical_formula_sum "Si O2"
_cell_formula_units_Z 56
_cell_length_a 17.312226
_cell_length_b 7.961205
_cell_length_c 20.585280
_cell_angle_alpha 90.000000
_cell_angle_beta 90.000000
_cell_angle_gamma 90.000000
_cell_volume 2837.190511
_symmetry_space_group_name_H-M "I M M 2"
_symmetry_group_IT_number 44
_symmetry_cell_setting 'orthorhombic'
loop_
_space_group_symop_operation_xyz
x,y,z
-x,-y,z
-x,y,z
x,-y,z
1/2+x,1/2+y,1/2+z
1/2-x,1/2-y,1/2+z
1/2-x,1/2+y,1/2+z
1/2+x,1/2-y,1/2+z
loop_
_atom_site_type_symbol
_atom_site_label
_atom_site_fract_x
_atom_site_fract_y
_atom_site_fract_z
Si Si1 0.914202 0.701344 0.998400
Si Si2 0.663679 0.305951 0.303035
Si Si3 0.500000 0.794339 0.106477
Si Si4 0.251000 0.804804 0.177182
Si Si5 0.584585 0.201223 0.653194
Si Si6 0.738877 0.694613 0.428868
Si Si7 0.836105 0.705418 0.547455
Si Si8 0.000000 0.303444 0.755814
O O1 0.905637 0.500000 0.988412
O O2 0.843235 0.794364 0.965777
O O3 0.000000 0.749825 0.974598
O O4 0.912549 0.731706 0.075698
O O5 0.654853 0.500000 0.320391
O O6 0.704882 0.288890 0.234002
O O7 0.718171 0.227485 0.358910
O O8 0.577560 0.238054 0.294602
O O9 0.578044 0.743139 0.069096
O O10 0.500000 0.731774 0.181618
O O11 0.500000 0.000000 0.107572
O O12 0.159575 0.784076 0.183413
O O13 0.278956 0.744664 0.106303
O O14 0.273320 0.000000 0.182402
O O15 0.500000 0.257369 0.676578
O O16 0.589655 0.000000 0.662344
O O17 0.761837 0.500000 0.418950
O O18 0.802039 0.767778 0.478873
O O19 0.834909 0.500000 0.544988
O O20 0.000000 0.500000 0.745544
#
# Coordination Sequence:
#
# PCOD9375300 Si02
#       8
#     8   8   4   8   8   8   8   4
#     4   9  18  31  48  75 107 138 173 212 261 320
#     4  11  24  38  53  78 119 157 186 230 293 355
#     4   9  16  31  59  87 107 128 175 246 296 326
#     4  11  20  34  58  83 108 142 188 238 285 337
#     4   9  18  33  53  79 111 142 176 224 281 334
#     4  10  21  36  53  76 109 148 188 227 274 336
#     4   9  17  32  55  83 107 135 182 238 285 331
#     4  11  21  37  59  87 117 150 195 238 286 354
#
# _framework density 19.737833999999999
#
# number of rings (size 3 to 8) (size 9 to 14) (size 15 to 20)
#    0.000    2.143    2.857    1.929    1.000    1.714 
#    0.000    1.429    1.571    0.000    0.000    0.000 
#    0.000    0.000    0.000    0.000    0.000    0.000 
#
# Total GULP energy -156186.540958 kJ/mol
# GULP energy per Si atom -5578.090749 kJ/mol
# Density = 1.969291 g / cm^3
# Si number density = 19.737834 Si / 1000 Ang^3
#
#
#
# Elastic Constant Matrix: (Units=GPa)
#
#
# Indices 1 2 3 4 5 6 
#
# 1 111.4481 3.1868 41.8720 0.0000 0.0000 0.0000
# 2 3.1868 13.0223 9.3481 0.0000 0.0000 0.0000
# 3 41.8720 9.3481 98.0197 0.0000 0.0000 0.0000
# 4 0.0000 0.0000 0.0000 15.2184 0.0000 0.0000
# 5 0.0000 0.0000 0.0000 0.0000 3.7031 0.0000
# 6 0.0000 0.0000 0.0000 0.0000 0.0000 19.9943
#
#
#
# Elastic Compliance Matrix: (Units=1/GPa)
#
#
# Indices 1 2 3 4 5 6 
#
# 1 0.010694 0.000711 -0.004636 0.000000 0.000000 0.000000
# 2 0.000711 0.082482 -0.008170 0.000000 0.000000 0.000000
# 3 -0.004636 -0.008170 0.012962 0.000000 0.000000 0.000000
# 4 0.000000 0.000000 0.000000 0.065710 0.000000 0.000000
# 5 0.000000 0.000000 0.000000 0.000000 0.270045 0.000000
# 6 0.000000 0.000000 0.000000 0.000000 0.000000 0.050014
#
#
# Mechanical properties :
#
#
# Convention : Reuss Voigt Hill
#
# Bulk Modulus (GPa) = 12.20287 36.81153 24.50720
# Shear Modulus (GPa) = 9.20108 18.98871 14.09490
#
# Velocity S-wave (km/s) = 2.16143 3.10505 2.67517
# Velocity P-wave (km/s) = 3.52490 5.61657 4.68886
#
# Compressibility (1/GPa) = 0.08194795
#
# Stress axis : x y z
#
# Youngs Moduli (GPa) = 93.50761 12.12380 77.15040
#
# Poissons Ratio (x) = -0.00862 0.35768
# Poissons Ratio (y) = -0.06649 0.63032
# Poissons Ratio (z) = 0.43352 0.09905
#
# Static dielectric constant tensor:
#      x y z
#    x 1.696130 0.000000 0.000000 
#    y 0.000000 1.728840 0.000000 
#    z 0.000000 0.000000 1.720450 
# 
# From -- ./inp_files/24165.got.cif
#   From: 2010.05.17/outbox.cif.g08.bks.cpg/sg44_13_cif.got.tgz:24165.got - 2010.06.03 19:37:08.
