data_PCOD9375524
_publ_section_title
;
Structure prediction by ZEFSAII (Michael W. Deem and Ramdas Pophale) SiO2 
 PCOD9375524
Probable space group: I M M 2
;
_chemical_formula_sum "Si O2"
_cell_formula_units_Z 48
_cell_length_a 12.590186
_cell_length_b 19.053132
_cell_length_c 10.040384
_cell_angle_alpha 90.000000
_cell_angle_beta 90.000000
_cell_angle_gamma 90.000000
_cell_volume 2408.512172
_symmetry_space_group_name_H-M "I M M 2"
_symmetry_group_IT_number 44
_symmetry_cell_setting 'orthorhombic'
loop_
_space_group_symop_operation_xyz
x,y,z
-x,-y,z
-x,y,z
x,-y,z
1/2+x,1/2+y,1/2+z
1/2-x,1/2-y,1/2+z
1/2-x,1/2+y,1/2+z
1/2+x,1/2-y,1/2+z
loop_
_atom_site_type_symbol
_atom_site_label
_atom_site_fract_x
_atom_site_fract_y
_atom_site_fract_z
Si Si1 0.379639 0.675186 0.426010
Si Si2 0.153975 0.333351 0.527407
Si Si3 0.846025 0.666649 0.827602
Si Si4 0.120361 0.824814 0.428998
Si Si5 0.000000 0.584313 0.335694
Si Si6 0.872584 0.922530 0.677504
Si Si7 0.000000 0.584313 0.019315
O O1 0.500000 0.660835 0.473402
O O2 0.281859 0.666558 0.524797
O O3 0.377689 0.753965 0.367509
O O4 0.349763 0.622437 0.307191
O O5 0.118967 0.349909 0.677504
O O6 0.122311 0.253965 0.487500
O O7 0.099825 0.383156 0.417039
O O8 0.718141 0.666558 0.830212
O O9 0.900175 0.616844 0.937970
O O10 0.150236 0.877563 0.547816
O O11 0.000000 0.839164 0.381605
O O12 0.000000 0.500000 0.343313
O O13 0.000000 0.603939 0.177505
O O14 0.000000 0.929518 0.677505
O O15 0.823665 0.000000 0.677505
O O16 0.000000 0.500000 0.011697
#
# Coordination Sequence:
#
# PCOD9375524 Si02
#       7
#     8   8   8   8   4   8   4
#     4  10  21  38  62  94 134 170 217 267 324 387
#     4  11  23  40  66  96 131 174 219 272 328 387
#     4  11  23  40  66  96 131 174 219 272 328 387
#     4  10  21  38  62  94 134 170 217 267 324 387
#     4  11  27  47  67  95 131 174 222 272 329 397
#     4   9  18  34  60  89 121 167 211 257 314 378
#     4  11  27  47  67  95 131 174 222 272 329 397
#
# _framework density 19.929317000000001
#
# number of rings (size 3 to 8) (size 9 to 14) (size 15 to 20)
#    0.000    1.667    3.333    0.500    2.333    4.667 
#    0.000    0.000    0.000    0.000    0.000    7.000 
#    0.000    0.000    0.000    0.000    0.000    0.000 
#
# Total GULP energy -133873.763734 kJ/mol
# GULP energy per Si atom -5578.073489 kJ/mol
# Density = 1.988396 g / cm^3
# Si number density = 19.929317 Si / 1000 Ang^3
#
#
#
# Elastic Constant Matrix: (Units=GPa)
#
#
# Indices 1 2 3 4 5 6 
#
# 1 161.2787 18.2060 56.2293 0.0000 0.0000 0.0000
# 2 18.2060 127.1741 56.9025 0.0000 0.0000 0.0000
# 3 56.2293 56.9025 149.9932 0.0000 0.0000 0.0000
# 4 0.0000 0.0000 0.0000 29.3430 0.0000 0.0000
# 5 0.0000 0.0000 0.0000 0.0000 23.2998 0.0000
# 6 0.0000 0.0000 0.0000 0.0000 0.0000 -17.8232
#
#
#
# Elastic Compliance Matrix: (Units=1/GPa)
#
#
# Indices 1 2 3 4 5 6 
#
# 1 0.007137 0.000211 -0.002756 0.000000 0.000000 0.000000
# 2 0.000211 0.009477 -0.003675 0.000000 0.000000 0.000000
# 3 -0.002756 -0.003675 0.009094 0.000000 0.000000 0.000000
# 4 0.000000 0.000000 0.000000 0.034080 0.000000 0.000000
# 5 0.000000 0.000000 0.000000 0.000000 0.042919 0.000000
# 6 0.000000 0.000000 0.000000 0.000000 0.000000 -0.056107
#
#
# Mechanical properties :
#
#
# Convention : Reuss Voigt Hill
#
# Bulk Modulus (GPa) = 75.35524 77.90238 76.62881
# Shear Modulus (GPa) = 78.78745 27.43781 53.11263
#
# Velocity S-wave (km/s) = 6.29438 3.71449 5.16801
# Velocity P-wave (km/s) = 9.52465 7.58754 8.61074
#
# Compressibility (1/GPa) = 0.01327048
#
# Stress axis : x y z
#
# Youngs Moduli (GPa) = 140.10698 105.51750 109.96204
#
# Poissons Ratio (x) = -0.02229 0.30303
# Poissons Ratio (y) = -0.02960 0.40406
# Poissons Ratio (z) = 0.38611 0.38772
#
# Static dielectric constant tensor:
#      x y z
#    x 1.748470 0.000000 0.000000 
#    y 0.000000 1.685380 0.000000 
#    z 0.000000 0.000000 1.675860 
# 
# From -- ./inp_files/7156.got.cif
#   From: 2010.05.17/outbox.cif.g08.bks.cpg/sg44_4_cif.got.tgz:7156.got - 2010.06.03 19:37:08.
