data_PCOD9375652
_publ_section_title
;
Structure prediction by ZEFSAII (Michael W. Deem and Ramdas Pophale) SiO2 
 PCOD9375652
Probable space group: I M M 2
;
_chemical_formula_sum "Si O2"
_cell_formula_units_Z 56
_cell_length_a 10.785864
_cell_length_b 13.740389
_cell_length_c 18.573469
_cell_angle_alpha 90.000000
_cell_angle_beta 90.000000
_cell_angle_gamma 90.000000
_cell_volume 2752.624641
_symmetry_space_group_name_H-M "I M M 2"
_symmetry_group_IT_number 44
_symmetry_cell_setting 'orthorhombic'
loop_
_space_group_symop_operation_xyz
x,y,z
-x,-y,z
-x,y,z
x,-y,z
1/2+x,1/2+y,1/2+z
1/2-x,1/2-y,1/2+z
1/2-x,1/2+y,1/2+z
1/2+x,1/2-y,1/2+z
loop_
_atom_site_type_symbol
_atom_site_label
_atom_site_fract_x
_atom_site_fract_y
_atom_site_fract_z
Si Si1 0.648392 0.888092 0.994940
Si Si2 0.140408 0.381690 0.657852
Si Si3 0.136670 0.885876 0.266108
Si Si4 0.859592 0.118310 0.577372
Si Si5 0.863330 0.385876 0.969116
Si Si6 0.750000 0.743995 0.367612
Si Si7 0.648392 0.611908 0.240284
O O1 0.500000 0.889665 0.987547
O O2 0.704449 0.823538 0.932284
O O3 0.693167 0.000000 0.989457
O O4 0.672210 0.851070 0.076241
O O5 0.133963 0.500000 0.654650
O O6 0.249511 0.360266 0.713573
O O7 0.000000 0.348287 0.677180
O O8 0.148005 0.816922 0.335054
O O9 0.000000 0.873508 0.232580
O O10 0.148977 0.000000 0.285613
O O11 0.750489 0.139734 0.521651
O O12 0.827790 0.148930 0.658983
O O13 0.000000 0.151713 0.558044
O O14 0.866037 0.000000 0.580574
O O15 0.851021 0.500000 0.949610
O O16 0.000000 0.373510 0.002644
O O17 0.851995 0.316921 0.900170
O O18 0.704450 0.676461 0.302940
O O19 0.500000 0.610336 0.247678
O O20 0.693166 0.500000 0.245767
#
# Coordination Sequence:
#
# PCOD9375652 Si02
#       7
#     8   8   8   8   8   8   8
#     4   9  19  37  59  83 111 144 186 233 279 332
#     4   8  16  35  62  84 104 140 189 235 278 327
#     4  10  22  39  57  81 115 151 188 232 279 328
#     4   8  16  35  62  84 104 140 189 235 278 327
#     4  10  22  39  57  81 115 151 188 232 279 328
#     4  12  22  34  54  84 116 152 186 224 276 338
#     4   9  19  37  59  83 111 144 186 233 279 332
#
# _framework density 20.344218999999999
#
# number of rings (size 3 to 8) (size 9 to 14) (size 15 to 20)
#    0.000    2.571    0.000    3.429    0.000    3.429 
#    0.000   10.000    0.000    6.857    0.000    0.000 
#    0.000    0.000    0.000    0.000    0.000    0.000 
#
# Total GULP energy -156326.280673 kJ/mol
# GULP energy per Si atom -5583.081453 kJ/mol
# Density = 2.029791 g / cm^3
# Si number density = 20.344219 Si / 1000 Ang^3
#
#
#
# Elastic Constant Matrix: (Units=GPa)
#
#
# Indices 1 2 3 4 5 6 
#
# 1 105.4530 43.5214 59.5641 0.0000 0.0000 0.0000
# 2 43.5214 104.6447 54.1112 0.0000 0.0000 0.0000
# 3 59.5641 54.1112 91.3273 0.0000 0.0000 0.0000
# 4 0.0000 0.0000 0.0000 43.8303 0.0000 0.0000
# 5 0.0000 0.0000 0.0000 0.0000 29.5132 0.0000
# 6 0.0000 0.0000 0.0000 0.0000 0.0000 -8.1512
#
#
#
# Elastic Compliance Matrix: (Units=1/GPa)
#
#
# Indices 1 2 3 4 5 6 
#
# 1 0.015227 -0.001727 -0.008908 0.000000 0.000000 0.000000
# 2 -0.001727 0.013973 -0.007153 0.000000 0.000000 0.000000
# 3 -0.008908 -0.007153 0.020998 0.000000 0.000000 0.000000
# 4 0.000000 0.000000 0.000000 0.022815 0.000000 0.000000
# 5 0.000000 0.000000 0.000000 0.000000 0.033883 0.000000
# 6 0.000000 0.000000 0.000000 0.000000 0.000000 -0.122681
#
#
# Mechanical properties :
#
#
# Convention : Reuss Voigt Hill
#
# Bulk Modulus (GPa) = 68.38793 68.42427 68.40610
# Shear Modulus (GPa) = 202.71831 22.65368 112.68600
#
# Velocity S-wave (km/s) = 9.99302 3.34056 7.45050
# Velocity P-wave (km/s) = 12.91649 6.97033 10.37837
#
# Compressibility (1/GPa) = 0.01462246
#
# Stress axis : x y z
#
# Youngs Moduli (GPa) = 65.67185 71.56702 47.62415
#
# Poissons Ratio (x) = 0.12356 0.42425
# Poissons Ratio (y) = 0.11338 0.34065
# Poissons Ratio (z) = 0.58503 0.51191
#
# Static dielectric constant tensor:
#      x y z
#    x 1.697820 0.000000 0.000000 
#    y 0.000000 1.787910 0.000000 
#    z 0.000000 0.000000 1.709890 
# 
# From -- ./inp_files/23076.got.cif
#   From: 2010.05.17/outbox.cif.g08.bks.cpg/sg44_12_cif.got.tgz:23076.got - 2010.06.03 19:37:08.
