data_PCOD9375700
_publ_section_title
;
Structure prediction by ZEFSAII (Michael W. Deem and Ramdas Pophale) SiO2 
 PCOD9375700
Probable space group: I M M 2
;
_chemical_formula_sum "Si O2"
_cell_formula_units_Z 48
_cell_length_a 26.187437
_cell_length_b 14.921531
_cell_length_c 6.450021
_cell_angle_alpha 90.000000
_cell_angle_beta 90.000000
_cell_angle_gamma 90.000000
_cell_volume 2520.388618
_symmetry_space_group_name_H-M "I M M 2"
_symmetry_group_IT_number 44
_symmetry_cell_setting 'orthorhombic'
loop_
_space_group_symop_operation_xyz
x,y,z
-x,-y,z
-x,y,z
x,-y,z
1/2+x,1/2+y,1/2+z
1/2-x,1/2-y,1/2+z
1/2-x,1/2+y,1/2+z
1/2+x,1/2-y,1/2+z
loop_
_atom_site_type_symbol
_atom_site_label
_atom_site_fract_x
_atom_site_fract_y
_atom_site_fract_z
Si Si1 0.361233 0.401219 0.879320
Si Si2 0.060296 0.105100 0.741471
Si Si3 0.847667 0.397261 0.264230
Si Si4 0.253818 0.636275 0.013512
Si Si5 0.625420 0.732661 0.513488
Si Si6 0.195690 0.310020 0.654902
O O1 0.370630 0.500000 0.791387
O O2 0.353208 0.329701 0.697981
O O3 0.407915 0.377270 0.030715
O O4 0.309891 0.404416 0.016741
O O5 0.000000 0.113938 0.708553
O O6 0.070685 0.000000 0.796817
O O7 0.079712 0.175316 0.913633
O O8 0.864616 0.500000 0.260586
O O9 0.789456 0.392622 0.173910
O O10 0.881042 0.329542 0.123659
O O11 0.841733 0.357223 0.493874
O O12 0.266232 0.741744 0.041151
O O13 0.228989 0.621118 0.788452
O O14 0.663810 0.753935 0.325036
#
# Coordination Sequence:
#
# PCOD9375700 Si02
#       6
#     8   8   8   8   8   8
#     4  11  22  36  57  86 119 160 200 243 301 365
#     4  10  22  40  63  94 127 157 196 248 308 372
#     4  11  24  37  55  84 120 163 210 258 300 352
#     4  11  19  35  53  81 113 160 204 243 293 353
#     4  11  21  39  60  83 118 159 201 249 301 362
#     4  11  20  35  56  76 117 159 204 249 296 351
#
# _framework density 19.044681000000001
#
# number of rings (size 3 to 8) (size 9 to 14) (size 15 to 20)
#    0.000    1.167    5.000    2.000    0.000    4.000 
#    0.000    1.667    0.000    0.500    0.000    0.000 
#    0.000    0.000    0.000    0.000    0.000    0.000 
#
# Total GULP energy -133845.143410 kJ/mol
# GULP energy per Si atom -5576.880975 kJ/mol
# Density = 1.900133 g / cm^3
# Si number density = 19.044681 Si / 1000 Ang^3
#
#
#
# Elastic Constant Matrix: (Units=GPa)
#
#
# Indices 1 2 3 4 5 6 
#
# 1 86.2100 23.5976 32.5989 0.0000 0.0000 0.0000
# 2 23.5976 126.9038 51.6080 0.0000 0.0000 0.0000
# 3 32.5989 51.6080 90.8825 0.0000 0.0000 0.0000
# 4 0.0000 0.0000 0.0000 18.7366 0.0000 0.0000
# 5 0.0000 0.0000 0.0000 0.0000 24.9413 0.0000
# 6 0.0000 0.0000 0.0000 0.0000 0.0000 17.4296
#
#
#
# Elastic Compliance Matrix: (Units=1/GPa)
#
#
# Indices 1 2 3 4 5 6 
#
# 1 0.013468 -0.000702 -0.004432 0.000000 0.000000 0.000000
# 2 -0.000702 0.010283 -0.005587 0.000000 0.000000 0.000000
# 3 -0.004432 -0.005587 0.015766 0.000000 0.000000 0.000000
# 4 0.000000 0.000000 0.000000 0.053371 0.000000 0.000000
# 5 0.000000 0.000000 0.000000 0.000000 0.040094 0.000000
# 6 0.000000 0.000000 0.000000 0.000000 0.000000 0.057374
#
#
# Mechanical properties :
#
#
# Convention : Reuss Voigt Hill
#
# Bulk Modulus (GPa) = 55.32989 57.73390 56.53189
# Shear Modulus (GPa) = 22.95447 25.30097 24.12772
#
# Velocity S-wave (km/s) = 3.47550 3.64882 3.56322
# Velocity P-wave (km/s) = 6.72467 6.93777 6.83205
#
# Compressibility (1/GPa) = 0.01807341
#
# Stress axis : x y z
#
# Youngs Moduli (GPa) = 74.25194 97.25090 63.42846
#
# Poissons Ratio (x) = 0.06826 0.28113
# Poissons Ratio (y) = 0.05211 0.35439
# Poissons Ratio (z) = 0.32910 0.54337
#
# Static dielectric constant tensor:
#      x y z
#    x 1.641630 0.000000 0.000000 
#    y 0.000000 1.721270 0.000000 
#    z 0.000000 0.000000 1.694770 
# 
# From -- ./inp_files/3012.got.cif
#   From: 2010.05.17/outbox.cif.g08.bks.cpg/sg44_2_cif.got.tgz:3012.got - 2010.06.03 19:37:08.
