data_PCOD9375925
_publ_section_title
;
Structure prediction by ZEFSAII (Michael W. Deem and Ramdas Pophale) SiO2 
 PCOD9375925
Probable space group: I M M 2
;
_chemical_formula_sum "Si O2"
_cell_formula_units_Z 40
_cell_length_a 7.430557
_cell_length_b 7.810009
_cell_length_c 31.162588
_cell_angle_alpha 90.000000
_cell_angle_beta 90.000000
_cell_angle_gamma 90.000000
_cell_volume 1808.449652
_symmetry_space_group_name_H-M "I M M 2"
_symmetry_group_IT_number 44
_symmetry_cell_setting 'orthorhombic'
loop_
_space_group_symop_operation_xyz
x,y,z
-x,-y,z
-x,y,z
x,-y,z
1/2+x,1/2+y,1/2+z
1/2-x,1/2-y,1/2+z
1/2-x,1/2+y,1/2+z
1/2+x,1/2-y,1/2+z
loop_
_atom_site_type_symbol
_atom_site_label
_atom_site_fract_x
_atom_site_fract_y
_atom_site_fract_z
Si Si1 0.205703 0.794485 0.799130
Si Si2 0.779635 0.697702 0.984142
Si Si3 0.794775 0.704944 0.890678
Si Si4 0.721442 0.500000 0.645230
Si Si5 0.280569 0.500000 0.546506
Si Si6 0.710200 0.193103 0.703718
O O1 0.290678 0.744145 0.844639
O O2 0.279992 0.742164 0.752956
O O3 0.000000 0.730719 0.799870
O O4 0.207586 0.000000 0.798645
O O5 0.725089 0.500000 0.991528
O O6 0.718115 0.758378 0.936687
O O7 0.000000 0.697143 0.982512
O O8 0.724296 0.830822 0.020459
O O9 0.804597 0.500000 0.893850
O O10 0.000000 0.775290 0.888643
O O11 0.500000 0.500000 0.646186
O O12 0.776670 0.500000 0.595792
O O13 0.784259 0.332260 0.670983
O O14 0.500000 0.500000 0.546427
O O15 0.500000 0.177384 0.693515
O O16 0.787887 0.000000 0.701538
#
# Coordination Sequence:
#
# PCOD9375925 Si02
#       6
#     8   8   8   4   4   8
#     4   9  17  27  42  65  88 113 147 182 214 254
#     4   8  14  23  34  52  80 110 138 169 208 258
#     4   8  14  23  35  55  84 115 141 168 211 259
#     4   9  18  30  43  61  81 111 155 189 216 257
#     4   9  16  24  38  57  77 107 145 179 212 253
#     4   9  18  32  46  60  86 120 147 178 221 262
#
# _framework density 22.118395
#
# number of rings (size 3 to 8) (size 9 to 14) (size 15 to 20)
#    0.000    3.400    0.000    1.200    2.800    0.800 
#    0.000    4.000    0.000    0.000    0.000    0.000 
#    0.000    3.200    0.000    2.400    0.000    0.800 
#
# Total GULP energy -111487.669884 kJ/mol
# GULP energy per Si atom -5574.383494 kJ/mol
# Density = 2.206805 g / cm^3
# Si number density = 22.118395 Si / 1000 Ang^3
#
#
#
# Elastic Constant Matrix: (Units=GPa)
#
#
# Indices 1 2 3 4 5 6 
#
# 1 65.7457 6.7187 6.5509 0.0000 0.0000 0.0000
# 2 6.7187 108.9752 113.5603 0.0000 0.0000 0.0000
# 3 6.5509 113.5603 250.3808 0.0000 0.0000 0.0000
# 4 0.0000 0.0000 0.0000 42.8698 0.0000 0.0000
# 5 0.0000 0.0000 0.0000 0.0000 7.7870 0.0000
# 6 0.0000 0.0000 0.0000 0.0000 0.0000 -7.5039
#
#
#
# Elastic Compliance Matrix: (Units=1/GPa)
#
#
# Indices 1 2 3 4 5 6 
#
# 1 0.015307 -0.000998 0.000052 0.000000 0.000000 0.000000
# 2 -0.000998 0.017466 -0.007895 0.000000 0.000000 0.000000
# 3 0.000052 -0.007895 0.007574 0.000000 0.000000 0.000000
# 4 0.000000 0.000000 0.000000 0.023326 0.000000 0.000000
# 5 0.000000 0.000000 0.000000 0.000000 0.128419 0.000000
# 6 0.000000 0.000000 0.000000 0.000000 0.000000 -0.133265
#
#
# Mechanical properties :
#
#
# Convention : Reuss Voigt Hill
#
# Bulk Modulus (GPa) = 44.12412 75.41795 59.77103
# Shear Modulus (GPa) = 59.47840 28.51537 43.99689
#
# Velocity S-wave (km/s) = 5.19127 3.59446 4.46483
# Velocity P-wave (km/s) = 7.47829 7.16926 7.32540
#
# Compressibility (1/GPa) = 0.02266334
#
# Stress axis : x y z
#
# Youngs Moduli (GPa) = 65.32996 57.25570 132.03934
#
# Poissons Ratio (x) = 0.05715 -0.00689
# Poissons Ratio (y) = 0.06521 1.04250
# Poissons Ratio (z) = -0.00341 0.45206
#
# Static dielectric constant tensor:
#      x y z
#    x 1.930020 0.000000 0.000000 
#    y 0.000000 1.791680 0.000000 
#    z 0.000000 0.000000 1.806910 
# 
# From -- ./inp_files/25951.got.cif
#   From: 2010.05.17/outbox.cif.g08.bks.cpg/sg44_13_cif.got.tgz:25951.got - 2010.06.03 19:37:08.
