data_PCOD9375893
_publ_section_title
;
Structure prediction by ZEFSAII (Michael W. Deem and Ramdas Pophale) SiO2 
 PCOD9375893
Probable space group: I M M 2
;
_chemical_formula_sum "Si O2"
_cell_formula_units_Z 64
_cell_length_a 14.007433
_cell_length_b 14.191002
_cell_length_c 17.020461
_cell_angle_alpha 90.000000
_cell_angle_beta 90.000000
_cell_angle_gamma 90.000000
_cell_volume 3383.318893
_symmetry_space_group_name_H-M "I M M 2"
_symmetry_group_IT_number 44
_symmetry_cell_setting 'orthorhombic'
loop_
_space_group_symop_operation_xyz
x,y,z
-x,-y,z
-x,y,z
x,-y,z
1/2+x,1/2+y,1/2+z
1/2-x,1/2-y,1/2+z
1/2-x,1/2+y,1/2+z
1/2+x,1/2-y,1/2+z
loop_
_atom_site_type_symbol
_atom_site_label
_atom_site_fract_x
_atom_site_fract_y
_atom_site_fract_z
Si Si1 0.740963 0.746449 0.647120
Si Si2 0.613539 0.106819 0.740976
Si Si3 0.392248 0.110984 0.419700
Si Si4 0.387748 0.106989 0.929331
Si Si5 0.386117 0.607952 0.345870
Si Si6 0.888542 0.888573 0.663267
Si Si7 0.891175 0.612013 0.731354
Si Si8 0.217706 0.776296 0.981231
O O1 0.668924 0.808465 0.699258
O O2 0.817599 0.823558 0.615495
O O3 0.806318 0.669838 0.691224
O O4 0.690108 0.703293 0.571010
O O5 0.500000 0.112994 0.725787
O O6 0.626927 0.112838 0.835092
O O7 0.644723 0.000000 0.717047
O O8 0.500000 0.141754 0.443282
O O9 0.385469 0.125030 0.325602
O O10 0.311136 0.169460 0.462730
O O11 0.384931 0.000000 0.434882
O O12 0.500000 0.118210 0.944593
O O13 0.324639 0.185987 0.969964
O O14 0.360766 0.000000 0.953869
O O15 0.500000 0.611528 0.353908
O O16 0.354335 0.500000 0.354063
O O17 0.366928 0.635290 0.255389
O O18 0.339193 0.668327 0.413385
O O19 0.000000 0.869837 0.649285
O O20 0.873761 0.000000 0.653342
O O21 0.882984 0.500000 0.715600
O O22 0.000000 0.641136 0.707798
#
# Coordination Sequence:
#
# PCOD9375893 Si02
#       8
#     8   8   8   8   8   8   8   8
#     4  12  23  31  48  78 112 144 169 201 256 317
#     4   9  19  37  59  79 100 133 179 224 260 299
#     4   9  19  37  59  79 100 133 179 224 260 299
#     4   9  19  37  59  79 100 133 179 224 260 299
#     4   9  18  34  57  81 101 125 163 213 266 314
#     4   9  18  34  57  81 101 125 163 213 266 314
#     4   9  19  37  59  79 100 133 179 224 260 299
#     4  12  23  31  48  78 112 144 169 201 256 317
#
# _framework density 18.916336999999999
#
# number of rings (size 3 to 8) (size 9 to 14) (size 15 to 20)
#    0.000    2.250    0.000    6.000    0.000    8.000 
#    0.000    2.500    0.000    0.750    0.000    3.500 
#    0.000    0.000    0.000    0.000    0.000    0.000 
#
# Total GULP energy -178585.305772 kJ/mol
# GULP energy per Si atom -5580.790805 kJ/mol
# Density = 1.887328 g / cm^3
# Si number density = 18.916337 Si / 1000 Ang^3
#
#
#
# Elastic Constant Matrix: (Units=GPa)
#
#
# Indices 1 2 3 4 5 6 
#
# 1 65.8943 49.5182 26.4471 0.0000 0.0000 0.0000
# 2 49.5182 80.1112 34.1651 0.0000 0.0000 0.0000
# 3 26.4471 34.1651 33.8051 0.0000 0.0000 0.0000
# 4 0.0000 0.0000 0.0000 4.9704 0.0000 0.0000
# 5 0.0000 0.0000 0.0000 0.0000 8.4179 0.0000
# 6 0.0000 0.0000 0.0000 0.0000 0.0000 42.7254
#
#
#
# Elastic Compliance Matrix: (Units=1/GPa)
#
#
# Indices 1 2 3 4 5 6 
#
# 1 0.029577 -0.014788 -0.008195 0.000000 0.000000 0.000000
# 2 -0.014788 0.029332 -0.018075 0.000000 0.000000 0.000000
# 3 -0.008195 -0.018075 0.054260 0.000000 0.000000 0.000000
# 4 0.000000 0.000000 0.000000 0.201193 0.000000 0.000000
# 5 0.000000 0.000000 0.000000 0.000000 0.118795 0.000000
# 6 0.000000 0.000000 0.000000 0.000000 0.000000 0.023405
#
#
# Mechanical properties :
#
#
# Convention : Reuss Voigt Hill
#
# Bulk Modulus (GPa) = 32.20147 44.45237 38.32692
# Shear Modulus (GPa) = 9.10702 15.86808 12.48755
#
# Velocity S-wave (km/s) = 2.19655 2.89944 2.57212
# Velocity P-wave (km/s) = 4.84697 5.89572 5.39688
#
# Compressibility (1/GPa) = 0.03105448
#
# Stress axis : x y z
#
# Youngs Moduli (GPa) = 33.80970 34.09292 18.42985
#
# Poissons Ratio (x) = 0.50415 0.15102
# Poissons Ratio (y) = 0.49996 0.33312
# Poissons Ratio (z) = 0.27705 0.61623
#
# Static dielectric constant tensor:
#      x y z
#    x 1.676410 0.000000 0.000000 
#    y 0.000000 1.683050 0.000000 
#    z 0.000000 0.000000 1.659510 
# 
# From -- ./inp_files/21972.got.cif
#   From: 2010.05.17/outbox.cif.g08.bks.cpg/sg44_11_cif.got.tgz:21972.got - 2010.06.03 19:37:08.
