data_PCOD9375581
_publ_section_title
;
Structure prediction by ZEFSAII (Michael W. Deem and Ramdas Pophale) SiO2 
 PCOD9375581
Probable space group: I M M 2
;
_chemical_formula_sum "Si O2"
_cell_formula_units_Z 48
_cell_length_a 24.935299
_cell_length_b 16.481397
_cell_length_c 5.474982
_cell_angle_alpha 90.000000
_cell_angle_beta 90.000000
_cell_angle_gamma 90.000000
_cell_volume 2250.045480
_symmetry_space_group_name_H-M "I M M 2"
_symmetry_group_IT_number 44
_symmetry_cell_setting 'orthorhombic'
loop_
_space_group_symop_operation_xyz
x,y,z
-x,-y,z
-x,y,z
x,-y,z
1/2+x,1/2+y,1/2+z
1/2-x,1/2-y,1/2+z
1/2-x,1/2+y,1/2+z
1/2+x,1/2-y,1/2+z
loop_
_atom_site_type_symbol
_atom_site_label
_atom_site_fract_x
_atom_site_fract_y
_atom_site_fract_z
Si Si1 0.559408 0.759238 0.701190
Si Si2 0.893001 0.910267 0.157402
Si Si3 0.215939 0.410879 0.267122
Si Si4 0.345796 0.804095 0.064876
Si Si5 0.331725 0.372714 0.169563
Si Si6 0.106762 0.409309 0.948114
O O1 0.500000 0.764579 0.809259
O O2 0.568723 0.667412 0.608739
O O3 0.567782 0.835007 0.517968
O O4 0.608140 0.774100 0.883936
O O5 0.864700 0.896321 0.423655
O O6 0.918439 0.000000 0.165563
O O7 0.853083 0.909820 0.923612
O O8 0.218749 0.500000 0.385069
O O9 0.208838 0.335290 0.446506
O O10 0.270601 0.398487 0.121809
O O11 0.160960 0.408196 0.111994
O O12 0.334599 0.724225 0.219936
O O13 0.370694 0.883700 0.187012
O O14 0.083884 0.500000 0.959410
#
# Coordination Sequence:
#
# PCOD9375581 Si02
#       6
#     8   8   8   8   8   8
#     4  10  23  43  63  89 123 163 214 273 331 384
#     4  11  23  43  66  97 134 170 213 266 319 383
#     4  10  22  36  58  91 129 173 213 255 311 381
#     4  10  22  38  61  90 125 169 213 268 317 381
#     4  11  24  40  65  97 135 175 215 258 314 382
#     4  10  21  40  61  90 126 165 213 266 319 381
#
# _framework density 21.332899999999999
#
# number of rings (size 3 to 8) (size 9 to 14) (size 15 to 20)
#    0.000    1.667    1.667    2.000    4.667    2.000 
#    0.000    0.000    0.000    2.000    0.000    0.000 
#    0.000    0.000    0.000    0.000    0.000    0.000 
#
# Total GULP energy -133660.409522 kJ/mol
# GULP energy per Si atom -5569.183730 kJ/mol
# Density = 2.128435 g / cm^3
# Si number density = 21.332900 Si / 1000 Ang^3
#
#
#
# Elastic Constant Matrix: (Units=GPa)
#
#
# Indices 1 2 3 4 5 6 
#
# 1 54.1297 31.0214 -6.9515 0.0000 0.0000 0.0000
# 2 31.0214 172.9317 11.0255 0.0000 0.0000 0.0000
# 3 -6.9515 11.0255 51.5322 0.0000 0.0000 0.0000
# 4 0.0000 0.0000 0.0000 10.3124 0.0000 0.0000
# 5 0.0000 0.0000 0.0000 0.0000 0.3493 0.0000
# 6 0.0000 0.0000 0.0000 0.0000 0.0000 -19.1514
#
#
#
# Elastic Compliance Matrix: (Units=1/GPa)
#
#
# Indices 1 2 3 4 5 6 
#
# 1 0.021278 -0.004055 0.003738 0.000000 0.000000 0.000000
# 2 -0.004055 0.006635 -0.001967 0.000000 0.000000 0.000000
# 3 0.003738 -0.001967 0.020330 0.000000 0.000000 0.000000
# 4 0.000000 0.000000 0.000000 0.096971 0.000000 0.000000
# 5 0.000000 0.000000 0.000000 0.000000 2.862988 0.000000
# 6 0.000000 0.000000 0.000000 0.000000 0.000000 -0.052215
#
#
# Mechanical properties :
#
#
# Convention : Reuss Voigt Hill
#
# Bulk Modulus (GPa) = 22.89588 38.75385 30.82486
# Shear Modulus (GPa) = 1.68061 14.53525 8.10793
#
# Velocity S-wave (km/s) = 0.88854 2.61311 1.95165
# Velocity P-wave (km/s) = 3.43637 5.22591 4.42260
#
# Compressibility (1/GPa) = 0.04367598
#
# Stress axis : x y z
#
# Youngs Moduli (GPa) = 46.99629 150.70471 49.18749
#
# Poissons Ratio (x) = 0.61116 -0.18386
# Poissons Ratio (y) = 0.19059 0.09674
# Poissons Ratio (z) = -0.17567 0.29640
#
# Static dielectric constant tensor:
#      x y z
#    x 1.737540 0.000000 0.000000 
#    y 0.000000 1.853650 0.000000 
#    z 0.000000 0.000000 1.856970 
# 
# From -- ./inp_files/1582.got.cif
#   From: 2010.05.17/outbox.cif.g08.bks.cpg/sg44_1_cif.got.tgz:1582.got - 2010.06.03 19:37:08.
