data_PCOD9375865
_publ_section_title
;
Structure prediction by ZEFSAII (Michael W. Deem and Ramdas Pophale) SiO2 
 PCOD9375865
Probable space group: I M M 2
;
_chemical_formula_sum "Si O2"
_cell_formula_units_Z 32
_cell_length_a 26.804175
_cell_length_b 11.080740
_cell_length_c 5.102238
_cell_angle_alpha 90.000000
_cell_angle_beta 90.000000
_cell_angle_gamma 90.000000
_cell_volume 1515.416188
_symmetry_space_group_name_H-M "I M M 2"
_symmetry_group_IT_number 44
_symmetry_cell_setting 'orthorhombic'
loop_
_space_group_symop_operation_xyz
x,y,z
-x,-y,z
-x,y,z
x,-y,z
1/2+x,1/2+y,1/2+z
1/2-x,1/2-y,1/2+z
1/2-x,1/2+y,1/2+z
1/2+x,1/2-y,1/2+z
loop_
_atom_site_type_symbol
_atom_site_label
_atom_site_fract_x
_atom_site_fract_y
_atom_site_fract_z
Si Si1 0.441580 0.358247 0.629050
Si Si2 0.814156 0.632129 0.331578
Si Si3 0.300712 0.630949 0.492180
Si Si4 0.618617 0.281912 0.140146
O O1 0.500000 0.330813 0.658713
O O2 0.436919 0.500000 0.558937
O O3 0.416620 0.283553 0.393874
O O4 0.412731 0.334888 0.899310
O O5 0.820448 0.500000 0.207142
O O6 0.758463 0.634582 0.450221
O O7 0.856829 0.656811 0.545752
O O8 0.815592 0.748861 0.146381
O O9 0.312725 0.500000 0.613817
O O10 0.332658 0.640758 0.225604
#
# Coordination Sequence:
#
# PCOD9375865 Si02
#       4
#     8   8   8   8
#     4  11  24  42  67 101 136 171 225 297 355 398
#     4  11  25  42  64 100 145 187 229 276 332 409
#     4  11  23  40  65 100 139 184 232 279 332 403
#     4  12  23  41  67 100 134 179 225 273 346 410
#
# _framework density 21.116313999999999
#
# number of rings (size 3 to 8) (size 9 to 14) (size 15 to 20)
#    0.000    0.750    5.000    3.000    0.000    6.000 
#    0.000    0.000    0.000    4.500    0.000    0.000 
#    0.000    0.000    0.000    0.000    0.000    0.000 
#
# Total GULP energy -89364.917719 kJ/mol
# GULP energy per Si atom -5585.307357 kJ/mol
# Density = 2.106825 g / cm^3
# Si number density = 21.116314 Si / 1000 Ang^3
#
#
#
# Elastic Constant Matrix: (Units=GPa)
#
#
# Indices 1 2 3 4 5 6 
#
# 1 158.6006 38.5017 53.8878 0.0000 0.0000 0.0005
# 2 38.5017 163.6095 54.1848 0.0000 0.0000 -0.0012
# 3 53.8878 54.1848 118.5357 0.0002 0.0000 0.0300
# 4 0.0000 0.0000 0.0002 26.7672 0.0000 0.0055
# 5 0.0000 0.0000 0.0000 0.0000 34.3593 0.0020
# 6 0.0005 -0.0012 0.0300 0.0055 0.0020-6069.8786
#
#
#
# Elastic Compliance Matrix: (Units=1/GPa)
#
#
# Indices 1 2 3 4 5 6 
#
# 1 0.007535 -0.000753 -0.003081 0.000000 0.000000 0.000000
# 2 -0.000753 0.007278 -0.002985 0.000000 0.000000 0.000000
# 3 -0.003081 -0.002985 0.011201 0.000000 0.000000 0.000000
# 4 0.000000 0.000000 0.000000 0.037359 0.000000 0.000000
# 5 0.000000 0.000000 0.000000 0.000000 0.029104 0.000000
# 6 0.000000 0.000000 0.000000 0.000000 0.000000 -0.000165
#
#
# Mechanical properties :
#
#
# Convention : Reuss Voigt Hill
#
# Bulk Modulus (GPa) = 80.79707 81.54383 81.17045
# Shear Modulus (GPa) = 45.42347 -1182.13898 -568.35776
#
# Velocity S-wave (km/s) = 4.64304 -23.68624 -16.42377
# Velocity P-wave (km/s) = 8.19083 26.63363 17.92011
#
# Compressibility (1/GPa) = 0.01237669
#
# Stress axis : x y z
#
# Youngs Moduli (GPa) = 132.71719 137.40639 89.27438
#
# Poissons Ratio (x) = 0.10342 0.27509
# Poissons Ratio (y) = 0.09989 0.26645
# Poissons Ratio (z) = 0.40895 0.41010
#
# Static dielectric constant tensor:
#      x y z
#    x 1.761990 0.000000 0.000000 
#    y 0.000000 1.777010 0.000000 
#    z 0.000000 0.000000 1.836580 
# 
# From -- ./inp_files/3167.got.cif
#   From: 2010.05.17/outbox.cif.g08.bks.cpg/sg44_2_cif.got.tgz:3167.got - 2010.06.03 19:37:08.
