data_PCOD9375983
_publ_section_title
;
Structure prediction by ZEFSAII (Michael W. Deem and Ramdas Pophale) SiO2 
 PCOD9375983
Probable space group: I M M 2
;
_chemical_formula_sum "Si O2"
_cell_formula_units_Z 24
_cell_length_a 15.000000
_cell_length_b 9.000000
_cell_length_c 18.000000
_cell_angle_alpha 90.000000
_cell_angle_beta 90.000000
_cell_angle_gamma 90.000000
_cell_volume 2430.000000
_symmetry_space_group_name_H-M "I M M 2"
_symmetry_group_IT_number 44
_symmetry_cell_setting 'orthorhombic'
loop_
_space_group_symop_operation_xyz
x,y,z
-x,-y,z
-x,y,z
x,-y,z
1/2+x,1/2+y,1/2+z
1/2-x,1/2-y,1/2+z
1/2-x,1/2+y,1/2+z
1/2+x,1/2-y,1/2+z
loop_
_atom_site_type_symbol
_atom_site_label
_atom_site_fract_x
_atom_site_fract_y
_atom_site_fract_z
Si Si1 0.815651 0.831293 0.205950
Si Si2 0.326422 0.838585 0.332120
Si Si3 0.500000 0.334212 0.552171
Si Si4 0.686602 0.664070 0.470288
Si Si5 0.000000 0.328046 0.198348
Si Si6 0.697023 0.324784 0.079076
Si Si7 0.500000 0.672221 0.088483
Si Si8 0.500000 0.836204 0.231254
O O1 0.759022 0.837029 0.280278
O O2 0.908608 0.750789 0.221374
O O3 0.754005 0.751172 0.144612
O O4 0.831281 0.000000 0.179845
O O5 0.323193 0.699160 0.384855
O O6 0.412827 0.831118 0.280872
O O7 0.331184 0.000000 0.371583
O O8 0.500000 0.500000 0.587608
O O9 0.411151 0.325134 0.504856
O O10 0.500000 0.201386 0.610069
O O11 0.722475 0.500000 0.485951
O O12 0.748759 0.787479 0.505776
O O13 0.000000 0.500000 0.217506
O O14 0.691810 0.500000 0.094367
O O15 0.596615 0.264535 0.067661
O O16 0.500000 0.500000 0.066036
O O17 0.500000 0.698411 0.176514
O O18 0.500000 0.000000 0.192391
#
# Coordination Sequence:
#
# PCOD9375983 Si02
#       8
#     8   8   4   8   4   8   4   4
#     4  11  22  39  62  87 119 157 197 244 297 352
#     4  10  22  38  59  87 121 158 195 241 295 352
#     4  10  21  37  57  85 123 157 192 240 299 357
#     4  11  23  38  59  86 120 160 197 243 298 353
#     4  12  24  37  60  91 119 154 198 249 294 347
#     4  11  22  38  60  87 119 156 199 244 293 352
#     4  10  22  37  58  89 121 153 193 244 293 343
#     4  10  19  35  59  89 121 154 191 235 290 353
#
# _framework density 9.8765429999999999
#
# number of rings (size 3 to 8) (size 9 to 14) (size 15 to 20)
#    0.000    1.333    3.333    2.750    0.000    3.333 
#    0.000    0.833    0.000    2.000    0.000    0.000 
#    0.000    0.000    0.000    0.000    0.000    0.000 
#
# Total GULP energy -133750.071655 kJ/mol
# GULP energy per Si atom -5572.919652 kJ/mol
# Density = 0.985406 g / cm^3
# Si number density = 9.876543 Si / 1000 Ang^3
#
#
#
# Elastic Constant Matrix: (Units=GPa)
#
#
# Indices 1 2 3 4 5 6 
#
# 1 143.2375 34.1418 -9.6968 0.0000 0.0000 0.0000
# 2 34.1418 49.2617 -14.4212 0.0000 0.0000 0.0000
# 3 -9.6968 -14.4212 -19.3469 0.0000 0.0000 0.0000
# 4 0.0000 0.0000 0.0000 20.5493 0.0000 0.0000
# 5 0.0000 0.0000 0.0000 0.0000 28.4523 0.0000
# 6 0.0000 0.0000 0.0000 0.0000 0.0000 12.5958
#
#
#
# Elastic Compliance Matrix: (Units=1/GPa)
#
#
# Indices 1 2 3 4 5 6 
#
# 1 0.008363 -0.005765 0.000106 0.000000 0.000000 0.000000
# 2 -0.005765 0.020638 -0.012494 0.000000 0.000000 0.000000
# 3 0.000106 -0.012494 -0.042428 0.000000 0.000000 0.000000
# 4 0.000000 0.000000 0.000000 0.048663 0.000000 0.000000
# 5 0.000000 0.000000 0.000000 0.000000 0.035147 0.000000
# 6 0.000000 0.000000 0.000000 0.000000 0.000000 0.079391
#
#
# Mechanical properties :
#
#
# Convention : Reuss Voigt Hill
#
# Bulk Modulus (GPa) = -20.10706 21.46665 0.67979
# Shear Modulus (GPa) = 29.49811 23.19472 26.34642
#
# Velocity S-wave (km/s) = 3.86857 3.43043 3.65607
# Velocity P-wave (km/s) = 3.12300 5.15573 4.26232
#
# Compressibility (1/GPa) = -0.04973377
#
# Stress axis : x y z
#
# Youngs Moduli (GPa) = 119.57859 48.45503 -23.56942
#
# Poissons Ratio (x) = 0.27934 0.00249
# Poissons Ratio (y) = 0.68937 -0.29448
# Poissons Ratio (z) = -0.01265 0.60539
#
# Static dielectric constant tensor:
#      x y z
#    x 1.685240 0.000000 0.000000 
#    y 0.000000 1.783740 0.000000 
#    z 0.000000 0.000000 1.730460 
# 
# From -- ./inp_files/20378.got.cif
#   From: 2010.05.17/outbox.ucp.g08.bks.cvg/sg44_11_cif.got.tgz:20378.got - 2010.06.11 16:32:36.
