data_PCOD9375254
_publ_section_title
;
Structure prediction by ZEFSAII (Michael W. Deem and Ramdas Pophale) SiO2 
 PCOD9375254
Probable space group: I M M 2
;
_chemical_formula_sum "Si O2"
_cell_formula_units_Z 56
_cell_length_a 10.312697
_cell_length_b 13.608357
_cell_length_c 19.442224
_cell_angle_alpha 90.000000
_cell_angle_beta 90.000000
_cell_angle_gamma 90.000000
_cell_volume 2728.499599
_symmetry_space_group_name_H-M "I M M 2"
_symmetry_group_IT_number 44
_symmetry_cell_setting 'orthorhombic'
loop_
_space_group_symop_operation_xyz
x,y,z
-x,-y,z
-x,y,z
x,-y,z
1/2+x,1/2+y,1/2+z
1/2-x,1/2-y,1/2+z
1/2-x,1/2+y,1/2+z
1/2+x,1/2-y,1/2+z
loop_
_atom_site_type_symbol
_atom_site_label
_atom_site_fract_x
_atom_site_fract_y
_atom_site_fract_z
Si Si1 0.847810 0.616845 0.932320
Si Si2 0.150342 0.887072 0.559219
Si Si3 0.856130 0.883702 0.037480
Si Si4 0.136897 0.613752 0.443630
Si Si5 0.351632 0.226928 0.290711
Si Si6 0.854194 0.685607 0.640091
Si Si7 0.143784 0.388923 0.278905
O O1 0.841752 0.500000 0.917031
O O2 0.812304 0.674099 0.861642
O O3 0.000000 0.639062 0.948408
O O4 0.750995 0.631760 0.996819
O O5 0.160393 0.800687 0.616248
O O6 0.000000 0.884705 0.535031
O O7 0.173969 0.000000 0.584055
O O8 0.769208 0.844850 0.974132
O O9 0.763375 0.866491 0.101938
O O10 0.000000 0.840624 0.042991
O O11 0.871620 0.000000 0.027635
O O12 0.131702 0.500000 0.467338
O O13 0.138836 0.609290 0.361958
O O14 0.000000 0.662491 0.463827
O O15 0.500000 0.261481 0.300100
O O16 0.349665 0.163373 0.221122
O O17 0.258021 0.314248 0.267728
O O18 0.000000 0.656220 0.617284
O O19 0.167462 0.500000 0.254808
O O20 0.000000 0.358228 0.254266
#
# Coordination Sequence:
#
# PCOD9375254 Si02
#       7
#     8   8   8   8   8   8   8
#     4   9  19  37  59  83 112 145 185 236 290 341
#     4   9  19  37  60  84 109 142 189 240 284 332
#     4  10  21  35  52  78 111 144 180 225 274 324
#     4   8  15  30  51  74 101 136 176 213 257 318
#     4  10  22  37  55  83 114 147 188 234 285 338
#     4  10  22  38  56  81 113 150 189 229 281 344
#     4   9  19  35  54  78 110 147 183 220 268 329
#
# _framework density 20.524100000000001
#
# number of rings (size 3 to 8) (size 9 to 14) (size 15 to 20)
#    0.000    2.714    0.000    1.286    2.000    4.571 
#    0.000    4.286    0.000    3.429    0.000    0.000 
#    0.000    0.000    0.000    0.000    0.000    0.000 
#
# Total GULP energy -155940.176362 kJ/mol
# GULP energy per Si atom -5569.292013 kJ/mol
# Density = 2.047739 g / cm^3
# Si number density = 20.524100 Si / 1000 Ang^3
#
#
#
# Elastic Constant Matrix: (Units=GPa)
#
#
# Indices 1 2 3 4 5 6 
#
# 1 132.0853 17.1892 30.9929 0.0000 0.0000 0.0000
# 2 17.1892 52.0184 -2.5902 0.0000 0.0000 0.0000
# 3 30.9929 -2.5902 76.3267 0.0000 0.0000 0.0000
# 4 0.0000 0.0000 0.0000 12.9921 0.0000 0.0000
# 5 0.0000 0.0000 0.0000 0.0000 21.8626 0.0000
# 6 0.0000 0.0000 0.0000 0.0000 0.0000 -0.7188
#
#
#
# Elastic Compliance Matrix: (Units=1/GPa)
#
#
# Indices 1 2 3 4 5 6 
#
# 1 0.008842 -0.003106 -0.003696 0.000000 0.000000 0.000000
# 2 -0.003106 0.020347 0.001952 0.000000 0.000000 0.000000
# 3 -0.003696 0.001952 0.014669 0.000000 0.000000 0.000000
# 4 0.000000 0.000000 0.000000 0.076970 0.000000 0.000000
# 5 0.000000 0.000000 0.000000 0.000000 0.045740 0.000000
# 6 0.000000 0.000000 0.000000 0.000000 0.000000 -1.391143
#
#
# Mechanical properties :
#
#
# Convention : Reuss Voigt Hill
#
# Bulk Modulus (GPa) = 29.27563 39.06824 34.17193
# Shear Modulus (GPa) = -4.15459 21.14973 8.49757
#
# Velocity S-wave (km/s) = -1.42430 3.21360 2.03698
# Velocity P-wave (km/s) = 3.40443 5.73116 4.71362
#
# Compressibility (1/GPa) = 0.03415811
#
# Stress axis : x y z
#
# Youngs Moduli (GPa) = 113.09316 49.14612 68.17311
#
# Poissons Ratio (x) = 0.15264 0.25196
# Poissons Ratio (y) = 0.35126 -0.13305
# Poissons Ratio (z) = 0.41798 -0.09592
#
# Static dielectric constant tensor:
#      x y z
#    x 1.741960 0.000000 0.000000 
#    y 0.000000 1.778070 0.000000 
#    z 0.000000 0.000000 1.729590 
# 
# From -- ./inp_files/23020.got.cif
#   From: 2010.05.17/outbox.cif.g08.bks.cpg/sg44_12_cif.got.tgz:23020.got - 2010.06.03 19:37:08.
