data_PCOD9375558
_publ_section_title
;
Structure prediction by ZEFSAII (Michael W. Deem and Ramdas Pophale) SiO2 
 PCOD9375558
Probable space group: I M M 2
;
_chemical_formula_sum "Si O2"
_cell_formula_units_Z 40
_cell_length_a 33.143989
_cell_length_b 11.006109
_cell_length_c 5.188377
_cell_angle_alpha 90.000000
_cell_angle_beta 90.000000
_cell_angle_gamma 90.000000
_cell_volume 1892.649137
_symmetry_space_group_name_H-M "I M M 2"
_symmetry_group_IT_number 44
_symmetry_cell_setting 'orthorhombic'
loop_
_space_group_symop_operation_xyz
x,y,z
-x,-y,z
-x,y,z
x,-y,z
1/2+x,1/2+y,1/2+z
1/2-x,1/2-y,1/2+z
1/2-x,1/2+y,1/2+z
1/2+x,1/2-y,1/2+z
loop_
_atom_site_type_symbol
_atom_site_label
_atom_site_fract_x
_atom_site_fract_y
_atom_site_fract_z
Si Si1 0.915331 0.636117 0.540200
Si Si2 0.287121 0.864442 0.034458
Si Si3 0.046304 0.733584 0.055606
Si Si4 0.196823 0.782706 0.033656
Si Si5 0.116871 0.133733 0.286128
O O1 0.898122 0.500000 0.535652
O O2 0.936510 0.663184 0.809827
O O3 0.885658 0.749127 0.475349
O O4 0.947523 0.650332 0.308464
O O5 0.238340 0.857462 0.055938
O O6 0.303729 0.773091 0.249551
O O7 0.300730 0.000000 0.088860
O O8 0.298428 0.823172 0.747508
O O9 0.000000 0.767867 0.020500
O O10 0.076582 0.845237 0.115122
O O11 0.156597 0.852628 0.112452
O O12 0.116371 0.000000 0.407774
#
# Coordination Sequence:
#
# PCOD9375558 Si02
#       5
#     8   8   8   8   8
#     4  10  23  41  65  95 123 161 210 265 318 373
#     4  10  21  39  62  90 125 164 207 262 312 369
#     4  10  23  42  65  93 126 166 212 262 316 377
#     4  10  22  39  61  92 122 165 212 251 313 376
#     4  10  25  45  65  95 131 171 212 261 319 384
#
# _framework density 21.134398000000001
#
# number of rings (size 3 to 8) (size 9 to 14) (size 15 to 20)
#    1.200    0.800    0.000    2.400    2.800    5.200 
#    0.000    2.000    0.000    0.000    0.000    0.000 
#    0.000    0.000    0.000    0.000    0.000    0.000 
#
# Total GULP energy -111532.071301 kJ/mol
# GULP energy per Si atom -5576.603565 kJ/mol
# Density = 2.108630 g / cm^3
# Si number density = 21.134398 Si / 1000 Ang^3
#
#
#
# Elastic Constant Matrix: (Units=GPa)
#
#
# Indices 1 2 3 4 5 6 
#
# 1 124.5857 38.9639 8.1962 -0.0117 0.0003 0.0013
# 2 38.9639 120.1220 6.3285 -0.0091 -0.0036 -0.0009
# 3 8.1962 6.3285 88.4908 -0.0022 -0.0067 -0.0043
# 4 -0.0117 -0.0091 -0.0022 20.3537 -0.0119 0.0099
# 5 0.0003 -0.0036 -0.0067 -0.0119 13.0559 -0.0016
# 6 0.0013 -0.0009 -0.0043 0.0099 -0.0016 -2.9778
#
#
#
# Elastic Compliance Matrix: (Units=1/GPa)
#
#
# Indices 1 2 3 4 5 6 
#
# 1 0.008967 -0.002876 -0.000625 0.000004 -0.000001 0.000006
# 2 -0.002876 0.009279 -0.000397 0.000002 0.000002 -0.000004
# 3 -0.000625 -0.000397 0.011387 0.000001 0.000006 -0.000017
# 4 0.000004 0.000002 0.000001 0.049131 0.000045 0.000163
# 5 -0.000001 0.000002 0.000006 0.000045 0.076594 -0.000040
# 6 0.000006 -0.000004 -0.000017 0.000163 -0.000040 -0.335822
#
#
# Mechanical properties :
#
#
# Convention : Reuss Voigt Hill
#
# Bulk Modulus (GPa) = 45.79401 48.90842 47.35122
# Shear Modulus (GPa) = -30.23150 24.73370 -2.74890
#
# Velocity S-wave (km/s) = -3.78622 3.42468 -1.14171
# Velocity P-wave (km/s) = 1.61279 6.23136 4.55142
#
# Compressibility (1/GPa) = 0.02183692
#
# Stress axis : x y z
#
# Youngs Moduli (GPa) = 111.51883 107.77487 87.82030
#
# Poissons Ratio (x) = 0.30993 0.05488
# Poissons Ratio (y) = 0.32070 0.03488
# Poissons Ratio (z) = 0.06969 0.04281
#
# Static dielectric constant tensor:
#      x y z
#    x 1.769140 0.000000 0.000000 
#    y 0.000000 1.755600 0.000000 
#    z 0.000000 0.000000 1.720070 
# 
# From -- ./inp_files/3238.got.cif
#   From: 2010.05.17/outbox.cif.g08.bks.cpg/sg44_2_cif.got.tgz:3238.got - 2010.06.03 19:37:08.
