data_PCOD9375341
_publ_section_title
;
Structure prediction by ZEFSAII (Michael W. Deem and Ramdas Pophale) SiO2 
 PCOD9375341
Probable space group: I M M 2
;
_chemical_formula_sum "Si O2"
_cell_formula_units_Z 56
_cell_length_a 17.214226
_cell_length_b 23.980620
_cell_length_c 7.189394
_cell_angle_alpha 90.000000
_cell_angle_beta 90.000000
_cell_angle_gamma 90.000000
_cell_volume 2967.838009
_symmetry_space_group_name_H-M "I M M 2"
_symmetry_group_IT_number 44
_symmetry_cell_setting 'orthorhombic'
loop_
_space_group_symop_operation_xyz
x,y,z
-x,-y,z
-x,y,z
x,-y,z
1/2+x,1/2+y,1/2+z
1/2-x,1/2-y,1/2+z
1/2-x,1/2+y,1/2+z
1/2+x,1/2-y,1/2+z
loop_
_atom_site_type_symbol
_atom_site_label
_atom_site_fract_x
_atom_site_fract_y
_atom_site_fract_z
Si Si1 0.412340 0.934968 0.437290
Si Si2 0.857745 0.436727 0.529667
Si Si3 0.835684 0.354483 0.206217
Si Si4 0.409480 0.362305 0.897371
Si Si5 0.173556 0.064186 0.109736
Si Si6 0.908047 0.236204 0.105745
Si Si7 0.845143 0.845175 0.804113
O O1 0.500000 0.920930 0.499872
O O2 0.406770 0.929052 0.215640
O O3 0.350067 0.895487 0.533329
O O4 0.397253 0.000000 0.479143
O O5 0.871142 0.500000 0.457200
O O6 0.871503 0.389063 0.378791
O O7 0.767011 0.433596 0.590164
O O8 0.875228 0.296081 0.160365
O O9 0.745618 0.344787 0.251618
O O10 0.500000 0.377096 0.873510
O O11 0.391062 0.351848 0.112414
O O12 0.356157 0.409313 0.801981
O O13 0.394681 0.306476 0.776654
O O14 0.149778 0.000000 0.092928
O O15 0.140988 0.102662 0.943079
O O16 0.000000 0.239491 0.072129
O O17 0.868311 0.209011 0.924055
#
# Coordination Sequence:
#
# PCOD9375341 Si02
#       7
#     8   8   8   8   8   8   8
#     4  10  21  36  56  86 123 157 190 235 291 349
#     4   9  19  37  58  83 116 154 192 236 290 347
#     4  11  22  36  61  87 114 150 203 246 287 347
#     4  10  21  38  58  80 113 154 191 234 298 355
#     4   9  19  37  59  85 115 145 189 242 288 343
#     4  10  23  40  56  81 118 153 194 250 298 344
#     4  10  22  38  60  84 113 154 195 240 298 351
#
# _framework density 18.868953000000001
#
# number of rings (size 3 to 8) (size 9 to 14) (size 15 to 20)
#    0.000    2.143    0.000    2.143    2.000    4.286 
#    0.000    2.857    0.000    0.000    0.000    0.000 
#    0.000    0.000    0.000    0.000    0.000    0.000 
#
# Total GULP energy -156323.608630 kJ/mol
# GULP energy per Si atom -5582.986022 kJ/mol
# Density = 1.882601 g / cm^3
# Si number density = 18.868953 Si / 1000 Ang^3
#
#
#
# Elastic Constant Matrix: (Units=GPa)
#
#
# Indices 1 2 3 4 5 6 
#
# 1 48.2774 51.7401 33.3028 0.0000 0.0000 0.0000
# 2 51.7401 141.7021 62.5740 0.0000 0.0000 0.0000
# 3 33.3028 62.5740 110.7114 0.0000 0.0000 0.0000
# 4 0.0000 0.0000 0.0000 32.0226 0.0000 0.0000
# 5 0.0000 0.0000 0.0000 0.0000 28.7501 0.0000
# 6 0.0000 0.0000 0.0000 0.0000 0.0000 -0.3379
#
#
#
# Elastic Compliance Matrix: (Units=1/GPa)
#
#
# Indices 1 2 3 4 5 6 
#
# 1 0.035626 -0.011028 -0.004483 0.000000 0.000000 0.000000
# 2 -0.011028 0.012818 -0.003927 0.000000 0.000000 0.000000
# 3 -0.004483 -0.003927 0.012601 0.000000 0.000000 0.000000
# 4 0.000000 0.000000 0.000000 0.031228 0.000000 0.000000
# 5 0.000000 0.000000 0.000000 0.000000 0.034783 0.000000
# 6 0.000000 0.000000 0.000000 0.000000 0.000000 -2.959762
#
#
# Mechanical properties :
#
#
# Convention : Reuss Voigt Hill
#
# Bulk Modulus (GPa) = 45.11278 66.21385 55.66332
# Shear Modulus (GPa) = -1.79440 22.29189 10.24874
#
# Velocity S-wave (km/s) = -0.97624 3.44089 2.33309
# Velocity P-wave (km/s) = 4.76336 7.13820 6.06809
#
# Compressibility (1/GPa) = 0.02216667
#
# Stress axis : x y z
#
# Youngs Moduli (GPa) = 28.06967 78.01430 79.35965
#
# Poissons Ratio (x) = 0.86037 0.35579
# Poissons Ratio (y) = 0.30956 0.31168
# Poissons Ratio (z) = 0.12584 0.30639
#
# Static dielectric constant tensor:
#      x y z
#    x 1.643380 0.000000 0.000000 
#    y 0.000000 1.627620 0.000000 
#    z 0.000000 0.000000 1.644590 
# 
# From -- ./inp_files/2447.got.cif
#   From: 2010.05.17/outbox.cif.g08.bks.cpg/sg44_2_cif.got.tgz:2447.got - 2010.06.03 19:37:08.
