data_PCOD9375878
_publ_section_title
;
Structure prediction by ZEFSAII (Michael W. Deem and Ramdas Pophale) SiO2 
 PCOD9375878
Probable space group: I M M 2
;
_chemical_formula_sum "Si O2"
_cell_formula_units_Z 64
_cell_length_a 20.203366
_cell_length_b 19.978547
_cell_length_c 8.697690
_cell_angle_alpha 90.000000
_cell_angle_beta 90.000000
_cell_angle_gamma 90.000000
_cell_volume 3510.682511
_symmetry_space_group_name_H-M "I M M 2"
_symmetry_group_IT_number 44
_symmetry_cell_setting 'orthorhombic'
loop_
_space_group_symop_operation_xyz
x,y,z
-x,-y,z
-x,y,z
x,-y,z
1/2+x,1/2+y,1/2+z
1/2-x,1/2-y,1/2+z
1/2-x,1/2+y,1/2+z
1/2+x,1/2-y,1/2+z
loop_
_atom_site_type_symbol
_atom_site_label
_atom_site_fract_x
_atom_site_fract_y
_atom_site_fract_z
Si Si1 0.423507 0.849757 0.206990
Si Si2 0.316777 0.424573 0.726243
Si Si3 0.576493 0.349757 0.940270
Si Si4 0.683222 0.075427 0.421016
Si Si5 0.297507 0.316594 0.472306
Si Si6 0.924537 0.190997 0.777445
Si Si7 0.575463 0.809002 0.869815
Si Si8 0.297507 0.183406 0.674953
O O1 0.500000 0.872562 0.224869
O O2 0.372935 0.887809 0.318074
O O3 0.422693 0.770460 0.243151
O O4 0.406187 0.849899 0.024920
O O5 0.338507 0.500000 0.686433
O O6 0.372935 0.387809 0.829186
O O7 0.250000 0.428688 0.823630
O O8 0.294920 0.380549 0.581162
O O9 0.500000 0.372562 0.922390
O O10 0.577307 0.270460 0.904108
O O11 0.593813 0.349899 0.122339
O O12 0.705079 0.119451 0.566098
O O13 0.661493 0.000000 0.460826
O O14 0.372151 0.318011 0.410047
O O15 0.284338 0.250000 0.573629
O O16 0.250000 0.316986 0.323630
O O17 0.000000 0.173595 0.817694
O O18 0.500000 0.826404 0.829566
O O19 0.627849 0.818011 0.737213
#
# Coordination Sequence:
#
# PCOD9375878 Si02
#       8
#     8   8   8   8   8   8   8   8
#     4   9  18  36  61  88 116 149 190 232 286 348
#     4  11  24  41  58  81 118 160 197 238 292 347
#     4   9  18  36  61  88 116 149 190 232 286 348
#     4  11  24  41  58  81 118 160 197 238 292 347
#     4  12  24  36  60  88 118 150 199 249 292 341
#     4   9  19  35  60  90 119 147 183 240 294 339
#     4   9  19  35  60  90 119 147 183 240 294 339
#     4  12  24  36  60  88 118 150 199 249 292 341
#
# _framework density 18.230073000000001
#
# number of rings (size 3 to 8) (size 9 to 14) (size 15 to 20)
#    0.000    1.750    2.500    3.750    3.500    2.500 
#    0.000    1.250    0.000    1.500    0.000    0.000 
#    0.000    0.000    0.000    0.000    0.000    0.000 
#
# Total GULP energy -178482.929987 kJ/mol
# GULP energy per Si atom -5577.591562 kJ/mol
# Density = 1.818858 g / cm^3
# Si number density = 18.230073 Si / 1000 Ang^3
#
#
#
# Elastic Constant Matrix: (Units=GPa)
#
#
# Indices 1 2 3 4 5 6 
#
# 1 70.2347 40.1375 58.1928 0.0000 0.0000 0.0000
# 2 40.1375 94.6494 75.8354 0.0000 0.0000 0.0000
# 3 58.1928 75.8354 110.1495 0.0000 0.0000 0.0000
# 4 0.0000 0.0000 0.0000 18.2873 0.0000 0.0000
# 5 0.0000 0.0000 0.0000 0.0000 46.2619 0.0000
# 6 0.0000 0.0000 0.0000 0.0000 0.0000 18.8011
#
#
#
# Elastic Compliance Matrix: (Units=1/GPa)
#
#
# Indices 1 2 3 4 5 6 
#
# 1 0.025322 -0.000044 -0.013348 0.000000 0.000000 0.000000
# 2 -0.000044 0.023564 -0.016200 0.000000 0.000000 0.000000
# 3 -0.013348 -0.016200 0.027284 0.000000 0.000000 0.000000
# 4 0.000000 0.000000 0.000000 0.054683 0.000000 0.000000
# 5 0.000000 0.000000 0.000000 0.000000 0.021616 0.000000
# 6 0.000000 0.000000 0.000000 0.000000 0.000000 0.053188
#
#
# Mechanical properties :
#
#
# Convention : Reuss Voigt Hill
#
# Bulk Modulus (GPa) = 58.87001 69.26277 64.06639
# Shear Modulus (GPa) = 18.48417 23.39459 20.93938
#
# Velocity S-wave (km/s) = 3.18769 3.58620 3.39280
# Velocity P-wave (km/s) = 6.77580 7.43128 7.11110
#
# Compressibility (1/GPa) = 0.01698658
#
# Stress axis : x y z
#
# Youngs Moduli (GPa) = 39.49092 42.43838 36.65203
#
# Poissons Ratio (x) = 0.00185 0.48923
# Poissons Ratio (y) = 0.00172 0.59376
# Poissons Ratio (z) = 0.52712 0.68750
#
# Static dielectric constant tensor:
#      x y z
#    x 1.638200 0.000000 0.000000 
#    y 0.000000 1.626420 0.000000 
#    z 0.000000 0.000000 1.671350 
# 
# From -- ./inp_files/9043.got.cif
#   From: 2010.05.17/outbox.cif.g08.bks.cpg/sg44_5_cif.got.tgz:9043.got - 2010.06.03 19:37:08.
