data_PCOD9375866
_publ_section_title
;
Structure prediction by ZEFSAII (Michael W. Deem and Ramdas Pophale) SiO2 
 PCOD9375866
Probable space group: I M M 2
;
_chemical_formula_sum "Si O2"
_cell_formula_units_Z 56
_cell_length_a 15.549751
_cell_length_b 14.773966
_cell_length_c 11.901901
_cell_angle_alpha 90.000000
_cell_angle_beta 90.000000
_cell_angle_gamma 90.000000
_cell_volume 2734.241481
_symmetry_space_group_name_H-M "I M M 2"
_symmetry_group_IT_number 44
_symmetry_cell_setting 'orthorhombic'
loop_
_space_group_symop_operation_xyz
x,y,z
-x,-y,z
-x,y,z
x,-y,z
1/2+x,1/2+y,1/2+z
1/2-x,1/2-y,1/2+z
1/2-x,1/2+y,1/2+z
1/2+x,1/2-y,1/2+z
loop_
_atom_site_type_symbol
_atom_site_label
_atom_site_fract_x
_atom_site_fract_y
_atom_site_fract_z
Si Si1 0.397837 0.264768 0.796650
Si Si2 0.897837 0.735232 0.822617
Si Si3 0.193363 0.895406 0.453022
Si Si4 0.678142 0.750000 0.559633
Si Si5 0.601097 0.402159 0.175775
Si Si6 0.193363 0.604594 0.666244
Si Si7 0.601097 0.902159 0.943491
O O1 0.500000 0.280325 0.811187
O O2 0.343200 0.350916 0.839269
O O3 0.378821 0.233983 0.670063
O O4 0.365090 0.184063 0.877410
O O5 0.865090 0.815937 0.741857
O O6 0.843200 0.649085 0.779997
O O7 0.000000 0.719676 0.808080
O O8 0.878822 0.766017 0.949203
O O9 0.263415 0.834096 0.518108
O O10 0.115456 0.892446 0.543316
O O11 0.219167 0.000000 0.439579
O O12 0.736585 0.665904 0.601159
O O13 0.500000 0.404084 0.199978
O O14 0.638918 0.500000 0.208981
O O15 0.219167 0.500000 0.679687
O O16 0.115456 0.607554 0.575950
O O17 0.500000 0.904084 0.919288
O O18 0.638918 0.000000 0.910286
#
# Coordination Sequence:
#
# PCOD9375866 Si02
#       7
#     8   8   8   8   8   8   8
#     4  11  23  41  63  89 125 168 210 254 308 377
#     4  11  23  41  63  89 125 168 210 254 308 377
#     4  11  23  40  65  94 125 161 208 263 317 370
#     4  12  25  40  59  92 130 166 206 254 317 378
#     4   9  18  35  62  93 120 152 200 255 308 364
#     4  11  23  40  65  94 125 161 208 263 317 370
#     4   9  18  35  62  93 120 152 200 255 308 364
#
# _framework density 20.481000999999999
#
# number of rings (size 3 to 8) (size 9 to 14) (size 15 to 20)
#    0.000    1.429    2.857    2.143    0.000    7.429 
#    0.000    2.857    0.000    5.143    0.000    0.000 
#    0.000    0.000    0.000    0.000    0.000    0.000 
#
# Total GULP energy -156209.614392 kJ/mol
# GULP energy per Si atom -5578.914800 kJ/mol
# Density = 2.043439 g / cm^3
# Si number density = 20.481001 Si / 1000 Ang^3
#
#
#
# Elastic Constant Matrix: (Units=GPa)
#
#
# Indices 1 2 3 4 5 6 
#
# 1 58.2849 35.0272 14.5739 0.0000 0.0000 0.0000
# 2 35.0272 120.1166 43.3238 0.0000 0.0000 0.0000
# 3 14.5739 43.3238 122.9749 0.0000 0.0000 0.0000
# 4 0.0000 0.0000 0.0000 7.7796 0.0000 0.0000
# 5 0.0000 0.0000 0.0000 0.0000 34.5489 0.0000
# 6 0.0000 0.0000 0.0000 0.0000 0.0000 11.3842
#
#
#
# Elastic Compliance Matrix: (Units=1/GPa)
#
#
# Indices 1 2 3 4 5 6 
#
# 1 0.020818 -0.005935 -0.000376 0.000000 0.000000 0.000000
# 2 -0.005935 0.011229 -0.003253 0.000000 0.000000 0.000000
# 3 -0.000376 -0.003253 0.009322 0.000000 0.000000 0.000000
# 4 0.000000 0.000000 0.000000 0.128542 0.000000 0.000000
# 5 0.000000 0.000000 0.000000 0.000000 0.028945 0.000000
# 6 0.000000 0.000000 0.000000 0.000000 0.000000 0.087841
#
#
# Mechanical properties :
#
#
# Convention : Reuss Voigt Hill
#
# Bulk Modulus (GPa) = 44.96105 54.13623 49.54864
# Shear Modulus (GPa) = 15.96232 24.63931 20.30081
#
# Velocity S-wave (km/s) = 2.79475 3.47224 3.15175
# Velocity P-wave (km/s) = 5.69337 6.52419 6.12289
#
# Compressibility (1/GPa) = 0.02224147
#
# Stress axis : x y z
#
# Youngs Moduli (GPa) = 48.03558 89.05427 107.27049
#
# Poissons Ratio (x) = 0.52854 0.04036
# Poissons Ratio (y) = 0.28509 0.34891
# Poissons Ratio (z) = 0.01807 0.28966
#
# Static dielectric constant tensor:
#      x y z
#    x 1.747220 0.000000 0.000000 
#    y 0.000000 1.780550 0.000000 
#    z 0.000000 0.000000 1.741490 
# 
# From -- ./inp_files/13228.got.cif
#   From: 2010.05.17/outbox.cif.g08.bks.cpg/sg44_7_cif.got.tgz:13228.got - 2010.06.03 19:37:08.
