data_PCOD9375115
_publ_section_title
;
Structure prediction by ZEFSAII (Michael W. Deem and Ramdas Pophale) SiO2 
 PCOD9375115
Probable space group: I M M 2
;
_chemical_formula_sum "Si O2"
_cell_formula_units_Z 40
_cell_length_a 11.978926
_cell_length_b 8.198171
_cell_length_c 20.609007
_cell_angle_alpha 90.000000
_cell_angle_beta 90.000000
_cell_angle_gamma 90.000000
_cell_volume 2023.913380
_symmetry_space_group_name_H-M "I M M 2"
_symmetry_group_IT_number 44
_symmetry_cell_setting 'orthorhombic'
loop_
_space_group_symop_operation_xyz
x,y,z
-x,-y,z
-x,y,z
x,-y,z
1/2+x,1/2+y,1/2+z
1/2-x,1/2-y,1/2+z
1/2-x,1/2+y,1/2+z
1/2+x,1/2-y,1/2+z
loop_
_atom_site_type_symbol
_atom_site_label
_atom_site_fract_x
_atom_site_fract_y
_atom_site_fract_z
Si Si1 0.127105 0.696902 0.361900
Si Si2 0.873540 0.194526 0.106946
Si Si3 0.276190 0.695216 0.993300
Si Si4 0.500000 0.698512 0.065457
Si Si5 0.000000 0.801003 0.715817
Si Si6 0.753806 0.803382 0.734772
O O1 0.123453 0.500000 0.360880
O O2 0.209261 0.748836 0.419565
O O3 0.173759 0.754697 0.292573
O O4 0.000000 0.756357 0.373484
O O5 0.794186 0.258643 0.164351
O O6 0.000000 0.256678 0.115945
O O7 0.874939 0.000000 0.111493
O O8 0.825445 0.242435 0.036759
O O9 0.274593 0.500000 0.995023
O O10 0.388955 0.754820 0.029378
O O11 0.500000 0.500000 0.063973
O O12 0.500000 0.746739 0.140193
O O13 0.118571 0.745371 0.743999
O O14 0.000000 0.000000 0.718600
O O15 0.755861 0.000000 0.737505
#
# Coordination Sequence:
#
# PCOD9375115 Si02
#       6
#     8   8   8   4   4   8
#     4  10  21  36  55  84 120 155 194 240 286 335
#     4  11  24  40  58  84 117 150 190 241 294 344
#     4  11  21  37  61  85 113 149 193 239 286 346
#     4   9  16  30  56  88 110 135 182 235 280 332
#     4   9  16  32  58  86 112 143 186 233 280 336
#     4  10  20  37  61  86 116 155 195 233 282 343
#
# _framework density 19.763691999999999
#
# number of rings (size 3 to 8) (size 9 to 14) (size 15 to 20)
#    0.000    1.800    3.000    1.800    0.000    3.200 
#    1.800    1.500    0.000    0.000    0.000    0.000 
#    0.000    0.000    0.000    0.000    0.000    0.000 
#
# Total GULP energy -111657.304298 kJ/mol
# GULP energy per Si atom -5582.865215 kJ/mol
# Density = 1.971871 g / cm^3
# Si number density = 19.763692 Si / 1000 Ang^3
#
#
#
# Elastic Constant Matrix: (Units=GPa)
#
#
# Indices 1 2 3 4 5 6 
#
# 1 115.6215 10.5528 33.9303 0.0000 0.0000 0.0000
# 2 10.5528 12.9366 3.5151 0.0000 0.0000 0.0000
# 3 33.9303 3.5151 101.2513 0.0000 0.0000 0.0000
# 4 0.0000 0.0000 0.0000 25.3534 0.0000 0.0000
# 5 0.0000 0.0000 0.0000 0.0000 37.4849 0.0000
# 6 0.0000 0.0000 0.0000 0.0000 0.0000 10.0994
#
#
#
# Elastic Compliance Matrix: (Units=1/GPa)
#
#
# Indices 1 2 3 4 5 6 
#
# 1 0.010268 -0.007512 -0.003180 0.000000 0.000000 0.000000
# 2 -0.007512 0.083532 -0.000383 0.000000 0.000000 0.000000
# 3 -0.003180 -0.000383 0.010955 0.000000 0.000000 0.000000
# 4 0.000000 0.000000 0.000000 0.039442 0.000000 0.000000
# 5 0.000000 0.000000 0.000000 0.000000 0.026677 0.000000
# 6 0.000000 0.000000 0.000000 0.000000 0.000000 0.099016
#
#
# Mechanical properties :
#
#
# Convention : Reuss Voigt Hill
#
# Bulk Modulus (GPa) = 12.10565 36.20064 24.15315
# Shear Modulus (GPa) = 15.64578 26.70827 21.17702
#
# Velocity S-wave (km/s) = 2.81667 3.68010 3.27695
# Velocity P-wave (km/s) = 4.08860 6.03440 5.15416
#
# Compressibility (1/GPa) = 0.08260603
#
# Stress axis : x y z
#
# Youngs Moduli (GPa) = 97.39257 11.97149 91.27945
#
# Poissons Ratio (x) = 0.08993 0.29027
# Poissons Ratio (y) = 0.73158 0.03493
# Poissons Ratio (z) = 0.30971 0.00458
#
# Static dielectric constant tensor:
#      x y z
#    x 1.706000 0.000000 0.000000 
#    y 0.000000 1.688620 0.000000 
#    z 0.000000 0.000000 1.663520 
# 
# From -- ./inp_files/22806.got.cif
#   From: 2010.05.17/outbox.cif.g08.bks.cpg/sg44_12_cif.got.tgz:22806.got - 2010.06.03 19:37:08.
