data_PCOD9375240
_publ_section_title
;
Structure prediction by ZEFSAII (Michael W. Deem and Ramdas Pophale) SiO2 
 PCOD9375240
Probable space group: I M M 2
;
_chemical_formula_sum "Si O2"
_cell_formula_units_Z 48
_cell_length_a 9.394245
_cell_length_b 9.321366
_cell_length_c 32.084434
_cell_angle_alpha 90.000000
_cell_angle_beta 90.000000
_cell_angle_gamma 90.000000
_cell_volume 2809.543919
_symmetry_space_group_name_H-M "I M M 2"
_symmetry_group_IT_number 44
_symmetry_cell_setting 'orthorhombic'
loop_
_space_group_symop_operation_xyz
x,y,z
-x,-y,z
-x,y,z
x,-y,z
1/2+x,1/2+y,1/2+z
1/2-x,1/2-y,1/2+z
1/2-x,1/2+y,1/2+z
1/2+x,1/2-y,1/2+z
loop_
_atom_site_type_symbol
_atom_site_label
_atom_site_fract_x
_atom_site_fract_y
_atom_site_fract_z
Si Si1 0.830755 0.670533 0.113970
Si Si2 0.167698 0.327918 0.279066
Si Si3 0.163801 0.174834 0.696901
Si Si4 0.173093 0.834358 0.361778
Si Si5 0.169446 0.172037 0.454936
Si Si6 0.170697 0.168599 0.028976
O O1 0.806333 0.500000 0.107502
O O2 0.745572 0.717917 0.154916
O O3 0.789126 0.756020 0.072548
O O4 0.000000 0.689783 0.121002
O O5 0.179359 0.500000 0.282218
O O6 0.255123 0.278655 0.238729
O O7 0.218562 0.258009 0.322220
O O8 0.000000 0.293929 0.273349
O O9 0.000000 0.220735 0.696630
O O10 0.166306 0.000000 0.697257
O O11 0.216834 0.785334 0.408048
O O12 0.000000 0.831617 0.362387
O O13 0.216063 0.000000 0.356448
O O14 0.252313 0.254411 0.490715
O O15 0.000000 0.198672 0.458590
O O16 0.190082 0.000000 0.458514
O O17 0.000000 0.184677 0.024563
O O18 0.204124 0.000000 0.030009
#
# Coordination Sequence:
#
# PCOD9375240 Si02
#       6
#     8   8   8   8   8   8
#     4   9  17  31  51  70  89 120 162 201 235 278
#     4   9  16  27  46  70  93 120 156 193 228 272
#     4   9  17  29  46  69  95 121 152 193 237 279
#     4   8  15  29  48  70  95 122 155 195 234 274
#     4   9  18  33  53  75  98 127 165 205 243 287
#     4  10  21  35  50  72 102 131 160 198 245 295
#
# _framework density 17.084623000000001
#
# number of rings (size 3 to 8) (size 9 to 14) (size 15 to 20)
#    0.000    3.000    0.000    2.000    0.000    4.667 
#    0.000    5.000    0.000    8.500    0.000    0.000 
#    0.000    0.000    0.000    0.000    0.000    0.000 
#
# Total GULP energy -133741.200151 kJ/mol
# GULP energy per Si atom -5572.550006 kJ/mol
# Density = 1.704574 g / cm^3
# Si number density = 17.084623 Si / 1000 Ang^3
#
#
#
# Elastic Constant Matrix: (Units=GPa)
#
#
# Indices 1 2 3 4 5 6 
#
# 1 49.9041 39.3161 82.2191 0.0000 0.0000 0.0000
# 2 39.3161 39.2467 74.4361 0.0000 0.0000 0.0000
# 3 82.2191 74.4361 222.6372 0.0000 0.0000 0.0000
# 4 0.0000 0.0000 0.0000 29.7117 0.0000 0.0000
# 5 0.0000 0.0000 0.0000 0.0000 31.1613 0.0000
# 6 0.0000 0.0000 0.0000 0.0000 0.0000 16.3472
#
#
#
# Elastic Compliance Matrix: (Units=1/GPa)
#
#
# Indices 1 2 3 4 5 6 
#
# 1 0.102043 -0.084045 -0.009585 0.000000 0.000000 0.000000
# 2 -0.084045 0.138861 -0.015389 0.000000 0.000000 0.000000
# 3 -0.009585 -0.015389 0.013176 0.000000 0.000000 0.000000
# 4 0.000000 0.000000 0.000000 0.033657 0.000000 0.000000
# 5 0.000000 0.000000 0.000000 0.000000 0.032091 0.000000
# 6 0.000000 0.000000 0.000000 0.000000 0.000000 0.061173
#
#
# Mechanical properties :
#
#
# Convention : Reuss Voigt Hill
#
# Bulk Modulus (GPa) = 27.74499 78.19226 52.96862
# Shear Modulus (GPa) = 8.18260 23.16514 15.67387
#
# Velocity S-wave (km/s) = 2.19086 3.68626 3.03219
# Velocity P-wave (km/s) = 4.76181 7.99906 6.58254
#
# Compressibility (1/GPa) = 0.03604255
#
# Stress axis : x y z
#
# Youngs Moduli (GPa) = 9.79976 7.20147 75.89441
#
# Poissons Ratio (x) = 0.60525 0.72742
# Poissons Ratio (y) = 0.82363 1.16792
# Poissons Ratio (z) = 0.09393 0.11082
#
# Static dielectric constant tensor:
#      x y z
#    x 1.571120 0.000000 0.000000 
#    y 0.000000 1.568120 0.000000 
#    z 0.000000 0.000000 1.568740 
# 
# From -- ./inp_files/24787.got.cif
#   From: 2010.05.17/outbox.cif.g08.bks.cpg/sg44_13_cif.got.tgz:24787.got - 2010.06.03 19:37:08.
