data_PCOD9375838
_publ_section_title
;
Structure prediction by ZEFSAII (Michael W. Deem and Ramdas Pophale) SiO2 
 PCOD9375838
Probable space group: I M M 2
;
_chemical_formula_sum "Si O2"
_cell_formula_units_Z 40
_cell_length_a 13.871621
_cell_length_b 8.954939
_cell_length_c 18.746556
_cell_angle_alpha 90.000000
_cell_angle_beta 90.000000
_cell_angle_gamma 90.000000
_cell_volume 2328.688186
_symmetry_space_group_name_H-M "I M M 2"
_symmetry_group_IT_number 44
_symmetry_cell_setting 'orthorhombic'
loop_
_space_group_symop_operation_xyz
x,y,z
-x,-y,z
-x,y,z
x,-y,z
1/2+x,1/2+y,1/2+z
1/2-x,1/2-y,1/2+z
1/2-x,1/2+y,1/2+z
1/2+x,1/2-y,1/2+z
loop_
_atom_site_type_symbol
_atom_site_label
_atom_site_fract_x
_atom_site_fract_y
_atom_site_fract_z
Si Si1 0.699545 0.677888 0.974260
Si Si2 0.389259 0.321303 0.128583
Si Si3 0.386380 0.178143 0.833552
Si Si4 0.204055 0.177916 0.193292
Si Si5 0.109747 0.678970 0.055065
O O1 0.693668 0.500000 0.960207
O O2 0.660618 0.766160 0.906935
O O3 0.637735 0.708736 0.045827
O O4 0.809551 0.715556 0.996148
O O5 0.500000 0.281594 0.142519
O O6 0.377430 0.500000 0.138707
O O7 0.311645 0.236366 0.176426
O O8 0.500000 0.215519 0.833730
O O9 0.335603 0.256192 0.766721
O O10 0.376904 0.000000 0.826867
O O11 0.139415 0.239805 0.127962
O O12 0.201640 0.000000 0.194333
O O13 0.117078 0.500000 0.067540
O O14 0.000000 0.713775 0.034916
#
# Coordination Sequence:
#
# PCOD9375838 Si02
#       5
#     8   8   8   8   8
#     4   9  18  33  54  80 106 133 169 212 259 311
#     4   9  18  35  58  80 105 139 174 209 254 308
#     4  11  23  37  53  74 103 139 176 216 263 311
#     4  11  22  34  52  79 108 137 173 217 261 307
#     4   9  18  35  57  78 104 139 175 212 257 309
#
# _framework density 17.177053999999998
#
# number of rings (size 3 to 8) (size 9 to 14) (size 15 to 20)
#    0.000    2.200    0.000    4.800    0.000    8.800 
#    0.000    1.000    0.000    3.600    0.000    0.000 
#    0.000    0.000    0.000    0.000    0.000    0.000 
#
# Total GULP energy -111653.342256 kJ/mol
# GULP energy per Si atom -5582.667113 kJ/mol
# Density = 1.713796 g / cm^3
# Si number density = 17.177054 Si / 1000 Ang^3
#
#
#
# Elastic Constant Matrix: (Units=GPa)
#
#
# Indices 1 2 3 4 5 6 
#
# 1 166.3703 71.8820 83.4730 0.0000 0.0000 0.0000
# 2 71.8820 67.3013 68.6131 0.0000 0.0000 0.0000
# 3 83.4730 68.6131 121.9369 0.0000 0.0000 0.0000
# 4 0.0000 0.0000 0.0000 33.9115 0.0000 0.0000
# 5 0.0000 0.0000 0.0000 0.0000 13.1033 0.0000
# 6 0.0000 0.0000 0.0000 0.0000 0.0000 21.7775
#
#
#
# Elastic Compliance Matrix: (Units=1/GPa)
#
#
# Indices 1 2 3 4 5 6 
#
# 1 0.011416 -0.009912 -0.002238 0.000000 0.000000 0.000000
# 2 -0.009912 0.043457 -0.017668 0.000000 0.000000 0.000000
# 3 -0.002238 -0.017668 0.019674 0.000000 0.000000 0.000000
# 4 0.000000 0.000000 0.000000 0.029489 0.000000 0.000000
# 5 0.000000 0.000000 0.000000 0.000000 0.076317 0.000000
# 6 0.000000 0.000000 0.000000 0.000000 0.000000 0.045919
#
#
# Mechanical properties :
#
#
# Convention : Reuss Voigt Hill
#
# Bulk Modulus (GPa) = 67.05568 89.28276 78.16922
# Shear Modulus (GPa) = 17.18943 22.53448 19.86195
#
# Velocity S-wave (km/s) = 3.16685 3.62594 3.40414
# Velocity P-wave (km/s) = 7.24532 8.34390 7.81394
#
# Compressibility (1/GPa) = 0.01491298
#
# Stress axis : x y z
#
# Youngs Moduli (GPa) = 87.59843 23.01123 50.82750
#
# Poissons Ratio (x) = 0.22808 0.11373
# Poissons Ratio (y) = 0.86823 0.89802
# Poissons Ratio (z) = 0.19601 0.40656
#
# Static dielectric constant tensor:
#      x y z
#    x 1.588040 0.000000 0.000000 
#    y 0.000000 1.572820 0.000000 
#    z 0.000000 0.000000 1.541830 
# 
# From -- ./inp_files/15785.got.cif
#   From: 2010.05.17/outbox.cif.g08.bks.cpg/sg44_8_cif.got.tgz:15785.got - 2010.06.03 19:37:08.
