data_PCOD9375173
_publ_section_title
;
Structure prediction by ZEFSAII (Michael W. Deem and Ramdas Pophale) SiO2 
 PCOD9375173
Probable space group: I M M 2
;
_chemical_formula_sum "Si O2"
_cell_formula_units_Z 48
_cell_length_a 9.982299
_cell_length_b 9.391373
_cell_length_c 28.163074
_cell_angle_alpha 90.000000
_cell_angle_beta 90.000000
_cell_angle_gamma 90.000000
_cell_volume 2640.217591
_symmetry_space_group_name_H-M "I M M 2"
_symmetry_group_IT_number 44
_symmetry_cell_setting 'orthorhombic'
loop_
_space_group_symop_operation_xyz
x,y,z
-x,-y,z
-x,y,z
x,-y,z
1/2+x,1/2+y,1/2+z
1/2-x,1/2-y,1/2+z
1/2-x,1/2+y,1/2+z
1/2+x,1/2-y,1/2+z
loop_
_atom_site_type_symbol
_atom_site_label
_atom_site_fract_x
_atom_site_fract_y
_atom_site_fract_z
Si Si1 0.000000 0.157418 0.301911
Si Si2 0.000000 0.667446 0.394352
Si Si3 0.727306 0.666422 0.948307
Si Si4 0.500000 0.329270 0.291269
Si Si5 0.658428 0.670146 0.057299
Si Si6 0.658024 0.328650 0.633747
Si Si7 0.234339 0.335504 0.738623
Si Si8 0.000000 0.665453 0.891057
O O1 0.000000 0.278498 0.340722
O O2 0.130787 0.166286 0.269586
O O3 0.000000 0.000000 0.325435
O O4 0.872841 0.733899 0.420262
O O5 0.000000 0.500000 0.397334
O O6 0.689010 0.500000 0.942180
O O7 0.871641 0.685689 0.924595
O O8 0.713734 0.696716 0.004178
O O9 0.500000 0.500000 0.292769
O O10 0.372444 0.267514 0.262824
O O11 0.500000 0.264213 0.344597
O O12 0.500000 0.709771 0.059741
O O13 0.666304 0.500000 0.065823
O O14 0.751510 0.752372 0.094393
O O15 0.500000 0.287570 0.632265
O O16 0.662901 0.500000 0.627688
O O17 0.722451 0.296870 0.685222
O O18 0.184323 0.500000 0.738572
O O19 0.000000 0.500000 0.874431
#
# Coordination Sequence:
#
# PCOD9375173 Si02
#       8
#     4   4   8   4   8   8   8   4
#     4  10  20  38  65  88 112 152 202 248 292 348
#     4  12  24  36  57  90 123 154 192 242 305 362
#     4  10  21  41  64  86 116 158 205 249 288 348
#     4  12  26  40  57  88 129 162 194 244 307 358
#     4  10  22  40  63  91 123 157 198 246 298 355
#     4  10  22  41  64  92 122 154 197 248 301 355
#     4  10  21  41  65  87 115 157 206 247 287 351
#     4  10  22  40  65  90 114 156 212 250 290 350
#
# _framework density 18.180319999999998
#
# number of rings (size 3 to 8) (size 9 to 14) (size 15 to 20)
#    0.000    1.667    1.667    2.500    2.333    7.333 
#    0.000    0.000    0.000    0.000    0.000    0.000 
#    0.000    0.000    0.000    0.000    0.000    0.000 
#
# Total GULP energy -134053.188873 kJ/mol
# GULP energy per Si atom -5585.549536 kJ/mol
# Density = 1.813894 g / cm^3
# Si number density = 18.180320 Si / 1000 Ang^3
#
#
#
# Elastic Constant Matrix: (Units=GPa)
#
#
# Indices 1 2 3 4 5 6 
#
# 1 145.2783 84.0403 83.2170 0.0000 0.0000 0.0000
# 2 84.0403 92.8529 84.5260 0.0000 0.0000 0.0000
# 3 83.2170 84.5260 157.6164 0.0000 0.0000 0.0000
# 4 0.0000 0.0000 0.0000 34.6748 0.0000 0.0000
# 5 0.0000 0.0000 0.0000 0.0000 29.2168 0.0000
# 6 0.0000 0.0000 0.0000 0.0000 0.0000 27.8038
#
#
#
# Elastic Compliance Matrix: (Units=1/GPa)
#
#
# Indices 1 2 3 4 5 6 
#
# 1 0.014565 -0.012080 -0.001212 0.000000 0.000000 0.000000
# 2 -0.012080 0.031060 -0.010279 0.000000 0.000000 0.000000
# 3 -0.001212 -0.010279 0.012497 0.000000 0.000000 0.000000
# 4 0.000000 0.000000 0.000000 0.028839 0.000000 0.000000
# 5 0.000000 0.000000 0.000000 0.000000 0.034227 0.000000
# 6 0.000000 0.000000 0.000000 0.000000 0.000000 0.035966
#
#
# Mechanical properties :
#
#
# Convention : Reuss Voigt Hill
#
# Bulk Modulus (GPa) = 91.06806 99.92380 95.49593
# Shear Modulus (GPa) = 24.04336 27.93669 25.99003
#
# Velocity S-wave (km/s) = 3.64056 3.92426 3.78507
# Velocity P-wave (km/s) = 8.23844 8.69569 8.47015
#
# Compressibility (1/GPa) = 0.01098080
#
# Stress axis : x y z
#
# Youngs Moduli (GPa) = 68.65548 32.19540 80.01935
#
# Poissons Ratio (x) = 0.38891 0.09699
# Poissons Ratio (y) = 0.82934 0.82254
# Poissons Ratio (z) = 0.08322 0.33094
#
# Static dielectric constant tensor:
#      x y z
#    x 1.921150 0.000000 0.000000 
#    y 0.000000 1.607060 0.000000 
#    z 0.000000 0.000000 1.607760 
# 
# From -- ./inp_files/26995.got.cif
#   From: 2010.05.17/outbox.cif.g08.bks.cpg/sg44_14_cif.got.tgz:26995.got - 2010.06.03 19:37:08.
