data_PCOD9375773
_publ_section_title
;
Structure prediction by ZEFSAII (Michael W. Deem and Ramdas Pophale) SiO2 
 PCOD9375773
Probable space group: I M M 2
;
_chemical_formula_sum "Si O2"
_cell_formula_units_Z 48
_cell_length_a 8.789369
_cell_length_b 18.503731
_cell_length_c 15.163433
_cell_angle_alpha 90.000000
_cell_angle_beta 90.000000
_cell_angle_gamma 90.000000
_cell_volume 2466.121903
_symmetry_space_group_name_H-M "I M M 2"
_symmetry_group_IT_number 44
_symmetry_cell_setting 'orthorhombic'
loop_
_space_group_symop_operation_xyz
x,y,z
-x,-y,z
-x,y,z
x,-y,z
1/2+x,1/2+y,1/2+z
1/2-x,1/2-y,1/2+z
1/2-x,1/2+y,1/2+z
1/2+x,1/2-y,1/2+z
loop_
_atom_site_type_symbol
_atom_site_label
_atom_site_fract_x
_atom_site_fract_y
_atom_site_fract_z
Si Si1 0.680857 0.500000 0.692880
Si Si2 0.180004 0.500000 0.502644
Si Si3 0.319256 0.080160 0.682358
Si Si4 0.176246 0.266783 0.930306
Si Si5 0.818688 0.841723 0.267055
Si Si6 0.823642 0.105117 0.867971
Si Si7 0.818893 0.231039 0.622020
O O1 0.500000 0.500000 0.670405
O O2 0.778131 0.500000 0.604333
O O3 0.712038 0.574712 0.743475
O O4 0.257371 0.568117 0.454878
O O5 0.000000 0.500000 0.488648
O O6 0.500000 0.089387 0.670869
O O7 0.276787 0.081464 0.785568
O O8 0.233060 0.149195 0.643745
O O9 0.276854 0.000000 0.647719
O O10 0.250755 0.322621 0.862523
O O11 0.181342 0.190691 0.879246
O O12 0.000000 0.285120 0.947963
O O13 0.261234 0.256098 0.022696
O O14 0.751638 0.788010 0.191928
O O15 0.000000 0.830586 0.268620
O O16 0.000000 0.084435 0.854651
O O17 0.000000 0.236706 0.627673
#
# Coordination Sequence:
#
# PCOD9375773 Si02
#       7
#     4   4   8   8   8   8   8
#     4  10  24  44  64  91 126 167 212 262 324 378
#     4  12  24  36  58  93 128 165 210 260 316 378
#     4  11  23  40  64  93 127 164 207 259 317 376
#     4  11  24  42  65  94 125 166 216 263 318 382
#     4  11  23  43  69  94 128 169 213 269 323 381
#     4  11  22  37  61  90 126 164 204 256 319 380
#     4  12  25  42  66  96 129 170 215 262 319 383
#
# _framework density 19.463759
#
# number of rings (size 3 to 8) (size 9 to 14) (size 15 to 20)
#    0.000    0.833    2.500    5.250    0.000    8.333 
#    1.500    0.000    0.000    0.000    0.000    0.000 
#    0.000    0.000    0.000    0.000    0.000    0.000 
#
# Total GULP energy -134185.767391 kJ/mol
# GULP energy per Si atom -5591.073641 kJ/mol
# Density = 1.941946 g / cm^3
# Si number density = 19.463759 Si / 1000 Ang^3
#
#
#
# Elastic Constant Matrix: (Units=GPa)
#
#
# Indices 1 2 3 4 5 6 
#
# 1 92.4195 44.2849 15.2806 0.0000 0.0000 0.0000
# 2 44.2849 108.9676 16.8641 0.0000 0.0000 0.0000
# 3 15.2806 16.8641 55.2862 0.0000 0.0000 0.0000
# 4 0.0000 0.0000 0.0000 29.1324 0.0000 0.0000
# 5 0.0000 0.0000 0.0000 0.0000 37.3825 0.0000
# 6 0.0000 0.0000 0.0000 0.0000 0.0000 -8.7574
#
#
#
# Elastic Compliance Matrix: (Units=1/GPa)
#
#
# Indices 1 2 3 4 5 6 
#
# 1 0.013685 -0.005223 -0.002189 0.000000 0.000000 0.000000
# 2 -0.005223 0.011625 -0.002102 0.000000 0.000000 0.000000
# 3 -0.002189 -0.002102 0.019334 0.000000 0.000000 0.000000
# 4 0.000000 0.000000 0.000000 0.034326 0.000000 0.000000
# 5 0.000000 0.000000 0.000000 0.000000 0.026750 0.000000
# 6 0.000000 0.000000 0.000000 0.000000 0.000000 -0.114189
#
#
# Mechanical properties :
#
#
# Convention : Reuss Voigt Hill
#
# Bulk Modulus (GPa) = 39.03972 45.50361 42.27167
# Shear Modulus (GPa) = 261.80260 23.56775 142.68517
#
# Velocity S-wave (km/s) = 11.61033 3.48351 8.57131
# Velocity P-wave (km/s) = 14.13627 6.29358 10.94174
#
# Compressibility (1/GPa) = 0.02561494
#
# Stress axis : x y z
#
# Youngs Moduli (GPa) = 73.07383 86.02171 51.72208
#
# Poissons Ratio (x) = 0.44927 0.11323
# Poissons Ratio (y) = 0.38165 0.10874
# Poissons Ratio (z) = 0.15998 0.18086
#
# Static dielectric constant tensor:
#      x y z
#    x 1.654870 0.000000 0.000000 
#    y 0.000000 1.710410 0.000000 
#    z 0.000000 0.000000 1.665130 
# 
# From -- ./inp_files/16176.got.cif
#   From: 2010.05.17/outbox.cif.g08.bks.cpg/sg44_9_cif.got.tgz:16176.got - 2010.06.03 19:37:08.
