data_PCOD9375722
_publ_section_title
;
Structure prediction by ZEFSAII (Michael W. Deem and Ramdas Pophale) SiO2 
 PCOD9375722
Probable space group: I M M 2
;
_chemical_formula_sum "Si O2"
_cell_formula_units_Z 64
_cell_length_a 15.512123
_cell_length_b 19.085247
_cell_length_c 11.677118
_cell_angle_alpha 90.000000
_cell_angle_beta 90.000000
_cell_angle_gamma 90.000000
_cell_volume 3457.042300
_symmetry_space_group_name_H-M "I M M 2"
_symmetry_group_IT_number 44
_symmetry_cell_setting 'orthorhombic'
loop_
_space_group_symop_operation_xyz
x,y,z
-x,-y,z
-x,y,z
x,-y,z
1/2+x,1/2+y,1/2+z
1/2-x,1/2-y,1/2+z
1/2-x,1/2+y,1/2+z
1/2+x,1/2-y,1/2+z
loop_
_atom_site_type_symbol
_atom_site_label
_atom_site_fract_x
_atom_site_fract_y
_atom_site_fract_z
Si Si1 0.332213 0.419935 0.011160
Si Si2 0.240889 0.825748 0.134589
Si Si3 0.741215 0.919945 0.913000
Si Si4 0.902246 0.082294 0.262254
Si Si5 0.598428 0.217296 0.286847
Si Si6 0.402263 0.918246 0.723245
Si Si7 0.329241 0.181114 0.534354
Si Si8 0.597139 0.614905 0.259872
O O1 0.299250 0.500000 0.010299
O O2 0.380710 0.407945 0.130752
O O3 0.391209 0.411311 0.899394
O O4 0.254426 0.365273 0.004127
O O5 0.168808 0.869675 0.202740
O O6 0.327765 0.816981 0.208441
O O7 0.259971 0.867115 0.017897
O O8 0.202816 0.749992 0.101196
O O9 0.667221 0.902291 0.821065
O O10 0.831508 0.914575 0.845688
O O11 0.728223 0.000000 0.951666
O O12 0.000000 0.101176 0.229081
O O13 0.888423 0.000000 0.233662
O O14 0.500000 0.194450 0.262044
O O15 0.621755 0.202098 0.418803
O O16 0.602530 0.300837 0.266772
O O17 0.500000 0.910669 0.765369
O O18 0.385830 0.867137 0.617562
O O19 0.389631 0.000000 0.690107
O O20 0.500000 0.593431 0.289672
#
# Coordination Sequence:
#
# PCOD9375722 Si02
#       8
#     8   8   8   8   8   8   8   8
#     4  11  21  37  65  93 121 159 202 255 311 362
#     4  12  24  41  64  88 126 169 206 244 303 369
#     4  11  23  40  62  91 123 159 201 246 301 368
#     4  10  23  42  64  93 125 159 203 256 311 367
#     4  11  24  42  63  91 128 164 206 259 306 358
#     4  10  22  41  65  91 119 152 198 257 308 351
#     4  12  22  40  65  90 121 162 206 254 299 364
#     4  11  22  39  62  92 125 160 201 252 312 369
#
# _framework density 18.512934999999999
#
# number of rings (size 3 to 8) (size 9 to 14) (size 15 to 20)
#    0.000    1.000    5.000    1.875    0.000    3.500 
#    0.000    0.000    0.000    3.375    0.000    0.000 
#    0.000    0.000    0.000    0.000    0.000    0.000 
#
# Total GULP energy -178853.121659 kJ/mol
# GULP energy per Si atom -5589.160052 kJ/mol
# Density = 1.847080 g / cm^3
# Si number density = 18.512935 Si / 1000 Ang^3
#
#
#
# Elastic Constant Matrix: (Units=GPa)
#
#
# Indices 1 2 3 4 5 6 
#
# 1 141.7925 49.0209 49.9666 0.0000 0.0000 0.0000
# 2 49.0209 90.8723 51.6901 0.0000 0.0000 0.0000
# 3 49.9666 51.6901 99.2947 0.0000 0.0000 0.0000
# 4 0.0000 0.0000 0.0000 20.6255 0.0000 0.0000
# 5 0.0000 0.0000 0.0000 0.0000 7.8424 0.0000
# 6 0.0000 0.0000 0.0000 0.0000 0.0000 22.3254
#
#
#
# Elastic Compliance Matrix: (Units=1/GPa)
#
#
# Indices 1 2 3 4 5 6 
#
# 1 0.009228 -0.003319 -0.002915 0.000000 0.000000 0.000000
# 2 -0.003319 0.016828 -0.007090 0.000000 0.000000 0.000000
# 3 -0.002915 -0.007090 0.015229 0.000000 0.000000 0.000000
# 4 0.000000 0.000000 0.000000 0.048484 0.000000 0.000000
# 5 0.000000 0.000000 0.000000 0.000000 0.127511 0.000000
# 6 0.000000 0.000000 0.000000 0.000000 0.000000 0.044792
#
#
# Mechanical properties :
#
#
# Convention : Reuss Voigt Hill
#
# Bulk Modulus (GPa) = 68.32906 70.36831 69.34868
# Shear Modulus (GPa) = 17.03002 22.24413 19.63707
#
# Velocity S-wave (km/s) = 3.03627 3.47009 3.26041
# Velocity P-wave (km/s) = 7.02003 7.35855 7.19128
#
# Compressibility (1/GPa) = 0.01463506
#
# Stress axis : x y z
#
# Youngs Moduli (GPa) = 108.37129 59.42505 65.66476
#
# Poissons Ratio (x) = 0.19726 0.19144
# Poissons Ratio (y) = 0.35973 0.46555
# Poissons Ratio (z) = 0.31595 0.42131
#
# Static dielectric constant tensor:
#      x y z
#    x 1.632290 0.000000 0.000000 
#    y 0.000000 1.625230 0.000000 
#    z 0.000000 0.000000 1.613590 
# 
# From -- ./inp_files/13417.got.cif
#   From: 2010.05.17/outbox.cif.g08.bks.cpg/sg44_7_cif.got.tgz:13417.got - 2010.06.03 19:37:08.
