data_PCOD9375170
_publ_section_title
;
Structure prediction by ZEFSAII (Michael W. Deem and Ramdas Pophale) SiO2 
 PCOD9375170
Probable space group: I M M 2
;
_chemical_formula_sum "Si O2"
_cell_formula_units_Z 58
_cell_length_a 18.512737
_cell_length_b 7.466470
_cell_length_c 17.561821
_cell_angle_alpha 90.000000
_cell_angle_beta 90.000000
_cell_angle_gamma 90.000000
_cell_volume 2427.479115
_symmetry_space_group_name_H-M "I M M 2"
_symmetry_group_IT_number 44
_symmetry_cell_setting 'orthorhombic'
loop_
_space_group_symop_operation_xyz
x,y,z
-x,-y,z
-x,y,z
x,-y,z
1/2+x,1/2+y,1/2+z
1/2-x,1/2-y,1/2+z
1/2-x,1/2+y,1/2+z
1/2+x,1/2-y,1/2+z
loop_
_atom_site_type_symbol
_atom_site_label
_atom_site_fract_x
_atom_site_fract_y
_atom_site_fract_z
Si Si1 0.883152 0.789155 0.009820
Si Si2 0.666620 0.209818 0.141800
Si Si3 0.670159 0.281410 0.673841
Si Si4 0.500000 0.000000 0.463033
Si Si5 0.920226 0.216242 0.495565
Si Si6 0.715931 0.287836 0.378100
Si Si7 0.373446 0.701126 0.834248
Si Si8 0.420303 0.293167 0.283347
O O1 0.873087 0.738498 0.097533
O O2 0.938193 0.657598 0.970104
O O3 0.903551 0.000000 0.004325
O O4 0.807295 0.771620 0.965556
O O5 0.746544 0.279981 0.163340
O O6 0.604762 0.290392 0.195852
O O7 0.667728 0.000000 0.158842
O O8 0.641626 0.231104 0.054873
O O9 0.672933 0.500000 0.678448
O O10 0.630597 0.216025 0.750178
O O11 0.909171 0.284152 0.409206
O O12 0.000000 0.271085 0.523036
O O13 0.918272 0.000000 0.491704
O O14 0.725753 0.500000 0.361462
O O15 0.789138 0.193254 0.356892
O O16 0.648076 0.218561 0.328960
O O17 0.403733 0.500000 0.825955
O O18 0.500000 0.211040 0.294128
O O19 0.425336 0.500000 0.308178
#
# Coordination Sequence:
#
# PCOD9375170 Si02
#       8
#     8   8   8   2   8   8   8   8
#     4  10  23  44  66  91 131 171 214 269 324 384
#     4  11  21  37  61  88 120 157 203 253 312 374
#     4   9  19  39  63  89 122 161 203 261 324 375
#     4  12  26  44  64 102 124 172 222 268 320 394
#     4  10  22  39  59  86 121 161 206 252 306 376
#     4  10  21  38  61  90 123 166 203 250 322 382
#     4  10  20  38  64  92 120 157 212 264 311 376
#     4  10  21  36  55  84 122 163 203 245 304 377
#
# _framework density 23.893098999999999
#
# number of rings (size 3 to 8) (size 9 to 14) (size 15 to 20)
#    0.000    1.931    1.379    1.862    1.931    3.862 
#    4.966    0.000    0.000    0.000    0.000    0.000 
#    0.000    0.000    0.000    0.000    0.000    0.000 
#
# Total GULP energy -161822.441574 kJ/mol
# GULP energy per Si atom -5580.084192 kJ/mol
# Density = 2.383872 g / cm^3
# Si number density = 23.893099 Si / 1000 Ang^3
#
#
#
# Elastic Constant Matrix: (Units=GPa)
#
#
# Indices 1 2 3 4 5 6 
#
# 1 55.8782 2.5911 -7.2554 0.0000 0.0000 0.0000
# 2 2.5911 84.9067 -5.1474 0.0000 0.0000 0.0000
# 3 -7.2554 -5.1474 118.2359 0.0000 0.0000 0.0000
# 4 0.0000 0.0000 0.0000 22.9466 0.0000 0.0000
# 5 0.0000 0.0000 0.0000 0.0000 23.0043 0.0000
# 6 0.0000 0.0000 0.0000 0.0000 0.0000 25.0068
#
#
#
# Elastic Compliance Matrix: (Units=1/GPa)
#
#
# Indices 1 2 3 4 5 6 
#
# 1 0.018060 -0.000485 0.001087 0.000000 0.000000 0.000000
# 2 -0.000485 0.011822 0.000485 0.000000 0.000000 0.000000
# 3 0.001087 0.000485 0.008545 0.000000 0.000000 0.000000
# 4 0.000000 0.000000 0.000000 0.043580 0.000000 0.000000
# 5 0.000000 0.000000 0.000000 0.000000 0.043470 0.000000
# 6 0.000000 0.000000 0.000000 0.000000 0.000000 0.039989
#
#
# Mechanical properties :
#
#
# Convention : Reuss Voigt Hill
#
# Bulk Modulus (GPa) = 24.63022 26.59973 25.61497
# Shear Modulus (GPa) = 28.27640 32.11369 30.19505
#
# Velocity S-wave (km/s) = 3.44387 3.67012 3.55879
# Velocity P-wave (km/s) = 5.11317 5.39598 5.25648
#
# Compressibility (1/GPa) = 0.04060053
#
# Stress axis : x y z
#
# Youngs Moduli (GPa) = 55.37180 84.58927 117.02090
#
# Poissons Ratio (x) = 0.04104 -0.12721
# Poissons Ratio (y) = 0.02687 -0.05674
# Poissons Ratio (z) = -0.06019 -0.04102
#
# Static dielectric constant tensor:
#      x y z
#    x 1.882570 0.000000 0.000000 
#    y 0.000000 1.925330 0.000000 
#    z 0.000000 0.000000 1.952830 
# 
# From -- ./inp_files/20559.got.cif
#   From: 2010.05.17/outbox.cif.g08.bks.cpg/sg44_11_cif.got.tgz:20559.got - 2010.06.03 19:37:08.
