data_PCOD9375953
_publ_section_title
;
Structure prediction by ZEFSAII (Michael W. Deem and Ramdas Pophale) SiO2 
 PCOD9375953
Probable space group: I M M 2
;
_chemical_formula_sum "Si O2"
_cell_formula_units_Z 32
_cell_length_a 15.000000
_cell_length_b 9.000000
_cell_length_c 24.000000
_cell_angle_alpha 90.000000
_cell_angle_beta 90.000000
_cell_angle_gamma 90.000000
_cell_volume 3240.000000
_symmetry_space_group_name_H-M "I M M 2"
_symmetry_group_IT_number 44
_symmetry_cell_setting 'orthorhombic'
loop_
_space_group_symop_operation_xyz
x,y,z
-x,-y,z
-x,y,z
x,-y,z
1/2+x,1/2+y,1/2+z
1/2-x,1/2-y,1/2+z
1/2-x,1/2+y,1/2+z
1/2+x,1/2-y,1/2+z
loop_
_atom_site_type_symbol
_atom_site_label
_atom_site_fract_x
_atom_site_fract_y
_atom_site_fract_z
Si Si1 0.596048 0.323714 0.084870
Si Si2 0.098939 0.176097 0.297711
Si Si3 0.393439 0.164172 0.375082
Si Si4 0.902838 0.821465 0.164601
Si Si5 0.895386 0.836100 0.978346
Si Si6 0.777622 0.171432 0.793363
Si Si7 0.099388 0.323017 0.706615
Si Si8 0.234469 0.830616 0.080220
O O1 0.500000 0.283960 0.059697
O O2 0.600834 0.500000 0.089804
O O3 0.599917 0.250903 0.146122
O O4 0.682812 0.259073 0.056484
O O5 0.100293 0.197918 0.230694
O O6 0.184732 0.265629 0.316761
O O7 0.000000 0.221281 0.317512
O O8 0.109011 0.000000 0.308185
O O9 0.500000 0.166556 0.371288
O O10 0.368838 0.202879 0.438101
O O11 0.351764 0.293547 0.339060
O O12 0.362654 0.000000 0.356939
O O13 0.815560 0.762362 0.133793
O O14 0.000000 0.765234 0.144972
O O15 0.901979 0.000000 0.154371
O O16 0.000000 0.824078 0.989487
O O17 0.880494 0.000000 0.952141
O O18 0.842075 0.834122 0.034768
O O19 0.818226 0.262019 0.741570
O O20 0.769210 0.000000 0.779245
O O21 0.105833 0.500000 0.702650
O O22 0.000000 0.289548 0.731319
O O23 0.263912 0.000000 0.092317
#
# Coordination Sequence:
#
# PCOD9375953 Si02
#       8
#     8   8   8   8   8   8   8   8
#     4  10  21  35  49  69 101 138 174 214 258 299
#     4   9  18  33  52  73 101 139 179 214 246 287
#     4  10  21  37  56  77 102 133 169 209 254 307
#     4   8  14  26  46  73 102 131 164 199 235 281
#     4   9  18  33  53  79 109 135 161 200 253 309
#     4  12  23  33  51  77 105 136 169 210 259 309
#     4  10  20  34  52  74 102 136 174 214 255 305
#     4  10  18  29  51  78 102 133 170 205 244 296
#
# _framework density 9.8765429999999999
#
# number of rings (size 3 to 8) (size 9 to 14) (size 15 to 20)
#    0.000    2.250    0.000    4.500    0.000    7.000 
#    0.000    0.000    0.000    2.625    0.000    3.500 
#    0.000    0.000    0.000    0.000    0.000    0.000 
#
# Total GULP energy -178272.399777 kJ/mol
# GULP energy per Si atom -5571.012493 kJ/mol
# Density = 0.985406 g / cm^3
# Si number density = 9.876543 Si / 1000 Ang^3
#
#
#
# Elastic Constant Matrix: (Units=GPa)
#
#
# Indices 1 2 3 4 5 6 
#
# 1 16.5924 16.4641 -7.4123 0.0000 0.0000 0.0000
# 2 16.4641 39.0025 -4.8296 0.0000 0.0000 0.0000
# 3 -7.4123 -4.8296 19.7405 0.0000 0.0000 0.0000
# 4 0.0000 0.0000 0.0000 14.3056 0.0000 0.0000
# 5 0.0000 0.0000 0.0000 0.0000 2.8838 0.0000
# 6 0.0000 0.0000 0.0000 0.0000 0.0000 12.9891
#
#
#
# Elastic Compliance Matrix: (Units=1/GPa)
#
#
# Indices 1 2 3 4 5 6 
#
# 1 0.122941 -0.047624 0.034511 0.000000 0.000000 0.000000
# 2 -0.047624 0.044888 -0.006900 0.000000 0.000000 0.000000
# 3 0.034511 -0.006900 0.061927 0.000000 0.000000 0.000000
# 4 0.000000 0.000000 0.000000 0.069902 0.000000 0.000000
# 5 0.000000 0.000000 0.000000 0.000000 0.346765 0.000000
# 6 0.000000 0.000000 0.000000 0.000000 0.000000 0.076987
#
#
# Mechanical properties :
#
#
# Convention : Reuss Voigt Hill
#
# Bulk Modulus (GPa) = 5.27058 9.30889 7.28974
# Shear Modulus (GPa) = 6.04828 10.77660 8.41244
#
# Velocity S-wave (km/s) = 1.75174 2.33827 2.06592
# Velocity P-wave (km/s) = 2.60105 3.46596 3.06417
#
# Compressibility (1/GPa) = 0.18973229
#
# Stress axis : x y z
#
# Youngs Moduli (GPa) = 8.13396 22.27749 16.14792
#
# Poissons Ratio (x) = 1.06094 -0.55728
# Poissons Ratio (y) = 0.38737 0.11142
# Poissons Ratio (z) = -0.28071 0.15371
#
# Static dielectric constant tensor:
#      x y z
#    x 1.769680 0.000000 0.000000 
#    y 0.000000 1.699110 0.000000 
#    z 0.000000 0.000000 1.714140 
# 
# From -- ./inp_files/25775.got.cif
#   From: 2010.05.17/outbox.ucp.g08.bks.cvg/sg44_13_cif.got.tgz:25775.got - 2010.06.11 16:32:36.
