data_PCOD9375325
_publ_section_title
;
Structure prediction by ZEFSAII (Michael W. Deem and Ramdas Pophale) SiO2 
 PCOD9375325
Probable space group: I M M 2
;
_chemical_formula_sum "Si O2"
_cell_formula_units_Z 56
_cell_length_a 9.153003
_cell_length_b 20.222110
_cell_length_c 15.680045
_cell_angle_alpha 90.000000
_cell_angle_beta 90.000000
_cell_angle_gamma 90.000000
_cell_volume 2902.267094
_symmetry_space_group_name_H-M "I M M 2"
_symmetry_group_IT_number 44
_symmetry_cell_setting 'orthorhombic'
loop_
_space_group_symop_operation_xyz
x,y,z
-x,-y,z
-x,y,z
x,-y,z
1/2+x,1/2+y,1/2+z
1/2-x,1/2-y,1/2+z
1/2-x,1/2+y,1/2+z
1/2+x,1/2-y,1/2+z
loop_
_atom_site_type_symbol
_atom_site_label
_atom_site_fract_x
_atom_site_fract_y
_atom_site_fract_z
Si Si1 0.330567 0.693390 0.868170
Si Si2 0.343961 0.574809 0.646194
Si Si3 0.668779 0.615149 0.461261
Si Si4 0.171359 0.260351 0.541978
Si Si5 0.337625 0.920831 0.295348
Si Si6 0.323871 0.709673 0.231372
Si Si7 0.175244 0.423587 0.289380
O O1 0.500000 0.704418 0.847356
O O2 0.279983 0.619360 0.848194
O O3 0.239776 0.744323 0.807887
O O4 0.313542 0.704847 0.969132
O O5 0.500000 0.609572 0.663998
O O6 0.357355 0.500000 0.677807
O O7 0.327023 0.571427 0.545869
O O8 0.205107 0.599360 0.698099
O O9 0.500000 0.621256 0.432557
O O10 0.730294 0.682476 0.501364
O O11 0.767647 0.587911 0.385848
O O12 0.212290 0.239210 0.637649
O O13 0.000000 0.280538 0.543314
O O14 0.500000 0.897034 0.315119
O O15 0.336567 0.000000 0.307315
O O16 0.500000 0.706480 0.238473
O O17 0.254554 0.636237 0.239538
O O18 0.209801 0.500000 0.264546
O O19 0.000000 0.415494 0.285280
#
# Coordination Sequence:
#
# PCOD9375325 Si02
#       7
#     8   8   8   8   8   8   8
#     4  11  22  39  62  87 119 158 198 246 304 368
#     4   9  18  32  50  77 113 150 189 232 286 355
#     4  11  21  34  57  88 118 153 199 250 305 365
#     4  10  23  40  59  86 121 156 197 250 310 371
#     4  10  21  36  55  82 116 154 197 247 302 358
#     4  11  23  41  65  93 123 161 208 259 314 373
#     4  11  24  41  61  87 124 169 212 260 320 379
#
# _framework density 19.295261
#
# number of rings (size 3 to 8) (size 9 to 14) (size 15 to 20)
#    0.000    1.571    1.429    3.429    0.000    7.714 
#    0.000    2.143    0.000    4.286    0.000    0.000 
#    0.000    0.000    0.000    0.000    0.000    0.000 
#
# Total GULP energy -156059.089474 kJ/mol
# GULP energy per Si atom -5573.538910 kJ/mol
# Density = 1.925134 g / cm^3
# Si number density = 19.295261 Si / 1000 Ang^3
#
#
#
# Elastic Constant Matrix: (Units=GPa)
#
#
# Indices 1 2 3 4 5 6 
#
# 1 66.1024 30.1694 22.3887 0.0000 0.0000 0.0000
# 2 30.1694 79.5410 18.4871 0.0000 0.0000 0.0000
# 3 22.3887 18.4871 72.9882 0.0000 0.0000 0.0000
# 4 0.0000 0.0000 0.0000 34.2437 0.0000 0.0000
# 5 0.0000 0.0000 0.0000 0.0000 25.2970 0.0000
# 6 0.0000 0.0000 0.0000 0.0000 0.0000 28.9944
#
#
#
# Elastic Compliance Matrix: (Units=1/GPa)
#
#
# Indices 1 2 3 4 5 6 
#
# 1 0.019525 -0.006390 -0.004371 0.000000 0.000000 0.000000
# 2 -0.006390 0.015450 -0.001953 0.000000 0.000000 0.000000
# 3 -0.004371 -0.001953 0.015536 0.000000 0.000000 0.000000
# 4 0.000000 0.000000 0.000000 0.029202 0.000000 0.000000
# 5 0.000000 0.000000 0.000000 0.000000 0.039530 0.000000
# 6 0.000000 0.000000 0.000000 0.000000 0.000000 0.034489
#
#
# Mechanical properties :
#
#
# Convention : Reuss Voigt Hill
#
# Bulk Modulus (GPa) = 39.86700 40.08024 39.97362
# Shear Modulus (GPa) = 26.66363 27.54609 27.10486
#
# Velocity S-wave (km/s) = 3.72139 3.78247 3.75205
# Velocity P-wave (km/s) = 6.25871 6.31611 6.28747
#
# Compressibility (1/GPa) = 0.02508340
#
# Stress axis : x y z
#
# Youngs Moduli (GPa) = 51.21718 64.72618 64.36562
#
# Poissons Ratio (x) = 0.41359 0.28132
# Poissons Ratio (y) = 0.32727 0.12572
# Poissons Ratio (z) = 0.22385 0.12642
#
# Static dielectric constant tensor:
#      x y z
#    x 1.697270 0.000000 0.000000 
#    y 0.000000 1.497690 0.000000 
#    z 0.000000 0.000000 1.676790 
# 
# From -- ./inp_files/16480.got.cif
#   From: 2010.05.17/outbox.cif.g08.bks.cpg/sg44_9_cif.got.tgz:16480.got - 2010.06.03 19:37:08.
