data_PCOD9375657
_publ_section_title
;
Structure prediction by ZEFSAII (Michael W. Deem and Ramdas Pophale) SiO2 
 PCOD9375657
Probable space group: I M M 2
;
_chemical_formula_sum "Si O2"
_cell_formula_units_Z 48
_cell_length_a 8.862345
_cell_length_b 20.831291
_cell_length_c 14.748892
_cell_angle_alpha 90.000000
_cell_angle_beta 90.000000
_cell_angle_gamma 90.000000
_cell_volume 2722.853240
_symmetry_space_group_name_H-M "I M M 2"
_symmetry_group_IT_number 44
_symmetry_cell_setting 'orthorhombic'
loop_
_space_group_symop_operation_xyz
x,y,z
-x,-y,z
-x,y,z
x,-y,z
1/2+x,1/2+y,1/2+z
1/2-x,1/2-y,1/2+z
1/2-x,1/2+y,1/2+z
1/2+x,1/2-y,1/2+z
loop_
_atom_site_type_symbol
_atom_site_label
_atom_site_fract_x
_atom_site_fract_y
_atom_site_fract_z
Si Si1 0.680727 0.626455 0.040680
Si Si2 0.180270 0.572847 0.858391
Si Si3 0.181350 0.926028 0.740370
Si Si4 0.819271 0.315223 0.362230
Si Si5 0.181038 0.768866 0.044819
Si Si6 0.818891 0.812044 0.246742
O O1 0.500000 0.629838 0.031225
O O2 0.716959 0.593576 0.136738
O O3 0.748171 0.697932 0.039926
O O4 0.748475 0.588209 0.956222
O O5 0.218870 0.500000 0.831430
O O6 0.241639 0.625889 0.789226
O O7 0.000000 0.578264 0.864987
O O8 0.261466 0.876687 0.807460
O O9 0.000000 0.920196 0.750868
O O10 0.223410 0.000000 0.756341
O O11 0.744599 0.308751 0.460519
O O12 0.777558 0.251178 0.305013
O O13 0.000000 0.316585 0.370161
O O14 0.220285 0.799317 0.142118
O O15 0.000000 0.763893 0.039055
O O16 0.000000 0.819287 0.253361
#
# Coordination Sequence:
#
# PCOD9375657 Si02
#       6
#     8   8   8   8   8   8
#     4  11  21  35  59  89 121 155 191 238 292 347
#     4  11  24  39  58  87 121 157 196 239 292 350
#     4  10  22  39  59  86 120 159 199 238 289 349
#     4  11  22  38  60  89 119 151 196 243 290 346
#     4  11  22  38  60  88 119 152 195 243 288 343
#     4  10  22  39  60  86 117 153 196 241 289 346
#
# _framework density 17.628567
#
# number of rings (size 3 to 8) (size 9 to 14) (size 15 to 20)
#    0.000    1.333    3.333    2.500    0.000    5.000 
#    0.000    0.833    0.000    1.000    0.000    0.000 
#    0.000    0.000    0.000    0.000    0.000    0.000 
#
# Total GULP energy -134151.565939 kJ/mol
# GULP energy per Si atom -5589.648581 kJ/mol
# Density = 1.758844 g / cm^3
# Si number density = 17.628567 Si / 1000 Ang^3
#
#
#
# Elastic Constant Matrix: (Units=GPa)
#
#
# Indices 1 2 3 4 5 6 
#
# 1 42.3589 49.6112 48.1584 0.0000 0.0000 0.0000
# 2 49.6112 143.8251 67.2520 0.0000 0.0000 0.0000
# 3 48.1584 67.2520 130.9852 0.0000 0.0000 0.0000
# 4 0.0000 0.0000 0.0000 13.0396 0.0000 0.0000
# 5 0.0000 0.0000 0.0000 0.0000 29.1131 0.0000
# 6 0.0000 0.0000 0.0000 0.0000 0.0000 25.8659
#
#
#
# Elastic Compliance Matrix: (Units=1/GPa)
#
#
# Indices 1 2 3 4 5 6 
#
# 1 0.052668 -0.011992 -0.013207 0.000000 0.000000 0.000000
# 2 -0.011992 0.011880 -0.001691 0.000000 0.000000 0.000000
# 3 -0.013207 -0.001691 0.013358 0.000000 0.000000 0.000000
# 4 0.000000 0.000000 0.000000 0.076689 0.000000 0.000000
# 5 0.000000 0.000000 0.000000 0.000000 0.034349 0.000000
# 6 0.000000 0.000000 0.000000 0.000000 0.000000 0.038661
#
#
# Mechanical properties :
#
#
# Convention : Reuss Voigt Hill
#
# Bulk Modulus (GPa) = 41.44711 71.91248 56.67980
# Shear Modulus (GPa) = 17.27556 23.74690 20.51123
#
# Velocity S-wave (km/s) = 3.13385 3.67423 3.41474
# Velocity P-wave (km/s) = 6.05451 7.67344 6.91154
#
# Compressibility (1/GPa) = 0.02412713
#
# Stress axis : x y z
#
# Youngs Moduli (GPa) = 18.98691 84.17627 74.86037
#
# Poissons Ratio (x) = 1.00942 0.98869
# Poissons Ratio (y) = 0.22769 0.12656
# Poissons Ratio (z) = 0.25076 0.14231
#
# Static dielectric constant tensor:
#      x y z
#    x 1.589250 0.000000 0.000000 
#    y 0.000000 1.576650 0.000000 
#    z 0.000000 0.000000 1.580450 
# 
# From -- ./inp_files/16071.got.cif
#   From: 2010.05.17/outbox.cif.g08.bks.cpg/sg44_9_cif.got.tgz:16071.got - 2010.06.03 19:37:08.
