data_PCOD9375110
_publ_section_title
;
Structure prediction by ZEFSAII (Michael W. Deem and Ramdas Pophale) SiO2 
 PCOD9375110
Probable space group: I M M 2
;
_chemical_formula_sum "Si O2"
_cell_formula_units_Z 56
_cell_length_a 14.207469
_cell_length_b 31.531656
_cell_length_c 6.822074
_cell_angle_alpha 90.000000
_cell_angle_beta 90.000000
_cell_angle_gamma 90.000000
_cell_volume 3056.186992
_symmetry_space_group_name_H-M "I M M 2"
_symmetry_group_IT_number 44
_symmetry_cell_setting 'orthorhombic'
loop_
_space_group_symop_operation_xyz
x,y,z
-x,-y,z
-x,y,z
x,-y,z
1/2+x,1/2+y,1/2+z
1/2-x,1/2-y,1/2+z
1/2-x,1/2+y,1/2+z
1/2+x,1/2-y,1/2+z
loop_
_atom_site_type_symbol
_atom_site_label
_atom_site_fract_x
_atom_site_fract_y
_atom_site_fract_z
Si Si1 0.242144 0.452461 0.254910
Si Si2 0.749565 0.602427 0.638860
Si Si3 0.607730 0.419244 0.968298
Si Si4 0.396087 0.673593 0.157659
Si Si5 0.890001 0.756572 0.319249
Si Si6 0.259375 0.302883 0.508205
Si Si7 0.611162 0.950713 0.400242
O O1 0.236884 0.500000 0.337704
O O2 0.252237 0.418342 0.424909
O O3 0.328364 0.449347 0.101822
O O4 0.151143 0.444286 0.119369
O O5 0.656947 0.588541 0.759593
O O6 0.756465 0.653161 0.624101
O O7 0.835078 0.581369 0.758349
O O8 0.500000 0.432851 0.950174
O O9 0.611389 0.374014 0.078885
O O10 0.500000 0.678906 0.249049
O O11 0.318430 0.684873 0.315672
O O12 0.390363 0.704334 0.971398
O O13 0.836722 0.718921 0.434841
O O14 0.823907 0.771091 0.138003
O O15 0.000000 0.747721 0.268042
O O16 0.500000 0.945140 0.391869
O O17 0.633297 0.000000 0.348747
#
# Coordination Sequence:
#
# PCOD9375110 Si02
#       7
#     8   8   8   8   8   8   8
#     4  10  21  38  58  85 121 158 197 243 296 353
#     4  11  22  35  62  92 119 152 197 246 299 351
#     4  10  21  37  58  85 117 155 200 245 287 345
#     4  10  20  37  61  85 110 150 199 241 288 353
#     4  11  24  40  60  88 118 154 199 245 300 362
#     4  12  22  39  64  86 121 156 195 250 303 349
#     4   9  20  40  63  86 117 157 198 241 291 353
#
# _framework density 18.323487
#
# number of rings (size 3 to 8) (size 9 to 14) (size 15 to 20)
#    0.000    1.571    4.286    0.857    0.000    3.143 
#    0.000    1.429    0.000    0.000    0.000    0.000 
#    0.000    0.000    0.000    0.000    0.000    0.000 
#
# Total GULP energy -156264.171955 kJ/mol
# GULP energy per Si atom -5580.863284 kJ/mol
# Density = 1.828178 g / cm^3
# Si number density = 18.323487 Si / 1000 Ang^3
#
#
#
# Elastic Constant Matrix: (Units=GPa)
#
#
# Indices 1 2 3 4 5 6 
#
# 1 115.0718 33.3367 33.4286 0.0089 0.0154 -0.0011
# 2 33.3367 57.6231 21.9327 0.0114 0.0026 -0.0041
# 3 33.4286 21.9327 60.1986 0.0730 -0.0634 -0.0114
# 4 0.0089 0.0114 0.0730 29.6206 -0.0074 -0.0081
# 5 0.0154 0.0026 -0.0634 -0.0074 17.2469 -0.0010
# 6 -0.0011 -0.0041 -0.0114 -0.0081 -0.0010 22.7258
#
#
#
# Elastic Compliance Matrix: (Units=1/GPa)
#
#
# Indices 1 2 3 4 5 6 
#
# 1 0.011430 -0.004872 -0.004572 0.000010 -0.000026 -0.000003
# 2 -0.004872 0.022225 -0.005392 0.000006 -0.000019 0.000001
# 3 -0.004572 -0.005392 0.021115 -0.000049 0.000082 0.000009
# 4 0.000010 0.000006 -0.000049 0.033760 0.000014 0.000012
# 5 -0.000026 -0.000019 0.000082 0.000014 0.057982 0.000003
# 6 -0.000003 0.000001 0.000009 0.000012 0.000003 0.044003
#
#
# Mechanical properties :
#
#
# Convention : Reuss Voigt Hill
#
# Bulk Modulus (GPa) = 39.84400 45.58772 42.71586
# Shear Modulus (GPa) = 21.87669 23.53170 22.70420
#
# Velocity S-wave (km/s) = 3.45906 3.58751 3.52387
# Velocity P-wave (km/s) = 6.14373 6.48797 6.31819
#
# Compressibility (1/GPa) = 0.02509788
#
# Stress axis : x y z
#
# Youngs Moduli (GPa) = 87.48964 44.99391 47.35938
#
# Poissons Ratio (x) = 0.21923 0.21652
# Poissons Ratio (y) = 0.42628 0.25536
# Poissons Ratio (z) = 0.40000 0.24260
#
# Static dielectric constant tensor:
#      x y z
#    x 1.628210 0.000000 0.000000 
#    y 0.000000 1.621750 -0.000010 
#    z 0.000000 -0.000010 1.611740 
# 
# From -- ./inp_files/1681.got.cif
#   From: 2010.05.17/outbox.cif.g08.bks.cpg/sg44_1_cif.got.tgz:1681.got - 2010.06.03 19:37:08.
