data_PCOD9375615
_publ_section_title
;
Structure prediction by ZEFSAII (Michael W. Deem and Ramdas Pophale) SiO2 
 PCOD9375615
Probable space group: I M M 2
;
_chemical_formula_sum "Si O2"
_cell_formula_units_Z 34
_cell_length_a 9.846019
_cell_length_b 10.109386
_cell_length_c 17.279017
_cell_angle_alpha 90.000000
_cell_angle_beta 90.000000
_cell_angle_gamma 90.000000
_cell_volume 1719.905086
_symmetry_space_group_name_H-M "I M M 2"
_symmetry_group_IT_number 44
_symmetry_cell_setting 'orthorhombic'
loop_
_space_group_symop_operation_xyz
x,y,z
-x,-y,z
-x,y,z
x,-y,z
1/2+x,1/2+y,1/2+z
1/2-x,1/2-y,1/2+z
1/2-x,1/2+y,1/2+z
1/2+x,1/2-y,1/2+z
loop_
_atom_site_type_symbol
_atom_site_label
_atom_site_fract_x
_atom_site_fract_y
_atom_site_fract_z
Si Si1 0.293712 0.762249 0.551160
Si Si2 0.246372 0.651833 0.394073
Si Si3 0.000000 0.845176 0.171081
Si Si4 0.000000 0.159405 0.787854
Si Si5 0.500000 0.659139 0.110623
Si Si6 0.500000 0.342099 0.856113
Si Si7 0.500000 0.000000 0.516044
O O1 0.298533 0.656621 0.482088
O O2 0.369186 0.717213 0.629377
O O3 0.137893 0.794284 0.570181
O O4 0.380814 0.885535 0.520777
O O5 0.203976 0.500000 0.375349
O O6 0.366205 0.694508 0.336012
O O7 0.129152 0.760871 0.386826
O O8 0.000000 0.826866 0.262915
O O9 0.000000 0.000000 0.155134
O O10 0.000000 0.207625 0.699902
O O11 0.000000 0.000000 0.784697
O O12 0.500000 0.500000 0.110885
O O13 0.500000 0.500000 0.874780
#
# Coordination Sequence:
#
# PCOD9375615 Si02
#       7
#     8   8   4   4   4   4   2
#     4  11  22  38  64  93 128 166 219 263 324 383
#     4  11  23  42  65  93 124 168 215 265 320 381
#     4  10  22  43  63  89 126 171 219 266 320 390
#     4   9  20  38  62  88 122 161 207 259 317 372
#     4  11  21  37  60  91 131 159 200 270 317 377
#     4  11  25  42  63  92 132 171 211 267 327 381
#     4  10  22  36  56  98 124 170 208 258 326 390
#
# _framework density 19.768533000000001
#
# number of rings (size 3 to 8) (size 9 to 14) (size 15 to 20)
#    0.000    1.412    1.176    4.588    1.647    1.882 
#    8.471    1.765    0.000    5.647    0.000    0.000 
#    0.000    0.000    0.000    0.000    0.000    0.000 
#
# Total GULP energy -94662.017327 kJ/mol
# GULP energy per Si atom -5568.353960 kJ/mol
# Density = 1.972354 g / cm^3
# Si number density = 19.768533 Si / 1000 Ang^3
#
#
#
# Elastic Constant Matrix: (Units=GPa)
#
#
# Indices 1 2 3 4 5 6 
#
# 1 156.4351 40.5633 36.8536 0.0000 0.0000 0.0000
# 2 40.5633 103.1088 20.0017 0.0000 0.0000 0.0000
# 3 36.8536 20.0017 87.9040 0.0000 0.0000 0.0000
# 4 0.0000 0.0000 0.0000 -29.0321 0.0000 0.0000
# 5 0.0000 0.0000 0.0000 0.0000 24.4738 0.0000
# 6 0.0000 0.0000 0.0000 0.0000 0.0000 27.6140
#
#
#
# Elastic Compliance Matrix: (Units=1/GPa)
#
#
# Indices 1 2 3 4 5 6 
#
# 1 0.007664 -0.002502 -0.002644 0.000000 0.000000 0.000000
# 2 -0.002502 0.010963 -0.001446 0.000000 0.000000 0.000000
# 3 -0.002644 -0.001446 0.012813 0.000000 0.000000 0.000000
# 4 0.000000 0.000000 0.000000 -0.034445 0.000000 0.000000
# 5 0.000000 0.000000 0.000000 0.000000 0.040860 0.000000
# 6 0.000000 0.000000 0.000000 0.000000 0.000000 0.036214
#
#
# Mechanical properties :
#
#
# Convention : Reuss Voigt Hill
#
# Bulk Modulus (GPa) = 54.77162 60.25391 57.51276
# Shear Modulus (GPa) = 53.56840 21.27977 37.42408
#
# Velocity S-wave (km/s) = 5.21120 3.28448 4.35571
# Velocity P-wave (km/s) = 7.99847 6.70296 7.37920
#
# Compressibility (1/GPa) = 0.01825763
#
# Stress axis : x y z
#
# Youngs Moduli (GPa) = 130.47883 91.21356 78.04352
#
# Poissons Ratio (x) = 0.22824 0.20633
# Poissons Ratio (y) = 0.32649 0.11282
# Poissons Ratio (z) = 0.34496 0.13185
#
# Static dielectric constant tensor:
#      x y z
#    x 1.686860 0.000000 0.000000 
#    y 0.000000 1.700270 0.000000 
#    z 0.000000 0.000000 1.717990 
# 
# From -- ./inp_files/22606.got.cif
#   From: 2010.05.17/outbox.cif.g08.bks.cpg/sg44_12_cif.got.tgz:22606.got - 2010.06.03 19:37:08.
