data_PCOD9375109
_publ_section_title
;
Structure prediction by ZEFSAII (Michael W. Deem and Ramdas Pophale) SiO2 
 PCOD9375109
Probable space group: I M M 2
;
_chemical_formula_sum "Si O2"
_cell_formula_units_Z 56
_cell_length_a 19.795619
_cell_length_b 15.300281
_cell_length_c 9.888099
_cell_angle_alpha 90.000000
_cell_angle_beta 90.000000
_cell_angle_gamma 90.000000
_cell_volume 2994.892922
_symmetry_space_group_name_H-M "I M M 2"
_symmetry_group_IT_number 44
_symmetry_cell_setting 'orthorhombic'
loop_
_space_group_symop_operation_xyz
x,y,z
-x,-y,z
-x,y,z
x,-y,z
1/2+x,1/2+y,1/2+z
1/2-x,1/2-y,1/2+z
1/2-x,1/2+y,1/2+z
1/2+x,1/2-y,1/2+z
loop_
_atom_site_type_symbol
_atom_site_label
_atom_site_fract_x
_atom_site_fract_y
_atom_site_fract_z
Si Si1 0.803552 0.159652 0.622730
Si Si2 0.421876 0.223179 0.793663
Si Si3 0.648758 0.149115 0.055527
Si Si4 0.162225 0.285642 0.025147
Si Si5 0.420596 0.902460 0.321862
Si Si6 0.709963 0.400995 0.429986
Si Si7 0.923168 0.097328 0.439190
O O1 0.828072 0.260152 0.626499
O O2 0.735364 0.167514 0.534271
O O3 0.788075 0.120489 0.769612
O O4 0.864514 0.109303 0.549469
O O5 0.500000 0.204750 0.762547
O O6 0.373857 0.202648 0.669039
O O7 0.398252 0.173439 0.928566
O O8 0.414738 0.325697 0.831264
O O9 0.609232 0.098872 0.171092
O O10 0.715490 0.104361 0.995595
O O11 0.117776 0.332268 0.912330
O O12 0.171225 0.182322 0.994298
O O13 0.500000 0.883137 0.317132
O O14 0.411163 0.000000 0.379605
O O15 0.683442 0.500000 0.450125
O O16 0.000000 0.107592 0.495570
O O17 0.918407 0.000000 0.381192
#
# Coordination Sequence:
#
# PCOD9375109 Si02
#       7
#     8   8   8   8   8   8   8
#     4  10  20  37  61  84 124 164 198 246 306 355
#     4  10  20  37  62  86 118 162 199 242 305 361
#     4  10  20  39  61  89 116 158 204 252 301 361
#     4  11  23  41  60  90 126 161 201 250 308 363
#     4  11  24  42  64  90 121 161 208 256 307 363
#     4  11  22  37  61  92 124 159 202 253 304 363
#     4   9  19  35  58  89 120 154 202 248 292 359
#
# _framework density 18.698498000000001
#
# number of rings (size 3 to 8) (size 9 to 14) (size 15 to 20)
#    0.000    1.714    2.857    1.714    0.000    2.286 
#    0.000    0.000    0.000    4.714    0.000    0.000 
#    0.000    0.000    0.000    0.000    0.000    0.000 
#
# Total GULP energy -156212.037554 kJ/mol
# GULP energy per Si atom -5579.001341 kJ/mol
# Density = 1.865594 g / cm^3
# Si number density = 18.698498 Si / 1000 Ang^3
#
#
#
# Elastic Constant Matrix: (Units=GPa)
#
#
# Indices 1 2 3 4 5 6 
#
# 1 111.9364 42.6481 42.1261 0.0000 0.0000 0.0000
# 2 42.6481 76.4721 30.0001 0.0000 0.0000 0.0000
# 3 42.1261 30.0001 79.1066 0.0000 0.0000 0.0000
# 4 0.0000 0.0000 0.0000 6.8735 0.0000 0.0000
# 5 0.0000 0.0000 0.0000 0.0000 20.2701 0.0000
# 6 0.0000 0.0000 0.0000 0.0000 0.0000 19.6324
#
#
#
# Elastic Compliance Matrix: (Units=1/GPa)
#
#
# Indices 1 2 3 4 5 6 
#
# 1 0.012727 -0.005215 -0.004800 0.000000 0.000000 0.000000
# 2 -0.005215 0.017499 -0.003859 0.000000 0.000000 0.000000
# 3 -0.004800 -0.003859 0.016661 0.000000 0.000000 0.000000
# 4 0.000000 0.000000 0.000000 0.145486 0.000000 0.000000
# 5 0.000000 0.000000 0.000000 0.000000 0.049334 0.000000
# 6 0.000000 0.000000 0.000000 0.000000 0.000000 0.050936
#
#
# Mechanical properties :
#
#
# Convention : Reuss Voigt Hill
#
# Bulk Modulus (GPa) = 52.24930 55.22929 53.73930
# Shear Modulus (GPa) = 15.30129 19.53792 17.41961
#
# Velocity S-wave (km/s) = 2.86373 3.23599 3.05553
# Velocity P-wave (km/s) = 6.24005 6.60023 6.42267
#
# Compressibility (1/GPa) = 0.01913901
#
# Stress axis : x y z
#
# Youngs Moduli (GPa) = 78.57435 57.14649 60.02161
#
# Poissons Ratio (x) = 0.29800 0.28809
# Poissons Ratio (y) = 0.40975 0.23164
# Poissons Ratio (z) = 0.37713 0.22054
#
# Static dielectric constant tensor:
#      x y z
#    x 1.637070 0.000000 0.000000 
#    y 0.000000 1.656720 0.000000 
#    z 0.000000 0.000000 1.616900 
# 
# From -- ./inp_files/7392.got.cif
#   From: 2010.05.17/outbox.cif.g08.bks.cpg/sg44_4_cif.got.tgz:7392.got - 2010.06.03 19:37:08.
