data_PCOD9375515
_publ_section_title
;
Structure prediction by ZEFSAII (Michael W. Deem and Ramdas Pophale) SiO2 
 PCOD9375515
Probable space group: I M M 2
;
_chemical_formula_sum "Si O2"
_cell_formula_units_Z 58
_cell_length_a 26.712719
_cell_length_b 7.592359
_cell_length_c 13.137807
_cell_angle_alpha 90.000000
_cell_angle_beta 90.000000
_cell_angle_gamma 90.000000
_cell_volume 2664.512172
_symmetry_space_group_name_H-M "I M M 2"
_symmetry_group_IT_number 44
_symmetry_cell_setting 'orthorhombic'
loop_
_space_group_symop_operation_xyz
x,y,z
-x,-y,z
-x,y,z
x,-y,z
1/2+x,1/2+y,1/2+z
1/2-x,1/2-y,1/2+z
1/2-x,1/2+y,1/2+z
1/2+x,1/2-y,1/2+z
loop_
_atom_site_type_symbol
_atom_site_label
_atom_site_fract_x
_atom_site_fract_y
_atom_site_fract_z
Si Si1 0.611374 0.712442 0.128990
Si Si2 0.575275 0.284764 0.702557
Si Si3 0.556615 0.210436 0.338595
Si Si4 0.688231 0.301347 0.660183
Si Si5 0.500000 0.000000 0.622375
Si Si6 0.293035 0.297677 0.243414
Si Si7 0.944922 0.786570 0.435937
Si Si8 0.342588 0.798372 0.444865
O O1 0.611209 0.500000 0.122904
O O2 0.574105 0.760177 0.221814
O O3 0.666712 0.771229 0.161449
O O4 0.594010 0.779522 0.019327
O O5 0.568731 0.500000 0.686787
O O6 0.633739 0.240399 0.695035
O O7 0.560025 0.237505 0.818285
O O8 0.543254 0.157979 0.630346
O O9 0.500000 0.278269 0.356511
O O10 0.603345 0.275775 0.407457
O O11 0.554640 0.000000 0.355516
O O12 0.693676 0.500000 0.697520
O O13 0.737176 0.208216 0.702075
O O14 0.683233 0.296996 0.538525
O O15 0.306425 0.500000 0.263981
O O16 0.305800 0.203067 0.348333
O O17 0.000000 0.734914 0.472366
O O18 0.942289 0.000000 0.434939
O O19 0.350395 0.000000 0.476954
#
# Coordination Sequence:
#
# PCOD9375515 Si02
#       8
#     8   8   8   8   2   8   8   8
#     4   9  18  32  55  84 113 155 200 241 295 357
#     4  10  23  41  61  90 126 163 205 254 303 368
#     4   9  18  34  52  80 117 155 193 246 296 344
#     4  11  24  42  64  89 120 156 200 252 307 361
#     4  12  22  40  68  86 124 166 210 244 314 358
#     4  10  21  38  62  89 120 153 200 252 301 362
#     4   9  16  32  54  78 116 159 197 246 303 356
#     4  10  21  39  62  85 119 159 201 245 302 362
#
# _framework density 21.767586000000001
#
# number of rings (size 3 to 8) (size 9 to 14) (size 15 to 20)
#    0.000    2.207    0.690    1.862    1.931    3.034 
#    2.483    2.759    0.000    0.000    0.000    0.000 
#    0.000    0.000    0.000    0.000    0.000    0.000 
#
# Total GULP energy -161587.471861 kJ/mol
# GULP energy per Si atom -5571.981788 kJ/mol
# Density = 2.171804 g / cm^3
# Si number density = 21.767586 Si / 1000 Ang^3
#
#
#
# Elastic Constant Matrix: (Units=GPa)
#
#
# Indices 1 2 3 4 5 6 
#
# 1 137.6348 22.2927 30.8099 0.0000 0.0000 0.0000
# 2 22.2927 66.1511 -1.3139 0.0000 0.0000 0.0000
# 3 30.8099 -1.3139 46.1151 0.0000 0.0000 0.0000
# 4 0.0000 0.0000 0.0000 10.0518 0.0000 0.0000
# 5 0.0000 0.0000 0.0000 0.0000 11.6902 0.0000
# 6 0.0000 0.0000 0.0000 0.0000 0.0000 40.3124
#
#
#
# Elastic Compliance Matrix: (Units=1/GPa)
#
#
# Indices 1 2 3 4 5 6 
#
# 1 0.009180 -0.003217 -0.006225 0.000000 0.000000 0.000000
# 2 -0.003217 0.016253 0.002613 0.000000 0.000000 0.000000
# 3 -0.006225 0.002613 0.025918 0.000000 0.000000 0.000000
# 4 0.000000 0.000000 0.000000 0.099485 0.000000 0.000000
# 5 0.000000 0.000000 0.000000 0.000000 0.085542 0.000000
# 6 0.000000 0.000000 0.000000 0.000000 0.000000 0.024806
#
#
# Mechanical properties :
#
#
# Convention : Reuss Voigt Hill
#
# Bulk Modulus (GPa) = 26.53083 39.27540 32.90311
# Shear Modulus (GPa) = 17.39688 25.61838 21.50763
#
# Velocity S-wave (km/s) = 2.83010 3.43433 3.14675
# Velocity P-wave (km/s) = 4.78476 5.81450 5.32458
#
# Compressibility (1/GPa) = 0.03769200
#
# Stress axis : x y z
#
# Youngs Moduli (GPa) = 108.92999 61.52701 38.58276
#
# Poissons Ratio (x) = 0.19795 0.24018
# Poissons Ratio (y) = 0.35047 -0.10080
# Poissons Ratio (z) = 0.67809 -0.16075
#
# Static dielectric constant tensor:
#      x y z
#    x 1.799830 0.000000 0.000000 
#    y 0.000000 1.845910 0.000000 
#    z 0.000000 0.000000 1.797670 
# 
# From -- ./inp_files/14850.got.cif
#   From: 2010.05.17/outbox.cif.g08.bks.cpg/sg44_8_cif.got.tgz:14850.got - 2010.06.03 19:37:08.
