data_PCOD9375543
_publ_section_title
;
Structure prediction by ZEFSAII (Michael W. Deem and Ramdas Pophale) SiO2 
 PCOD9375543
Probable space group: I M M 2
;
_chemical_formula_sum "Si O2"
_cell_formula_units_Z 40
_cell_length_a 8.924562
_cell_length_b 7.726667
_cell_length_c 30.478243
_cell_angle_alpha 90.000000
_cell_angle_beta 90.000000
_cell_angle_gamma 90.000000
_cell_volume 2101.691820
_symmetry_space_group_name_H-M "I M M 2"
_symmetry_group_IT_number 44
_symmetry_cell_setting 'orthorhombic'
loop_
_space_group_symop_operation_xyz
x,y,z
-x,-y,z
-x,y,z
x,-y,z
1/2+x,1/2+y,1/2+z
1/2-x,1/2-y,1/2+z
1/2-x,1/2+y,1/2+z
1/2+x,1/2-y,1/2+z
loop_
_atom_site_type_symbol
_atom_site_label
_atom_site_fract_x
_atom_site_fract_y
_atom_site_fract_z
Si Si1 0.670444 0.210670 0.531450
Si Si2 0.682916 0.500000 0.280154
Si Si3 0.674013 0.290404 0.120516
Si Si4 0.680223 0.500000 0.381529
Si Si5 0.321315 0.296244 0.940245
Si Si6 0.317437 0.807621 0.217544
O O1 0.500000 0.268816 0.525375
O O2 0.736709 0.270027 0.577847
O O3 0.768527 0.255994 0.489164
O O4 0.670368 0.000000 0.533258
O O5 0.500000 0.500000 0.280118
O O6 0.728659 0.500000 0.330646
O O7 0.733191 0.334047 0.252313
O O8 0.500000 0.238042 0.116046
O O9 0.677284 0.500000 0.121698
O O10 0.732112 0.227843 0.167625
O O11 0.500000 0.500000 0.383535
O O12 0.742405 0.669438 0.406054
O O13 0.500000 0.280268 0.936978
O O14 0.281862 0.500000 0.933865
O O15 0.500000 0.797178 0.215981
O O16 0.275021 0.000000 0.230958
#
# Coordination Sequence:
#
# PCOD9375543 Si02
#       6
#     8   4   8   4   8   8
#     4   9  17  30  51  79 111 147 185 226 281 341
#     4   9  18  33  51  77 111 143 179 229 284 337
#     4   9  15  26  47  73 105 144 183 223 268 322
#     4  11  23  37  59  89 119 149 189 243 304 355
#     4  10  21  39  61  83 112 151 196 242 285 342
#     4   9  16  28  48  74 105 141 181 224 269 322
#
# _framework density 19.032285999999999
#
# number of rings (size 3 to 8) (size 9 to 14) (size 15 to 20)
#    0.000    2.600    1.000    1.500    0.000    4.400 
#    1.800    2.000    0.000    2.400    0.000    0.000 
#    0.000    0.000    0.000    0.000    0.000    0.000 
#
# Total GULP energy -111602.849254 kJ/mol
# GULP energy per Si atom -5580.142463 kJ/mol
# Density = 1.898897 g / cm^3
# Si number density = 19.032286 Si / 1000 Ang^3
#
#
#
# Elastic Constant Matrix: (Units=GPa)
#
#
# Indices 1 2 3 4 5 6 
#
# 1 49.4847 34.5127 44.5492 0.0000 0.0000 0.0000
# 2 34.5127 105.6471 88.0712 0.0000 0.0000 0.0000
# 3 44.5492 88.0712 187.9729 0.0000 0.0000 0.0000
# 4 0.0000 0.0000 0.0000 -16.1576 0.0000 0.0000
# 5 0.0000 0.0000 0.0000 0.0000 24.7147 0.0000
# 6 0.0000 0.0000 0.0000 0.0000 0.0000 13.9455
#
#
#
# Elastic Compliance Matrix: (Units=1/GPa)
#
#
# Indices 1 2 3 4 5 6 
#
# 1 0.027749 -0.005879 -0.003822 0.000000 0.000000 0.000000
# 2 -0.005879 0.016778 -0.006468 0.000000 0.000000 0.000000
# 3 -0.003822 -0.006468 0.009256 0.000000 0.000000 0.000000
# 4 0.000000 0.000000 0.000000 -0.061890 0.000000 0.000000
# 5 0.000000 0.000000 0.000000 0.000000 0.040462 0.000000
# 6 0.000000 0.000000 0.000000 0.000000 0.000000 0.071708
#
#
# Mechanical properties :
#
#
# Convention : Reuss Voigt Hill
#
# Bulk Modulus (GPa) = 46.62906 75.26343 60.94625
# Shear Modulus (GPa) = 34.83165 16.23196 25.53180
#
# Velocity S-wave (km/s) = 4.28265 2.92355 3.66662
# Velocity P-wave (km/s) = 7.00057 7.14333 7.07231
#
# Compressibility (1/GPa) = 0.02144585
#
# Stress axis : x y z
#
# Youngs Moduli (GPa) = 36.03688 59.60353 108.03831
#
# Poissons Ratio (x) = 0.35040 0.41293
# Poissons Ratio (y) = 0.21186 0.69874
# Poissons Ratio (z) = 0.13774 0.38549
#
# Static dielectric constant tensor:
#      x y z
#    x 1.644320 0.000000 0.000000 
#    y 0.000000 1.683520 0.000000 
#    z 0.000000 0.000000 1.633670 
# 
# From -- ./inp_files/25949.got.cif
#   From: 2010.05.17/outbox.cif.g08.bks.cpg/sg44_13_cif.got.tgz:25949.got - 2010.06.03 19:37:08.
