data_PCOD9375488
_publ_section_title
;
Structure prediction by ZEFSAII (Michael W. Deem and Ramdas Pophale) SiO2 
 PCOD9375488
Probable space group: I M M 2
;
_chemical_formula_sum "Si O2"
_cell_formula_units_Z 64
_cell_length_a 22.103882
_cell_length_b 9.144196
_cell_length_c 15.804210
_cell_angle_alpha 90.000000
_cell_angle_beta 90.000000
_cell_angle_gamma 90.000000
_cell_volume 3194.382159
_symmetry_space_group_name_H-M "I M M 2"
_symmetry_group_IT_number 44
_symmetry_cell_setting 'orthorhombic'
loop_
_space_group_symop_operation_xyz
x,y,z
-x,-y,z
-x,y,z
x,-y,z
1/2+x,1/2+y,1/2+z
1/2-x,1/2-y,1/2+z
1/2-x,1/2+y,1/2+z
1/2+x,1/2-y,1/2+z
loop_
_atom_site_type_symbol
_atom_site_label
_atom_site_fract_x
_atom_site_fract_y
_atom_site_fract_z
Si Si1 0.819155 0.173569 0.455160
Si Si2 0.121799 0.329173 0.873478
Si Si3 0.926692 0.164413 0.223558
Si Si4 0.191597 0.823890 0.640018
Si Si5 0.428645 0.170978 0.895897
Si Si6 0.067282 0.672308 0.694460
Si Si7 0.758946 0.826513 0.814545
Si Si8 0.926967 0.332205 0.059507
O O1 0.788873 0.214474 0.544850
O O2 0.887537 0.232572 0.456686
O O3 0.788235 0.246765 0.374609
O O4 0.817697 0.000000 0.446642
O O5 0.142895 0.500000 0.873205
O O6 0.074285 0.317465 0.796649
O O7 0.176115 0.221339 0.851449
O O8 0.095809 0.297269 0.965792
O O9 0.914778 0.273300 0.300873
O O10 0.904819 0.227675 0.134317
O O11 0.000000 0.157365 0.218192
O O12 0.904590 0.000000 0.240996
O O13 0.125633 0.755021 0.658192
O O14 0.236746 0.780266 0.715879
O O15 0.185761 0.000000 0.644206
O O16 0.500000 0.191201 0.910680
O O17 0.414461 0.000000 0.904544
O O18 0.071974 0.500000 0.672340
O O19 0.000000 0.723627 0.669204
O O20 0.749765 0.000000 0.818602
O O21 0.909541 0.500000 0.079203
O O22 0.000000 0.326813 0.058210
#
# Coordination Sequence:
#
# PCOD9375488 Si02
#       8
#     8   8   8   8   8   8   8   8
#     4  11  23  41  64  88 114 149 191 235 287 345
#     4   9  17  31  51  76 109 150 192 238 288 339
#     4   9  17  30  48  72 106 145 184 229 278 328
#     4   9  21  40  60  83 115 152 189 234 288 343
#     4  10  21  38  60  86 116 149 185 228 282 341
#     4   9  17  30  52  83 117 152 191 234 280 334
#     4  10  21  40  61  82 111 148 191 242 289 337
#     4   9  16  27  46  73 107 149 194 237 286 344
#
# _framework density 20.035174999999999
#
# number of rings (size 3 to 8) (size 9 to 14) (size 15 to 20)
#    0.000    2.500    0.000    1.875    0.000    6.500 
#    2.250    2.500    0.000    2.250    0.000    0.000 
#    0.000    0.000    0.000    0.000    0.000    0.000 
#
# Total GULP energy -178546.129324 kJ/mol
# GULP energy per Si atom -5579.566541 kJ/mol
# Density = 1.998957 g / cm^3
# Si number density = 20.035175 Si / 1000 Ang^3
#
#
#
# Elastic Constant Matrix: (Units=GPa)
#
#
# Indices 1 2 3 4 5 6 
#
# 1 42.2104 23.5809 28.5555 0.0000 0.0000 0.0000
# 2 23.5809 49.7064 41.4694 0.0000 0.0000 0.0000
# 3 28.5555 41.4694 115.1898 0.0000 0.0000 0.0000
# 4 0.0000 0.0000 0.0000 26.2829 0.0000 0.0000
# 5 0.0000 0.0000 0.0000 0.0000 18.1182 0.0000
# 6 0.0000 0.0000 0.0000 0.0000 0.0000 25.6688
#
#
#
# Elastic Compliance Matrix: (Units=1/GPa)
#
#
# Indices 1 2 3 4 5 6 
#
# 1 0.033284 -0.012730 -0.003668 0.000000 0.000000 0.000000
# 2 -0.012730 0.033623 -0.008949 0.000000 0.000000 0.000000
# 3 -0.003668 -0.008949 0.012812 0.000000 0.000000 0.000000
# 4 0.000000 0.000000 0.000000 0.038048 0.000000 0.000000
# 5 0.000000 0.000000 0.000000 0.000000 0.055193 0.000000
# 6 0.000000 0.000000 0.000000 0.000000 0.000000 0.038958
#
#
# Mechanical properties :
#
#
# Convention : Reuss Voigt Hill
#
# Bulk Modulus (GPa) = 34.45224 43.81314 39.13269
# Shear Modulus (GPa) = 18.36299 21.58069 19.97184
#
# Velocity S-wave (km/s) = 3.03072 3.28554 3.16070
# Velocity P-wave (km/s) = 5.42957 6.02566 5.73537
#
# Compressibility (1/GPa) = 0.02902569
#
# Stress axis : x y z
#
# Youngs Moduli (GPa) = 30.04459 29.74142 78.04935
#
# Poissons Ratio (x) = 0.37860 0.28631
# Poissons Ratio (y) = 0.38246 0.69846
# Poissons Ratio (z) = 0.11021 0.26616
#
# Static dielectric constant tensor:
#      x y z
#    x 1.731370 0.000000 0.000000 
#    y 0.000000 1.677350 0.000000 
#    z 0.000000 0.000000 1.729810 
# 
# From -- ./inp_files/16839.got.cif
#   From: 2010.05.17/outbox.cif.g08.bks.cpg/sg44_9_cif.got.tgz:16839.got - 2010.06.03 19:37:08.
