data_PCOD9375860
_publ_section_title
;
Structure prediction by ZEFSAII (Michael W. Deem and Ramdas Pophale) SiO2 
 PCOD9375860
Probable space group: I M M 2
;
_chemical_formula_sum "Si O2"
_cell_formula_units_Z 48
_cell_length_a 8.093833
_cell_length_b 7.401800
_cell_length_c 35.970308
_cell_angle_alpha 90.000000
_cell_angle_beta 90.000000
_cell_angle_gamma 90.000000
_cell_volume 2154.942776
_symmetry_space_group_name_H-M "I M M 2"
_symmetry_group_IT_number 44
_symmetry_cell_setting 'orthorhombic'
loop_
_space_group_symop_operation_xyz
x,y,z
-x,-y,z
-x,y,z
x,-y,z
1/2+x,1/2+y,1/2+z
1/2-x,1/2-y,1/2+z
1/2-x,1/2+y,1/2+z
1/2+x,1/2-y,1/2+z
loop_
_atom_site_type_symbol
_atom_site_label
_atom_site_fract_x
_atom_site_fract_y
_atom_site_fract_z
Si Si1 0.696454 0.209914 0.252370
Si Si2 0.301228 0.292607 0.831144
Si Si3 0.500000 0.713036 0.464258
Si Si4 0.500000 0.278461 0.548558
Si Si5 0.819604 0.720499 0.594956
Si Si6 0.687740 0.715616 0.912342
Si Si7 0.190392 0.781194 0.173045
O O1 0.500000 0.209752 0.249186
O O2 0.743934 0.290653 0.292263
O O3 0.765794 0.287965 0.214021
O O4 0.756521 0.000000 0.253689
O O5 0.500000 0.297480 0.830363
O O6 0.236265 0.500000 0.831027
O O7 0.259452 0.212720 0.871484
O O8 0.500000 0.500000 0.468215
O O9 0.500000 0.786373 0.506126
O O10 0.667258 0.756804 0.441811
O O11 0.500000 0.500000 0.549001
O O12 0.335109 0.221212 0.570282
O O13 0.815998 0.500000 0.595126
O O14 0.795268 0.779376 0.637710
O O15 0.000000 0.776022 0.581080
O O16 0.500000 0.780250 0.921588
O O17 0.673223 0.500000 0.907704
O O18 0.000000 0.743130 0.164722
O O19 0.210553 0.000000 0.174697
#
# Coordination Sequence:
#
# PCOD9375860 Si02
#       7
#     8   8   4   4   8   8   8
#     4   9  15  19  27  50  80 110 148 192 236 283
#     4   8  14  25  40  59  84 117 159 201 243 293
#     4  11  23  35  53  79 107 137 175 225 273 319
#     4   9  18  31  41  59  87 119 163 203 245 303
#     4   9  15  24  38  52  72 110 157 197 233 286
#     4   9  19  36  57  78 102 138 180 218 263 322
#     4   9  14  20  30  45  72 109 150 193 232 277
#
# _framework density 22.274372
#
# number of rings (size 3 to 8) (size 9 to 14) (size 15 to 20)
#    0.000    3.000    0.833    2.250    1.167    5.000 
#    0.000    1.667    0.000    0.000    0.000    0.000 
#    0.000    0.000    0.000    3.000    5.000    5.000 
#
# Total GULP energy -133880.553673 kJ/mol
# GULP energy per Si atom -5578.356403 kJ/mol
# Density = 2.222367 g / cm^3
# Si number density = 22.274372 Si / 1000 Ang^3
#
#
#
# Elastic Constant Matrix: (Units=GPa)
#
#
# Indices 1 2 3 4 5 6 
#
# 1 132.8127 6.5773 109.1463 0.0000 0.0000 0.0000
# 2 6.5773 73.8720 5.5828 0.0000 0.0000 0.0000
# 3 109.1463 5.5828 191.8779 0.0000 0.0000 0.0000
# 4 0.0000 0.0000 0.0000 9.4046 0.0000 0.0000
# 5 0.0000 0.0000 0.0000 0.0000 29.5857 0.0000
# 6 0.0000 0.0000 0.0000 0.0000 0.0000 -79.9401
#
#
#
# Elastic Compliance Matrix: (Units=1/GPa)
#
#
# Indices 1 2 3 4 5 6 
#
# 1 0.014170 -0.000654 -0.008042 0.000000 0.000000 0.000000
# 2 -0.000654 0.013597 -0.000024 0.000000 0.000000 0.000000
# 3 -0.008042 -0.000024 0.009787 0.000000 0.000000 0.000000
# 4 0.000000 0.000000 0.000000 0.106331 0.000000 0.000000
# 5 0.000000 0.000000 0.000000 0.000000 0.033800 0.000000
# 6 0.000000 0.000000 0.000000 0.000000 0.000000 -0.012509
#
#
# Mechanical properties :
#
#
# Convention : Reuss Voigt Hill
#
# Bulk Modulus (GPa) = 49.71238 71.24170 60.47704
# Shear Modulus (GPa) = 26.41044 10.29380 18.35212
#
# Velocity S-wave (km/s) = 3.44712 2.15207 2.87350
# Velocity P-wave (km/s) = 6.18143 6.18291 6.18217
#
# Compressibility (1/GPa) = 0.02011571
#
# Stress axis : x y z
#
# Youngs Moduli (GPa) = 70.56980 73.54597 102.18040
#
# Poissons Ratio (x) = 0.04810 0.82169
# Poissons Ratio (y) = 0.04615 0.00241
# Poissons Ratio (z) = 0.56749 0.00174
#
# Static dielectric constant tensor:
#      x y z
#    x 1.694960 0.000000 0.000000 
#    y 0.000000 1.559650 0.000000 
#    z 0.000000 0.000000 1.839340 
# 
# From -- ./inp_files/26918.got.cif
#   From: 2010.05.17/outbox.cif.g08.bks.cpg/sg44_14_cif.got.tgz:26918.got - 2010.06.03 19:37:08.
