data_PCOD9375491
_publ_section_title
;
Structure prediction by ZEFSAII (Michael W. Deem and Ramdas Pophale) SiO2 
 PCOD9375491
Probable space group: I M M 2
;
_chemical_formula_sum "Si O2"
_cell_formula_units_Z 64
_cell_length_a 19.148561
_cell_length_b 14.311949
_cell_length_c 11.826253
_cell_angle_alpha 90.000000
_cell_angle_beta 90.000000
_cell_angle_gamma 90.000000
_cell_volume 3241.022815
_symmetry_space_group_name_H-M "I M M 2"
_symmetry_group_IT_number 44
_symmetry_cell_setting 'orthorhombic'
loop_
_space_group_symop_operation_xyz
x,y,z
-x,-y,z
-x,y,z
x,-y,z
1/2+x,1/2+y,1/2+z
1/2-x,1/2-y,1/2+z
1/2-x,1/2+y,1/2+z
1/2+x,1/2-y,1/2+z
loop_
_atom_site_type_symbol
_atom_site_label
_atom_site_fract_x
_atom_site_fract_y
_atom_site_fract_z
Si Si1 0.786567 0.395094 0.545740
Si Si2 0.666440 0.603973 0.709126
Si Si3 0.204134 0.606085 0.276664
Si Si4 0.082327 0.105049 0.755084
Si Si5 0.080307 0.281652 0.913456
Si Si6 0.920647 0.282654 0.185658
Si Si7 0.192393 0.197815 0.614090
Si Si8 0.220934 0.392043 0.908915
O O1 0.809120 0.500000 0.580724
O O2 0.707148 0.384199 0.590234
O O3 0.791573 0.388919 0.411239
O O4 0.825721 0.306115 0.597368
O O5 0.635558 0.500000 0.713357
O O6 0.611831 0.685482 0.728293
O O7 0.728193 0.609186 0.801151
O O8 0.221414 0.500000 0.241767
O O9 0.128550 0.635384 0.231236
O O10 0.257173 0.678655 0.220426
O O11 0.093293 0.181993 0.853005
O O12 0.125022 0.137247 0.644898
O O13 0.000000 0.104001 0.731709
O O14 0.103998 0.000000 0.789052
O O15 0.145336 0.348119 0.883288
O O16 0.000000 0.310324 0.882241
O O17 0.081752 0.277199 0.049536
O O18 0.000000 0.295052 0.221670
O O19 0.237847 0.163264 0.507424
O O20 0.211946 0.500000 0.944328
#
# Coordination Sequence:
#
# PCOD9375491 Si02
#       8
#     8   8   8   8   8   8   8   8
#     4  10  22  39  63  91 122 157 208 260 309 363
#     4  10  21  38  60  87 119 160 206 256 306 360
#     4  11  23  39  62  93 121 161 211 258 304 363
#     4  10  23  42  63  92 128 165 212 270 325 379
#     4  10  22  37  58  89 124 162 200 253 323 382
#     4  11  23  38  57  86 124 165 202 247 312 375
#     4  12  22  37  65  93 124 160 208 257 317 372
#     4  11  22  38  61  91 124 164 211 259 311 373
#
# _framework density 19.746853000000002
#
# number of rings (size 3 to 8) (size 9 to 14) (size 15 to 20)
#    0.000    1.375    2.500    2.625    3.500    1.250 
#    0.000    5.000    0.000    3.375    0.000    3.500 
#    0.000    0.000    0.000    0.000    0.000    0.000 
#
# Total GULP energy -178749.283673 kJ/mol
# GULP energy per Si atom -5585.915115 kJ/mol
# Density = 1.970191 g / cm^3
# Si number density = 19.746853 Si / 1000 Ang^3
#
#
#
# Elastic Constant Matrix: (Units=GPa)
#
#
# Indices 1 2 3 4 5 6 
#
# 1 91.6899 32.7159 28.1637 0.0000 0.0000 0.0000
# 2 32.7159 123.0714 28.9389 0.0000 0.0000 0.0000
# 3 28.1637 28.9389 60.7612 0.0000 0.0000 0.0000
# 4 0.0000 0.0000 0.0000 28.7457 0.0000 0.0000
# 5 0.0000 0.0000 0.0000 0.0000 22.5337 0.0000
# 6 0.0000 0.0000 0.0000 0.0000 0.0000 25.0992
#
#
#
# Elastic Compliance Matrix: (Units=1/GPa)
#
#
# Indices 1 2 3 4 5 6 
#
# 1 0.013293 -0.002348 -0.005043 0.000000 0.000000 0.000000
# 2 -0.002348 0.009565 -0.003467 0.000000 0.000000 0.000000
# 3 -0.005043 -0.003467 0.020447 0.000000 0.000000 0.000000
# 4 0.000000 0.000000 0.000000 0.034788 0.000000 0.000000
# 5 0.000000 0.000000 0.000000 0.000000 0.044378 0.000000
# 6 0.000000 0.000000 0.000000 0.000000 0.000000 0.039842
#
#
# Mechanical properties :
#
#
# Convention : Reuss Voigt Hill
#
# Bulk Modulus (GPa) = 46.32192 50.57328 48.44760
# Shear Modulus (GPa) = 26.14717 27.65599 26.90158
#
# Velocity S-wave (km/s) = 3.64279 3.74642 3.69497
# Velocity P-wave (km/s) = 6.41888 6.66188 6.54151
#
# Compressibility (1/GPa) = 0.02158805
#
# Stress axis : x y z
#
# Youngs Moduli (GPa) = 75.22652 104.55059 48.90723
#
# Poissons Ratio (x) = 0.24546 0.24666
# Poissons Ratio (y) = 0.17662 0.16957
# Poissons Ratio (z) = 0.37940 0.36250
#
# Static dielectric constant tensor:
#      x y z
#    x 1.688900 0.000000 0.000000 
#    y 0.000000 1.722930 0.000000 
#    z 0.000000 0.000000 1.699670 
# 
# From -- ./inp_files/13981.got.cif
#   From: 2010.05.17/outbox.cif.g08.bks.cpg/sg44_7_cif.got.tgz:13981.got - 2010.06.03 19:37:08.
