data_PCOD9375517
_publ_section_title
;
Structure prediction by ZEFSAII (Michael W. Deem and Ramdas Pophale) SiO2 
 PCOD9375517
Probable space group: I M M 2
;
_chemical_formula_sum "Si O2"
_cell_formula_units_Z 52
_cell_length_a 7.584072
_cell_length_b 18.223433
_cell_length_c 16.435684
_cell_angle_alpha 90.000000
_cell_angle_beta 90.000000
_cell_angle_gamma 90.000000
_cell_volume 2271.540187
_symmetry_space_group_name_H-M "I M M 2"
_symmetry_group_IT_number 44
_symmetry_cell_setting 'orthorhombic'
loop_
_space_group_symop_operation_xyz
x,y,z
-x,-y,z
-x,y,z
x,-y,z
1/2+x,1/2+y,1/2+z
1/2-x,1/2-y,1/2+z
1/2-x,1/2+y,1/2+z
1/2+x,1/2-y,1/2+z
loop_
_atom_site_type_symbol
_atom_site_label
_atom_site_fract_x
_atom_site_fract_y
_atom_site_fract_z
Si Si1 0.712424 0.145311 0.892650
Si Si2 0.301821 0.705713 0.980183
Si Si3 0.202150 0.664423 0.158063
Si Si4 0.798295 0.820121 0.213500
Si Si5 0.297214 0.917025 0.361608
Si Si6 0.500000 0.391217 0.252860
Si Si7 0.289632 0.081110 0.068306
O O1 0.500000 0.144739 0.872980
O O2 0.762383 0.227777 0.922873
O O3 0.842262 0.117759 0.822754
O O4 0.738060 0.096692 0.973622
O O5 0.500000 0.727964 0.004395
O O6 0.301849 0.633060 0.925979
O O7 0.204723 0.688159 0.063776
O O8 0.271352 0.737554 0.206392
O O9 0.344104 0.604589 0.182046
O O10 0.000000 0.648656 0.180013
O O11 0.707561 0.874448 0.276074
O O12 0.791639 0.857063 0.125170
O O13 0.000000 0.813289 0.240754
O O14 0.500000 0.919741 0.388722
O O15 0.231063 0.000000 0.352809
O O16 0.500000 0.083754 0.082412
O O17 0.225508 0.000000 0.090731
#
# Coordination Sequence:
#
# PCOD9375517 Si02
#       7
#     8   8   8   8   8   4   8
#     4  10  23  40  62  95 130 165 219 269 324 381
#     4  11  22  40  65  93 125 170 217 271 324 378
#     4  11  24  40  63  98 132 167 218 266 323 383
#     4  11  23  37  58  91 132 174 213 260 316 384
#     4  11  25  41  61  91 130 176 216 264 327 389
#     4  12  24  38  65  92 123 174 210 268 330 368
#     4  10  21  38  62  90 129 175 211 257 320 390
#
# _framework density 22.891957000000001
#
# number of rings (size 3 to 8) (size 9 to 14) (size 15 to 20)
#    0.000    1.231    2.308    3.231    7.538    5.846 
#    0.000    0.000    0.000    1.846    0.000    2.154 
#    0.000    0.000    0.000    0.000    0.000    0.000 
#
# Total GULP energy -144870.870269 kJ/mol
# GULP energy per Si atom -5571.956549 kJ/mol
# Density = 2.283985 g / cm^3
# Si number density = 22.891957 Si / 1000 Ang^3
#
#
#
# Elastic Constant Matrix: (Units=GPa)
#
#
# Indices 1 2 3 4 5 6 
#
# 1 105.4008 -3.8309 12.4372 0.0000 0.0000 0.0000
# 2 -3.8309 37.8498 -2.1115 0.0000 0.0000 0.0000
# 3 12.4372 -2.1115 74.2432 0.0000 0.0000 0.0000
# 4 0.0000 0.0000 0.0000 18.5096 0.0000 0.0000
# 5 0.0000 0.0000 0.0000 0.0000 610.8530 -0.0010
# 6 0.0000 0.0000 0.0000 0.0000 -0.0010 -80.0825
#
#
#
# Elastic Compliance Matrix: (Units=1/GPa)
#
#
# Indices 1 2 3 4 5 6 
#
# 1 0.009709 0.000893 -0.001601 0.000000 0.000000 0.000000
# 2 0.000893 0.026544 0.000605 0.000000 0.000000 0.000000
# 3 -0.001601 0.000605 0.013755 0.000000 0.000000 0.000000
# 4 0.000000 0.000000 0.000000 0.054026 0.000000 0.000000
# 5 0.000000 0.000000 0.000000 0.000000 0.001637 0.000000
# 6 0.000000 0.000000 0.000000 0.000000 0.000000 -0.012487
#
#
# Mechanical properties :
#
#
# Convention : Reuss Voigt Hill
#
# Bulk Modulus (GPa) = 20.07901 25.60927 22.84414
# Shear Modulus (GPa) = 45.45874 123.92262 84.69068
#
# Velocity S-wave (km/s) = 4.46106 7.36554 6.08902
# Velocity P-wave (km/s) = 5.94348 9.14036 7.70945
#
# Compressibility (1/GPa) = 0.04980326
#
# Stress axis : x y z
#
# Youngs Moduli (GPa) = 102.99734 37.67271 72.70258
#
# Poissons Ratio (x) = -0.03366 0.11640
# Poissons Ratio (y) = -0.09201 -0.04400
# Poissons Ratio (z) = 0.16490 -0.02280
#
# Static dielectric constant tensor:
#      x y z
#    x -10.881930 0.000000 0.000000 
#    y 0.000000 1.896490 0.000000 
#    z 0.000000 0.000000 1.840620 
# 
# From -- ./inp_files/16332.got.cif
#   From: 2010.05.17/outbox.cif.g08.bks.cpg/sg44_9_cif.got.tgz:16332.got - 2010.06.03 19:37:08.
