data_PCOD9375839
_publ_section_title
;
Structure prediction by ZEFSAII (Michael W. Deem and Ramdas Pophale) SiO2 
 PCOD9375839
Probable space group: I M M 2
;
_chemical_formula_sum "Si O2"
_cell_formula_units_Z 56
_cell_length_a 14.264815
_cell_length_b 22.749089
_cell_length_c 8.980552
_cell_angle_alpha 90.000000
_cell_angle_beta 90.000000
_cell_angle_gamma 90.000000
_cell_volume 2914.292813
_symmetry_space_group_name_H-M "I M M 2"
_symmetry_group_IT_number 44
_symmetry_cell_setting 'orthorhombic'
loop_
_space_group_symop_operation_xyz
x,y,z
-x,-y,z
-x,y,z
x,-y,z
1/2+x,1/2+y,1/2+z
1/2-x,1/2-y,1/2+z
1/2-x,1/2+y,1/2+z
1/2+x,1/2-y,1/2+z
loop_
_atom_site_type_symbol
_atom_site_label
_atom_site_fract_x
_atom_site_fract_y
_atom_site_fract_z
Si Si1 0.605678 0.696993 0.428110
Si Si2 0.394566 0.929899 0.923266
Si Si3 0.893717 0.177544 0.280063
Si Si4 0.386990 0.931127 0.271615
Si Si5 0.393026 0.566751 0.981356
Si Si6 0.299982 0.183311 0.425741
Si Si7 0.742838 0.628151 0.214726
O O1 0.500000 0.682471 0.385028
O O2 0.616647 0.684061 0.603762
O O3 0.626763 0.765278 0.396882
O O4 0.676396 0.658988 0.332845
O O5 0.500000 0.906663 0.899481
O O6 0.322781 0.904677 0.805395
O O7 0.397447 0.000000 0.906349
O O8 0.368637 0.919633 0.096208
O O9 0.889466 0.110590 0.341085
O O10 0.801370 0.203032 0.360281
O O11 0.000000 0.199293 0.319514
O O12 0.500000 0.926749 0.294478
O O13 0.334189 0.879714 0.361115
O O14 0.361774 0.000000 0.305100
O O15 0.500000 0.570530 0.039820
O O16 0.374431 0.500000 0.937166
O O17 0.320499 0.587542 0.106779
O O18 0.287738 0.174841 0.601723
#
# Coordination Sequence:
#
# PCOD9375839 Si02
#       7
#     8   8   8   8   8   8   8
#     4  11  23  40  58  79 111 149 190 233 278 332
#     4   9  19  36  57  83 117 152 185 227 281 339
#     4   9  20  38  58  80 110 148 189 230 272 328
#     4   9  19  37  60  85 113 147 188 232 279 336
#     4   9  18  35  58  83 111 145 187 234 284 335
#     4  11  22  37  59  84 112 147 189 231 280 336
#     4  11  22  35  55  84 116 146 183 232 286 333
#
# _framework density 19.21564
#
# number of rings (size 3 to 8) (size 9 to 14) (size 15 to 20)
#    0.000    2.143    0.000    3.857    0.000    4.571 
#    0.000    3.571    0.000    6.857    0.000    0.000 
#    0.000    0.000    0.000    0.000    0.000    0.000 
#
# Total GULP energy -156201.826526 kJ/mol
# GULP energy per Si atom -5578.636662 kJ/mol
# Density = 1.917190 g / cm^3
# Si number density = 19.215640 Si / 1000 Ang^3
#
#
#
# Elastic Constant Matrix: (Units=GPa)
#
#
# Indices 1 2 3 4 5 6 
#
# 1 78.3621 29.6402 52.7988 0.0002 0.0000 0.0000
# 2 29.6402 51.5340 34.5689 0.0002 0.0001 0.0000
# 3 52.7988 34.5689 78.5132 0.0011 0.0003 0.0001
# 4 0.0002 0.0002 0.0011 16.4330 0.0002 0.0001
# 5 0.0000 0.0001 0.0003 0.0002 29.8043 0.0000
# 6 0.0000 0.0000 0.0001 0.0001 0.0000 24.4813
#
#
#
# Elastic Compliance Matrix: (Units=1/GPa)
#
#
# Indices 1 2 3 4 5 6 
#
# 1 0.023963 -0.004219 -0.014257 0.000001 0.000000 0.000000
# 2 -0.004219 0.028281 -0.009615 0.000000 0.000000 0.000000
# 3 -0.014257 -0.009615 0.026558 -0.000002 0.000000 0.000000
# 4 0.000001 0.000000 -0.000002 0.060853 0.000000 0.000000
# 5 0.000000 0.000000 0.000000 0.000000 0.033552 0.000000
# 6 0.000000 0.000000 0.000000 0.000000 0.000000 0.040848
#
#
# Mechanical properties :
#
#
# Convention : Reuss Voigt Hill
#
# Bulk Modulus (GPa) = 44.20873 49.15833 46.68353
# Shear Modulus (GPa) = 18.00007 20.23716 19.11862
#
# Velocity S-wave (km/s) = 3.06394 3.24876 3.15771
# Velocity P-wave (km/s) = 5.96436 6.30164 6.13532
#
# Compressibility (1/GPa) = 0.02261997
#
# Stress axis : x y z
#
# Youngs Moduli (GPa) = 41.73026 35.35986 37.65365
#
# Poissons Ratio (x) = 0.14918 0.53684
# Poissons Ratio (y) = 0.17606 0.36203
# Poissons Ratio (z) = 0.59497 0.33997
#
# Static dielectric constant tensor:
#      x y z
#    x 1.689810 0.000000 0.000000 
#    y 0.000000 1.661370 0.000000 
#    z 0.000000 0.000000 1.635420 
# 
# From -- ./inp_files/7400.got.cif
#   From: 2010.05.17/outbox.cif.g08.bks.cpg/sg44_4_cif.got.tgz:7400.got - 2010.06.03 19:37:08.
