data_PCOD9375413
_publ_section_title
;
Structure prediction by ZEFSAII (Michael W. Deem and Ramdas Pophale) SiO2 
 PCOD9375413
Probable space group: I M M 2
;
_chemical_formula_sum "Si O2"
_cell_formula_units_Z 56
_cell_length_a 8.890217
_cell_length_b 13.564220
_cell_length_c 19.811622
_cell_angle_alpha 90.000000
_cell_angle_beta 90.000000
_cell_angle_gamma 90.000000
_cell_volume 2389.060897
_symmetry_space_group_name_H-M "I M M 2"
_symmetry_group_IT_number 44
_symmetry_cell_setting 'orthorhombic'
loop_
_space_group_symop_operation_xyz
x,y,z
-x,-y,z
-x,y,z
x,-y,z
1/2+x,1/2+y,1/2+z
1/2-x,1/2-y,1/2+z
1/2-x,1/2+y,1/2+z
1/2+x,1/2-y,1/2+z
loop_
_atom_site_type_symbol
_atom_site_label
_atom_site_fract_x
_atom_site_fract_y
_atom_site_fract_z
Si Si1 0.678174 0.886877 0.179210
Si Si2 0.171984 0.696624 0.961206
Si Si3 0.831483 0.386218 0.467040
Si Si4 0.664071 0.617119 0.340053
Si Si5 0.676643 0.382508 0.826291
Si Si6 0.663491 0.883909 0.718227
Si Si7 0.674984 0.309626 0.094464
O O1 0.500000 0.884516 0.194600
O O2 0.766388 0.867813 0.249252
O O3 0.702011 0.804206 0.121155
O O4 0.714007 0.000000 0.157176
O O5 0.195730 0.812381 0.981597
O O6 0.231190 0.672441 0.885970
O O7 0.000000 0.666136 0.968932
O O8 0.283177 0.657237 0.018831
O O9 0.811360 0.500000 0.486440
O O10 0.813221 0.378220 0.386075
O O11 0.000000 0.354609 0.488172
O O12 0.500000 0.658074 0.361679
O O13 0.641994 0.500000 0.336961
O O14 0.708526 0.656765 0.267421
O O15 0.500000 0.357939 0.831907
O O16 0.694518 0.500000 0.839031
O O17 0.500000 0.839148 0.729834
O O18 0.716255 0.869453 0.642898
O O19 0.654191 0.000000 0.732057
O O20 0.500000 0.329423 0.107015
#
# Coordination Sequence:
#
# PCOD9375413 Si02
#       7
#     8   8   8   8   8   8   8
#     4   9  20  41  68  96 126 163 209 263 323 384
#     4  12  26  42  62  90 127 168 212 261 319 386
#     4  10  21  38  60  86 119 159 201 247 301 362
#     4   9  17  31  53  82 114 148 190 237 286 346
#     4  10  22  42  69  98 127 164 214 271 327 384
#     4  10  21  37  57  83 118 160 202 245 299 362
#     4  11  24  41  62  90 125 164 210 261 318 382
#
# _framework density 23.440173999999999
#
# number of rings (size 3 to 8) (size 9 to 14) (size 15 to 20)
#    0.000    1.857    0.000    3.429    2.000    6.571 
#    0.000    1.429    0.000    0.000    0.000    0.000 
#    0.000    0.000    0.000    0.000    0.000    0.000 
#
# Total GULP energy -156082.433845 kJ/mol
# GULP energy per Si atom -5574.372637 kJ/mol
# Density = 2.338682 g / cm^3
# Si number density = 23.440174 Si / 1000 Ang^3
#
#
#
# Elastic Constant Matrix: (Units=GPa)
#
#
# Indices 1 2 3 4 5 6 
#
# 1 127.0028 23.8427 34.9819 0.0000 0.0000 0.0000
# 2 23.8427 62.8606 -8.3024 0.0000 0.0000 0.0000
# 3 34.9819 -8.3024 93.5651 0.0000 0.0000 0.0000
# 4 0.0000 0.0000 0.0000 4.6957 0.0000 0.0000
# 5 0.0000 0.0000 0.0000 0.0000 42.6802 0.0000
# 6 0.0000 0.0000 0.0000 0.0000 0.0000 24.0748
#
#
#
# Elastic Compliance Matrix: (Units=1/GPa)
#
#
# Indices 1 2 3 4 5 6 
#
# 1 0.009781 -0.004243 -0.004033 0.000000 0.000000 0.000000
# 2 -0.004243 0.017937 0.003178 0.000000 0.000000 0.000000
# 3 -0.004033 0.003178 0.012478 0.000000 0.000000 0.000000
# 4 0.000000 0.000000 0.000000 0.212963 0.000000 0.000000
# 5 0.000000 0.000000 0.000000 0.000000 0.023430 0.000000
# 6 0.000000 0.000000 0.000000 0.000000 0.000000 0.041537
#
#
# Mechanical properties :
#
#
# Convention : Reuss Voigt Hill
#
# Bulk Modulus (GPa) = 33.33374 42.71921 38.02648
# Shear Modulus (GPa) = 14.77878 29.81721 22.29800
#
# Velocity S-wave (km/s) = 2.51368 3.57046 3.08762
# Velocity P-wave (km/s) = 4.76198 5.93817 5.38230
#
# Compressibility (1/GPa) = 0.02999963
#
# Stress axis : x y z
#
# Youngs Moduli (GPa) = 102.23550 55.75006 80.14257
#
# Poissons Ratio (x) = 0.23653 0.32325
# Poissons Ratio (y) = 0.43376 -0.25469
# Poissons Ratio (z) = 0.41237 -0.17717
#
# Static dielectric constant tensor:
#      x y z
#    x 1.824610 0.000000 0.000000 
#    y 0.000000 2.063100 0.000000 
#    z 0.000000 0.000000 1.932470 
# 
# From -- ./inp_files/23100.got.cif
#   From: 2010.05.17/outbox.cif.g08.bks.cpg/sg44_12_cif.got.tgz:23100.got - 2010.06.03 19:37:08.
