data_PCOD9375851
_publ_section_title
;
Structure prediction by ZEFSAII (Michael W. Deem and Ramdas Pophale) SiO2 
 PCOD9375851
Probable space group: I M M 2
;
_chemical_formula_sum "Si O2"
_cell_formula_units_Z 58
_cell_length_a 24.112702
_cell_length_b 16.837663
_cell_length_c 7.173745
_cell_angle_alpha 90.000000
_cell_angle_beta 90.000000
_cell_angle_gamma 90.000000
_cell_volume 2912.551591
_symmetry_space_group_name_H-M "I M M 2"
_symmetry_group_IT_number 44
_symmetry_cell_setting 'orthorhombic'
loop_
_space_group_symop_operation_xyz
x,y,z
-x,-y,z
-x,y,z
x,-y,z
1/2+x,1/2+y,1/2+z
1/2-x,1/2-y,1/2+z
1/2-x,1/2+y,1/2+z
1/2+x,1/2-y,1/2+z
loop_
_atom_site_type_symbol
_atom_site_label
_atom_site_fract_x
_atom_site_fract_y
_atom_site_fract_z
Si Si1 0.650130 0.911103 0.693790
Si Si2 0.788912 0.146371 0.308228
Si Si3 0.826252 0.413254 0.745723
Si Si4 0.436886 0.779357 0.629301
Si Si5 0.500000 0.500000 0.947721
Si Si6 0.251435 0.683488 0.228272
Si Si7 0.630845 0.257463 0.258468
Si Si8 0.409988 0.640765 0.907938
O O1 0.662329 0.911430 0.470020
O O2 0.601081 0.848433 0.716876
O O3 0.707102 0.881971 0.790980
O O4 0.635535 0.000000 0.748016
O O5 0.739959 0.095014 0.220110
O O6 0.783518 0.235045 0.226271
O O7 0.770821 0.159165 0.522754
O O8 0.851150 0.115280 0.314849
O O9 0.845578 0.500000 0.679329
O O10 0.853701 0.330597 0.679501
O O11 0.500000 0.805880 0.600711
O O12 0.409350 0.754198 0.433060
O O13 0.435234 0.704516 0.765962
O O14 0.451441 0.569436 0.943720
O O15 0.310239 0.703820 0.323051
O O16 0.604975 0.312466 0.098767
#
# Coordination Sequence:
#
# PCOD9375851 Si02
#       8
#     8   8   8   8   2   8   8   8
#     4   9  17  32  56  87 123 156 197 249 298 357
#     4   9  17  29  56  81 117 155 192 242 300 360
#     4   8  15  30  56  92 122 150 192 241 299 367
#     4  11  22  39  64  84 117 165 203 247 301 361
#     4  12  28  44  62  88 114 158 220 260 292 356
#     4   9  16  31  55  86 116 153 197 242 302 367
#     4   9  21  38  62  91 116 163 204 240 308 375
#     4  11  23  42  60  83 117 154 205 253 300 354
#
# _framework density 19.913810999999999
#
# number of rings (size 3 to 8) (size 9 to 14) (size 15 to 20)
#    0.000    2.483    2.069    0.828    1.931    0.276 
#    3.724    2.069    0.000    0.000    0.000    0.000 
#    0.000    0.000    0.000    0.000    0.000    0.000 
#
# Total GULP energy -161482.845837 kJ/mol
# GULP energy per Si atom -5568.373994 kJ/mol
# Density = 1.986849 g / cm^3
# Si number density = 19.913811 Si / 1000 Ang^3
#
#
#
# Elastic Constant Matrix: (Units=GPa)
#
#
# Indices 1 2 3 4 5 6 
#
# 1 162.9264 74.1110 37.6562 0.0000 0.0000 0.0000
# 2 74.1110 156.0452 18.1423 0.0000 0.0000 0.0000
# 3 37.6562 18.1423 53.5988 0.0000 0.0000 0.0000
# 4 0.0000 0.0000 0.0000 5.0249 0.0000 0.0000
# 5 0.0000 0.0000 0.0000 0.0000 15.4771 0.0000
# 6 0.0000 0.0000 0.0000 0.0000 0.0000 36.6473
#
#
#
# Elastic Compliance Matrix: (Units=1/GPa)
#
#
# Indices 1 2 3 4 5 6 
#
# 1 0.008981 -0.003676 -0.005065 0.000000 0.000000 0.000000
# 2 -0.003676 0.008176 -0.000185 0.000000 0.000000 0.000000
# 3 -0.005065 -0.000185 0.022278 0.000000 0.000000 0.000000
# 4 0.000000 0.000000 0.000000 0.199007 0.000000 0.000000
# 5 0.000000 0.000000 0.000000 0.000000 0.064612 0.000000
# 6 0.000000 0.000000 0.000000 0.000000 0.000000 0.027287
#
#
# Mechanical properties :
#
#
# Convention : Reuss Voigt Hill
#
# Bulk Modulus (GPa) = 46.33335 70.26551 58.29943
# Shear Modulus (GPa) = 14.06918 27.60727 20.83823
#
# Velocity S-wave (km/s) = 2.66090 3.72740 3.23835
# Velocity P-wave (km/s) = 5.72346 7.34071 6.58195
#
# Compressibility (1/GPa) = 0.02158273
#
# Stress axis : x y z
#
# Youngs Moduli (GPa) = 111.35038 122.31117 44.88714
#
# Poissons Ratio (x) = 0.44966 0.22736
# Poissons Ratio (y) = 0.40936 0.00828
# Poissons Ratio (z) = 0.56399 0.02257
#
# Static dielectric constant tensor:
#      x y z
#    x 1.720930 0.000000 0.000000 
#    y 0.000000 1.699530 0.000000 
#    z 0.000000 0.000000 1.763640 
# 
# From -- ./inp_files/9441.got.cif
#   From: 2010.05.17/outbox.cif.g08.bks.cpg/sg44_5_cif.got.tgz:9441.got - 2010.06.03 19:37:08.
