data_PCOD9375387
_publ_section_title
;
Structure prediction by ZEFSAII (Michael W. Deem and Ramdas Pophale) SiO2 
 PCOD9375387
Probable space group: I M M 2
;
_chemical_formula_sum "Si O2"
_cell_formula_units_Z 64
_cell_length_a 8.713497
_cell_length_b 33.546771
_cell_length_c 12.038740
_cell_angle_alpha 90.000000
_cell_angle_beta 90.000000
_cell_angle_gamma 90.000000
_cell_volume 3519.040339
_symmetry_space_group_name_H-M "I M M 2"
_symmetry_group_IT_number 44
_symmetry_cell_setting 'orthorhombic'
loop_
_space_group_symop_operation_xyz
x,y,z
-x,-y,z
-x,y,z
x,-y,z
1/2+x,1/2+y,1/2+z
1/2-x,1/2-y,1/2+z
1/2-x,1/2+y,1/2+z
1/2+x,1/2-y,1/2+z
loop_
_atom_site_type_symbol
_atom_site_label
_atom_site_fract_x
_atom_site_fract_y
_atom_site_fract_z
Si Si1 0.686545 0.149506 0.762780
Si Si2 0.816600 0.378196 0.016699
Si Si3 0.679938 0.273967 0.387071
Si Si4 0.820764 0.601208 0.469534
Si Si5 0.683321 0.453670 0.898437
Si Si6 0.181209 0.812569 0.352603
Si Si7 0.678353 0.672141 0.594150
Si Si8 0.319627 0.047390 0.160714
O O1 0.500000 0.151799 0.767918
O O2 0.731748 0.137462 0.638544
O O3 0.751475 0.191539 0.807362
O O4 0.740658 0.115459 0.850362
O O5 0.000000 0.381229 0.016653
O O6 0.749652 0.421247 0.983169
O O7 0.764976 0.345531 0.926664
O O8 0.500000 0.269308 0.361736
O O9 0.762897 0.231963 0.377351
O O10 0.693693 0.290072 0.513240
O O11 0.794232 0.639651 0.546679
O O12 0.756085 0.566335 0.547143
O O13 0.000000 0.592310 0.452238
O O14 0.500000 0.453149 0.904066
O O15 0.734651 0.500000 0.915547
O O16 0.734688 0.440956 0.774043
O O17 0.207808 0.819776 0.222082
O O18 0.000000 0.815976 0.373551
O O19 0.500000 0.658262 0.582007
O O20 0.500000 0.058622 0.172132
O O21 0.310892 0.000000 0.152507
#
# Coordination Sequence:
#
# PCOD9375387 Si02
#       8
#     8   8   8   8   8   8   8   8
#     4   9  20  38  56  76 108 147 184 227 278 329
#     4  11  23  38  57  82 112 148 190 234 278 331
#     4  10  21  37  56  79 105 139 181 224 274 330
#     4   9  17  32  54  77 102 135 175 216 263 320
#     4  10  21  37  57  82 114 149 185 229 282 336
#     4  11  23  37  55  80 110 143 179 225 278 328
#     4   9  20  36  52  72 101 134 169 214 267 317
#     4   9  17  30  52  82 112 139 172 220 274 329
#
# _framework density 18.186775999999998
#
# number of rings (size 3 to 8) (size 9 to 14) (size 15 to 20)
#    0.000    2.250    0.000    2.250    1.750    5.750 
#    0.000    0.625    0.000    2.250    0.000    1.750 
#    0.000    0.000    0.000    0.000    0.000    0.000 
#
# Total GULP energy -178450.922178 kJ/mol
# GULP energy per Si atom -5576.591318 kJ/mol
# Density = 1.814538 g / cm^3
# Si number density = 18.186776 Si / 1000 Ang^3
#
#
#
# Elastic Constant Matrix: (Units=GPa)
#
#
# Indices 1 2 3 4 5 6 
#
# 1 26.6155 17.9584 34.3092 0.0001 0.0000 0.0000
# 2 17.9584 74.1266 56.5730 0.0000 0.0000 0.0000
# 3 34.3092 56.5730 113.3673 -0.0001 0.0000 -0.0001
# 4 0.0001 0.0000 -0.0001 13.9296 0.0000 -0.0001
# 5 0.0000 0.0000 0.0000 0.0000 17.4501 0.0000
# 6 0.0000 0.0000 -0.0001 -0.0001 0.0000 27.0432
#
#
#
# Elastic Compliance Matrix: (Units=1/GPa)
#
#
# Indices 1 2 3 4 5 6 
#
# 1 0.061664 -0.001125 -0.018100 0.000000 0.000000 0.000000
# 2 -0.001125 0.021809 -0.010543 0.000000 0.000000 0.000000
# 3 -0.018100 -0.010543 0.019560 0.000000 0.000000 0.000000
# 4 0.000000 0.000000 0.000000 0.071790 0.000000 0.000000
# 5 0.000000 0.000000 0.000000 0.000000 0.057306 0.000000
# 6 0.000000 0.000000 0.000000 0.000000 0.000000 0.036978
#
#
# Mechanical properties :
#
#
# Convention : Reuss Voigt Hill
#
# Bulk Modulus (GPa) = 22.99040 47.97675 35.48358
# Shear Modulus (GPa) = 14.57122 18.70249 16.63686
#
# Velocity S-wave (km/s) = 2.83362 3.21028 3.02781
# Velocity P-wave (km/s) = 4.83472 6.33865 5.63707
#
# Compressibility (1/GPa) = 0.04349641
#
# Stress axis : x y z
#
# Youngs Moduli (GPa) = 16.21698 45.85208 51.12503
#
# Poissons Ratio (x) = 0.05158 0.92538
# Poissons Ratio (y) = 0.01824 0.53901
# Poissons Ratio (z) = 0.29353 0.48341
#
# Static dielectric constant tensor:
#      x y z
#    x 1.628400 0.000000 0.000000 
#    y 0.000000 1.618480 0.000000 
#    z 0.000000 0.000000 1.627920 
# 
# From -- ./inp_files/11465.got.cif
#   From: 2010.05.17/outbox.cif.g08.bks.cpg/sg44_6_cif.got.tgz:11465.got - 2010.06.03 19:37:08.
