data_PCOD9375974
_publ_section_title
;
Structure prediction by ZEFSAII (Michael W. Deem and Ramdas Pophale) SiO2 
 PCOD9375974
Probable space group: I M M 2
;
_chemical_formula_sum "Si O2"
_cell_formula_units_Z 32
_cell_length_a 18.000000
_cell_length_b 9.000000
_cell_length_c 21.000000
_cell_angle_alpha 90.000000
_cell_angle_beta 90.000000
_cell_angle_gamma 90.000000
_cell_volume 3402.000000
_symmetry_space_group_name_H-M "I M M 2"
_symmetry_group_IT_number 44
_symmetry_cell_setting 'orthorhombic'
loop_
_space_group_symop_operation_xyz
x,y,z
-x,-y,z
-x,y,z
x,-y,z
1/2+x,1/2+y,1/2+z
1/2-x,1/2-y,1/2+z
1/2-x,1/2+y,1/2+z
1/2+x,1/2-y,1/2+z
loop_
_atom_site_type_symbol
_atom_site_label
_atom_site_fract_x
_atom_site_fract_y
_atom_site_fract_z
Si Si1 0.698063 0.670614 0.261950
Si Si2 0.201547 0.822220 0.903436
Si Si3 0.417025 0.822199 0.495152
Si Si4 0.878771 0.670984 0.271977
Si Si5 0.416601 0.678079 0.040315
Si Si6 0.363981 0.676887 0.900606
Si Si7 0.701890 0.176064 0.133213
Si Si8 0.635656 0.179036 0.634188
O O1 0.677276 0.500000 0.247506
O O2 0.671074 0.712269 0.332355
O O3 0.788210 0.673676 0.268004
O O4 0.675940 0.774583 0.203840
O O5 0.145810 0.762447 0.956243
O O6 0.282003 0.746666 0.909160
O O7 0.210619 0.000000 0.907221
O O8 0.500000 0.783008 0.473511
O O9 0.409454 0.790446 0.570356
O O10 0.406649 0.000000 0.487429
O O11 0.902276 0.500000 0.279551
O O12 0.898438 0.760323 0.335263
O O13 0.900508 0.726657 0.201534
O O14 0.500000 0.717427 0.061102
O O15 0.406933 0.500000 0.047506
O O16 0.407679 0.711547 0.965300
O O17 0.354158 0.759575 0.081072
O O18 0.357366 0.500000 0.894851
O O19 0.783444 0.248248 0.125848
O O20 0.707235 0.000000 0.128254
O O21 0.645382 0.000000 0.639445
#
# Coordination Sequence:
#
# PCOD9375974 Si02
#       8
#     8   8   8   8   8   8   8   8
#     4   8  16  32  52  74 102 135 167 200 246 306
#     4  10  20  34  54  79 105 134 168 206 252 306
#     4  10  21  36  53  74 102 137 176 215 251 291
#     4   8  15  29  50  76 104 132 164 205 251 299
#     4  10  22  39  54  69  98 141 178 205 245 306
#     4  10  19  32  54  80 102 129 169 213 253 296
#     4  11  21  32  53  83 106 126 163 215 260 296
#     4   9  18  34  54  75 103 139 173 203 246 307
#
# _framework density 9.4062319999999993
#
# number of rings (size 3 to 8) (size 9 to 14) (size 15 to 20)
#    0.000    2.500    0.000    4.125    0.000   10.000 
#    0.000    1.250    0.000    1.500    0.000    0.000 
#    0.000    0.000    0.000    0.000    0.000    0.000 
#
# Total GULP energy -178530.645772 kJ/mol
# GULP energy per Si atom -5579.082680 kJ/mol
# Density = 0.938482 g / cm^3
# Si number density = 9.406232 Si / 1000 Ang^3
#
#
#
# Elastic Constant Matrix: (Units=GPa)
#
#
# Indices 1 2 3 4 5 6 
#
# 1 45.5023 19.0418 19.0873 0.0000 0.0000 0.0000
# 2 19.0418 37.9050 30.5713 0.0000 0.0000 0.0000
# 3 19.0873 30.5713 88.2846 0.0000 0.0000 0.0000
# 4 0.0000 0.0000 0.0000 33.2592 0.0000 0.0000
# 5 0.0000 0.0000 0.0000 0.0000 -12.8601 0.0000
# 6 0.0000 0.0000 0.0000 0.0000 0.0000 -3.0888
#
#
#
# Elastic Compliance Matrix: (Units=1/GPa)
#
#
# Indices 1 2 3 4 5 6 
#
# 1 0.027997 -0.012741 -0.001641 0.000000 0.000000 0.000000
# 2 -0.012741 0.042403 -0.011929 0.000000 0.000000 0.000000
# 3 -0.001641 -0.011929 0.015813 0.000000 0.000000 0.000000
# 4 0.000000 0.000000 0.000000 0.030067 0.000000 0.000000
# 5 0.000000 0.000000 0.000000 0.000000 -0.077760 0.000000
# 6 0.000000 0.000000 0.000000 0.000000 0.000000 -0.323751
#
#
# Mechanical properties :
#
#
# Convention : Reuss Voigt Hill
#
# Bulk Modulus (GPa) = 29.76980 34.34364 32.05672
# Shear Modulus (GPa) = -22.58231 10.32816 -6.12707
#
# Velocity S-wave (km/s) = -3.46842 2.34563 -1.80665
# Velocity P-wave (km/s) = 0.42555 5.06275 3.56723
#
# Compressibility (1/GPa) = 0.03359108
#
# Stress axis : x y z
#
# Youngs Moduli (GPa) = 35.71795 23.58321 63.24103
#
# Poissons Ratio (x) = 0.30047 0.10378
# Poissons Ratio (y) = 0.45508 0.75439
# Poissons Ratio (z) = 0.05862 0.28132
#
# Static dielectric constant tensor:
#      x y z
#    x 1.621370 0.000000 0.000000 
#    y 0.000000 1.629310 0.000000 
#    z 0.000000 0.000000 1.686350 
# 
# From -- ./inp_files/24367.got.cif
#   From: 2010.05.17/outbox.ucp.g08.bks.cvg/sg44_13_cif.got.tgz:24367.got - 2010.06.11 16:32:36.
