data_PCOD9375362
_publ_section_title
;
Structure prediction by ZEFSAII (Michael W. Deem and Ramdas Pophale) SiO2 
 PCOD9375362
Probable space group: I M M 2
;
_chemical_formula_sum "Si O2"
_cell_formula_units_Z 40
_cell_length_a 17.568144
_cell_length_b 13.279370
_cell_length_c 8.114387
_cell_angle_alpha 90.000000
_cell_angle_beta 90.000000
_cell_angle_gamma 90.000000
_cell_volume 1893.036863
_symmetry_space_group_name_H-M "I M M 2"
_symmetry_group_IT_number 44
_symmetry_cell_setting 'orthorhombic'
loop_
_space_group_symop_operation_xyz
x,y,z
-x,-y,z
-x,y,z
x,-y,z
1/2+x,1/2+y,1/2+z
1/2-x,1/2-y,1/2+z
1/2-x,1/2+y,1/2+z
1/2+x,1/2-y,1/2+z
loop_
_atom_site_type_symbol
_atom_site_label
_atom_site_fract_x
_atom_site_fract_y
_atom_site_fract_z
Si Si1 0.590510 0.613868 0.542890
Si Si2 0.631849 0.822767 0.387492
Si Si3 0.417385 0.793248 0.037617
Si Si4 0.853745 0.609380 0.229473
Si Si5 0.304324 0.685892 0.833546
O O1 0.500000 0.629352 0.576720
O O2 0.599876 0.500000 0.479198
O O3 0.618479 0.703844 0.424682
O O4 0.641656 0.625726 0.708052
O O5 0.604883 0.876239 0.554699
O O6 0.720520 0.852174 0.367126
O O7 0.593563 0.844051 0.213639
O O8 0.500000 0.745246 0.029079
O O9 0.407613 0.870781 0.886212
O O10 0.351951 0.712004 0.997378
O O11 0.818366 0.500000 0.239799
O O12 0.796709 0.703626 0.247019
#
# Coordination Sequence:
#
# PCOD9375362 Si02
#       5
#     8   8   8   8   8
#     4  10  21  39  65  94 127 168 209 256 316 376
#     4  11  21  40  63  89 124 162 209 254 310 364
#     4  10  21  36  60  85 118 157 199 249 299 358
#     4   9  22  38  58  84 121 160 198 246 305 364
#     4   9  21  39  60  86 124 162 202 256 306 361
#
# _framework density 21.13007
#
# number of rings (size 3 to 8) (size 9 to 14) (size 15 to 20)
#    1.200    1.000    0.000    3.600    0.000    3.600 
#    0.000    1.000    0.000    3.600    0.000    0.000 
#    0.000    0.000    0.000    0.000    0.000    0.000 
#
# Total GULP energy -111336.307400 kJ/mol
# GULP energy per Si atom -5566.815370 kJ/mol
# Density = 2.108198 g / cm^3
# Si number density = 21.130070 Si / 1000 Ang^3
#
#
#
# Elastic Constant Matrix: (Units=GPa)
#
#
# Indices 1 2 3 4 5 6 
#
# 1 104.9830 9.0597 29.7758 0.0000 0.0000 0.0000
# 2 9.0597 57.3323 5.9912 0.0000 0.0000 0.0000
# 3 29.7758 5.9912 159.1740 0.0000 0.0000 0.0000
# 4 0.0000 0.0000 0.0000 0.6156 0.0000 0.0000
# 5 0.0000 0.0000 0.0000 0.0000 10.0923 0.0000
# 6 0.0000 0.0000 0.0000 0.0000 0.0000 42.1839
#
#
#
# Elastic Compliance Matrix: (Units=1/GPa)
#
#
# Indices 1 2 3 4 5 6 
#
# 1 0.010172 -0.001414 -0.001850 0.000000 0.000000 0.000000
# 2 -0.001414 0.017708 -0.000402 0.000000 0.000000 0.000000
# 3 -0.001850 -0.000402 0.006644 0.000000 0.000000 0.000000
# 4 0.000000 0.000000 0.000000 1.624314 0.000000 0.000000
# 5 0.000000 0.000000 0.000000 0.000000 0.099086 0.000000
# 6 0.000000 0.000000 0.000000 0.000000 0.000000 0.023706
#
#
# Mechanical properties :
#
#
# Convention : Reuss Voigt Hill
#
# Bulk Modulus (GPa) = 36.77577 45.68253 41.22915
# Shear Modulus (GPa) = 2.78083 29.02253 15.90168
#
# Velocity S-wave (km/s) = 1.14844 3.71012 2.74626
# Velocity P-wave (km/s) = 4.38187 6.32613 5.44154
#
# Compressibility (1/GPa) = 0.02719182
#
# Stress axis : x y z
#
# Youngs Moduli (GPa) = 98.30936 56.47281 150.52187
#
# Poissons Ratio (x) = 0.07986 0.27840
# Poissons Ratio (y) = 0.13902 0.06051
# Poissons Ratio (z) = 0.18183 0.02270
#
# Static dielectric constant tensor:
#      x y z
#    x 1.777040 0.000000 0.000000 
#    y 0.000000 1.768390 0.000000 
#    z 0.000000 0.000000 1.808280 
# 
# From -- ./inp_files/8762.got.cif
#   From: 2010.05.17/outbox.cif.g08.bks.cpg/sg44_5_cif.got.tgz:8762.got - 2010.06.03 19:37:08.
