data_PCOD9375516
_publ_section_title
;
Structure prediction by ZEFSAII (Michael W. Deem and Ramdas Pophale) SiO2 
 PCOD9375516
Probable space group: I M M 2
;
_chemical_formula_sum "Si O2"
_cell_formula_units_Z 40
_cell_length_a 13.666371
_cell_length_b 7.623765
_cell_length_c 19.498996
_cell_angle_alpha 90.000000
_cell_angle_beta 90.000000
_cell_angle_gamma 90.000000
_cell_volume 2031.584812
_symmetry_space_group_name_H-M "I M M 2"
_symmetry_group_IT_number 44
_symmetry_cell_setting 'orthorhombic'
loop_
_space_group_symop_operation_xyz
x,y,z
-x,-y,z
-x,y,z
x,-y,z
1/2+x,1/2+y,1/2+z
1/2-x,1/2-y,1/2+z
1/2-x,1/2+y,1/2+z
1/2+x,1/2-y,1/2+z
loop_
_atom_site_type_symbol
_atom_site_label
_atom_site_fract_x
_atom_site_fract_y
_atom_site_fract_z
Si Si1 0.110004 0.211700 0.501180
Si Si2 0.388799 0.289764 0.273175
Si Si3 0.727556 0.200357 0.404197
Si Si4 0.887925 0.000000 0.138476
Si Si5 0.771952 0.210577 0.637112
Si Si6 0.392036 0.500000 0.474865
O O1 0.163078 0.249400 0.428744
O O2 0.179920 0.265478 0.564363
O O3 0.000000 0.281420 0.506255
O O4 0.103476 0.000000 0.507075
O O5 0.500000 0.225095 0.284954
O O6 0.390089 0.500000 0.282420
O O7 0.308478 0.218721 0.326424
O O8 0.352309 0.256740 0.196189
O O9 0.660292 0.328877 0.447261
O O10 0.712480 0.000000 0.425406
O O11 0.822774 0.172218 0.154565
O O12 0.000000 0.000000 0.165568
O O13 0.895283 0.000000 0.056132
O O14 0.751322 0.000000 0.635327
O O15 0.500000 0.500000 0.445187
#
# Coordination Sequence:
#
# PCOD9375516 Si02
#       6
#     8   8   8   4   8   4
#     4   9  18  36  61  86 115 155 199 244 297 352
#     4  10  21  38  62  90 123 158 194 248 306 354
#     4  11  22  37  58  87 123 158 198 243 298 357
#     4  11  24  40  62  90 118 157 202 247 303 358
#     4  10  21  40  63  89 120 154 197 252 300 360
#     4  11  22  38  58  84 122 155 194 245 297 354
#
# _framework density 19.689062
#
# number of rings (size 3 to 8) (size 9 to 14) (size 15 to 20)
#    0.000    1.800    3.000    1.200    1.400    4.400 
#    0.000    6.000    0.000    1.200    0.000    0.000 
#    0.000    0.000    0.000    0.000    0.000    0.000 
#
# Total GULP energy -111554.816798 kJ/mol
# GULP energy per Si atom -5577.740840 kJ/mol
# Density = 1.964425 g / cm^3
# Si number density = 19.689062 Si / 1000 Ang^3
#
#
#
# Elastic Constant Matrix: (Units=GPa)
#
#
# Indices 1 2 3 4 5 6 
#
# 1 147.1168 41.6215 33.6968 0.0000 0.0000 0.0000
# 2 41.6215 72.9772 11.1517 0.0000 0.0000 0.0000
# 3 33.6968 11.1517 80.7815 0.0000 0.0000 0.0000
# 4 0.0000 0.0000 0.0000 29.0910 0.0000 0.0000
# 5 0.0000 0.0000 0.0000 0.0000 27.2344 0.0000
# 6 0.0000 0.0000 0.0000 0.0000 0.0000 23.8473
#
#
#
# Elastic Compliance Matrix: (Units=1/GPa)
#
#
# Indices 1 2 3 4 5 6 
#
# 1 0.008777 -0.004542 -0.003034 0.000000 0.000000 0.000000
# 2 -0.004542 0.016349 -0.000362 0.000000 0.000000 0.000000
# 3 -0.003034 -0.000362 0.013695 0.000000 0.000000 0.000000
# 4 0.000000 0.000000 0.000000 0.034375 0.000000 0.000000
# 5 0.000000 0.000000 0.000000 0.000000 0.036718 0.000000
# 6 0.000000 0.000000 0.000000 0.000000 0.000000 0.041933
#
#
# Mechanical properties :
#
#
# Convention : Reuss Voigt Hill
#
# Bulk Modulus (GPa) = 43.58543 52.64620 48.11581
# Shear Modulus (GPa) = 28.51060 30.32823 29.41942
#
# Velocity S-wave (km/s) = 3.80944 3.92900 3.86968
# Velocity P-wave (km/s) = 6.44469 6.88328 6.66759
#
# Compressibility (1/GPa) = 0.02294345
#
# Stress axis : x y z
#
# Youngs Moduli (GPa) = 113.92846 61.16601 73.02056
#
# Poissons Ratio (x) = 0.27784 0.22157
# Poissons Ratio (y) = 0.51751 0.02644
# Poissons Ratio (z) = 0.34569 0.02215
#
# Static dielectric constant tensor:
#      x y z
#    x 1.710050 0.000000 0.000000 
#    y 0.000000 1.702480 0.000000 
#    z 0.000000 0.000000 1.695780 
# 
# From -- ./inp_files/23607.got.cif
#   From: 2010.05.17/outbox.cif.g08.bks.cpg/sg44_12_cif.got.tgz:23607.got - 2010.06.03 19:37:08.
