data_PCOD9375461
_publ_section_title
;
Structure prediction by ZEFSAII (Michael W. Deem and Ramdas Pophale) SiO2 
 PCOD9375461
Probable space group: I M M 2
;
_chemical_formula_sum "Si O2"
_cell_formula_units_Z 56
_cell_length_a 8.873802
_cell_length_b 24.288344
_cell_length_c 14.046548
_cell_angle_alpha 90.000000
_cell_angle_beta 90.000000
_cell_angle_gamma 90.000000
_cell_volume 3027.451866
_symmetry_space_group_name_H-M "I M M 2"
_symmetry_group_IT_number 44
_symmetry_cell_setting 'orthorhombic'
loop_
_space_group_symop_operation_xyz
x,y,z
-x,-y,z
-x,y,z
x,-y,z
1/2+x,1/2+y,1/2+z
1/2-x,1/2-y,1/2+z
1/2-x,1/2+y,1/2+z
1/2+x,1/2-y,1/2+z
loop_
_atom_site_type_symbol
_atom_site_label
_atom_site_fract_x
_atom_site_fract_y
_atom_site_fract_z
Si Si1 0.181235 0.272776 0.750000
Si Si2 0.180092 0.064712 0.545560
Si Si3 0.819298 0.936529 0.160537
Si Si4 0.180051 0.563544 0.250510
Si Si5 0.319383 0.374838 0.854774
Si Si6 0.819600 0.835783 0.855949
Si Si7 0.180394 0.333193 0.559029
O O1 0.246078 0.317724 0.823028
O O2 0.226376 0.211839 0.781434
O O3 0.227162 0.291825 0.644191
O O4 0.000000 0.275783 0.753281
O O5 0.262742 0.077153 0.644117
O O6 0.230014 0.101281 0.456193
O O7 0.000000 0.072358 0.558958
O O8 0.204166 0.000000 0.523286
O O9 0.787761 0.917962 0.269353
O O10 0.733510 0.893515 0.093800
O O11 0.000000 0.930864 0.145898
O O12 0.778122 0.000000 0.145243
O O13 0.224204 0.500000 0.269598
O O14 0.252812 0.606200 0.323022
O O15 0.000000 0.567228 0.254574
O O16 0.500000 0.368047 0.858399
O O17 0.000000 0.838894 0.858242
O O18 0.757379 0.820266 0.959358
O O19 0.000000 0.331691 0.549572
#
# Coordination Sequence:
#
# PCOD9375461 Si02
#       7
#     8   8   8   8   8   8   8
#     4   9  21  39  56  78 109 141 176 221 267 315
#     4   9  17  31  52  79 112 148 183 220 264 314
#     4   9  17  31  52  79 111 146 184 224 265 312
#     4  10  22  39  57  80 109 139 176 222 268 316
#     4   9  17  30  52  81 111 145 184 223 264 313
#     4  11  23  40  61  82 105 138 179 218 262 317
#     4  10  21  38  57  79 109 141 176 220 268 316
#
# _framework density 18.497405000000001
#
# number of rings (size 3 to 8) (size 9 to 14) (size 15 to 20)
#    0.000    2.429    0.000    1.714    0.000    6.857 
#    0.000    4.286    0.000    2.571    0.000    0.000 
#    0.000    0.000    0.000    0.000    0.000    0.000 
#
# Total GULP energy -156284.871829 kJ/mol
# GULP energy per Si atom -5581.602565 kJ/mol
# Density = 1.845530 g / cm^3
# Si number density = 18.497405 Si / 1000 Ang^3
#
#
#
# Elastic Constant Matrix: (Units=GPa)
#
#
# Indices 1 2 3 4 5 6 
#
# 1 28.7676 33.1177 34.8447 0.0000 0.0000 0.0000
# 2 33.1177 91.0634 59.7300 0.0000 0.0000 0.0000
# 3 34.8447 59.7300 102.2954 -0.0001 0.0000 0.0000
# 4 0.0000 0.0000 -0.0001 18.0396 0.0000 0.0000
# 5 0.0000 0.0000 0.0000 0.0000 29.9436 0.0000
# 6 0.0000 0.0000 0.0000 0.0000 0.0000 23.3507
#
#
#
# Elastic Compliance Matrix: (Units=1/GPa)
#
#
# Indices 1 2 3 4 5 6 
#
# 1 0.071453 -0.016242 -0.014855 0.000000 0.000000 0.000000
# 2 -0.016242 0.021490 -0.007015 0.000000 0.000000 0.000000
# 3 -0.014855 -0.007015 0.018932 0.000000 0.000000 0.000000
# 4 0.000000 0.000000 0.000000 0.055433 0.000000 0.000000
# 5 0.000000 0.000000 0.000000 0.000000 0.033396 0.000000
# 6 0.000000 0.000000 0.000000 0.000000 0.000000 0.042825
#
#
# Mechanical properties :
#
#
# Convention : Reuss Voigt Hill
#
# Bulk Modulus (GPa) = 28.05097 53.05679 40.55388
# Shear Modulus (GPa) = 15.07674 20.56238 17.81956
#
# Velocity S-wave (km/s) = 2.85805 3.33774 3.10716
# Velocity P-wave (km/s) = 5.10774 6.60300 5.90291
#
# Compressibility (1/GPa) = 0.03564940
#
# Stress axis : x y z
#
# Youngs Moduli (GPa) = 13.99530 46.53410 52.82096
#
# Poissons Ratio (x) = 0.75580 0.78466
# Poissons Ratio (y) = 0.22731 0.37055
# Poissons Ratio (z) = 0.20790 0.32645
#
# Static dielectric constant tensor:
#      x y z
#    x 1.619010 0.000000 0.000000 
#    y 0.000000 1.624220 0.000000 
#    z 0.000000 0.000000 1.627040 
# 
# From -- ./inp_files/16503.got.cif
#   From: 2010.05.17/outbox.cif.g08.bks.cpg/sg44_9_cif.got.tgz:16503.got - 2010.06.03 19:37:08.
