data_PCOD9375565
_publ_section_title
;
Structure prediction by ZEFSAII (Michael W. Deem and Ramdas Pophale) SiO2 
 PCOD9375565
Probable space group: I M M 2
;
_chemical_formula_sum "Si O2"
_cell_formula_units_Z 64
_cell_length_a 15.843112
_cell_length_b 8.788721
_cell_length_c 24.317880
_cell_angle_alpha 90.000000
_cell_angle_beta 90.000000
_cell_angle_gamma 90.000000
_cell_volume 3386.038418
_symmetry_space_group_name_H-M "I M M 2"
_symmetry_group_IT_number 44
_symmetry_cell_setting 'orthorhombic'
loop_
_space_group_symop_operation_xyz
x,y,z
-x,-y,z
-x,y,z
x,-y,z
1/2+x,1/2+y,1/2+z
1/2-x,1/2-y,1/2+z
1/2-x,1/2+y,1/2+z
1/2+x,1/2-y,1/2+z
loop_
_atom_site_type_symbol
_atom_site_label
_atom_site_fract_x
_atom_site_fract_y
_atom_site_fract_z
Si Si1 0.754757 0.683592 0.313960
Si Si2 0.251968 0.817702 0.686108
Si Si3 0.094345 0.182900 0.886934
Si Si4 0.904472 0.181800 0.386278
Si Si5 0.595188 0.318098 0.616158
Si Si6 0.151829 0.681608 0.001520
Si Si7 0.095219 0.682749 0.620436
Si Si8 0.660180 0.182069 0.998856
O O1 0.761079 0.500000 0.317123
O O2 0.751952 0.727100 0.250121
O O3 0.669031 0.728732 0.345702
O O4 0.834317 0.754550 0.345090
O O5 0.332720 0.749177 0.655046
O O6 0.167466 0.760038 0.656348
O O7 0.255514 0.000000 0.682481
O O8 0.000000 0.217961 0.866466
O O9 0.100069 0.000000 0.894392
O O10 0.109081 0.260469 0.945663
O O11 0.887871 0.254483 0.445958
O O12 0.000000 0.217497 0.368309
O O13 0.895874 0.000000 0.390551
O O14 0.500000 0.283173 0.635312
O O15 0.604944 0.500000 0.613300
O O16 0.608208 0.250500 0.555381
O O17 0.150501 0.500000 0.004067
O O18 0.247850 0.741910 0.000842
O O19 0.101318 0.500000 0.627086
O O20 0.113284 0.714716 0.556127
O O21 0.000000 0.730493 0.634721
O O22 0.669923 0.000000 0.993711
#
# Coordination Sequence:
#
# PCOD9375565 Si02
#       8
#     8   8   8   8   8   8   8   8
#     4  10  23  42  63  87 118 161 208 252 301 360
#     4  11  24  41  63  91 121 158 206 259 309 355
#     4  10  21  39  63  89 120 161 204 244 294 361
#     4  11  24  40  61  92 126 159 199 250 306 359
#     4  11  24  42  64  89 120 163 207 246 301 369
#     4  12  23  36  60  94 127 157 195 247 305 360
#     4  10  22  40  63  91 123 162 204 245 296 362
#     4  11  21  37  63  91 123 163 202 240 295 364
#
# _framework density 18.901145
#
# number of rings (size 3 to 8) (size 9 to 14) (size 15 to 20)
#    0.000    1.250    2.500    3.375    0.000    7.000 
#    0.000    3.750    0.000    0.000    0.000    0.000 
#    0.000    0.000    0.000    0.000    0.000    0.000 
#
# Total GULP energy -178937.030097 kJ/mol
# GULP energy per Si atom -5591.782191 kJ/mol
# Density = 1.885813 g / cm^3
# Si number density = 18.901145 Si / 1000 Ang^3
#
#
#
# Elastic Constant Matrix: (Units=GPa)
#
#
# Indices 1 2 3 4 5 6 
#
# 1 193.4609 66.3018 96.5774 0.0000 0.0000 0.0000
# 2 66.3018 52.9712 58.6010 0.0000 0.0000 0.0000
# 3 96.5774 58.6010 160.2877 0.0000 0.0000 0.0000
# 4 0.0000 0.0000 0.0000 29.7805 0.0000 0.0000
# 5 0.0000 0.0000 0.0000 0.0000 -4.1905 0.0000
# 6 0.0000 0.0000 0.0000 0.0000 0.0000 17.9278
#
#
#
# Elastic Compliance Matrix: (Units=1/GPa)
#
#
# Indices 1 2 3 4 5 6 
#
# 1 0.009540 -0.009373 -0.002321 0.000000 0.000000 0.000000
# 2 -0.009373 0.040907 -0.009308 0.000000 0.000000 0.000000
# 3 -0.002321 -0.009308 0.011041 0.000000 0.000000 0.000000
# 4 0.000000 0.000000 0.000000 0.033579 0.000000 0.000000
# 5 0.000000 0.000000 0.000000 0.000000 -0.238635 0.000000
# 6 0.000000 0.000000 0.000000 0.000000 0.000000 0.055779
#
#
# Mechanical properties :
#
#
# Convention : Reuss Voigt Hill
#
# Bulk Modulus (GPa) = 51.32705 94.40891 72.86798
# Shear Modulus (GPa) = -127.25986 21.05286 -53.10350
#
# Velocity S-wave (km/s) = -8.21434 3.34105 -5.30626
# Velocity P-wave (km/s) = 7.92166 8.05858 1.04595
#
# Compressibility (1/GPa) = 0.01948290
#
# Stress axis : x y z
#
# Youngs Moduli (GPa) = 104.82121 24.44555 90.57412
#
# Poissons Ratio (x) = 0.22912 0.21027
# Poissons Ratio (y) = 0.98245 0.84310
# Poissons Ratio (z) = 0.24334 0.22755
#
# Static dielectric constant tensor:
#      x y z
#    x 1.651830 0.000000 0.000000 
#    y 0.000000 1.633810 0.000000 
#    z 0.000000 0.000000 1.624120 
# 
# From -- ./inp_files/25124.got.cif
#   From: 2010.05.17/outbox.cif.g08.bks.cpg/sg44_13_cif.got.tgz:25124.got - 2010.06.03 19:37:08.
