data_PCOD9375372
_publ_section_title
;
Structure prediction by ZEFSAII (Michael W. Deem and Ramdas Pophale) SiO2 
 PCOD9375372
Probable space group: I M M 2
;
_chemical_formula_sum "Si O2"
_cell_formula_units_Z 64
_cell_length_a 27.678410
_cell_length_b 8.921132
_cell_length_c 14.882597
_cell_angle_alpha 90.000000
_cell_angle_beta 90.000000
_cell_angle_gamma 90.000000
_cell_volume 3674.851766
_symmetry_space_group_name_H-M "I M M 2"
_symmetry_group_IT_number 44
_symmetry_cell_setting 'orthorhombic'
loop_
_space_group_symop_operation_xyz
x,y,z
-x,-y,z
-x,y,z
x,-y,z
1/2+x,1/2+y,1/2+z
1/2-x,1/2-y,1/2+z
1/2-x,1/2+y,1/2+z
1/2+x,1/2-y,1/2+z
loop_
_atom_site_type_symbol
_atom_site_label
_atom_site_fract_x
_atom_site_fract_y
_atom_site_fract_z
Si Si1 0.715331 0.823322 0.761900
Si Si2 0.134236 0.822102 0.382525
Si Si3 0.442477 0.822812 0.753089
Si Si4 0.671399 0.321078 0.251333
Si Si5 0.277278 0.822738 0.552969
Si Si6 0.826033 0.321690 0.557231
Si Si7 0.631484 0.821057 0.426287
Si Si8 0.442509 0.322891 0.561251
O O1 0.680801 0.725561 0.823368
O O2 0.772120 0.791391 0.775197
O O3 0.706021 0.797523 0.655847
O O4 0.706793 0.000000 0.780796
O O5 0.088324 0.757964 0.329322
O O6 0.140970 0.746933 0.479408
O O7 0.131754 0.000000 0.390657
O O8 0.500000 0.802083 0.765732
O O9 0.429544 0.754411 0.655934
O O10 0.431927 0.000000 0.753012
O O11 0.665839 0.500000 0.245192
O O12 0.662418 0.247332 0.154633
O O13 0.638872 0.252172 0.329317
O O14 0.229204 0.727869 0.536334
O O15 0.320215 0.789564 0.484739
O O16 0.264586 0.000000 0.546460
O O17 0.829524 0.500000 0.559111
O O18 0.587354 0.751740 0.481505
O O19 0.626504 0.000000 0.419241
O O20 0.500000 0.303123 0.548389
O O21 0.432270 0.500000 0.566285
#
# Coordination Sequence:
#
# PCOD9375372 Si02
#       8
#     8   8   8   8   8   8   8   8
#     4   9  18  33  52  76 108 143 178 217 260 308
#     4  12  23  34  53  79 108 141 177 217 262 315
#     4  10  21  38  59  82 109 139 172 214 263 314
#     4  10  21  37  54  74 105 142 180 223 267 310
#     4   9  19  34  51  75 108 142 177 217 261 310
#     4  11  22  36  54  75 103 140 182 223 263 310
#     4  11  21  33  54  81 108 141 180 219 262 315
#     4  10  21  37  57  82 111 141 174 214 262 315
#
# _framework density 17.415669000000001
#
# number of rings (size 3 to 8) (size 9 to 14) (size 15 to 20)
#    0.000    1.750    0.000    6.000    0.000    8.000 
#    0.000    0.000    0.000    0.750    0.000    0.000 
#    0.000    0.000    0.000    0.000    0.000    0.000 
#
# Total GULP energy -178869.140575 kJ/mol
# GULP energy per Si atom -5589.660643 kJ/mol
# Density = 1.737603 g / cm^3
# Si number density = 17.415669 Si / 1000 Ang^3
#
#
#
# Elastic Constant Matrix: (Units=GPa)
#
#
# Indices 1 2 3 4 5 6 
#
# 1 53.9187 57.4352 61.2675 0.0000 0.0000 0.0000
# 2 57.4352 115.6233 74.7274 0.0000 0.0000 0.0000
# 3 61.2675 74.7274 108.3777 0.0000 0.0000 0.0000
# 4 0.0000 0.0000 0.0000 33.1221 0.0000 0.0000
# 5 0.0000 0.0000 0.0000 0.0000 28.7806 0.0000
# 6 0.0000 0.0000 0.0000 0.0000 0.0000 27.5396
#
#
#
# Elastic Compliance Matrix: (Units=1/GPa)
#
#
# Indices 1 2 3 4 5 6 
#
# 1 0.063763 -0.015111 -0.025627 0.000000 0.000000 0.000000
# 2 -0.015111 0.019182 -0.004684 0.000000 0.000000 0.000000
# 3 -0.025627 -0.004684 0.026944 0.000000 0.000000 0.000000
# 4 0.000000 0.000000 0.000000 0.030191 0.000000 0.000000
# 5 0.000000 0.000000 0.000000 0.000000 0.034746 0.000000
# 6 0.000000 0.000000 0.000000 0.000000 0.000000 0.036311
#
#
# Mechanical properties :
#
#
# Convention : Reuss Voigt Hill
#
# Bulk Modulus (GPa) = 52.50647 73.86445 63.18546
# Shear Modulus (GPa) = 16.21647 23.52109 19.86878
#
# Velocity S-wave (km/s) = 3.05477 3.67900 3.38132
# Velocity P-wave (km/s) = 6.53120 7.78148 7.18359
#
# Compressibility (1/GPa) = 0.01904527
#
# Stress axis : x y z
#
# Youngs Moduli (GPa) = 15.68318 52.13130 37.11451
#
# Poissons Ratio (x) = 0.78777 0.95112
# Poissons Ratio (y) = 0.23699 0.17384
# Poissons Ratio (z) = 0.40191 0.24417
#
# Static dielectric constant tensor:
#      x y z
#    x 1.579050 0.000000 0.000000 
#    y 0.000000 1.575950 0.000000 
#    z 0.000000 0.000000 1.580500 
# 
# From -- ./inp_files/19460.got.cif
#   From: 2010.05.17/outbox.cif.g08.bks.cpg/sg44_10_cif.got.tgz:19460.got - 2010.06.03 19:37:08.
