data_PCOD9375242
_publ_section_title
;
Structure prediction by ZEFSAII (Michael W. Deem and Ramdas Pophale) SiO2 
 PCOD9375242
Probable space group: I M M 2
;
_chemical_formula_sum "Si O2"
_cell_formula_units_Z 48
_cell_length_a 7.926615
_cell_length_b 9.700386
_cell_length_c 32.433281
_cell_angle_alpha 90.000000
_cell_angle_beta 90.000000
_cell_angle_gamma 90.000000
_cell_volume 2493.834712
_symmetry_space_group_name_H-M "I M M 2"
_symmetry_group_IT_number 44
_symmetry_cell_setting 'orthorhombic'
loop_
_space_group_symop_operation_xyz
x,y,z
-x,-y,z
-x,y,z
x,-y,z
1/2+x,1/2+y,1/2+z
1/2-x,1/2-y,1/2+z
1/2-x,1/2+y,1/2+z
1/2+x,1/2-y,1/2+z
loop_
_atom_site_type_symbol
_atom_site_label
_atom_site_fract_x
_atom_site_fract_y
_atom_site_fract_z
Si Si1 0.695155 0.167833 0.520280
Si Si2 0.704351 0.841562 0.430245
Si Si3 0.201195 0.343410 0.686309
Si Si4 0.203260 0.656843 0.352627
Si Si5 0.797685 0.157531 0.277336
Si Si6 0.203503 0.657290 0.109364
O O1 0.500000 0.214987 0.519788
O O2 0.769026 0.204005 0.475623
O O3 0.769152 0.209057 0.564630
O O4 0.693166 0.000000 0.520985
O O5 0.500000 0.844702 0.432495
O O6 0.755356 0.740802 0.393857
O O7 0.759926 0.000000 0.422350
O O8 0.267671 0.500000 0.681648
O O9 0.259539 0.292209 0.731156
O O10 0.253693 0.250887 0.647994
O O11 0.000000 0.348709 0.687134
O O12 0.267088 0.500000 0.353643
O O13 0.267412 0.743034 0.313188
O O14 0.000000 0.650656 0.349308
O O15 0.000000 0.150821 0.281501
O O16 0.732081 0.000000 0.281340
O O17 0.262993 0.500000 0.115766
O O18 0.000000 0.652292 0.105821
#
# Coordination Sequence:
#
# PCOD9375242 Si02
#       6
#     8   8   8   8   8   8
#     4   7  12  26  48  73  98 124 160 205 244 279
#     4   9  17  31  53  77  99 127 165 206 245 286
#     4  10  21  35  50  72 103 133 160 196 244 295
#     4  10  21  35  50  72 103 133 160 196 244 295
#     4   9  18  34  54  71  90 124 170 211 242 281
#     4   9  17  31  53  77  99 127 165 206 245 286
#
# _framework density 19.247467
#
# number of rings (size 3 to 8) (size 9 to 14) (size 15 to 20)
#    0.000    3.000    0.000    3.000    0.000    4.000 
#    0.000    5.000    0.000    8.000    0.000    0.000 
#    0.000    0.000    0.000    0.000    0.000    0.000 
#
# Total GULP energy -133735.250855 kJ/mol
# GULP energy per Si atom -5572.302119 kJ/mol
# Density = 1.920366 g / cm^3
# Si number density = 19.247467 Si / 1000 Ang^3
#
#
#
# Elastic Constant Matrix: (Units=GPa)
#
#
# Indices 1 2 3 4 5 6 
#
# 1 17.1011 7.5941 5.4424 0.0000 0.0000 0.0000
# 2 7.5941 90.1936 108.2609 0.0000 0.0000 0.0000
# 3 5.4424 108.2609 233.1194 0.0000 0.0000 0.0000
# 4 0.0000 0.0000 0.0000 28.6913 0.0000 0.0000
# 5 0.0000 0.0000 0.0000 0.0000 22.6830 0.0000
# 6 0.0000 0.0000 0.0000 0.0000 0.0000 17.5278
#
#
#
# Elastic Compliance Matrix: (Units=1/GPa)
#
#
# Indices 1 2 3 4 5 6 
#
# 1 0.061234 -0.007772 0.002180 0.000000 0.000000 0.000000
# 2 -0.007772 0.026038 -0.011911 0.000000 0.000000 0.000000
# 3 0.002180 -0.011911 0.009770 0.000000 0.000000 0.000000
# 4 0.000000 0.000000 0.000000 0.034854 0.000000 0.000000
# 5 0.000000 0.000000 0.000000 0.000000 0.044086 0.000000
# 6 0.000000 0.000000 0.000000 0.000000 0.000000 0.057052
#
#
# Mechanical properties :
#
#
# Convention : Reuss Voigt Hill
#
# Bulk Modulus (GPa) = 16.11975 64.77875 40.44925
# Shear Modulus (GPa) = 17.31788 28.38821 22.85305
#
# Velocity S-wave (km/s) = 3.00284 3.84462 3.44950
# Velocity P-wave (km/s) = 4.51839 7.31005 6.07671
#
# Compressibility (1/GPa) = 0.06203568
#
# Stress axis : x y z
#
# Youngs Moduli (GPa) = 16.33092 38.40479 102.35257
#
# Poissons Ratio (x) = 0.29849 -0.22312
# Poissons Ratio (y) = 0.12693 1.21910
# Poissons Ratio (z) = -0.03560 0.45743
#
# Static dielectric constant tensor:
#      x y z
#    x 1.707410 0.000000 0.000000 
#    y 0.000000 1.661200 0.000000 
#    z 0.000000 0.000000 1.691190 
# 
# From -- ./inp_files/26866.got.cif
#   From: 2010.05.17/outbox.cif.g08.bks.cpg/sg44_14_cif.got.tgz:26866.got - 2010.06.03 19:37:08.
