data_PCOD9375088
_publ_section_title
;
Structure prediction by ZEFSAII (Michael W. Deem and Ramdas Pophale) SiO2 
 PCOD9375088
Probable space group: I M M 2
;
_chemical_formula_sum "Si O2"
_cell_formula_units_Z 58
_cell_length_a 16.120600
_cell_length_b 7.310008
_cell_length_c 19.207386
_cell_angle_alpha 90.000000
_cell_angle_beta 90.000000
_cell_angle_gamma 90.000000
_cell_volume 2263.431306
_symmetry_space_group_name_H-M "I M M 2"
_symmetry_group_IT_number 44
_symmetry_cell_setting 'orthorhombic'
loop_
_space_group_symop_operation_xyz
x,y,z
-x,-y,z
-x,y,z
x,-y,z
1/2+x,1/2+y,1/2+z
1/2-x,1/2-y,1/2+z
1/2-x,1/2+y,1/2+z
1/2+x,1/2-y,1/2+z
loop_
_atom_site_type_symbol
_atom_site_label
_atom_site_fract_x
_atom_site_fract_y
_atom_site_fract_z
Si Si1 0.773283 0.300462 0.477920
Si Si2 0.876578 0.720122 0.207707
Si Si3 0.909458 0.703796 0.011492
Si Si4 0.500000 0.500000 0.639291
Si Si5 0.092788 0.277568 0.370100
Si Si6 0.189015 0.221402 0.724658
Si Si7 0.089530 0.779893 0.850041
Si Si8 0.593010 0.721834 0.091062
O O1 0.751447 0.500000 0.449384
O O2 0.688131 0.249793 0.518643
O O3 0.826927 0.210704 0.414299
O O4 0.842786 0.299856 0.536640
O O5 0.887706 0.500000 0.199869
O O6 0.901101 0.765544 0.287865
O O7 0.780443 0.769913 0.201709
O O8 0.927921 0.839229 0.153648
O O9 0.917133 0.500000 0.039234
O O10 0.909415 0.703200 0.927087
O O11 0.000000 0.803503 0.027107
O O12 0.094067 0.500000 0.375333
O O13 0.000000 0.218675 0.394627
O O14 0.162465 0.284950 0.800741
O O15 0.121812 0.275317 0.667885
O O16 0.188232 0.000000 0.728195
O O17 0.000000 0.736285 0.817641
O O18 0.092974 0.000000 0.856729
O O19 0.500000 0.778497 0.076076
O O20 0.597646 0.500000 0.086727
#
# Coordination Sequence:
#
# PCOD9375088 Si02
#       8
#     8   8   8   2   8   8   8   8
#     4  11  22  37  59  84 112 152 198 240 289 347
#     4  10  20  37  58  83 120 161 193 243 300 357
#     4  10  21  37  56  81 116 150 184 236 295 346
#     4  12  22  36  56  90 118 152 202 244 300 360
#     4   9  17  33  55  79 114 154 189 229 288 354
#     4   9  18  35  59  82 114 154 192 231 287 347
#     4   9  16  30  55  86 114 148 188 227 276 344
#     4  10  21  39  61  88 118 152 192 237 284 343
#
# _framework density 25.624811000000001
#
# number of rings (size 3 to 8) (size 9 to 14) (size 15 to 20)
#    0.000    2.207    0.690    2.690    0.000    5.517 
#    7.448    0.000    1.517    1.655    0.000    0.000 
#    0.000    0.000    0.000    0.000    0.000    0.276 
#
# Total GULP energy -161705.928362 kJ/mol
# GULP energy per Si atom -5576.066495 kJ/mol
# Density = 2.556649 g / cm^3
# Si number density = 25.624811 Si / 1000 Ang^3
#
#
#
# Elastic Constant Matrix: (Units=GPa)
#
#
# Indices 1 2 3 4 5 6 
#
# 1 236.9691 9.4144 38.0771 0.0000 0.0000 0.0000
# 2 9.4144 97.3113 -35.0532 0.0000 0.0000 0.0000
# 3 38.0771 -35.0532 78.9492 0.0000 0.0000 0.0000
# 4 0.0000 0.0000 0.0000 16.5413 0.0000 0.0000
# 5 0.0000 0.0000 0.0000 0.0000 24.0937 0.0000
# 6 0.0000 0.0000 0.0000 0.0000 0.0000 18.2614
#
#
#
# Elastic Compliance Matrix: (Units=1/GPa)
#
#
# Indices 1 2 3 4 5 6 
#
# 1 0.004759 -0.001532 -0.002976 0.000000 0.000000 0.000000
# 2 -0.001532 0.012726 0.006389 0.000000 0.000000 0.000000
# 3 -0.002976 0.006389 0.016938 0.000000 0.000000 0.000000
# 4 0.000000 0.000000 0.000000 0.060455 0.000000 0.000000
# 5 0.000000 0.000000 0.000000 0.000000 0.041505 0.000000
# 6 0.000000 0.000000 0.000000 0.000000 0.000000 0.054760
#
#
# Mechanical properties :
#
#
# Convention : Reuss Voigt Hill
#
# Bulk Modulus (GPa) = 26.18729 48.67848 37.43289
# Shear Modulus (GPa) = 24.98637 38.49867 31.74252
#
# Velocity S-wave (km/s) = 3.12602 3.88028 3.52339
# Velocity P-wave (km/s) = 4.82401 6.25406 5.58500
#
# Compressibility (1/GPa) = 0.03818646
#
# Stress axis : x y z
#
# Youngs Moduli (GPa) = 210.13000 78.57875 59.03765
#
# Poissons Ratio (x) = 0.12040 0.17567
# Poissons Ratio (y) = 0.32197 -0.37721
# Poissons Ratio (z) = 0.62525 -0.50207
#
# Static dielectric constant tensor:
#      x y z
#    x 2.032230 0.000000 0.000000 
#    y 0.000000 2.096630 0.000000 
#    z 0.000000 0.000000 2.025150 
# 
# From -- ./inp_files/25704.got.cif
#   From: 2010.05.17/outbox.cif.g08.bks.cpg/sg44_13_cif.got.tgz:25704.got - 2010.06.03 19:37:08.
