data_PCOD9375801
_publ_section_title
;
Structure prediction by ZEFSAII (Michael W. Deem and Ramdas Pophale) SiO2 
 PCOD9375801
Probable space group: I M M 2
;
_chemical_formula_sum "Si O2"
_cell_formula_units_Z 38
_cell_length_a 11.836774
_cell_length_b 9.644019
_cell_length_c 17.007274
_cell_angle_alpha 90.000000
_cell_angle_beta 90.000000
_cell_angle_gamma 90.000000
_cell_volume 1941.449604
_symmetry_space_group_name_H-M "I M M 2"
_symmetry_group_IT_number 44
_symmetry_cell_setting 'orthorhombic'
loop_
_space_group_symop_operation_xyz
x,y,z
-x,-y,z
-x,y,z
x,-y,z
1/2+x,1/2+y,1/2+z
1/2-x,1/2-y,1/2+z
1/2-x,1/2+y,1/2+z
1/2+x,1/2-y,1/2+z
loop_
_atom_site_type_symbol
_atom_site_label
_atom_site_fract_x
_atom_site_fract_y
_atom_site_fract_z
Si Si1 0.705787 0.707495 0.992730
Si Si2 0.000000 0.500000 0.313240
Si Si3 0.000000 0.838048 0.376944
Si Si4 0.134676 0.732258 0.862668
Si Si5 0.864072 0.000000 0.622171
Si Si6 0.637512 0.000000 0.056462
Si Si7 0.742486 0.500000 0.292850
Si Si8 0.363937 0.000000 0.237939
O O1 0.609874 0.659663 0.931884
O O2 0.822478 0.681032 0.947397
O O3 0.685470 0.629148 0.074247
O O4 0.684248 0.866591 0.012809
O O5 0.000000 0.329632 0.345905
O O6 0.875804 0.500000 0.276378
O O7 0.000000 0.000000 0.337317
O O8 0.203266 0.869620 0.843420
O O9 0.167238 0.630350 0.791371
O O10 0.000000 0.751963 0.861487
O O11 0.826014 0.000000 0.711645
O O12 0.000000 0.000000 0.617314
O O13 0.674312 0.000000 0.148053
O O14 0.500000 0.000000 0.052586
O O15 0.500000 0.000000 0.233422
#
# Coordination Sequence:
#
# PCOD9375801 Si02
#       8
#     8   2   4   8   4   4   4   4
#     4  12  21  37  63  94 126 164 220 277 327 399
#     4  12  26  46  68 104 132 174 238 280 340 424
#     4  12  22  42  70 102 132 168 222 292 340 400
#     4  11  23  40  62  92 126 170 218 266 334 406
#     4  12  23  40  64  96 128 169 227 279 343 411
#     4  11  20  34  60  90 122 157 201 278 332 375
#     4  12  25  42  66  91 133 170 217 283 340 405
#     4   9  21  39  59  88 124 162 211 265 328 392
#
# _framework density 19.573004000000001
#
# number of rings (size 3 to 8) (size 9 to 14) (size 15 to 20)
#    0.000    0.632    5.263    4.105    0.000    1.684 
#    1.895    0.000    0.000    0.000    5.474    0.000 
#    0.000    0.000    0.000    0.000    0.000    0.000 
#
# Total GULP energy -105852.508792 kJ/mol
# GULP energy per Si atom -5571.184673 kJ/mol
# Density = 1.952845 g / cm^3
# Si number density = 19.573004 Si / 1000 Ang^3
#
#
#
# Elastic Constant Matrix: (Units=GPa)
#
#
# Indices 1 2 3 4 5 6 
#
# 1 79.1055 15.3395 34.1010 0.0000 0.0000 0.0000
# 2 15.3395 135.6178 28.4291 0.0000 0.0000 0.0000
# 3 34.1010 28.4291 99.8649 0.0000 0.0000 0.0000
# 4 0.0000 0.0000 0.0000 -11.9083 0.0000 0.0000
# 5 0.0000 0.0000 0.0000 0.0000 37.2320 0.0000
# 6 0.0000 0.0000 0.0000 0.0000 0.0000 46.4640
#
#
#
# Elastic Compliance Matrix: (Units=1/GPa)
#
#
# Indices 1 2 3 4 5 6 
#
# 1 0.014878 -0.000657 -0.004893 0.000000 0.000000 0.000000
# 2 -0.000657 0.007871 -0.002016 0.000000 0.000000 0.000000
# 3 -0.004893 -0.002016 0.012258 0.000000 0.000000 0.000000
# 4 0.000000 0.000000 0.000000 -0.083975 0.000000 0.000000
# 5 0.000000 0.000000 0.000000 0.000000 0.026859 0.000000
# 6 0.000000 0.000000 0.000000 0.000000 0.000000 0.021522
#
#
# Mechanical properties :
#
#
# Convention : Reuss Voigt Hill
#
# Bulk Modulus (GPa) = 50.31723 52.25861 51.28792
# Shear Modulus (GPa) = 236.17327 30.13880 133.15603
#
# Velocity S-wave (km/s) = 10.99658 3.92830 8.25701
# Velocity P-wave (km/s) = 13.67466 6.87988 10.82425
#
# Compressibility (1/GPa) = 0.01987391
#
# Stress axis : x y z
#
# Youngs Moduli (GPa) = 67.21227 127.05462 81.57629
#
# Poissons Ratio (x) = 0.08348 0.39919
# Poissons Ratio (y) = 0.04416 0.16447
# Poissons Ratio (z) = 0.32890 0.25617
#
# Static dielectric constant tensor:
#      x y z
#    x 1.672330 0.000000 0.000000 
#    y 0.000000 1.904410 0.000000 
#    z 0.000000 0.000000 1.659820 
# 
# From -- ./inp_files/21067.got.cif
#   From: 2010.05.17/outbox.cif.g08.bks.cpg/sg44_11_cif.got.tgz:21067.got - 2010.06.03 19:37:08.
