data_PCOD9375749
_publ_section_title
;
Structure prediction by ZEFSAII (Michael W. Deem and Ramdas Pophale) SiO2 
 PCOD9375749
Probable space group: I M M 2
;
_chemical_formula_sum "Si O2"
_cell_formula_units_Z 40
_cell_length_a 26.374914
_cell_length_b 8.635280
_cell_length_c 9.149053
_cell_angle_alpha 90.000000
_cell_angle_beta 90.000000
_cell_angle_gamma 90.000000
_cell_volume 2083.740438
_symmetry_space_group_name_H-M "I M M 2"
_symmetry_group_IT_number 44
_symmetry_cell_setting 'orthorhombic'
loop_
_space_group_symop_operation_xyz
x,y,z
-x,-y,z
-x,y,z
x,-y,z
1/2+x,1/2+y,1/2+z
1/2-x,1/2-y,1/2+z
1/2-x,1/2+y,1/2+z
1/2+x,1/2-y,1/2+z
loop_
_atom_site_type_symbol
_atom_site_label
_atom_site_fract_x
_atom_site_fract_y
_atom_site_fract_z
Si Si1 0.297792 0.686858 0.728430
Si Si2 0.198657 0.814593 0.569448
Si Si3 0.500000 0.186124 0.726145
Si Si4 0.401300 0.314260 0.563335
Si Si5 0.100952 0.685982 0.735623
Si Si6 0.000000 0.311641 0.563538
O O1 0.292847 0.500000 0.720314
O O2 0.249910 0.761676 0.648809
O O3 0.349938 0.731228 0.648242
O O4 0.299624 0.730795 0.898889
O O5 0.150615 0.739795 0.649202
O O6 0.194068 0.000000 0.577421
O O7 0.450125 0.246488 0.644736
O O8 0.500000 0.000000 0.723143
O O9 0.500000 0.238947 0.895147
O O10 0.404447 0.500000 0.563666
O O11 0.399190 0.254418 0.397954
O O12 0.100387 0.500000 0.745026
O O13 0.050583 0.737604 0.648496
O O14 0.000000 0.500000 0.562675
#
# Coordination Sequence:
#
# PCOD9375749 Si02
#       6
#     8   8   4   8   8   4
#     4  10  23  41  60  85 118 156 198 244 295 352
#     4  11  23  39  60  87 118 153 195 243 296 352
#     4  11  22  39  62  88 118 155 198 241 294 354
#     4  11  23  40  61  88 121 156 197 245 296 348
#     4  11  22  39  62  88 119 155 197 243 293 351
#     4   9  21  39  60  86 116 153 196 241 288 346
#
# _framework density 19.196251
#
# number of rings (size 3 to 8) (size 9 to 14) (size 15 to 20)
#    0.000    1.400    0.000    5.100    0.000    7.200 
#    0.000    4.500    0.000    0.000    0.000    0.000 
#    0.000    0.000    0.000    0.000    0.000    0.000 
#
# Total GULP energy -111883.002153 kJ/mol
# GULP energy per Si atom -5594.150108 kJ/mol
# Density = 1.915256 g / cm^3
# Si number density = 19.196251 Si / 1000 Ang^3
#
#
#
# Elastic Constant Matrix: (Units=GPa)
#
#
# Indices 1 2 3 4 5 6 
#
# 1 212.7074 58.1944 123.9210 0.0000 0.0000 0.0000
# 2 58.1944 50.4416 55.5290 0.0000 0.0000 0.0000
# 3 123.9210 55.5290 217.4076 0.0000 0.0000 0.0000
# 4 0.0000 0.0000 0.0000 32.4762 0.0000 0.0000
# 5 0.0000 0.0000 0.0000 0.0000 45.0418 0.0000
# 6 0.0000 0.0000 0.0000 0.0000 0.0000 7.7940
#
#
#
# Elastic Compliance Matrix: (Units=1/GPa)
#
#
# Indices 1 2 3 4 5 6 
#
# 1 0.008154 -0.005969 -0.003123 0.000000 0.000000 0.000000
# 2 -0.005969 0.031949 -0.004758 0.000000 0.000000 0.000000
# 3 -0.003123 -0.004758 0.007595 0.000000 0.000000 0.000000
# 4 0.000000 0.000000 0.000000 0.030792 0.000000 0.000000
# 5 0.000000 0.000000 0.000000 0.000000 0.022202 0.000000
# 6 0.000000 0.000000 0.000000 0.000000 0.000000 0.128305
#
#
# Mechanical properties :
#
#
# Convention : Reuss Voigt Hill
#
# Bulk Modulus (GPa) = 50.00510 106.20504 78.10507
# Shear Modulus (GPa) = 18.98527 33.25653 26.12090
#
# Velocity S-wave (km/s) = 3.14826 4.16679 3.69281
# Velocity P-wave (km/s) = 6.27068 8.86541 7.67844
#
# Compressibility (1/GPa) = 0.01999796
#
# Stress axis : x y z
#
# Youngs Moduli (GPa) = 122.64223 31.29969 131.66502
#
# Poissons Ratio (x) = 0.18683 0.41120
# Poissons Ratio (y) = 0.73205 0.62646
# Poissons Ratio (z) = 0.38302 0.14892
#
# Static dielectric constant tensor:
#      x y z
#    x 1.625860 0.000000 0.000000 
#    y 0.000000 1.651940 0.000000 
#    z 0.000000 0.000000 1.635490 
# 
# From -- ./inp_files/9616.got.cif
#   From: 2010.05.17/outbox.cif.g08.bks.cpg/sg44_5_cif.got.tgz:9616.got - 2010.06.03 19:37:08.
