data_PCOD9375805
_publ_section_title
;
Structure prediction by ZEFSAII (Michael W. Deem and Ramdas Pophale) SiO2 
 PCOD9375805
Probable space group: I M M 2
;
_chemical_formula_sum "Si O2"
_cell_formula_units_Z 64
_cell_length_a 18.791958
_cell_length_b 19.519785
_cell_length_c 8.978553
_cell_angle_alpha 90.000000
_cell_angle_beta 90.000000
_cell_angle_gamma 90.000000
_cell_volume 3293.467738
_symmetry_space_group_name_H-M "I M M 2"
_symmetry_group_IT_number 44
_symmetry_cell_setting 'orthorhombic'
loop_
_space_group_symop_operation_xyz
x,y,z
-x,-y,z
-x,y,z
x,-y,z
1/2+x,1/2+y,1/2+z
1/2-x,1/2-y,1/2+z
1/2-x,1/2+y,1/2+z
1/2+x,1/2-y,1/2+z
loop_
_atom_site_type_symbol
_atom_site_label
_atom_site_fract_x
_atom_site_fract_y
_atom_site_fract_z
Si Si1 0.330952 0.274731 0.423640
Si Si2 0.582060 0.832648 0.943245
Si Si3 0.303431 0.423716 0.388997
Si Si4 0.792160 0.074264 0.249440
Si Si5 0.151539 0.578042 0.222139
Si Si6 0.578303 0.151426 0.468881
Si Si7 0.317036 0.722681 0.783936
Si Si8 0.871067 0.576834 0.707782
O O1 0.344035 0.352120 0.365339
O O2 0.395578 0.222721 0.399110
O O3 0.319227 0.274661 0.603482
O O4 0.259678 0.246946 0.344386
O O5 0.500000 0.815853 0.970220
O O6 0.590493 0.897819 0.834415
O O7 0.625092 0.771300 0.863420
O O8 0.619976 0.862287 0.089836
O O9 0.330489 0.500000 0.344947
O O10 0.295812 0.425696 0.568657
O O11 0.226612 0.415142 0.308618
O O12 0.827348 0.141831 0.316419
O O13 0.707912 0.078935 0.275649
O O14 0.818612 0.000000 0.302384
O O15 0.144091 0.500000 0.174735
O O16 0.138717 0.627606 0.083987
O O17 0.500000 0.158840 0.537484
O O18 0.577107 0.094207 0.341977
O O19 0.881458 0.500000 0.645212
#
# Coordination Sequence:
#
# PCOD9375805 Si02
#       8
#     8   8   8   8   8   8   8   8
#     4  11  20  36  58  80 110 149 183 234 283 330
#     4  12  23  36  55  82 110 146 192 234 279 338
#     4   9  17  33  58  84 106 137 187 231 275 327
#     4   9  17  33  58  83 108 139 181 230 276 329
#     4  11  21  36  55  79 113 150 185 224 273 334
#     4  12  25  37  51  80 117 155 190 230 287 345
#     4  11  21  36  58  82 109 146 186 231 283 333
#     4  11  22  39  57  78 111 154 196 230 274 340
#
# _framework density 19.432406
#
# number of rings (size 3 to 8) (size 9 to 14) (size 15 to 20)
#    0.000    1.250    5.000    2.250    0.000    3.000 
#    0.000    0.000    0.000    0.750    0.000    3.500 
#    0.000    2.000    0.000    0.000    0.000    0.000 
#
# Total GULP energy -178355.714190 kJ/mol
# GULP energy per Si atom -5573.616068 kJ/mol
# Density = 1.938818 g / cm^3
# Si number density = 19.432406 Si / 1000 Ang^3
#
#
#
# Elastic Constant Matrix: (Units=GPa)
#
#
# Indices 1 2 3 4 5 6 
#
# 1 35.9737 35.5437 0.5469 0.0000 0.0000 0.0000
# 2 35.5437 180.3587 23.7022 0.0000 0.0000 0.0000
# 3 0.5469 23.7022 38.3148 0.0000 0.0000 0.0000
# 4 0.0000 0.0000 0.0000 28.6450 0.0000 0.0000
# 5 0.0000 0.0000 0.0000 0.0000 11.3753 0.0000
# 6 0.0000 0.0000 0.0000 0.0000 0.0000 14.2112
#
#
#
# Elastic Compliance Matrix: (Units=1/GPa)
#
#
# Indices 1 2 3 4 5 6 
#
# 1 0.035105 -0.007459 0.004113 0.000000 0.000000 0.000000
# 2 -0.007459 0.007620 -0.004607 0.000000 0.000000 0.000000
# 3 0.004113 -0.004607 0.028891 0.000000 0.000000 0.000000
# 4 0.000000 0.000000 0.000000 0.034910 0.000000 0.000000
# 5 0.000000 0.000000 0.000000 0.000000 0.087910 0.000000
# 6 0.000000 0.000000 0.000000 0.000000 0.000000 0.070367
#
#
# Mechanical properties :
#
#
# Convention : Reuss Voigt Hill
#
# Bulk Modulus (GPa) = 17.95009 41.58142 29.76576
# Shear Modulus (GPa) = 16.70680 23.83659 20.27170
#
# Velocity S-wave (km/s) = 2.93531 3.50614 3.23335
# Velocity P-wave (km/s) = 4.55470 6.15103 5.41205
#
# Compressibility (1/GPa) = 0.05571002
#
# Stress axis : x y z
#
# Youngs Moduli (GPa) = 28.48583 131.23513 34.61283
#
# Poissons Ratio (x) = 0.97886 -0.14237
# Poissons Ratio (y) = 0.21247 0.15947
# Poissons Ratio (z) = -0.11716 0.60465
#
# Static dielectric constant tensor:
#      x y z
#    x 1.652460 0.000000 0.000000 
#    y 0.000000 1.735200 0.000000 
#    z 0.000000 0.000000 1.736610 
# 
# From -- ./inp_files/8457.got.cif
#   From: 2010.05.17/outbox.cif.g08.bks.cpg/sg44_5_cif.got.tgz:8457.got - 2010.06.03 19:37:08.
