data_PCOD9375614
_publ_section_title
;
Structure prediction by ZEFSAII (Michael W. Deem and Ramdas Pophale) SiO2 
 PCOD9375614
Probable space group: I M M 2
;
_chemical_formula_sum "Si O2"
_cell_formula_units_Z 48
_cell_length_a 14.374250
_cell_length_b 13.851218
_cell_length_c 11.933806
_cell_angle_alpha 90.000000
_cell_angle_beta 90.000000
_cell_angle_gamma 90.000000
_cell_volume 2376.031161
_symmetry_space_group_name_H-M "I M M 2"
_symmetry_group_IT_number 44
_symmetry_cell_setting 'orthorhombic'
loop_
_space_group_symop_operation_xyz
x,y,z
-x,-y,z
-x,y,z
x,-y,z
1/2+x,1/2+y,1/2+z
1/2-x,1/2-y,1/2+z
1/2-x,1/2+y,1/2+z
1/2+x,1/2-y,1/2+z
loop_
_atom_site_type_symbol
_atom_site_label
_atom_site_fract_x
_atom_site_fract_y
_atom_site_fract_z
Si Si1 0.890056 0.614706 0.927560
Si Si2 0.391074 0.226839 0.198749
Si Si3 0.102949 0.885091 0.088378
Si Si4 0.111538 0.891392 0.325587
Si Si5 0.802739 0.111899 0.844865
Si Si6 0.784583 0.757623 0.478986
O O1 0.872789 0.500000 0.942046
O O2 0.878151 0.647942 0.797597
O O3 0.000000 0.632169 0.955068
O O4 0.814032 0.683454 0.989391
O O5 0.500000 0.226344 0.167689
O O6 0.363719 0.329665 0.255585
O O7 0.324955 0.213098 0.092182
O O8 0.144321 0.848290 0.205644
O O9 0.000000 0.843823 0.074872
O O10 0.095600 0.000000 0.110004
O O11 0.150210 0.881134 0.968273
O O12 0.144005 0.836358 0.434152
O O13 0.000000 0.892661 0.319028
O O14 0.147759 0.000000 0.335491
O O15 0.787561 0.000000 0.817024
O O16 0.716380 0.179392 0.877439
#
# Coordination Sequence:
#
# PCOD9375614 Si02
#       6
#     8   8   8   8   8   8
#     4   9  20  40  63  86 116 156 202 245 287 347
#     4  10  22  39  60  89 120 153 195 245 301 352
#     4   8  15  30  53  78 103 137 182 229 278 332
#     4   9  18  33  56  87 116 143 183 239 298 346
#     4  10  22  36  54  81 118 156 192 235 288 347
#     4  11  22  35  59  87 119 152 195 242 293 349
#
# _framework density 20.201754999999999
#
# number of rings (size 3 to 8) (size 9 to 14) (size 15 to 20)
#    0.000    2.500    0.000    2.500    4.667    3.667 
#    0.000    0.000    0.000    1.500    0.000    0.000 
#    0.000    0.000    0.000    0.000    0.000    0.000 
#
# Total GULP energy -133608.719947 kJ/mol
# GULP energy per Si atom -5567.029998 kJ/mol
# Density = 2.015578 g / cm^3
# Si number density = 20.201755 Si / 1000 Ang^3
#
#
#
# Elastic Constant Matrix: (Units=GPa)
#
#
# Indices 1 2 3 4 5 6 
#
# 1 70.2652 6.7823 19.3958 0.0000 0.0000 0.0000
# 2 6.7823 86.3586 -18.0485 0.0000 0.0000 0.0000
# 3 19.3958 -18.0485 22.0557 0.0000 0.0000 0.0000
# 4 0.0000 0.0000 0.0000 26.4457 0.0000 0.0000
# 5 0.0000 0.0000 0.0000 0.0000 35.8672 0.0000
# 6 0.0000 0.0000 0.0000 0.0000 0.0000 14.5497
#
#
#
# Elastic Compliance Matrix: (Units=1/GPa)
#
#
# Indices 1 2 3 4 5 6 
#
# 1 0.021720 -0.006873 -0.024726 0.000000 0.000000 0.000000
# 2 -0.006873 0.016144 0.019255 0.000000 0.000000 0.000000
# 3 -0.024726 0.019255 0.082840 0.000000 0.000000 0.000000
# 4 0.000000 0.000000 0.000000 0.037813 0.000000 0.000000
# 5 0.000000 0.000000 0.000000 0.000000 0.027881 0.000000
# 6 0.000000 0.000000 0.000000 0.000000 0.000000 0.068730
#
#
# Mechanical properties :
#
#
# Convention : Reuss Voigt Hill
#
# Bulk Modulus (GPa) = 10.41488 21.65986 16.03737
# Shear Modulus (GPa) = 16.03484 26.74254 21.38869
#
# Velocity S-wave (km/s) = 2.82039 3.64232 3.25738
# Velocity P-wave (km/s) = 3.97149 5.33232 4.70140
#
# Compressibility (1/GPa) = 0.09601649
#
# Stress axis : x y z
#
# Youngs Moduli (GPa) = 46.03968 61.94396 12.07144
#
# Poissons Ratio (x) = 0.42576 0.29847
# Poissons Ratio (y) = 0.31645 -0.23244
# Poissons Ratio (z) = 1.13836 -1.19273
#
# Static dielectric constant tensor:
#      x y z
#    x 1.507280 0.000000 0.000000 
#    y 0.000000 1.793240 0.000000 
#    z 0.000000 0.000000 1.728940 
# 
# From -- ./inp_files/13166.got.cif
#   From: 2010.05.17/outbox.cif.g08.bks.cpg/sg44_7_cif.got.tgz:13166.got - 2010.06.03 19:37:08.
