data_PCOD9375828
_publ_section_title
;
Structure prediction by ZEFSAII (Michael W. Deem and Ramdas Pophale) SiO2 
 PCOD9375828
Probable space group: I M M 2
;
_chemical_formula_sum "Si O2"
_cell_formula_units_Z 40
_cell_length_a 12.833359
_cell_length_b 18.314172
_cell_length_c 7.776938
_cell_angle_alpha 90.000000
_cell_angle_beta 90.000000
_cell_angle_gamma 90.000000
_cell_volume 1827.831968
_symmetry_space_group_name_H-M "I M M 2"
_symmetry_group_IT_number 44
_symmetry_cell_setting 'orthorhombic'
loop_
_space_group_symop_operation_xyz
x,y,z
-x,-y,z
-x,y,z
x,-y,z
1/2+x,1/2+y,1/2+z
1/2-x,1/2-y,1/2+z
1/2-x,1/2+y,1/2+z
1/2+x,1/2-y,1/2+z
loop_
_atom_site_type_symbol
_atom_site_label
_atom_site_fract_x
_atom_site_fract_y
_atom_site_fract_z
Si Si1 0.619025 0.918848 0.105200
Si Si2 0.775704 0.087723 0.805203
Si Si3 0.115779 0.723532 0.804792
Si Si4 0.185876 0.817039 0.492170
Si Si5 0.500000 0.585760 0.915396
Si Si6 0.000000 0.082497 0.834160
O O1 0.500000 0.920661 0.045311
O O2 0.623585 0.861973 0.257707
O O3 0.650684 0.000000 0.161149
O O4 0.689583 0.897530 0.945350
O O5 0.759291 0.126073 0.623333
O O6 0.888131 0.114804 0.878027
O O7 0.783871 0.000000 0.780332
O O8 0.121580 0.765356 0.622355
O O9 0.000000 0.737003 0.881142
O O10 0.225000 0.731941 0.904111
O O11 0.104050 0.865499 0.379206
O O12 0.500000 0.500000 0.855013
O O13 0.500000 0.580278 0.125159
O O14 0.000000 0.000000 0.902858
#
# Coordination Sequence:
#
# PCOD9375828 Si02
#       6
#     8   8   8   8   4   4
#     4   9  19  36  56  79 115 156 194 242 297 360
#     4   9  17  32  57  86 114 149 195 242 298 361
#     4  11  24  41  59  86 122 165 211 256 317 378
#     4  11  21  39  61  87 122 164 206 263 313 374
#     4   9  18  36  63  89 118 156 202 260 315 361
#     4   7  12  24  47  77 107 138 174 224 282 333
#
# _framework density 21.883849000000001
#
# number of rings (size 3 to 8) (size 9 to 14) (size 15 to 20)
#    0.000    2.400    1.000    3.000    0.000    2.400 
#    1.800    1.000    0.000    1.200    0.000    0.000 
#    0.000    0.000    0.000    0.000    0.000    0.000 
#
# Total GULP energy -111463.502044 kJ/mol
# GULP energy per Si atom -5573.175102 kJ/mol
# Density = 2.183404 g / cm^3
# Si number density = 21.883849 Si / 1000 Ang^3
#
#
#
# Elastic Constant Matrix: (Units=GPa)
#
#
# Indices 1 2 3 4 5 6 
#
# 1 99.1396 22.8086 19.6012 0.0000 0.0000 0.0000
# 2 22.8086 87.8005 4.0775 0.0000 0.0000 0.0000
# 3 19.6012 4.0775 13.0080 0.0000 0.0000 0.0000
# 4 0.0000 0.0000 0.0000 20.0201 0.0000 0.0000
# 5 0.0000 0.0000 0.0000 0.0000 30.9730 0.0000
# 6 0.0000 0.0000 0.0000 0.0000 0.0000 37.2963
#
#
#
# Elastic Compliance Matrix: (Units=1/GPa)
#
#
# Indices 1 2 3 4 5 6 
#
# 1 0.015062 -0.002901 -0.021786 0.000000 0.000000 0.000000
# 2 -0.002901 0.012116 0.000573 0.000000 0.000000 0.000000
# 3 -0.021786 0.000573 0.109525 0.000000 0.000000 0.000000
# 4 0.000000 0.000000 0.000000 0.049950 0.000000 0.000000
# 5 0.000000 0.000000 0.000000 0.000000 0.032286 0.000000
# 6 0.000000 0.000000 0.000000 0.000000 0.000000 0.026812
#
#
# Mechanical properties :
#
#
# Convention : Reuss Voigt Hill
#
# Bulk Modulus (GPa) = 11.30265 32.54697 21.92481
# Shear Modulus (GPa) = 15.45733 27.88860 21.67297
#
# Velocity S-wave (km/s) = 2.66058 3.57374 3.15042
# Velocity P-wave (km/s) = 3.82286 5.65099 4.82431
#
# Compressibility (1/GPa) = 0.08847483
#
# Stress axis : x y z
#
# Youngs Moduli (GPa) = 66.39387 82.53260 9.13034
#
# Poissons Ratio (x) = 0.23942 0.19892
# Poissons Ratio (y) = 0.19260 -0.00523
# Poissons Ratio (z) = 1.44648 -0.04730
#
# Static dielectric constant tensor:
#      x y z
#    x 1.889830 0.000000 0.000000 
#    y 0.000000 1.915760 0.000000 
#    z 0.000000 0.000000 1.762970 
# 
# From -- ./inp_files/5854.got.cif
#   From: 2010.05.17/outbox.cif.g08.bks.cpg/sg44_3_cif.got.tgz:5854.got - 2010.06.03 19:37:08.
