data_PCOD9375463
_publ_section_title
;
Structure prediction by ZEFSAII (Michael W. Deem and Ramdas Pophale) SiO2 
 PCOD9375463
Probable space group: I M M 2
;
_chemical_formula_sum "Si O2"
_cell_formula_units_Z 56
_cell_length_a 25.281235
_cell_length_b 15.626497
_cell_length_c 7.032631
_cell_angle_alpha 90.000000
_cell_angle_beta 90.000000
_cell_angle_gamma 90.000000
_cell_volume 2778.291110
_symmetry_space_group_name_H-M "I M M 2"
_symmetry_group_IT_number 44
_symmetry_cell_setting 'orthorhombic'
loop_
_space_group_symop_operation_xyz
x,y,z
-x,-y,z
-x,y,z
x,-y,z
1/2+x,1/2+y,1/2+z
1/2-x,1/2-y,1/2+z
1/2-x,1/2+y,1/2+z
1/2+x,1/2-y,1/2+z
loop_
_atom_site_type_symbol
_atom_site_label
_atom_site_fract_x
_atom_site_fract_y
_atom_site_fract_z
Si Si1 0.562079 0.238762 0.615780
Si Si2 0.638458 0.399703 0.635552
Si Si3 0.438542 0.907087 0.352025
Si Si4 0.709433 0.338824 0.299205
Si Si5 0.195883 0.320108 0.582734
Si Si6 0.092572 0.598338 0.422920
Si Si7 0.266229 0.400484 0.898280
O O1 0.500000 0.257022 0.589009
O O2 0.593030 0.327915 0.631766
O O3 0.584187 0.178134 0.446112
O O4 0.569525 0.172556 0.790483
O O5 0.622833 0.500000 0.661229
O O6 0.671816 0.391915 0.438607
O O7 0.678716 0.369803 0.802448
O O8 0.500000 0.909606 0.412680
O O9 0.414150 0.000000 0.402367
O O10 0.435985 0.900558 0.126187
O O11 0.755431 0.301778 0.437492
O O12 0.677283 0.267012 0.182470
O O13 0.737412 0.385819 0.122976
O O14 0.152577 0.374572 0.472720
O O15 0.219335 0.368865 0.764547
O O16 0.088988 0.500000 0.350185
O O17 0.268787 0.500000 0.865569
#
# Coordination Sequence:
#
# PCOD9375463 Si02
#       7
#     8   8   8   8   8   8   8
#     4  11  23  39  63  89 117 159 206 255 316 374
#     4  10  23  41  61  86 116 155 207 258 308 360
#     4   9  19  37  59  85 118 154 193 240 299 369
#     4  11  21  37  60  85 118 162 198 245 303 361
#     4  11  22  35  57  89 120 160 202 243 295 362
#     4  11  23  37  58  89 125 160 200 249 301 367
#     4  10  21  38  58  83 117 157 199 244 299 358
#
# _framework density 20.156275999999998
#
# number of rings (size 3 to 8) (size 9 to 14) (size 15 to 20)
#    0.000    1.571    1.429    3.429    2.000    4.571 
#    0.000    0.000    0.000    0.000    0.000    4.000 
#    0.000    0.000    0.000    0.000    0.000    0.000 
#
# Total GULP energy -156101.823378 kJ/mol
# GULP energy per Si atom -5575.065121 kJ/mol
# Density = 2.011040 g / cm^3
# Si number density = 20.156276 Si / 1000 Ang^3
#
#
#
# Elastic Constant Matrix: (Units=GPa)
#
#
# Indices 1 2 3 4 5 6 
#
# 1 34.5101 26.2086 1.9969 0.0000 0.0000 0.0000
# 2 26.2086 93.2211 19.4560 0.0000 0.0000 0.0000
# 3 1.9969 19.4560 92.3021 0.0000 0.0000 0.0000
# 4 0.0000 0.0000 0.0000 24.7176 0.0000 0.0000
# 5 0.0000 0.0000 0.0000 0.0000 -40.4295 0.0000
# 6 0.0000 0.0000 0.0000 0.0000 0.0000 5.4735
#
#
#
# Elastic Compliance Matrix: (Units=1/GPa)
#
#
# Indices 1 2 3 4 5 6 
#
# 1 0.037030 -0.010715 0.001457 0.000000 0.000000 0.000000
# 2 -0.010715 0.014321 -0.002787 0.000000 0.000000 0.000000
# 3 0.001457 -0.002787 0.011390 0.000000 0.000000 0.000000
# 4 0.000000 0.000000 0.000000 0.040457 0.000000 0.000000
# 5 0.000000 0.000000 0.000000 0.000000 -0.024734 0.000000
# 6 0.000000 0.000000 0.000000 0.000000 0.000000 0.182700
#
#
# Mechanical properties :
#
#
# Convention : Reuss Voigt Hill
#
# Bulk Modulus (GPa) = 25.87160 35.03956 30.45558
# Shear Modulus (GPa) = 16.77081 9.44376 13.10729
#
# Velocity S-wave (km/s) = 2.88764 2.16690 2.55283
# Velocity P-wave (km/s) = 4.89707 4.86644 4.88178
#
# Compressibility (1/GPa) = 0.03865242
#
# Stress axis : x y z
#
# Youngs Moduli (GPa) = 27.00502 69.82608 87.79704
#
# Poissons Ratio (x) = 0.74819 -0.12796
# Poissons Ratio (y) = 0.28936 0.24468
# Poissons Ratio (z) = -0.03936 0.19460
#
# Static dielectric constant tensor:
#      x y z
#    x 2.230040 0.000000 0.000000 
#    y 0.000000 1.763820 0.000000 
#    z 0.000000 0.000000 1.739940 
# 
# From -- ./inp_files/3311.got.cif
#   From: 2010.05.17/outbox.cif.g08.bks.cpg/sg44_2_cif.got.tgz:3311.got - 2010.06.03 19:37:08.
