data_PCOD9375470
_publ_section_title
;
Structure prediction by ZEFSAII (Michael W. Deem and Ramdas Pophale) SiO2 
 PCOD9375470
Probable space group: I M M 2
;
_chemical_formula_sum "Si O2"
_cell_formula_units_Z 64
_cell_length_a 14.304383
_cell_length_b 8.713557
_cell_length_c 24.822586
_cell_angle_alpha 90.000000
_cell_angle_beta 90.000000
_cell_angle_gamma 90.000000
_cell_volume 3093.938170
_symmetry_space_group_name_H-M "I M M 2"
_symmetry_group_IT_number 44
_symmetry_cell_setting 'orthorhombic'
loop_
_space_group_symop_operation_xyz
x,y,z
-x,-y,z
-x,y,z
x,-y,z
1/2+x,1/2+y,1/2+z
1/2-x,1/2-y,1/2+z
1/2-x,1/2+y,1/2+z
1/2+x,1/2-y,1/2+z
loop_
_atom_site_type_symbol
_atom_site_label
_atom_site_fract_x
_atom_site_fract_y
_atom_site_fract_z
Si Si1 0.608459 0.317107 0.721200
Si Si2 0.281386 0.683229 0.167385
Si Si3 0.295596 0.816732 0.055674
Si Si4 0.891413 0.812546 0.772982
Si Si5 0.386999 0.321099 0.949094
Si Si6 0.886183 0.675511 0.336167
Si Si7 0.394410 0.312411 0.506569
Si Si8 0.114109 0.823006 0.888529
O O1 0.500000 0.271725 0.713784
O O2 0.614599 0.500000 0.716990
O O3 0.676470 0.240918 0.678072
O O4 0.637210 0.265665 0.781647
O O5 0.283623 0.500000 0.165839
O O6 0.324974 0.747209 0.112561
O O7 0.336757 0.737820 0.220430
O O8 0.302165 0.000000 0.057520
O O9 0.349124 0.757817 0.002966
O O10 0.186943 0.770791 0.047165
O O11 0.855096 0.755948 0.831273
O O12 0.000000 0.770271 0.767903
O O13 0.887544 0.000000 0.775125
O O14 0.500000 0.310436 0.949638
O O15 0.361579 0.500000 0.948831
O O16 0.353581 0.243611 0.893229
O O17 0.854850 0.500000 0.330275
O O18 0.000000 0.676651 0.338669
O O19 0.500000 0.262701 0.519090
O O20 0.396638 0.500000 0.503705
O O21 0.365386 0.254086 0.446879
O O22 0.000000 0.827107 0.886228
O O23 0.146311 0.000000 0.890313
#
# Coordination Sequence:
#
# PCOD9375470 Si02
#       8
#     8   8   8   8   8   8   8   8
#     4  10  21  38  59  82 112 150 188 230 283 339
#     4  11  23  37  54  78 109 146 191 237 277 326
#     4  11  23  37  54  78 109 146 191 237 277 326
#     4   8  15  29  50  76 105 135 167 210 268 331
#     4  10  21  38  59  82 112 150 188 230 283 339
#     4   9  17  32  57  88 117 143 178 226 279 339
#     4   8  15  29  50  76 105 135 167 210 268 331
#     4   7  10  21  44  73 101 125 154 197 251 314
#
# _framework density 20.685611000000002
#
# number of rings (size 3 to 8) (size 9 to 14) (size 15 to 20)
#    0.000    2.750    0.000    3.375    0.000    5.000 
#    0.000    5.000    0.000    2.250    0.000    0.000 
#    0.000   14.000    0.000    0.000    0.000    0.000 
#
# Total GULP energy -178584.965641 kJ/mol
# GULP energy per Si atom -5580.780176 kJ/mol
# Density = 2.063853 g / cm^3
# Si number density = 20.685611 Si / 1000 Ang^3
#
#
#
# Elastic Constant Matrix: (Units=GPa)
#
#
# Indices 1 2 3 4 5 6 
#
# 1 32.1688 7.1664 6.8521 0.0000 0.0000 0.0000
# 2 7.1664 41.1945 19.1119 0.0000 0.0000 0.0000
# 3 6.8521 19.1119 95.1987 0.0000 0.0000 0.0000
# 4 0.0000 0.0000 0.0000 32.1500 0.0000 0.0000
# 5 0.0000 0.0000 0.0000 0.0000 26.6632 0.0000
# 6 0.0000 0.0000 0.0000 0.0000 0.0000 15.1058
#
#
#
# Elastic Compliance Matrix: (Units=1/GPa)
#
#
# Indices 1 2 3 4 5 6 
#
# 1 0.032491 -0.005036 -0.001327 0.000000 0.000000 0.000000
# 2 -0.005036 0.027549 -0.005168 0.000000 0.000000 0.000000
# 3 -0.001327 -0.005168 0.011637 0.000000 0.000000 0.000000
# 4 0.000000 0.000000 0.000000 0.031104 0.000000 0.000000
# 5 0.000000 0.000000 0.000000 0.000000 0.037505 0.000000
# 6 0.000000 0.000000 0.000000 0.000000 0.000000 0.066200
#
#
# Mechanical properties :
#
#
# Convention : Reuss Voigt Hill
#
# Bulk Modulus (GPa) = 20.57057 26.09140 23.33098
# Shear Modulus (GPa) = 20.34552 23.81257 22.07905
#
# Velocity S-wave (km/s) = 3.13958 3.39656 3.27060
# Velocity P-wave (km/s) = 4.80714 5.29367 5.05626
#
# Compressibility (1/GPa) = 0.04861315
#
# Stress axis : x y z
#
# Youngs Moduli (GPa) = 30.77796 36.29904 85.92951
#
# Poissons Ratio (x) = 0.18281 0.11407
# Poissons Ratio (y) = 0.15501 0.44410
# Poissons Ratio (z) = 0.04086 0.18760
#
# Static dielectric constant tensor:
#      x y z
#    x 1.783400 0.000000 0.000000 
#    y 0.000000 1.707940 0.000000 
#    z 0.000000 0.000000 1.738590 
# 
# From -- ./inp_files/25783.got.cif
#   From: 2010.05.17/outbox.cif.g08.bks.cpg/sg44_13_cif.got.tgz:25783.got - 2010.06.03 19:37:08.
