data_PCOD9375856
_publ_section_title
;
Structure prediction by ZEFSAII (Michael W. Deem and Ramdas Pophale) SiO2 
 PCOD9375856
Probable space group: I M M 2
;
_chemical_formula_sum "Si O2"
_cell_formula_units_Z 28
_cell_length_a 10.121737
_cell_length_b 19.649115
_cell_length_c 6.633050
_cell_angle_alpha 90.000000
_cell_angle_beta 90.000000
_cell_angle_gamma 90.000000
_cell_volume 1319.202039
_symmetry_space_group_name_H-M "I M M 2"
_symmetry_group_IT_number 44
_symmetry_cell_setting 'orthorhombic'
loop_
_space_group_symop_operation_xyz
x,y,z
-x,-y,z
-x,y,z
x,-y,z
1/2+x,1/2+y,1/2+z
1/2-x,1/2-y,1/2+z
1/2-x,1/2+y,1/2+z
1/2+x,1/2-y,1/2+z
loop_
_atom_site_type_symbol
_atom_site_label
_atom_site_fract_x
_atom_site_fract_y
_atom_site_fract_z
Si Si1 0.754060 0.000000 0.934170
Si Si2 0.500000 0.650663 0.979341
Si Si3 0.721697 0.357986 0.655552
Si Si4 0.500000 0.500000 0.141599
Si Si5 0.000000 0.500000 0.135061
Si Si6 0.000000 0.639976 0.863021
Si Si7 0.500000 0.284890 0.409798
O O1 0.624169 0.000000 0.790610
O O2 0.772265 0.935090 0.076324
O O3 0.872667 0.000000 0.779269
O O4 0.500000 0.570389 0.025675
O O5 0.500000 0.699011 0.172105
O O6 0.368359 0.659027 0.848452
O O7 0.871890 0.348453 0.723416
O O8 0.637102 0.318688 0.486118
O O9 0.000000 0.431561 0.989697
O O10 0.000000 0.708289 0.995999
#
# Coordination Sequence:
#
# PCOD9375856 Si02
#       7
#     4   4   8   2   2   4   4
#     4  12  22  44  72 105 143 181 240 291 358 423
#     4  11  22  44  69 109 143 185 240 283 363 419
#     4  11  25  46  71 106 144 184 239 295 353 430
#     4  12  18  36  74  98 136 180 226 284 340 414
#     4  12  28  46  72 106 144 202 234 296 374 422
#     4  12  28  47  73 101 147 187 246 293 362 435
#     4  11  27  46  71 107 139 194 236 299 362 423
#
# _framework density 21.224952999999999
#
# number of rings (size 3 to 8) (size 9 to 14) (size 15 to 20)
#    0.000    0.571    2.857    5.143    4.000    0.000 
#    5.143    0.000    0.000    0.000    0.000    0.000 
#    0.000    0.000    0.000    0.000    0.000    0.000 
#
# Total GULP energy -78055.552105 kJ/mol
# GULP energy per Si atom -5575.396579 kJ/mol
# Density = 2.117664 g / cm^3
# Si number density = 21.224953 Si / 1000 Ang^3
#
#
#
# Elastic Constant Matrix: (Units=GPa)
#
#
# Indices 1 2 3 4 5 6 
#
# 1 172.9181 27.0242 56.9991 -0.0037 0.0142 0.0006
# 2 27.0242 141.0155 27.1346 -0.0029 0.0118 0.0008
# 3 56.9991 27.1346 109.3066 -0.0026 0.0256 0.0009
# 4 -0.0037 -0.0029 -0.0026 -5.3497 0.0458 0.0017
# 5 0.0142 0.0118 0.0256 0.0458 310.6440 -0.0120
# 6 0.0006 0.0008 0.0009 0.0017 -0.0120 41.2784
#
#
#
# Elastic Compliance Matrix: (Units=1/GPa)
#
#
# Indices 1 2 3 4 5 6 
#
# 1 0.007044 -0.000675 -0.003506 -0.000003 0.000000 0.000000
# 2 -0.000675 0.007512 -0.001513 -0.000003 0.000000 0.000000
# 3 -0.003506 -0.001513 0.011352 -0.000002 -0.000001 0.000000
# 4 -0.000003 -0.000003 -0.000002 -0.186925 0.000028 0.000008
# 5 0.000000 0.000000 -0.000001 0.000028 0.003219 0.000001
# 6 0.000000 0.000000 0.000000 0.000008 0.000001 0.024226
#
#
# Mechanical properties :
#
#
# Convention : Reuss Voigt Hill
#
# Bulk Modulus (GPa) = 68.86566 71.72847 70.29707
# Shear Modulus (GPa) = -42.60971 90.12000 23.75515
#
# Velocity S-wave (km/s) = -4.48541 6.52316 3.34909
# Velocity P-wave (km/s) = 2.38556 9.51858 6.93881
#
# Compressibility (1/GPa) = 0.01452103
#
# Stress axis : x y z
#
# Youngs Moduli (GPa) = 141.96088 133.12193 88.08931
#
# Poissons Ratio (x) = 0.08991 0.30881
# Poissons Ratio (y) = 0.09588 0.13324
# Poissons Ratio (z) = 0.49766 0.20136
#
# Static dielectric constant tensor:
#      x y z
#    x 1.801930 0.000010 0.000000 
#    y 0.000010 1.584180 0.000000 
#    z 0.000000 0.000000 1.824590 
# 
# From -- ./inp_files/840.got.cif
#   From: 2010.05.17/outbox.cif.g08.bks.cpg/sg44_1_cif.got.tgz:840.got - 2010.06.03 19:37:08.
