data_PCOD9375995
_publ_section_title
;
Structure prediction by ZEFSAII (Michael W. Deem and Ramdas Pophale) SiO2 
 PCOD9375995
Probable space group: I M M 2
;
_chemical_formula_sum "Si O2"
_cell_formula_units_Z 24
_cell_length_a 9.000000
_cell_length_b 9.000000
_cell_length_c 30.000000
_cell_angle_alpha 90.000000
_cell_angle_beta 90.000000
_cell_angle_gamma 90.000000
_cell_volume 2430.000000
_symmetry_space_group_name_H-M "I M M 2"
_symmetry_group_IT_number 44
_symmetry_cell_setting 'orthorhombic'
loop_
_space_group_symop_operation_xyz
x,y,z
-x,-y,z
-x,y,z
x,-y,z
1/2+x,1/2+y,1/2+z
1/2-x,1/2-y,1/2+z
1/2-x,1/2+y,1/2+z
1/2+x,1/2-y,1/2+z
loop_
_atom_site_type_symbol
_atom_site_label
_atom_site_fract_x
_atom_site_fract_y
_atom_site_fract_z
Si Si1 0.338071 0.322120 0.581060
Si Si2 0.333416 0.178409 0.897337
Si Si3 0.665793 0.175938 0.321066
Si Si4 0.325202 0.331480 0.732794
Si Si5 0.166287 0.319061 0.498390
Si Si6 0.826739 0.834608 0.655102
O O1 0.500000 0.266427 0.594812
O O2 0.343999 0.500000 0.579815
O O3 0.289391 0.267404 0.532653
O O4 0.215759 0.274937 0.615843
O O5 0.500000 0.226130 0.883331
O O6 0.210033 0.239935 0.865196
O O7 0.310520 0.229211 0.947941
O O8 0.331443 0.000000 0.896972
O O9 0.500000 0.212614 0.305668
O O10 0.781047 0.212134 0.282425
O O11 0.673385 0.000000 0.329278
O O12 0.500000 0.336244 0.727257
O O13 0.266252 0.500000 0.724962
O O14 0.256951 0.218277 0.698583
O O15 0.168022 0.500000 0.498101
O O16 0.000000 0.274794 0.512776
O O17 0.000000 0.831554 0.664034
O O18 0.781835 0.000000 0.641727
#
# Coordination Sequence:
#
# PCOD9375995 Si02
#       6
#     8   8   8   8   8   8
#     4  10  20  34  55  82 108 137 176 218 261 311
#     4   9  18  33  54  80 108 139 177 219 263 311
#     4  10  21  36  54  78 108 141 177 216 259 309
#     4  10  21  38  60  82 103 133 175 218 261 312
#     4   8  15  30  52  77 105 138 177 219 260 305
#     4  11  24  39  55  78 108 140 174 213 260 313
#
# _framework density 9.8765429999999999
#
# number of rings (size 3 to 8) (size 9 to 14) (size 15 to 20)
#    0.000    2.333    0.000    3.500    0.000    8.000 
#    0.000    2.500    0.000    1.000    0.000    0.000 
#    0.000    0.000    0.000    0.000    0.000    0.000 
#
# Total GULP energy -133750.296799 kJ/mol
# GULP energy per Si atom -5572.929033 kJ/mol
# Density = 0.985406 g / cm^3
# Si number density = 9.876543 Si / 1000 Ang^3
#
#
#
# Elastic Constant Matrix: (Units=GPa)
#
#
# Indices 1 2 3 4 5 6 
#
# 1 43.2625 33.2491 29.6715 0.0000 0.0000 0.0000
# 2 33.2491 0.3857 21.5530 0.0000 0.0000 0.0000
# 3 29.6715 21.5530 44.5542 0.0000 0.0000 0.0000
# 4 0.0000 0.0000 0.0000 -2.3125 0.0000 0.0000
# 5 0.0000 0.0000 0.0000 0.0000 26.5020 0.0000
# 6 0.0000 0.0000 0.0000 0.0000 0.0000 21.2126
#
#
#
# Elastic Compliance Matrix: (Units=1/GPa)
#
#
# Indices 1 2 3 4 5 6 
#
# 1 0.016931 0.031863 -0.026689 0.000000 0.000000 0.000000
# 2 0.031863 -0.039631 -0.002048 0.000000 0.000000 0.000000
# 3 -0.026689 -0.002048 0.041209 0.000000 0.000000 0.000000
# 4 0.000000 0.000000 0.000000 -0.432431 0.000000 0.000000
# 5 0.000000 0.000000 0.000000 0.000000 0.037733 0.000000
# 6 0.000000 0.000000 0.000000 0.000000 0.000000 0.047142
#
#
# Mechanical properties :
#
#
# Convention : Reuss Voigt Hill
#
# Bulk Modulus (GPa) = 40.38643 28.57216 34.47929
# Shear Modulus (GPa) = -15.28841 9.32901 -2.97970
#
# Velocity S-wave (km/s) = -2.78506 2.17556 -1.22953
# Velocity P-wave (km/s) = 3.18558 4.56145 3.93413
#
# Compressibility (1/GPa) = 0.02476079
#
# Stress axis : x y z
#
# Youngs Moduli (GPa) = 59.06287 -25.23246 24.26625
#
# Poissons Ratio (x) = 0.80399 0.64765
# Poissons Ratio (y) = -1.88194 0.04970
# Poissons Ratio (z) = 1.57635 -0.05168
#
# Static dielectric constant tensor:
#      x y z
#    x 1.722410 0.000000 0.000000 
#    y 0.000000 1.718050 0.000000 
#    z 0.000000 0.000000 1.697800 
# 
# From -- ./inp_files/26851.got.cif
#   From: 2010.05.17/outbox.ucp.g08.bks.cvg/sg44_14_cif.got.tgz:26851.got - 2010.06.11 16:32:36.
