data_PCOD9375417
_publ_section_title
;
Structure prediction by ZEFSAII (Michael W. Deem and Ramdas Pophale) SiO2 
 PCOD9375417
Probable space group: I M M 2
;
_chemical_formula_sum "Si O2"
_cell_formula_units_Z 40
_cell_length_a 9.283010
_cell_length_b 17.200339
_cell_length_c 13.005744
_cell_angle_alpha 90.000000
_cell_angle_beta 90.000000
_cell_angle_gamma 90.000000
_cell_volume 2076.639096
_symmetry_space_group_name_H-M "I M M 2"
_symmetry_group_IT_number 44
_symmetry_cell_setting 'orthorhombic'
loop_
_space_group_symop_operation_xyz
x,y,z
-x,-y,z
-x,y,z
x,-y,z
1/2+x,1/2+y,1/2+z
1/2-x,1/2-y,1/2+z
1/2-x,1/2+y,1/2+z
1/2+x,1/2-y,1/2+z
loop_
_atom_site_type_symbol
_atom_site_label
_atom_site_fract_x
_atom_site_fract_y
_atom_site_fract_z
Si Si1 0.327626 0.829994 0.182700
Si Si2 0.671878 0.173679 0.608490
Si Si3 0.660363 0.407478 0.507537
Si Si4 0.161154 0.592960 0.319305
Si Si5 0.324721 0.909222 0.397281
O O1 0.500000 0.823417 0.181445
O O2 0.254854 0.750180 0.145435
O O3 0.270521 0.890398 0.098342
O O4 0.282389 0.861489 0.295127
O O5 0.500000 0.189155 0.600340
O O6 0.692338 0.113820 0.702189
O O7 0.720449 0.135802 0.500930
O O8 0.500000 0.376412 0.528320
O O9 0.649079 0.500000 0.497020
O O10 0.724602 0.375160 0.400955
O O11 0.158857 0.500000 0.328919
O O12 0.000000 0.622181 0.344432
O O13 0.500000 0.911263 0.398554
O O14 0.277259 0.000000 0.394714
#
# Coordination Sequence:
#
# PCOD9375417 Si02
#       5
#     8   8   8   8   8
#     4  11  23  37  57  86 119 154 194 241 293 353
#     4  10  21  37  59  87 118 152 192 241 293 348
#     4  10  21  37  58  83 113 150 192 239 291 346
#     4   9  18  34  58  86 115 149 190 236 286 344
#     4   9  19  38  63  87 113 153 202 246 290 347
#
# _framework density 19.261894000000002
#
# number of rings (size 3 to 8) (size 9 to 14) (size 15 to 20)
#    0.000    2.200    0.000    2.400    2.800    5.200 
#    0.000    1.000    0.000    4.200    0.000    0.000 
#    0.000    0.000    0.000    0.000    0.000    0.000 
#
# Total GULP energy -111534.129359 kJ/mol
# GULP energy per Si atom -5576.706468 kJ/mol
# Density = 1.921805 g / cm^3
# Si number density = 19.261894 Si / 1000 Ang^3
#
#
#
# Elastic Constant Matrix: (Units=GPa)
#
#
# Indices 1 2 3 4 5 6 
#
# 1 52.8863 28.9675 53.1733 0.0000 0.0000 0.0000
# 2 28.9675 72.5257 54.4903 0.0000 0.0000 0.0000
# 3 53.1733 54.4903 169.7184 0.0000 0.0000 0.0000
# 4 0.0000 0.0000 0.0000 29.1329 0.0000 0.0000
# 5 0.0000 0.0000 0.0000 0.0000 3.0256 0.0000
# 6 0.0000 0.0000 0.0000 0.0000 0.0000 27.3915
#
#
#
# Elastic Compliance Matrix: (Units=1/GPa)
#
#
# Indices 1 2 3 4 5 6 
#
# 1 0.029713 -0.006423 -0.007247 0.000000 0.000000 0.000000
# 2 -0.006423 0.019560 -0.004268 0.000000 0.000000 0.000000
# 3 -0.007247 -0.004268 0.009533 0.000000 0.000000 0.000000
# 4 0.000000 0.000000 0.000000 0.034325 0.000000 0.000000
# 5 0.000000 0.000000 0.000000 0.000000 0.330517 0.000000
# 6 0.000000 0.000000 0.000000 0.000000 0.000000 0.036508
#
#
# Mechanical properties :
#
#
# Convention : Reuss Voigt Hill
#
# Bulk Modulus (GPa) = 43.60974 63.15472 53.38223
# Shear Modulus (GPa) = 9.92706 22.47662 16.20184
#
# Velocity S-wave (km/s) = 2.27265 3.41969 2.90338
# Velocity P-wave (km/s) = 5.43839 6.96067 6.24608
#
# Compressibility (1/GPa) = 0.02293066
#
# Stress axis : x y z
#
# Youngs Moduli (GPa) = 33.65562 51.12483 104.90069
#
# Poissons Ratio (x) = 0.32836 0.76021
# Poissons Ratio (y) = 0.21616 0.44769
# Poissons Ratio (z) = 0.24390 0.21819
#
# Static dielectric constant tensor:
#      x y z
#    x 1.678570 0.000000 0.000000 
#    y 0.000000 1.880750 0.000000 
#    z 0.000000 0.000000 1.669850 
# 
# From -- ./inp_files/10830.got.cif
#   From: 2010.05.17/outbox.cif.g08.bks.cpg/sg44_6_cif.got.tgz:10830.got - 2010.06.03 19:37:08.
