data_PCOD9375427
_publ_section_title
;
Structure prediction by ZEFSAII (Michael W. Deem and Ramdas Pophale) SiO2 
 PCOD9375427
Probable space group: I M M 2
;
_chemical_formula_sum "Si O2"
_cell_formula_units_Z 48
_cell_length_a 18.292370
_cell_length_b 15.956575
_cell_length_c 8.284483
_cell_angle_alpha 90.000000
_cell_angle_beta 90.000000
_cell_angle_gamma 90.000000
_cell_volume 2418.104505
_symmetry_space_group_name_H-M "I M M 2"
_symmetry_group_IT_number 44
_symmetry_cell_setting 'orthorhombic'
loop_
_space_group_symop_operation_xyz
x,y,z
-x,-y,z
-x,y,z
x,-y,z
1/2+x,1/2+y,1/2+z
1/2-x,1/2-y,1/2+z
1/2-x,1/2+y,1/2+z
1/2+x,1/2-y,1/2+z
loop_
_atom_site_type_symbol
_atom_site_label
_atom_site_fract_x
_atom_site_fract_y
_atom_site_fract_z
Si Si1 0.084288 0.597262 0.661760
Si Si2 0.639588 0.906755 0.515759
Si Si3 0.174577 0.282847 0.449344
Si Si4 0.220480 0.855259 0.692382
Si Si5 0.915106 0.232855 0.161955
Si Si6 0.584585 0.404570 0.384924
O O1 0.088057 0.500000 0.613547
O O2 0.131535 0.607264 0.824434
O O3 0.114233 0.655225 0.521369
O O4 0.000000 0.617299 0.701762
O O5 0.722448 0.905076 0.580936
O O6 0.600462 0.827455 0.598583
O O7 0.608345 0.000000 0.549451
O O8 0.206569 0.229909 0.595308
O O9 0.236497 0.334855 0.357089
O O10 0.136813 0.223378 0.316360
O O11 0.143132 0.893788 0.742185
O O12 0.000000 0.225035 0.206080
O O13 0.900303 0.165362 0.021389
O O14 0.500000 0.392440 0.332546
O O15 0.590912 0.500000 0.447971
#
# Coordination Sequence:
#
# PCOD9375427 Si02
#       6
#     8   8   8   8   8   8
#     4  10  21  37  58  87 123 159 193 233 286 349
#     4  10  21  37  59  88 121 156 191 230 284 348
#     4  11  22  37  57  85 116 153 196 240 290 347
#     4  11  22  38  58  84 116 154 196 244 289 343
#     4  10  21  37  60  88 116 150 191 238 292 348
#     4  10  22  41  63  85 112 151 198 247 298 346
#
# _framework density 19.850259000000001
#
# number of rings (size 3 to 8) (size 9 to 14) (size 15 to 20)
#    0.000    1.667    0.000    5.500    0.000    7.000 
#    0.000    3.333    0.000    2.000    0.000    0.000 
#    0.000    0.000    0.000    0.000    0.000    0.000 
#
# Total GULP energy -133992.399113 kJ/mol
# GULP energy per Si atom -5583.016630 kJ/mol
# Density = 1.980508 g / cm^3
# Si number density = 19.850259 Si / 1000 Ang^3
#
#
#
# Elastic Constant Matrix: (Units=GPa)
#
#
# Indices 1 2 3 4 5 6 
#
# 1 107.2798 29.9788 44.3078 0.0000 0.0000 0.0000
# 2 29.9788 78.7484 35.5197 0.0000 0.0000 0.0000
# 3 44.3078 35.5197 65.6654 0.0000 0.0000 0.0000
# 4 0.0000 0.0000 0.0000 8.0885 0.0000 0.0000
# 5 0.0000 0.0000 0.0000 0.0000 36.1682 0.0000
# 6 0.0000 0.0000 0.0000 0.0000 0.0000 21.6440
#
#
#
# Elastic Compliance Matrix: (Units=1/GPa)
#
#
# Indices 1 2 3 4 5 6 
#
# 1 0.013025 -0.001315 -0.008077 0.000000 0.000000 0.000000
# 2 -0.001315 0.016930 -0.008270 0.000000 0.000000 0.000000
# 3 -0.008077 -0.008270 0.025152 0.000000 0.000000 0.000000
# 4 0.000000 0.000000 0.000000 0.123633 0.000000 0.000000
# 5 0.000000 0.000000 0.000000 0.000000 0.027649 0.000000
# 6 0.000000 0.000000 0.000000 0.000000 0.000000 0.046202
#
#
# Mechanical properties :
#
#
# Convention : Reuss Voigt Hill
#
# Bulk Modulus (GPa) = 50.55152 52.36738 51.45945
# Shear Modulus (GPa) = 16.97739 22.63928 19.80834
#
# Velocity S-wave (km/s) = 2.92768 3.38080 3.16236
# Velocity P-wave (km/s) = 6.07866 6.45587 6.27010
#
# Compressibility (1/GPa) = 0.01978180
#
# Stress axis : x y z
#
# Youngs Moduli (GPa) = 76.77604 59.06799 39.75794
#
# Poissons Ratio (x) = 0.07769 0.32113
# Poissons Ratio (y) = 0.10098 0.32880
# Poissons Ratio (z) = 0.62013 0.48850
#
# Static dielectric constant tensor:
#      x y z
#    x 1.707320 0.000000 0.000000 
#    y 0.000000 1.708450 0.000000 
#    z 0.000000 0.000000 1.680550 
# 
# From -- ./inp_files/7128.got.cif
#   From: 2010.05.17/outbox.cif.g08.bks.cpg/sg44_4_cif.got.tgz:7128.got - 2010.06.03 19:37:08.
