data_PCOD9375725
_publ_section_title
;
Structure prediction by ZEFSAII (Michael W. Deem and Ramdas Pophale) SiO2 
 PCOD9375725
Probable space group: I M M 2
;
_chemical_formula_sum "Si O2"
_cell_formula_units_Z 56
_cell_length_a 21.861647
_cell_length_b 8.292726
_cell_length_c 14.729182
_cell_angle_alpha 90.000000
_cell_angle_beta 90.000000
_cell_angle_gamma 90.000000
_cell_volume 2670.292415
_symmetry_space_group_name_H-M "I M M 2"
_symmetry_group_IT_number 44
_symmetry_cell_setting 'orthorhombic'
loop_
_space_group_symop_operation_xyz
x,y,z
-x,-y,z
-x,y,z
x,-y,z
1/2+x,1/2+y,1/2+z
1/2-x,1/2-y,1/2+z
1/2-x,1/2+y,1/2+z
1/2+x,1/2-y,1/2+z
loop_
_atom_site_type_symbol
_atom_site_label
_atom_site_fract_x
_atom_site_fract_y
_atom_site_fract_z
Si Si1 0.896087 0.319978 0.862680
Si Si2 0.203562 0.807678 0.736699
Si Si3 0.500000 0.676135 0.250435
Si Si4 0.500000 0.816758 0.059949
Si Si5 0.072990 0.190861 0.046102
Si Si6 0.067595 0.803961 0.248777
Si Si7 0.314235 0.694829 0.851347
Si Si8 0.141129 0.805544 0.543156
O O1 0.919815 0.500000 0.849644
O O2 0.833875 0.292664 0.810978
O O3 0.942436 0.197835 0.815017
O O4 0.891714 0.282806 0.968271
O O5 0.271702 0.771400 0.773053
O O6 0.175421 0.759334 0.638023
O O7 0.193080 0.000000 0.744513
O O8 0.500000 0.500000 0.206527
O O9 0.500000 0.802325 0.169640
O O10 0.431242 0.746596 0.036637
O O11 0.500000 0.000000 0.028575
O O12 0.085715 0.248283 0.147627
O O13 0.000000 0.212232 0.030930
O O14 0.085610 0.000000 0.039421
O O15 0.117177 0.762868 0.321553
O O16 0.000000 0.744433 0.270251
O O17 0.064737 0.000000 0.244133
O O18 0.305630 0.500000 0.847629
O O19 0.315949 0.745335 0.957531
O O20 0.139149 0.000000 0.541337
#
# Coordination Sequence:
#
# PCOD9375725 Si02
#       8
#     8   8   4   4   8   8   8   8
#     4  12  23  35  56  88 122 159 208 261 309 369
#     4  11  24  42  61  84 123 168 208 255 318 386
#     4  12  22  36  58  87 124 163 202 253 322 384
#     4  12  24  38  64  99 132 167 212 269 320 378
#     4   9  17  31  53  82 119 159 196 240 297 363
#     4   8  16  33  59  90 119 154 205 256 307 369
#     4  10  22  41  66  93 121 160 213 266 314 376
#     4  10  23  42  66  94 128 171 215 264 327 388
#
# _framework density 20.971485000000001
#
# number of rings (size 3 to 8) (size 9 to 14) (size 15 to 20)
#    0.000    1.714    2.143    3.857    1.000    2.286 
#    0.000    3.571    0.000    0.857    0.000    0.000 
#    0.000    0.000    0.000    0.000    0.000    0.000 
#
# Total GULP energy -156055.887993 kJ/mol
# GULP energy per Si atom -5573.424571 kJ/mol
# Density = 2.092375 g / cm^3
# Si number density = 20.971485 Si / 1000 Ang^3
#
#
#
# Elastic Constant Matrix: (Units=GPa)
#
#
# Indices 1 2 3 4 5 6 
#
# 1 65.2822 11.3555 43.4142 0.0000 0.0000 0.0000
# 2 11.3555 43.2874 21.7844 0.0000 0.0000 0.0000
# 3 43.4142 21.7844 95.0154 0.0000 0.0000 0.0000
# 4 0.0000 0.0000 0.0000 6.7015 0.0000 0.0000
# 5 0.0000 0.0000 0.0000 0.0000 21.4888 0.0000
# 6 0.0000 0.0000 0.0000 0.0000 0.0000 14.0046
#
#
#
# Elastic Compliance Matrix: (Units=1/GPa)
#
#
# Indices 1 2 3 4 5 6 
#
# 1 0.022029 -0.000806 -0.009881 0.000000 0.000000 0.000000
# 2 -0.000806 0.026144 -0.005626 0.000000 0.000000 0.000000
# 3 -0.009881 -0.005626 0.016329 0.000000 0.000000 0.000000
# 4 0.000000 0.000000 0.000000 0.149219 0.000000 0.000000
# 5 0.000000 0.000000 0.000000 0.000000 0.046536 0.000000
# 6 0.000000 0.000000 0.000000 0.000000 0.000000 0.071405
#
#
# Mechanical properties :
#
#
# Convention : Reuss Voigt Hill
#
# Bulk Modulus (GPa) = 31.37067 39.63258 35.50162
# Shear Modulus (GPa) = 13.33641 16.90772 15.12206
#
# Velocity S-wave (km/s) = 2.52450 2.84249 2.68820
# Velocity P-wave (km/s) = 4.84651 5.45090 5.15757
#
# Compressibility (1/GPa) = 0.03187691
#
# Stress axis : x y z
#
# Youngs Moduli (GPa) = 45.39414 38.24962 61.24057
#
# Poissons Ratio (x) = 0.03085 0.60510
# Poissons Ratio (y) = 0.03661 0.34452
# Poissons Ratio (z) = 0.44852 0.21518
#
# Static dielectric constant tensor:
#      x y z
#    x 1.672350 0.000000 0.000000 
#    y 0.000000 1.731540 0.000000 
#    z 0.000000 0.000000 1.752820 
# 
# From -- ./inp_files/19228.got.cif
#   From: 2010.05.17/outbox.cif.g08.bks.cpg/sg44_10_cif.got.tgz:19228.got - 2010.06.03 19:37:08.
