data_PCOD9375695
_publ_section_title
;
Structure prediction by ZEFSAII (Michael W. Deem and Ramdas Pophale) SiO2 
 PCOD9375695
Probable space group: I M M 2
;
_chemical_formula_sum "Si O2"
_cell_formula_units_Z 56
_cell_length_a 16.653465
_cell_length_b 22.471773
_cell_length_c 8.003585
_cell_angle_alpha 90.000000
_cell_angle_beta 90.000000
_cell_angle_gamma 90.000000
_cell_volume 2995.204706
_symmetry_space_group_name_H-M "I M M 2"
_symmetry_group_IT_number 44
_symmetry_cell_setting 'orthorhombic'
loop_
_space_group_symop_operation_xyz
x,y,z
-x,-y,z
-x,y,z
x,-y,z
1/2+x,1/2+y,1/2+z
1/2-x,1/2-y,1/2+z
1/2-x,1/2+y,1/2+z
1/2+x,1/2-y,1/2+z
loop_
_atom_site_type_symbol
_atom_site_label
_atom_site_fract_x
_atom_site_fract_y
_atom_site_fract_z
Si Si1 0.749502 0.070750 0.067200
Si Si2 0.705044 0.320736 0.781993
Si Si3 0.093149 0.360856 0.457415
Si Si4 0.379111 0.220375 0.281890
Si Si5 0.911687 0.835350 0.587136
Si Si6 0.090556 0.728184 0.150920
Si Si7 0.589149 0.429384 0.356534
O O1 0.764551 0.114583 0.223869
O O2 0.746217 0.000000 0.102567
O O3 0.665938 0.092115 0.980779
O O4 0.829949 0.083345 0.959103
O O5 0.783439 0.280495 0.793367
O O6 0.647099 0.285759 0.655424
O O7 0.656818 0.323936 0.953670
O O8 0.095644 0.321464 0.627256
O O9 0.112261 0.318306 0.298362
O O10 0.000000 0.382366 0.437687
O O11 0.407714 0.285671 0.231326
O O12 0.407406 0.201252 0.465072
O O13 0.903233 0.897825 0.678628
O O14 0.000000 0.831607 0.507861
O O15 0.000000 0.746782 0.187194
O O16 0.500000 0.411064 0.425794
O O17 0.586898 0.500000 0.339203
#
# Coordination Sequence:
#
# PCOD9375695 Si02
#       7
#     8   8   8   8   8   8   8
#     4  10  23  41  61  86 119 165 213 256 308 370
#     4  11  23  35  56  85 120 152 200 249 302 364
#     4  10  22  40  62  90 123 157 205 258 306 367
#     4  11  22  36  56  86 123 158 191 242 310 368
#     4  11  21  35  56  82 118 157 196 247 306 369
#     4  11  22  36  59  89 122 157 196 248 310 367
#     4   9  20  37  56  80 112 154 201 245 295 358
#
# _framework density 18.696550999999999
#
# number of rings (size 3 to 8) (size 9 to 14) (size 15 to 20)
#    0.000    1.571    1.429    3.429    6.000    3.143 
#    0.000    0.000    0.000    0.000    0.000    2.000 
#    0.000    0.000    0.000    0.000    0.000    0.000 
#
# Total GULP energy -156110.764471 kJ/mol
# GULP energy per Si atom -5575.384445 kJ/mol
# Density = 1.865400 g / cm^3
# Si number density = 18.696551 Si / 1000 Ang^3
#
#
#
# Elastic Constant Matrix: (Units=GPa)
#
#
# Indices 1 2 3 4 5 6 
#
# 1 126.8888 36.1656 17.7522 0.0000 0.0000 0.0000
# 2 36.1656 50.5511 25.8162 0.0000 0.0000 0.0000
# 3 17.7522 25.8162 96.6677 0.0000 0.0000 0.0000
# 4 0.0000 0.0000 0.0000 18.4557 0.0000 0.0000
# 5 0.0000 0.0000 0.0000 0.0000 28.4067 0.0000
# 6 0.0000 0.0000 0.0000 0.0000 0.0000 10.6774
#
#
#
# Elastic Compliance Matrix: (Units=1/GPa)
#
#
# Indices 1 2 3 4 5 6 
#
# 1 0.009900 -0.007126 0.000085 0.000000 0.000000 0.000000
# 2 -0.007126 0.028036 -0.006179 0.000000 0.000000 0.000000
# 3 0.000085 -0.006179 0.011979 0.000000 0.000000 0.000000
# 4 0.000000 0.000000 0.000000 0.054184 0.000000 0.000000
# 5 0.000000 0.000000 0.000000 0.000000 0.035203 0.000000
# 6 0.000000 0.000000 0.000000 0.000000 0.000000 0.093656
#
#
# Mechanical properties :
#
#
# Convention : Reuss Voigt Hill
#
# Bulk Modulus (GPa) = 42.59773 48.17506 45.38640
# Shear Modulus (GPa) = 18.71100 24.46618 21.58859
#
# Velocity S-wave (km/s) = 3.16693 3.62137 3.40175
# Velocity P-wave (km/s) = 6.01713 6.58092 6.30533
#
# Compressibility (1/GPa) = 0.02347543
#
# Stress axis : x y z
#
# Youngs Moduli (GPa) = 101.00885 35.66888 83.47841
#
# Poissons Ratio (x) = 0.25419 -0.00710
# Poissons Ratio (y) = 0.71982 0.51578
# Poissons Ratio (z) = -0.00859 0.22038
#
# Static dielectric constant tensor:
#      x y z
#    x 1.703910 0.000000 0.000000 
#    y 0.000000 1.624590 0.000000 
#    z 0.000000 0.000000 1.666740 
# 
# From -- ./inp_files/7375.got.cif
#   From: 2010.05.17/outbox.cif.g08.bks.cpg/sg44_4_cif.got.tgz:7375.got - 2010.06.03 19:37:08.
