data_PCOD9375384
_publ_section_title
;
Structure prediction by ZEFSAII (Michael W. Deem and Ramdas Pophale) SiO2 
 PCOD9375384
Probable space group: I M M 2
;
_chemical_formula_sum "Si O2"
_cell_formula_units_Z 56
_cell_length_a 11.552296
_cell_length_b 14.233394
_cell_length_c 17.872714
_cell_angle_alpha 90.000000
_cell_angle_beta 90.000000
_cell_angle_gamma 90.000000
_cell_volume 2938.781419
_symmetry_space_group_name_H-M "I M M 2"
_symmetry_group_IT_number 44
_symmetry_cell_setting 'orthorhombic'
loop_
_space_group_symop_operation_xyz
x,y,z
-x,-y,z
-x,y,z
x,-y,z
1/2+x,1/2+y,1/2+z
1/2-x,1/2-y,1/2+z
1/2-x,1/2+y,1/2+z
1/2+x,1/2-y,1/2+z
loop_
_atom_site_type_symbol
_atom_site_label
_atom_site_fract_x
_atom_site_fract_y
_atom_site_fract_z
Si Si1 0.625397 0.291998 0.167080
Si Si2 0.635949 0.396468 0.702862
Si Si3 0.366313 0.887169 0.612907
Si Si4 0.135305 0.610776 0.408886
Si Si5 0.136135 0.393408 0.935713
Si Si6 0.765537 0.256902 0.811857
Si Si7 0.690342 0.108750 0.079190
O O1 0.500000 0.337820 0.148867
O O2 0.748398 0.342835 0.147277
O O3 0.633270 0.274160 0.255873
O O4 0.626513 0.191494 0.124010
O O5 0.500000 0.392707 0.702182
O O6 0.675084 0.500000 0.729330
O O7 0.685426 0.319110 0.757783
O O8 0.684991 0.387102 0.619013
O O9 0.500000 0.856256 0.635101
O O10 0.355131 0.870112 0.523684
O O11 0.363938 0.000000 0.625097
O O12 0.144038 0.500000 0.394309
O O13 0.198770 0.668921 0.345607
O O14 0.187337 0.628668 0.491376
O O15 0.000000 0.636294 0.412080
O O16 0.180780 0.500000 0.925401
O O17 0.196296 0.320727 0.881129
O O18 0.000000 0.394030 0.917760
O O19 0.647196 0.000000 0.088678
#
# Coordination Sequence:
#
# PCOD9375384 Si02
#       7
#     8   8   8   8   8   8   8
#     4  11  23  36  55  86 118 148 184 228 280 333
#     4   9  18  33  53  79 110 143 182 229 282 339
#     4   9  20  40  64  85 106 142 192 237 278 330
#     4  10  21  37  56  77 103 141 190 236 273 317
#     4   9  18  35  59  84 108 136 176 227 279 333
#     4  11  21  34  52  79 113 148 180 219 275 338
#     4   9  19  36  57  80 108 144 187 233 279 328
#
# _framework density 19.055516999999998
#
# number of rings (size 3 to 8) (size 9 to 14) (size 15 to 20)
#    0.000    2.286    0.000    3.429    0.000    5.143 
#    0.000    3.571    0.000    4.714    0.000    0.000 
#    0.000    0.000    0.000    0.000    0.000    0.000 
#
# Total GULP energy -156015.303630 kJ/mol
# GULP energy per Si atom -5571.975130 kJ/mol
# Density = 1.901215 g / cm^3
# Si number density = 19.055517 Si / 1000 Ang^3
#
#
#
# Elastic Constant Matrix: (Units=GPa)
#
#
# Indices 1 2 3 4 5 6 
#
# 1 108.5926 40.0727 43.5922 0.0000 0.0000 0.0000
# 2 40.0727 54.1347 44.4583 0.0000 0.0000 0.0000
# 3 43.5922 44.4583 72.3401 0.0000 0.0000 0.0000
# 4 0.0000 0.0000 0.0000 34.4114 0.0000 0.0000
# 5 0.0000 0.0000 0.0000 0.0000 -0.1243 0.0000
# 6 0.0000 0.0000 0.0000 0.0000 0.0000 191.3218
#
#
#
# Elastic Compliance Matrix: (Units=1/GPa)
#
#
# Indices 1 2 3 4 5 6 
#
# 1 0.013202 -0.006540 -0.003936 0.000000 0.000000 0.000000
# 2 -0.006540 0.040537 -0.020972 0.000000 0.000000 0.000000
# 3 -0.003936 -0.020972 0.029084 0.000000 0.000000 0.000000
# 4 0.000000 0.000000 0.000000 0.029060 0.000000 0.000000
# 5 0.000000 0.000000 0.000000 0.000000 -8.045406 0.000000
# 6 0.000000 0.000000 0.000000 0.000000 0.000000 0.005227
#
#
# Mechanical properties :
#
#
# Convention : Reuss Voigt Hill
#
# Bulk Modulus (GPa) = 50.18321 54.59041 52.38681
# Shear Modulus (GPa) = -0.63623 52.25140 25.80759
#
# Velocity S-wave (km/s) = -0.57845 5.24215 3.68412
# Velocity P-wave (km/s) = 5.09375 8.08396 6.75636
#
# Compressibility (1/GPa) = 0.01992699
#
# Stress axis : x y z
#
# Youngs Moduli (GPa) = 75.74421 24.66889 34.38284
#
# Poissons Ratio (x) = 0.16134 0.13534
# Poissons Ratio (y) = 0.49538 0.72107
# Poissons Ratio (z) = 0.29815 0.51735
#
# Static dielectric constant tensor:
#      x y z
#    x 1.672180 0.000000 0.000000 
#    y 0.000000 1.700080 0.000000 
#    z 0.000000 0.000000 1.638350 
# 
# From -- ./inp_files/17777.got.cif
#   From: 2010.05.17/outbox.cif.g08.bks.cpg/sg44_9_cif.got.tgz:17777.got - 2010.06.03 19:37:08.
