data_PCOD9375538
_publ_section_title
;
Structure prediction by ZEFSAII (Michael W. Deem and Ramdas Pophale) SiO2 
 PCOD9375538
Probable space group: I M M 2
;
_chemical_formula_sum "Si O2"
_cell_formula_units_Z 64
_cell_length_a 23.238532
_cell_length_b 15.986640
_cell_length_c 8.433579
_cell_angle_alpha 90.000000
_cell_angle_beta 90.000000
_cell_angle_gamma 90.000000
_cell_volume 3133.125581
_symmetry_space_group_name_H-M "I M M 2"
_symmetry_group_IT_number 44
_symmetry_cell_setting 'orthorhombic'
loop_
_space_group_symop_operation_xyz
x,y,z
-x,-y,z
-x,y,z
x,-y,z
1/2+x,1/2+y,1/2+z
1/2-x,1/2-y,1/2+z
1/2-x,1/2+y,1/2+z
1/2+x,1/2-y,1/2+z
loop_
_atom_site_type_symbol
_atom_site_label
_atom_site_fract_x
_atom_site_fract_y
_atom_site_fract_z
Si Si1 0.322560 0.678008 0.734450
Si Si2 0.333380 0.401017 0.071723
Si Si3 0.905326 0.590469 0.072839
Si Si4 0.789254 0.632403 0.232553
Si Si5 0.097701 0.405801 0.698735
Si Si6 0.063262 0.225625 0.074521
Si Si7 0.934764 0.778390 0.691370
Si Si8 0.223140 0.590143 0.581915
O O1 0.305837 0.772724 0.774477
O O2 0.385365 0.677302 0.657886
O O3 0.274471 0.653145 0.607750
O O4 0.320541 0.620770 0.888817
O O5 0.345812 0.500000 0.093282
O O6 0.274949 0.378754 0.166984
O O7 0.385792 0.340000 0.124345
O O8 0.924372 0.500000 0.137489
O O9 0.837275 0.600023 0.109690
O O10 0.932657 0.677214 0.129743
O O11 0.916634 0.589588 0.884749
O O12 0.794831 0.587563 0.400040
O O13 0.084597 0.500000 0.632569
O O14 0.071515 0.318852 0.635141
O O15 0.166116 0.392237 0.681461
O O16 0.000000 0.192738 0.111371
O O17 0.071334 0.223605 0.883679
O O18 0.000000 0.806223 0.654256
O O19 0.245606 0.500000 0.632427
#
# Coordination Sequence:
#
# PCOD9375538 Si02
#       8
#     8   8   8   8   8   8   8   8
#     4  11  22  37  58  81 110 145 183 230 282 335
#     4  12  25  40  59  84 115 152 194 237 284 339
#     4   9  17  31  53  83 117 147 177 219 276 344
#     4  11  21  35  56  83 113 144 180 224 279 337
#     4   9  18  33  56  87 120 151 184 228 286 349
#     4   9  20  37  57  80 107 145 190 235 283 332
#     4  10  21  39  60  82 112 151 196 243 287 334
#     4  11  21  34  54  81 112 141 174 218 273 335
#
# _framework density 20.426886
#
# number of rings (size 3 to 8) (size 9 to 14) (size 15 to 20)
#    0.000    1.750    0.000    5.250    0.000    4.250 
#    0.000    3.125    0.000    2.625    0.000    3.500 
#    0.000    0.000    0.000    0.000    0.000    0.000 
#
# Total GULP energy -178526.687120 kJ/mol
# GULP energy per Si atom -5578.958973 kJ/mol
# Density = 2.038039 g / cm^3
# Si number density = 20.426886 Si / 1000 Ang^3
#
#
#
# Elastic Constant Matrix: (Units=GPa)
#
#
# Indices 1 2 3 4 5 6 
#
# 1 58.2526 34.5264 -0.2684 0.0000 0.0000 0.0000
# 2 34.5264 78.4055 7.7318 0.0000 0.0000 0.0000
# 3 -0.2684 7.7318 21.4479 0.0000 0.0000 0.0000
# 4 0.0000 0.0000 0.0000 26.6166 0.0000 0.0000
# 5 0.0000 0.0000 0.0000 0.0000 20.4477 0.0000
# 6 0.0000 0.0000 0.0000 0.0000 0.0000 11.7599
#
#
#
# Elastic Compliance Matrix: (Units=1/GPa)
#
#
# Indices 1 2 3 4 5 6 
#
# 1 0.023587 -0.010800 0.004188 0.000000 0.000000 0.000000
# 2 -0.010800 0.018169 -0.006685 0.000000 0.000000 0.000000
# 3 0.004188 -0.006685 0.049087 0.000000 0.000000 0.000000
# 4 0.000000 0.000000 0.000000 0.037571 0.000000 0.000000
# 5 0.000000 0.000000 0.000000 0.000000 0.048905 0.000000
# 6 0.000000 0.000000 0.000000 0.000000 0.000000 0.085035
#
#
# Mechanical properties :
#
#
# Convention : Reuss Voigt Hill
#
# Bulk Modulus (GPa) = 15.56413 26.89842 21.23127
# Shear Modulus (GPa) = 16.11018 19.50592 17.80805
#
# Velocity S-wave (km/s) = 2.81138 3.09352 2.95582
# Velocity P-wave (km/s) = 4.26315 5.09476 4.69739
#
# Compressibility (1/GPa) = 0.06425029
#
# Stress axis : x y z
#
# Youngs Moduli (GPa) = 42.39643 55.03838 20.37205
#
# Poissons Ratio (x) = 0.59440 -0.08532
# Poissons Ratio (y) = 0.45787 0.13619
# Poissons Ratio (z) = -0.17757 0.36793
#
# Static dielectric constant tensor:
#      x y z
#    x 1.703010 0.000000 0.000000 
#    y 0.000000 1.702280 0.000000 
#    z 0.000000 0.000000 1.710880 
# 
# From -- ./inp_files/9469.got.cif
#   From: 2010.05.17/outbox.cif.g08.bks.cpg/sg44_5_cif.got.tgz:9469.got - 2010.06.03 19:37:08.
