data_PCOD9375533
_publ_section_title
;
Structure prediction by ZEFSAII (Michael W. Deem and Ramdas Pophale) SiO2 
 PCOD9375533
Probable space group: I M M 2
;
_chemical_formula_sum "Si O2"
_cell_formula_units_Z 40
_cell_length_a 11.397196
_cell_length_b 26.495620
_cell_length_c 6.432827
_cell_angle_alpha 90.000000
_cell_angle_beta 90.000000
_cell_angle_gamma 90.000000
_cell_volume 1942.557914
_symmetry_space_group_name_H-M "I M M 2"
_symmetry_group_IT_number 44
_symmetry_cell_setting 'orthorhombic'
loop_
_space_group_symop_operation_xyz
x,y,z
-x,-y,z
-x,y,z
x,-y,z
1/2+x,1/2+y,1/2+z
1/2-x,1/2-y,1/2+z
1/2-x,1/2+y,1/2+z
1/2+x,1/2-y,1/2+z
loop_
_atom_site_type_symbol
_atom_site_label
_atom_site_fract_x
_atom_site_fract_y
_atom_site_fract_z
Si Si1 0.251072 0.376733 0.395750
Si Si2 0.175390 0.692651 0.766183
Si Si3 0.135692 0.060076 0.250322
Si Si4 0.630311 0.094664 0.506566
Si Si5 0.872532 0.200705 0.584840
O O1 0.187388 0.339714 0.557400
O O2 0.334690 0.411948 0.533937
O O3 0.321654 0.341388 0.237613
O O4 0.159520 0.406599 0.251202
O O5 0.122173 0.653134 0.930516
O O6 0.123704 0.746367 0.706645
O O7 0.297555 0.705988 0.876718
O O8 0.249823 0.074363 0.394385
O O9 0.000000 0.072787 0.316973
O O10 0.138475 0.000000 0.225588
O O11 0.500000 0.072293 0.461490
O O12 0.000000 0.184848 0.519172
#
# Coordination Sequence:
#
# PCOD9375533 Si02
#       5
#     8   8   8   8   8
#     4  10  22  39  61  89 127 164 212 256 315 372
#     4  10  21  39  54  86 123 164 213 255 305 366
#     4  10  23  44  69  96 127 164 210 266 325 382
#     4  10  23  41  64  93 127 166 211 263 320 379
#     4  11  21  35  57  84 122 167 213 261 305 363
#
# _framework density 20.591408999999999
#
# number of rings (size 3 to 8) (size 9 to 14) (size 15 to 20)
#    0.000    1.800    2.000    1.200    0.000   14.000 
#    0.000    2.000    0.000    0.000    0.000    0.000 
#    0.000    0.000    0.000    0.000    0.000    0.000 
#
# Total GULP energy -111401.806862 kJ/mol
# GULP energy per Si atom -5570.090343 kJ/mol
# Density = 2.054454 g / cm^3
# Si number density = 20.591409 Si / 1000 Ang^3
#
#
#
# Elastic Constant Matrix: (Units=GPa)
#
#
# Indices 1 2 3 4 5 6 
#
# 1 159.2462 27.8700 53.6445 -0.0044 -0.0044 0.0006
# 2 27.8700 89.7099 18.2294 0.0111 0.0023 -0.0060
# 3 53.6445 18.2294 94.6085 0.0085 0.0203 -0.0267
# 4 -0.0044 0.0111 0.0085 2.8847 0.0578 -0.0175
# 5 -0.0044 0.0023 0.0203 0.0578 -56.3807 -0.0055
# 6 0.0006 -0.0060 -0.0267 -0.0175 -0.0055 63.0894
#
#
#
# Elastic Compliance Matrix: (Units=1/GPa)
#
#
# Indices 1 2 3 4 5 6 
#
# 1 0.007983 -0.001624 -0.004214 0.000031 -0.000002 -0.000002
# 2 -0.001624 0.011932 -0.001378 -0.000044 0.000000 0.000001
# 3 -0.004214 -0.001378 0.013225 -0.000040 0.000005 0.000005
# 4 0.000031 -0.000044 -0.000040 0.346650 0.000356 0.000096
# 5 -0.000002 0.000000 0.000005 0.000356 -0.017736 -0.000001
# 6 -0.000002 0.000001 0.000005 0.000096 -0.000001 0.015851
#
#
# Mechanical properties :
#
#
# Convention : Reuss Voigt Hill
#
# Bulk Modulus (GPa) = 53.45355 60.33914 56.89635
# Shear Modulus (GPa) = 12.54480 18.17341 15.35911
#
# Velocity S-wave (km/s) = 2.47093 2.97403 2.73408
# Velocity P-wave (km/s) = 5.84433 6.41559 6.13661
#
# Compressibility (1/GPa) = 0.01870783
#
# Stress axis : x y z
#
# Youngs Moduli (GPa) = 125.26238 83.81100 75.61615
#
# Poissons Ratio (x) = 0.13610 0.31863
# Poissons Ratio (y) = 0.20341 0.10422
# Poissons Ratio (z) = 0.52782 0.11551
#
# Static dielectric constant tensor:
#      x y z
#    x 1.816640 0.000050 0.000000 
#    y 0.000050 1.829110 -0.000010 
#    z 0.000000 -0.000010 1.735750 
# 
# From -- ./inp_files/1069.got.cif
#   From: 2010.05.17/outbox.cif.g08.bks.cpg/sg44_1_cif.got.tgz:1069.got - 2010.06.03 19:37:08.
