data_PCOD9375940
_publ_section_title
;
Structure prediction by ZEFSAII (Michael W. Deem and Ramdas Pophale) SiO2 
 PCOD9375940
Probable space group: I M M 2
;
_chemical_formula_sum "Si O2"
_cell_formula_units_Z 64
_cell_length_a 9.672451
_cell_length_b 7.527320
_cell_length_c 42.715214
_cell_angle_alpha 90.000000
_cell_angle_beta 90.000000
_cell_angle_gamma 90.000000
_cell_volume 3109.993661
_symmetry_space_group_name_H-M "I M M 2"
_symmetry_group_IT_number 44
_symmetry_cell_setting 'orthorhombic'
loop_
_space_group_symop_operation_xyz
x,y,z
-x,-y,z
-x,y,z
x,-y,z
1/2+x,1/2+y,1/2+z
1/2-x,1/2-y,1/2+z
1/2-x,1/2+y,1/2+z
1/2+x,1/2-y,1/2+z
loop_
_atom_site_type_symbol
_atom_site_label
_atom_site_fract_x
_atom_site_fract_y
_atom_site_fract_z
Si Si1 0.840594 0.782693 0.366270
Si Si2 0.342703 0.786985 0.680942
Si Si3 0.842918 0.286631 0.554712
Si Si4 0.341845 0.712401 0.984274
Si Si5 0.659406 0.782693 0.426208
Si Si6 0.841845 0.287599 0.808204
Si Si7 0.157297 0.213015 0.111536
Si Si8 0.842918 0.786631 0.737766
O O1 0.750000 0.729035 0.396239
O O2 0.761562 0.722547 0.334924
O O3 0.000000 0.724747 0.367930
O O4 0.842881 0.000000 0.366138
O O5 0.500000 0.717651 0.682122
O O6 0.285782 0.750000 0.646239
O O7 0.251658 0.718643 0.709637
O O8 0.349548 0.000000 0.683996
O O9 0.848489 0.500000 0.557565
O O10 0.792741 0.247792 0.519603
O O11 0.748342 0.218643 0.582841
O O12 0.000000 0.218379 0.557053
O O13 0.500000 0.781342 0.981135
O O14 0.349818 0.500000 0.980532
O O15 0.238438 0.777454 0.957554
O O16 0.500000 0.724747 0.424548
O O17 0.657119 0.000000 0.426340
O O18 0.849818 0.500000 0.811946
O O19 0.792740 0.252207 0.772875
O O20 0.000000 0.218658 0.811343
O O21 0.000000 0.282349 0.110356
O O22 0.150451 0.000000 0.108482
O O23 0.000000 0.718379 0.735425
O O24 0.848489 0.000000 0.734913
#
# Coordination Sequence:
#
# PCOD9375940 Si02
#       8
#     8   8   8   8   8   8   8   8
#     4   9  16  26  42  65  92 120 149 183 224 266
#     4   9  18  32  48  66  89 117 148 182 221 264
#     4   9  18  32  48  66  90 120 150 180 219 266
#     4   9  17  29  45  66  91 117 147 184 223 262
#     4   9  16  26  42  65  92 120 149 183 224 266
#     4   9  17  29  45  66  91 117 147 184 223 262
#     4   9  18  32  48  66  89 117 148 182 221 264
#     4   9  18  32  48  66  90 120 150 180 219 266
#
# _framework density 20.578821999999999
#
# number of rings (size 3 to 8) (size 9 to 14) (size 15 to 20)
#    0.000    3.000    0.000    0.750    0.000    5.500 
#    0.000    0.000    0.000    0.750    0.000    0.000 
#    0.000    0.000    0.000    0.000    0.000    0.000 
#
# Total GULP energy -178538.850233 kJ/mol
# GULP energy per Si atom -5579.339070 kJ/mol
# Density = 2.053198 g / cm^3
# Si number density = 20.578822 Si / 1000 Ang^3
#
#
#
# Elastic Constant Matrix: (Units=GPa)
#
#
# Indices 1 2 3 4 5 6 
#
# 1 126.1507 4.5541 135.1216 0.0000 0.0000 0.0000
# 2 4.5541 51.8705 -1.8469 0.0000 0.0000 0.0000
# 3 135.1216 -1.8469 239.7434 0.0000 0.0000 0.0000
# 4 0.0000 0.0000 0.0000 13.7526 0.0000 0.0000
# 5 0.0000 0.0000 0.0000 0.0000 37.6047 0.0000
# 6 0.0000 0.0000 0.0000 0.0000 0.0000 143.4536
#
#
#
# Elastic Compliance Matrix: (Units=1/GPa)
#
#
# Indices 1 2 3 4 5 6 
#
# 1 0.020246 -0.002184 -0.011428 0.000000 0.000000 0.000000
# 2 -0.002184 0.019520 0.001382 0.000000 0.000000 0.000000
# 3 -0.011428 0.001382 0.010623 0.000000 0.000000 0.000000
# 4 0.000000 0.000000 0.000000 0.072713 0.000000 0.000000
# 5 0.000000 0.000000 0.000000 0.000000 0.026592 0.000000
# 6 0.000000 0.000000 0.000000 0.000000 0.000000 0.006971
#
#
# Mechanical properties :
#
#
# Convention : Reuss Voigt Hill
#
# Bulk Modulus (GPa) = 38.56954 77.04692 57.80823
# Shear Modulus (GPa) = 26.34772 57.62456 41.98614
#
# Velocity S-wave (km/s) = 3.58205 5.29742 4.52182
# Velocity P-wave (km/s) = 5.99092 8.65668 7.44410
#
# Compressibility (1/GPa) = 0.02592720
#
# Stress axis : x y z
#
# Youngs Moduli (GPa) = 49.39127 51.23013 94.13838
#
# Poissons Ratio (x) = 0.11191 1.07581
# Poissons Ratio (y) = 0.10790 -0.13006
# Poissons Ratio (z) = 0.56444 -0.07078
#
# Static dielectric constant tensor:
#      x y z
#    x 1.720630 0.000000 0.000000 
#    y 0.000000 1.782300 0.000000 
#    z 0.000000 0.000000 1.708790 
# 
# From -- ./inp_files/27196.got.cif
#   From: 2010.05.17/outbox.cif.g08.bks.cpg/sg44_14_cif.got.tgz:27196.got - 2010.06.03 19:37:08.
