data_PCOD9375511
_publ_section_title
;
Structure prediction by ZEFSAII (Michael W. Deem and Ramdas Pophale) SiO2 
 PCOD9375511
Probable space group: I M M 2
;
_chemical_formula_sum "Si O2"
_cell_formula_units_Z 48
_cell_length_a 18.766276
_cell_length_b 8.627852
_cell_length_c 15.247356
_cell_angle_alpha 90.000000
_cell_angle_beta 90.000000
_cell_angle_gamma 90.000000
_cell_volume 2468.739845
_symmetry_space_group_name_H-M "I M M 2"
_symmetry_group_IT_number 44
_symmetry_cell_setting 'orthorhombic'
loop_
_space_group_symop_operation_xyz
x,y,z
-x,-y,z
-x,y,z
x,-y,z
1/2+x,1/2+y,1/2+z
1/2-x,1/2-y,1/2+z
1/2-x,1/2+y,1/2+z
1/2+x,1/2-y,1/2+z
loop_
_atom_site_type_symbol
_atom_site_label
_atom_site_fract_x
_atom_site_fract_y
_atom_site_fract_z
Si Si1 0.380264 0.681137 0.371810
Si Si2 0.577191 0.814385 0.552085
Si Si3 0.235721 0.819038 0.321277
Si Si4 0.500000 0.183440 0.039531
Si Si5 0.500000 0.681026 0.228079
Si Si6 0.768596 0.314435 0.126679
Si Si7 0.344145 0.813725 0.983559
O O1 0.358886 0.500000 0.372697
O O2 0.420260 0.724151 0.460609
O O3 0.311924 0.789414 0.366224
O O4 0.431471 0.706777 0.289159
O O5 0.500000 0.783127 0.595483
O O6 0.649946 0.772166 0.601436
O O7 0.580393 0.000000 0.536057
O O8 0.242435 0.745562 0.225090
O O9 0.180221 0.739251 0.387161
O O10 0.220258 0.000000 0.314096
O O11 0.500000 0.214407 0.143110
O O12 0.575482 0.243867 0.003120
O O13 0.500000 0.000000 0.022142
O O14 0.500000 0.500000 0.201270
O O15 0.761843 0.500000 0.125024
O O16 0.711851 0.247751 0.056708
O O17 0.342785 0.000000 0.988358
#
# Coordination Sequence:
#
# PCOD9375511 Si02
#       7
#     8   8   8   4   4   8   8
#     4  11  21  36  59  89 124 160 201 252 308 368
#     4  10  21  38  61  90 125 163 201 247 306 372
#     4  12  25  41  62  91 123 165 212 257 311 370
#     4  10  24  42  62  89 120 161 206 253 309 369
#     4  10  22  36  56  91 126 159 198 249 309 367
#     4  11  23  41  65  94 126 164 209 256 309 371
#     4  11  23  43  67  92 125 164 207 259 313 370
#
# _framework density 19.443117999999998
#
# number of rings (size 3 to 8) (size 9 to 14) (size 15 to 20)
#    0.000    1.167    2.500    4.000    0.000    6.000 
#    1.500    0.000    0.000    0.000    0.000    0.000 
#    0.000    0.000    0.000    0.000    0.000    0.000 
#
# Total GULP energy -134069.647933 kJ/mol
# GULP energy per Si atom -5586.235331 kJ/mol
# Density = 1.939886 g / cm^3
# Si number density = 19.443118 Si / 1000 Ang^3
#
#
#
# Elastic Constant Matrix: (Units=GPa)
#
#
# Indices 1 2 3 4 5 6 
#
# 1 122.1883 31.4861 22.0583 0.0000 0.0000 0.0000
# 2 31.4861 44.9756 17.9726 0.0000 0.0000 0.0000
# 3 22.0583 17.9726 63.7449 0.0000 0.0000 0.0000
# 4 0.0000 0.0000 0.0000 32.3333 0.0000 0.0000
# 5 0.0000 0.0000 0.0000 0.0000 12.8319 0.0000
# 6 0.0000 0.0000 0.0000 0.0000 0.0000 25.0813
#
#
#
# Elastic Compliance Matrix: (Units=1/GPa)
#
#
# Indices 1 2 3 4 5 6 
#
# 1 0.010146 -0.006424 -0.001700 0.000000 0.000000 0.000000
# 2 -0.006424 0.029125 -0.005989 0.000000 0.000000 0.000000
# 3 -0.001700 -0.005989 0.017964 0.000000 0.000000 0.000000
# 4 0.000000 0.000000 0.000000 0.030928 0.000000 0.000000
# 5 0.000000 0.000000 0.000000 0.000000 0.077931 0.000000
# 6 0.000000 0.000000 0.000000 0.000000 0.000000 0.039870
#
#
# Mechanical properties :
#
#
# Convention : Reuss Voigt Hill
#
# Bulk Modulus (GPa) = 34.47042 41.54920 38.00981
# Shear Modulus (GPa) = 20.50366 24.67543 22.58955
#
# Velocity S-wave (km/s) = 3.25090 3.56632 3.41226
# Velocity P-wave (km/s) = 5.64433 6.19469 5.92590
#
# Compressibility (1/GPa) = 0.02901038
#
# Stress axis : x y z
#
# Youngs Moduli (GPa) = 98.55830 34.33532 55.66618
#
# Poissons Ratio (x) = 0.22056 0.09462
# Poissons Ratio (y) = 0.63312 0.33337
# Poissons Ratio (z) = 0.16753 0.20562
#
# Static dielectric constant tensor:
#      x y z
#    x 1.726590 0.000000 0.000000 
#    y 0.000000 1.659060 0.000000 
#    z 0.000000 0.000000 1.641970 
# 
# From -- ./inp_files/16191.got.cif
#   From: 2010.05.17/outbox.cif.g08.bks.cpg/sg44_9_cif.got.tgz:16191.got - 2010.06.03 19:37:08.
