data_PCOD9375963
_publ_section_title
;
Structure prediction by ZEFSAII (Michael W. Deem and Ramdas Pophale) SiO2 
 PCOD9375963
Probable space group: I M M 2
;
_chemical_formula_sum "Si O2"
_cell_formula_units_Z 28
_cell_length_a 21.000000
_cell_length_b 9.000000
_cell_length_c 15.000000
_cell_angle_alpha 90.000000
_cell_angle_beta 90.000000
_cell_angle_gamma 90.000000
_cell_volume 2835.000000
_symmetry_space_group_name_H-M "I M M 2"
_symmetry_group_IT_number 44
_symmetry_cell_setting 'orthorhombic'
loop_
_space_group_symop_operation_xyz
x,y,z
-x,-y,z
-x,y,z
x,-y,z
1/2+x,1/2+y,1/2+z
1/2-x,1/2-y,1/2+z
1/2-x,1/2+y,1/2+z
1/2+x,1/2-y,1/2+z
loop_
_atom_site_type_symbol
_atom_site_label
_atom_site_fract_x
_atom_site_fract_y
_atom_site_fract_z
Si Si1 0.641566 0.319220 0.435290
Si Si2 0.823081 0.176961 0.132214
Si Si3 0.000000 0.321770 0.911035
Si Si4 0.576298 0.827280 0.737670
Si Si5 0.000000 0.829488 0.723986
Si Si6 0.426875 0.821169 0.932840
Si Si7 0.893314 0.670049 0.621790
Si Si8 0.283802 0.827990 0.267191
O O1 0.636142 0.500000 0.428972
O O2 0.679465 0.280564 0.527362
O O3 0.569050 0.249806 0.439879
O O4 0.681604 0.257658 0.349419
O O5 0.892707 0.226583 0.163265
O O6 0.777489 0.235923 0.212917
O O7 0.814068 0.000000 0.133925
O O8 0.000000 0.500000 0.928117
O O9 0.000000 0.284410 0.805842
O O10 0.500000 0.825365 0.734534
O O11 0.594362 0.767563 0.836210
O O12 0.596306 0.000000 0.726616
O O13 0.060004 0.789488 0.664013
O O14 0.000000 0.000000 0.754697
O O15 0.500000 0.772849 0.951387
O O16 0.429326 0.000000 0.922518
O O17 0.383863 0.790285 0.018306
O O18 0.920530 0.500000 0.622294
O O19 0.833281 0.666419 0.685177
O O20 0.271939 0.000000 0.295975
#
# Coordination Sequence:
#
# PCOD9375963 Si02
#       8
#     8   8   4   8   4   8   8   8
#     4  11  24  42  65  95 129 163 208 266 321 371
#     4  10  24  43  61  87 124 164 203 249 315 381
#     4  12  24  40  64  93 126 167 212 261 320 382
#     4   9  19  36  59  88 116 150 206 262 304 361
#     4  12  22  32  52  87 126 155 196 255 316 368
#     4   8  14  27  51  82 111 141 188 242 289 345
#     4  10  18  32  57  83 113 158 205 246 301 365
#     4  10  22  40  61  87 120 160 209 251 298 379
#
# _framework density 9.8765429999999999
#
# number of rings (size 3 to 8) (size 9 to 14) (size 15 to 20)
#    0.000    2.000    2.143    2.571    1.000    3.143 
#    0.000    3.571    0.000    0.000    0.000    0.000 
#    0.000    0.000    0.000    0.000    0.000    0.000 
#
# Total GULP energy -155926.172048 kJ/mol
# GULP energy per Si atom -5568.791859 kJ/mol
# Density = 0.985406 g / cm^3
# Si number density = 9.876543 Si / 1000 Ang^3
#
#
#
# Elastic Constant Matrix: (Units=GPa)
#
#
# Indices 1 2 3 4 5 6 
#
# 1 56.2342 20.0273 37.3938 0.0000 0.0000 0.0000
# 2 20.0273 46.6596 16.8414 0.0000 0.0000 0.0000
# 3 37.3938 16.8414 137.0404 0.0000 0.0000 0.0000
# 4 0.0000 0.0000 0.0000 26.8534 0.0000 0.0000
# 5 0.0000 0.0000 0.0000 0.0000 21.2454 0.0000
# 6 0.0000 0.0000 0.0000 0.0000 0.0000 18.7458
#
#
#
# Elastic Compliance Matrix: (Units=1/GPa)
#
#
# Indices 1 2 3 4 5 6 
#
# 1 0.024576 -0.008505 -0.005661 0.000000 0.000000 0.000000
# 2 -0.008505 0.025370 -0.000797 0.000000 0.000000 0.000000
# 3 -0.005661 -0.000797 0.008940 0.000000 0.000000 0.000000
# 4 0.000000 0.000000 0.000000 0.037239 0.000000 0.000000
# 5 0.000000 0.000000 0.000000 0.000000 0.047069 0.000000
# 6 0.000000 0.000000 0.000000 0.000000 0.000000 0.053345
#
#
# Mechanical properties :
#
#
# Convention : Reuss Voigt Hill
#
# Bulk Modulus (GPa) = 34.53072 43.16211 38.84642
# Shear Modulus (GPa) = 21.17578 24.41370 22.79474
#
# Velocity S-wave (km/s) = 3.27773 3.51941 3.40072
# Velocity P-wave (km/s) = 5.64303 6.19784 5.92693
#
# Compressibility (1/GPa) = 0.02895972
#
# Stress axis : x y z
#
# Youngs Moduli (GPa) = 40.68997 39.41642 111.86068
#
# Poissons Ratio (x) = 0.33525 0.63321
# Poissons Ratio (y) = 0.34608 0.08915
# Poissons Ratio (z) = 0.23034 0.03141
#
# Static dielectric constant tensor:
#      x y z
#    x 1.771570 0.000000 0.000000 
#    y 0.000000 1.682530 0.000000 
#    z 0.000000 0.000000 1.714800 
# 
# From -- ./inp_files/19250.got.cif
#   From: 2010.05.17/outbox.ucp.g08.bks.cvg/sg44_10_cif.got.tgz:19250.got - 2010.06.11 16:32:36.
