data_PCOD9375346
_publ_section_title
;
Structure prediction by ZEFSAII (Michael W. Deem and Ramdas Pophale) SiO2 
 PCOD9375346
Probable space group: I M M 2
;
_chemical_formula_sum "Si O2"
_cell_formula_units_Z 40
_cell_length_a 9.058050
_cell_length_b 12.603094
_cell_length_c 17.641821
_cell_angle_alpha 90.000000
_cell_angle_beta 90.000000
_cell_angle_gamma 90.000000
_cell_volume 2013.980681
_symmetry_space_group_name_H-M "I M M 2"
_symmetry_group_IT_number 44
_symmetry_cell_setting 'orthorhombic'
loop_
_space_group_symop_operation_xyz
x,y,z
-x,-y,z
-x,y,z
x,-y,z
1/2+x,1/2+y,1/2+z
1/2-x,1/2-y,1/2+z
1/2-x,1/2+y,1/2+z
1/2+x,1/2-y,1/2+z
loop_
_atom_site_type_symbol
_atom_site_label
_atom_site_fract_x
_atom_site_fract_y
_atom_site_fract_z
Si Si1 0.167613 0.120829 0.904950
Si Si2 0.820359 0.000000 0.360374
Si Si3 0.819202 0.000000 0.181065
Si Si4 0.173524 0.188330 0.474488
Si Si5 0.334720 0.883300 0.754164
Si Si6 0.828470 0.773887 0.117308
O O1 0.209330 0.121268 0.816803
O O2 0.000000 0.157625 0.917003
O O3 0.178578 0.000000 0.932610
O O4 0.285327 0.196818 0.942362
O O5 0.775130 0.898151 0.411725
O O6 0.773399 0.000000 0.271169
O O7 0.000000 0.000000 0.357258
O O8 0.772590 0.107015 0.136285
O O9 0.000000 0.000000 0.182143
O O10 0.249414 0.198300 0.556339
O O11 0.000000 0.171820 0.484053
O O12 0.500000 0.876448 0.789625
O O13 0.322673 0.788797 0.695999
O O14 0.327317 0.000000 0.716925
O O15 0.000000 0.784452 0.094078
#
# Coordination Sequence:
#
# PCOD9375346 Si02
#       6
#     8   4   4   8   8   8
#     4  10  21  37  58  84 115 151 192 239 292 352
#     4   9  20  40  63  87 114 155 204 245 295 352
#     4   9  18  36  61  83 110 153 200 241 285 350
#     4  11  23  38  59  86 118 154 197 246 295 354
#     4   9  18  34  57  83 111 148 193 239 287 345
#     4  10  21  36  57  85 117 154 194 240 294 349
#
# _framework density 19.861162
#
# number of rings (size 3 to 8) (size 9 to 14) (size 15 to 20)
#    0.000    2.200    0.000    2.400    2.800    5.200 
#    0.000    1.500    0.000    2.400    0.000    0.000 
#    0.000    0.000    0.000    0.000    0.000    0.000 
#
# Total GULP energy -111422.669363 kJ/mol
# GULP energy per Si atom -5571.133468 kJ/mol
# Density = 1.981596 g / cm^3
# Si number density = 19.861162 Si / 1000 Ang^3
#
#
#
# Elastic Constant Matrix: (Units=GPa)
#
#
# Indices 1 2 3 4 5 6 
#
# 1 14.5208 5.3935 8.0386 0.0000 0.0000 0.0000
# 2 5.3935 28.2887 -4.9364 0.0000 0.0000 0.0000
# 3 8.0386 -4.9364 46.9044 0.0000 0.0000 0.0000
# 4 0.0000 0.0000 0.0000 27.6905 0.0000 0.0000
# 5 0.0000 0.0000 0.0000 0.0000 28.7309 0.0000
# 6 0.0000 0.0000 0.0000 0.0000 0.0000 18.2855
#
#
#
# Elastic Compliance Matrix: (Units=1/GPa)
#
#
# Indices 1 2 3 4 5 6 
#
# 1 0.085171 -0.019137 -0.016611 0.000000 0.000000 0.000000
# 2 -0.019137 0.040311 0.007522 0.000000 0.000000 0.000000
# 3 -0.016611 0.007522 0.024958 0.000000 0.000000 0.000000
# 4 0.000000 0.000000 0.000000 0.036113 0.000000 0.000000
# 5 0.000000 0.000000 0.000000 0.000000 0.034806 0.000000
# 6 0.000000 0.000000 0.000000 0.000000 0.000000 0.054688
#
#
# Mechanical properties :
#
#
# Convention : Reuss Voigt Hill
#
# Bulk Modulus (GPa) = 10.63955 11.85612 11.24784
# Shear Modulus (GPa) = 13.74274 20.35594 17.04934
#
# Velocity S-wave (km/s) = 2.63333 3.20490 2.93307
# Velocity P-wave (km/s) = 3.82289 4.43595 4.14078
#
# Compressibility (1/GPa) = 0.09398892
#
# Stress axis : x y z
#
# Youngs Moduli (GPa) = 11.74112 24.80706 40.06655
#
# Poissons Ratio (x) = 0.47474 0.66554
# Poissons Ratio (y) = 0.22469 -0.30139
# Poissons Ratio (z) = 0.19503 -0.18661
#
# Static dielectric constant tensor:
#      x y z
#    x 1.687860 0.000000 0.000000 
#    y 0.000000 1.752310 0.000000 
#    z 0.000000 0.000000 1.762770 
# 
# From -- ./inp_files/22789.got.cif
#   From: 2010.05.17/outbox.cif.g08.bks.cpg/sg44_12_cif.got.tgz:22789.got - 2010.06.03 19:37:08.
