data_PCOD9375403
_publ_section_title
;
Structure prediction by ZEFSAII (Michael W. Deem and Ramdas Pophale) SiO2 
 PCOD9375403
Probable space group: I M M 2
;
_chemical_formula_sum "Si O2"
_cell_formula_units_Z 64
_cell_length_a 21.918342
_cell_length_b 9.302771
_cell_length_c 15.911534
_cell_angle_alpha 90.000000
_cell_angle_beta 90.000000
_cell_angle_gamma 90.000000
_cell_volume 3244.382727
_symmetry_space_group_name_H-M "I M M 2"
_symmetry_group_IT_number 44
_symmetry_cell_setting 'orthorhombic'
loop_
_space_group_symop_operation_xyz
x,y,z
-x,-y,z
-x,y,z
x,-y,z
1/2+x,1/2+y,1/2+z
1/2-x,1/2-y,1/2+z
1/2-x,1/2+y,1/2+z
1/2+x,1/2-y,1/2+z
loop_
_atom_site_type_symbol
_atom_site_label
_atom_site_fract_x
_atom_site_fract_y
_atom_site_fract_z
Si Si1 0.934128 0.327310 0.823650
Si Si2 0.928055 0.829907 0.508467
Si Si3 0.103662 0.166986 0.986062
Si Si4 0.799443 0.672117 0.763025
Si Si5 0.573936 0.666071 0.673944
Si Si6 0.321094 0.826752 0.080144
Si Si7 0.573984 0.163413 0.836994
Si Si8 0.242313 0.166377 0.921173
O O1 0.933151 0.500000 0.827675
O O2 0.930185 0.261691 0.916984
O O3 0.870748 0.285173 0.778890
O O4 0.000000 0.283802 0.785936
O O5 0.886356 0.749132 0.575593
O O6 0.912572 0.760008 0.417947
O O7 0.000000 0.806477 0.523028
O O8 0.916640 0.000000 0.507510
O O9 0.174351 0.171650 0.960047
O O10 0.083089 0.000000 0.981649
O O11 0.094642 0.214910 0.081825
O O12 0.794947 0.500000 0.772449
O O13 0.786222 0.709543 0.666335
O O14 0.759430 0.746042 0.834848
O O15 0.500000 0.666979 0.674285
O O16 0.593586 0.500000 0.686009
O O17 0.595701 0.763461 0.750989
O O18 0.328285 0.000000 0.079088
O O19 0.285661 0.782037 0.996055
O O20 0.500000 0.158183 0.831990
O O21 0.595879 0.000000 0.847739
O O22 0.256553 0.000000 0.903260
#
# Coordination Sequence:
#
# PCOD9375403 Si02
#       8
#     8   8   8   8   8   8   8   8
#     4   9  17  29  47  73 105 139 177 223 274 328
#     4  10  21  37  57  82 111 141 177 224 277 333
#     4   9  17  30  48  70 101 142 183 225 274 326
#     4   9  19  36  57  81 111 147 186 228 276 331
#     4   9  16  26  42  67 101 140 183 228 273 324
#     4  10  21  38  60  84 112 147 187 229 277 333
#     4   9  17  30  48  70 101 140 177 216 266 322
#     4   9  19  37  57  78 109 145 183 232 279 322
#
# _framework density 19.726403999999999
#
# number of rings (size 3 to 8) (size 9 to 14) (size 15 to 20)
#    0.000    2.750    0.000    1.125    0.000    5.000 
#    2.250    2.500    0.000    0.000    0.000    0.000 
#    0.000    0.000    0.000    0.000    0.000    0.000 
#
# Total GULP energy -178488.617627 kJ/mol
# GULP energy per Si atom -5577.769301 kJ/mol
# Density = 1.968151 g / cm^3
# Si number density = 19.726404 Si / 1000 Ang^3
#
#
#
# Elastic Constant Matrix: (Units=GPa)
#
#
# Indices 1 2 3 4 5 6 
#
# 1 41.4564 18.0478 28.5986 0.0000 0.0000 0.0000
# 2 18.0478 30.8175 43.6719 0.0000 0.0000 0.0000
# 3 28.5986 43.6719 131.8991 0.0000 0.0000 0.0000
# 4 0.0000 0.0000 0.0000 30.4849 0.0000 0.0000
# 5 0.0000 0.0000 0.0000 0.0000 20.8589 0.0000
# 6 0.0000 0.0000 0.0000 0.0000 0.0000 4.7308
#
#
#
# Elastic Compliance Matrix: (Units=1/GPa)
#
#
# Indices 1 2 3 4 5 6 
#
# 1 0.032514 -0.017052 -0.001404 0.000000 0.000000 0.000000
# 2 -0.017052 0.070076 -0.019505 0.000000 0.000000 0.000000
# 3 -0.001404 -0.019505 0.014344 0.000000 0.000000 0.000000
# 4 0.000000 0.000000 0.000000 0.032803 0.000000 0.000000
# 5 0.000000 0.000000 0.000000 0.000000 0.047941 0.000000
# 6 0.000000 0.000000 0.000000 0.000000 0.000000 0.211380
#
#
# Mechanical properties :
#
#
# Convention : Reuss Voigt Hill
#
# Bulk Modulus (GPa) = 24.38279 42.75662 33.56971
# Shear Modulus (GPa) = 10.02707 18.80522 14.41615
#
# Velocity S-wave (km/s) = 2.25701 3.09091 2.70627
# Velocity P-wave (km/s) = 4.37944 5.87028 5.17878
#
# Compressibility (1/GPa) = 0.04101253
#
# Stress axis : x y z
#
# Youngs Moduli (GPa) = 30.75643 14.27021 69.71531
#
# Poissons Ratio (x) = 0.24333 0.09787
# Poissons Ratio (y) = 0.52445 1.35980
# Poissons Ratio (z) = 0.04318 0.27834
#
# Static dielectric constant tensor:
#      x y z
#    x 1.739220 0.000000 0.000000 
#    y 0.000000 1.662570 0.000000 
#    z 0.000000 0.000000 1.679070 
# 
# From -- ./inp_files/19462.got.cif
#   From: 2010.05.17/outbox.cif.g08.bks.cpg/sg44_10_cif.got.tgz:19462.got - 2010.06.03 19:37:08.
