data_PCOD9375337
_publ_section_title
;
Structure prediction by ZEFSAII (Michael W. Deem and Ramdas Pophale) SiO2 
 PCOD9375337
Probable space group: I M M 2
;
_chemical_formula_sum "Si O2"
_cell_formula_units_Z 56
_cell_length_a 15.047399
_cell_length_b 22.527316
_cell_length_c 7.899507
_cell_angle_alpha 90.000000
_cell_angle_beta 90.000000
_cell_angle_gamma 90.000000
_cell_volume 2677.755231
_symmetry_space_group_name_H-M "I M M 2"
_symmetry_group_IT_number 44
_symmetry_cell_setting 'orthorhombic'
loop_
_space_group_symop_operation_xyz
x,y,z
-x,-y,z
-x,y,z
x,-y,z
1/2+x,1/2+y,1/2+z
1/2-x,1/2-y,1/2+z
1/2-x,1/2+y,1/2+z
1/2+x,1/2-y,1/2+z
loop_
_atom_site_type_symbol
_atom_site_label
_atom_site_fract_x
_atom_site_fract_y
_atom_site_fract_z
Si Si1 0.906715 0.932458 0.342550
Si Si2 0.394281 0.811763 0.356480
Si Si3 0.394991 0.219367 0.737368
Si Si4 0.255388 0.371215 0.250227
Si Si5 0.291913 0.068900 0.432221
Si Si6 0.105928 0.216671 0.574762
Si Si7 0.595310 0.432342 0.439514
O O1 0.807509 0.913709 0.377603
O O2 0.000000 0.903442 0.401921
O O3 0.908901 0.000000 0.409500
O O4 0.911221 0.934229 0.140664
O O5 0.500000 0.817947 0.352084
O O6 0.373816 0.776790 0.535095
O O7 0.353634 0.877726 0.366428
O O8 0.368364 0.773735 0.191941
O O9 0.500000 0.203459 0.748467
O O10 0.326580 0.169738 0.801338
O O11 0.382961 0.272235 0.872892
O O12 0.213447 0.422758 0.134526
O O13 0.327139 0.333011 0.142004
O O14 0.317084 0.397467 0.393756
O O15 0.311267 0.000000 0.386066
O O16 0.000000 0.207787 0.606523
O O17 0.500000 0.407525 0.376009
O O18 0.602138 0.500000 0.375918
#
# Coordination Sequence:
#
# PCOD9375337 Si02
#       7
#     8   8   8   8   8   8   8
#     4   8  16  32  51  73 109 153 188 225 281 343
#     4   9  20  40  63  85 114 154 196 244 299 349
#     4   9  21  40  58  81 117 156 191 242 298 344
#     4  11  22  34  60  86 113 151 201 236 291 357
#     4  10  21  36  56  86 117 151 195 240 292 354
#     4  10  22  40  60  86 120 152 197 249 296 352
#     4   9  18  34  54  81 118 154 190 238 293 347
#
# _framework density 20.913039000000001
#
# number of rings (size 3 to 8) (size 9 to 14) (size 15 to 20)
#    0.000    2.571    0.000    1.714    6.000    1.429 
#    2.571    1.429    0.000    1.286    0.000    4.000 
#    0.000    0.000    0.000    0.000    0.000    0.000 
#
# Total GULP energy -155921.153911 kJ/mol
# GULP energy per Si atom -5568.612640 kJ/mol
# Density = 2.086544 g / cm^3
# Si number density = 20.913039 Si / 1000 Ang^3
#
#
#
# Elastic Constant Matrix: (Units=GPa)
#
#
# Indices 1 2 3 4 5 6 
#
# 1 30.5150 6.0816 9.1882 0.0000 0.0000 0.0000
# 2 6.0816 71.4673 34.7223 0.0000 0.0000 0.0000
# 3 9.1882 34.7223 52.1578 0.0000 -0.0001 0.0000
# 4 0.0000 0.0000 0.0000 23.3675 0.0000 0.0000
# 5 0.0000 0.0000 -0.0001 0.0000 30.4394 0.0000
# 6 0.0000 0.0000 0.0000 0.0000 0.0000 -2.0439
#
#
#
# Elastic Compliance Matrix: (Units=1/GPa)
#
#
# Indices 1 2 3 4 5 6 
#
# 1 0.034606 0.000025 -0.006113 0.000000 0.000000 0.000000
# 2 0.000025 0.020682 -0.013773 0.000000 0.000000 0.000000
# 3 -0.006113 -0.013773 0.029418 0.000000 0.000000 0.000000
# 4 0.000000 0.000000 0.000000 0.042794 0.000000 0.000000
# 5 0.000000 0.000000 0.000000 0.000000 0.032852 0.000000
# 6 0.000000 0.000000 0.000000 0.000000 0.000000 -0.489270
#
#
# Mechanical properties :
#
#
# Convention : Reuss Voigt Hill
#
# Bulk Modulus (GPa) = 22.22953 28.23605 25.23279
# Shear Modulus (GPa) = -18.23476 17.29581 -0.46948
#
# Velocity S-wave (km/s) = -2.95605 2.87894 -0.47432
# Velocity P-wave (km/s) = 0.99921 4.95803 3.43392
#
# Compressibility (1/GPa) = 0.04498522
#
# Stress axis : x y z
#
# Youngs Moduli (GPa) = 28.89638 48.35202 33.99268
#
# Poissons Ratio (x) = -0.00122 0.20780
# Poissons Ratio (y) = -0.00073 0.46817
# Poissons Ratio (z) = 0.17665 0.66593
#
# Static dielectric constant tensor:
#      x y z
#    x 1.750690 0.000000 0.000000 
#    y 0.000000 1.821050 0.000000 
#    z 0.000000 0.000000 1.799430 
# 
# From -- ./inp_files/7381.got.cif
#   From: 2010.05.17/outbox.cif.g08.bks.cpg/sg44_4_cif.got.tgz:7381.got - 2010.06.03 19:37:08.
