data_PCOD9375365
_publ_section_title
;
Structure prediction by ZEFSAII (Michael W. Deem and Ramdas Pophale) SiO2 
 PCOD9375365
Probable space group: I M M 2
;
_chemical_formula_sum "Si O2"
_cell_formula_units_Z 58
_cell_length_a 22.121243
_cell_length_b 7.806226
_cell_length_c 17.019363
_cell_angle_alpha 90.000000
_cell_angle_beta 90.000000
_cell_angle_gamma 90.000000
_cell_volume 2938.961848
_symmetry_space_group_name_H-M "I M M 2"
_symmetry_group_IT_number 44
_symmetry_cell_setting 'orthorhombic'
loop_
_space_group_symop_operation_xyz
x,y,z
-x,-y,z
-x,y,z
x,-y,z
1/2+x,1/2+y,1/2+z
1/2-x,1/2-y,1/2+z
1/2-x,1/2+y,1/2+z
1/2+x,1/2-y,1/2+z
loop_
_atom_site_type_symbol
_atom_site_label
_atom_site_fract_x
_atom_site_fract_y
_atom_site_fract_z
Si Si1 0.187347 0.199868 0.250000
Si Si2 0.685726 0.300321 0.928323
Si Si3 0.066347 0.293177 0.516496
Si Si4 0.433653 0.793177 0.199695
Si Si5 0.185727 0.800321 0.787867
Si Si6 0.500000 0.500000 0.608095
Si Si7 0.602828 0.193583 0.608095
Si Si8 0.187348 0.800132 0.966190
O O1 0.179903 0.268574 0.339218
O O2 0.259750 0.215412 0.239344
O O3 0.146544 0.286892 0.184272
O O4 0.170412 0.000000 0.249432
O O5 0.701690 0.500000 0.921851
O O6 0.622006 0.280579 0.969786
O O7 0.740249 0.215412 0.976847
O O8 0.068975 0.500000 0.512101
O O9 0.070656 0.246153 0.608095
O O10 0.000000 0.239089 0.487281
O O11 0.500000 0.739089 0.228911
O O12 0.377994 0.719422 0.246405
O O13 0.431026 0.000000 0.204090
O O14 0.179904 0.731427 0.876972
O O15 0.201690 0.000000 0.794339
O O16 0.553377 0.346131 0.608095
O O17 0.646545 0.213108 0.531918
O O18 0.577284 0.000000 0.608095
O O19 0.170413 0.000000 0.966759
#
# Coordination Sequence:
#
# PCOD9375365 Si02
#       8
#     8   8   8   8   8   2   8   8
#     4  10  21  41  63  89 127 164 210 267 323 375
#     4  10  21  36  60  92 124 161 207 266 323 383
#     4   9  19  36  55  79 116 162 206 247 305 377
#     4   9  19  36  55  79 116 162 206 247 305 377
#     4  10  21  36  60  92 124 161 207 266 323 383
#     4  12  26  52  68  98 140 168 218 284 320 382
#     4  12  25  45  73  98 128 176 221 267 330 396
#     4  10  21  41  63  89 127 164 210 267 323 375
#
# _framework density 19.734859
#
# number of rings (size 3 to 8) (size 9 to 14) (size 15 to 20)
#    0.000    1.931    1.379    2.690    1.931    4.414 
#    2.483    1.379    0.000    0.000    0.000    0.000 
#    0.000    0.000    0.000    0.000    0.000    0.000 
#
# Total GULP energy -161555.022015 kJ/mol
# GULP energy per Si atom -5570.862828 kJ/mol
# Density = 1.968994 g / cm^3
# Si number density = 19.734859 Si / 1000 Ang^3
#
#
#
# Elastic Constant Matrix: (Units=GPa)
#
#
# Indices 1 2 3 4 5 6 
#
# 1 148.4704 33.2034 60.6061 0.0000 0.0000 0.0000
# 2 33.2034 92.4602 27.9709 0.0000 0.0000 0.0000
# 3 60.6061 27.9709 58.2427 0.0000 0.0000 0.0000
# 4 0.0000 0.0000 0.0000 10.0836 0.0000 0.0000
# 5 0.0000 0.0000 0.0000 0.0000 37.9511 0.0000
# 6 0.0000 0.0000 0.0000 0.0000 0.0000 35.7113
#
#
#
# Elastic Compliance Matrix: (Units=1/GPa)
#
#
# Indices 1 2 3 4 5 6 
#
# 1 0.011738 -0.000609 -0.011922 0.000000 0.000000 0.000000
# 2 -0.000609 0.012685 -0.005459 0.000000 0.000000 0.000000
# 3 -0.011922 -0.005459 0.032197 0.000000 0.000000 0.000000
# 4 0.000000 0.000000 0.000000 0.099171 0.000000 0.000000
# 5 0.000000 0.000000 0.000000 0.000000 0.026350 0.000000
# 6 0.000000 0.000000 0.000000 0.000000 0.000000 0.028002
#
#
# Mechanical properties :
#
#
# Convention : Reuss Voigt Hill
#
# Bulk Modulus (GPa) = 48.44629 60.30379 54.37504
# Shear Modulus (GPa) = 19.76256 28.57539 24.16897
#
# Velocity S-wave (km/s) = 3.16793 3.80934 3.50335
# Velocity P-wave (km/s) = 6.16303 7.06905 6.63153
#
# Compressibility (1/GPa) = 0.02064142
#
# Stress axis : x y z
#
# Youngs Moduli (GPa) = 85.19253 78.83073 31.05874
#
# Poissons Ratio (x) = 0.04798 0.37029
# Poissons Ratio (y) = 0.05185 0.16954
# Poissons Ratio (z) = 1.01568 0.43032
#
# Static dielectric constant tensor:
#      x y z
#    x 1.677910 0.000000 0.000000 
#    y 0.000000 1.740790 0.000000 
#    z 0.000000 0.000000 1.688590 
# 
# From -- ./inp_files/22141.got.cif
#   From: 2010.05.17/outbox.cif.g08.bks.cpg/sg44_12_cif.got.tgz:22141.got - 2010.06.03 19:37:08.
