data_PCOD9375564
_publ_section_title
;
Structure prediction by ZEFSAII (Michael W. Deem and Ramdas Pophale) SiO2 
 PCOD9375564
Probable space group: I M M 2
;
_chemical_formula_sum "Si O2"
_cell_formula_units_Z 64
_cell_length_a 8.158138
_cell_length_b 31.891035
_cell_length_c 12.207145
_cell_angle_alpha 90.000000
_cell_angle_beta 90.000000
_cell_angle_gamma 90.000000
_cell_volume 3175.950792
_symmetry_space_group_name_H-M "I M M 2"
_symmetry_group_IT_number 44
_symmetry_cell_setting 'orthorhombic'
loop_
_space_group_symop_operation_xyz
x,y,z
-x,-y,z
-x,y,z
x,-y,z
1/2+x,1/2+y,1/2+z
1/2-x,1/2-y,1/2+z
1/2-x,1/2+y,1/2+z
1/2+x,1/2-y,1/2+z
loop_
_atom_site_type_symbol
_atom_site_label
_atom_site_fract_x
_atom_site_fract_y
_atom_site_fract_z
Si Si1 0.193364 0.453856 0.025340
Si Si2 0.699581 0.796729 0.000631
Si Si3 0.690231 0.567442 0.263492
Si Si4 0.196189 0.625791 0.643664
Si Si5 0.199527 0.797771 0.547291
Si Si6 0.306457 0.373369 0.892005
Si Si7 0.305062 0.838406 0.771553
Si Si8 0.802521 0.545926 0.506374
O O1 0.254753 0.500000 0.991122
O O2 0.220646 0.449292 0.155431
O O3 0.000000 0.451829 0.002721
O O4 0.273939 0.414898 0.963462
O O5 0.500000 0.795636 0.004715
O O6 0.754592 0.749248 0.019450
O O7 0.744363 0.814132 0.881340
O O8 0.757387 0.830834 0.089712
O O9 0.500000 0.556287 0.254963
O O10 0.713066 0.617548 0.263280
O O11 0.758709 0.551636 0.379015
O O12 0.231324 0.623101 0.771788
O O13 0.260426 0.585302 0.576900
O O14 0.000000 0.625864 0.628502
O O15 0.254156 0.832640 0.459033
O O16 0.266323 0.811548 0.664741
O O17 0.000000 0.798705 0.550789
O O18 0.500000 0.368408 0.878133
O O19 0.500000 0.847343 0.778003
O O20 0.743479 0.500000 0.543681
O O21 0.000000 0.546128 0.514903
#
# Coordination Sequence:
#
# PCOD9375564 Si02
#       8
#     8   8   8   8   8   8   8   8
#     4  11  24  42  65  90 117 155 203 248 292 355
#     4   9  20  39  62  87 120 159 201 250 297 350
#     4  12  23  37  60  92 128 159 191 245 306 360
#     4  10  21  40  62  85 118 162 208 250 295 350
#     4  10  22  40  60  88 124 159 196 247 306 355
#     4  11  24  40  60  88 125 160 195 247 305 358
#     4  11  21  38  65  91 119 160 204 246 293 353
#     4  10  21  39  63  89 118 156 204 252 297 354
#
# _framework density 20.151446
#
# number of rings (size 3 to 8) (size 9 to 14) (size 15 to 20)
#    0.000    1.500    2.500    2.625    1.750    4.250 
#    0.000    2.500    0.000    0.000    0.000    0.000 
#    0.000    0.000    0.000    0.000    0.000    0.000 
#
# Total GULP energy -178846.050302 kJ/mol
# GULP energy per Si atom -5588.939072 kJ/mol
# Density = 2.010558 g / cm^3
# Si number density = 20.151446 Si / 1000 Ang^3
#
#
#
# Elastic Constant Matrix: (Units=GPa)
#
#
# Indices 1 2 3 4 5 6 
#
# 1 10.0358 3.7962 -9.8329 0.0004 0.0001 0.0000
# 2 3.7962 171.4038 58.8562 0.0003 0.0000 0.0000
# 3 -9.8329 58.8562 115.5274 0.0012 0.0001 0.0001
# 4 0.0004 0.0003 0.0012 14.7043 0.0006 0.0002
# 5 0.0001 0.0000 0.0001 0.0006 -10.2295 0.0001
# 6 0.0000 0.0000 0.0001 0.0002 0.0001 21.6646
#
#
#
# Elastic Compliance Matrix: (Units=1/GPa)
#
#
# Indices 1 2 3 4 5 6 
#
# 1 0.115599 -0.007198 0.013506 -0.000004 0.000001 0.000000
# 2 -0.007198 0.007519 -0.004443 0.000000 0.000000 0.000000
# 3 0.013506 -0.004443 0.012069 -0.000001 0.000000 0.000000
# 4 -0.000004 0.000000 -0.000001 0.068007 0.000004 -0.000001
# 5 0.000001 0.000000 0.000000 0.000004 -0.097756 0.000000
# 6 0.000000 0.000000 0.000000 -0.000001 0.000000 0.046158
#
#
# Mechanical properties :
#
#
# Convention : Reuss Voigt Hill
#
# Bulk Modulus (GPa) = 7.19857 44.73400 25.96628
# Shear Modulus (GPa) = 25.75028 21.50437 23.62732
#
# Velocity S-wave (km/s) = 3.57856 3.27025 3.42788
# Velocity P-wave (km/s) = 4.54476 6.04206 5.34609
#
# Compressibility (1/GPa) = 0.13891644
#
# Stress axis : x y z
#
# Youngs Moduli (GPa) = 8.65062 132.99005 82.85549
#
# Poissons Ratio (x) = 0.95724 -1.11904
# Poissons Ratio (y) = 0.06227 0.36816
# Poissons Ratio (z) = -0.11683 0.59093
#
# Static dielectric constant tensor:
#      x y z
#    x 1.709880 0.000000 0.000000 
#    y 0.000000 1.724460 0.000000 
#    z 0.000000 0.000000 1.666150 
# 
# From -- ./inp_files/11427.got.cif
#   From: 2010.05.17/outbox.cif.g08.bks.cpg/sg44_6_cif.got.tgz:11427.got - 2010.06.03 19:37:08.
