data_PCOD9375835
_publ_section_title
;
Structure prediction by ZEFSAII (Michael W. Deem and Ramdas Pophale) SiO2 
 PCOD9375835
Probable space group: I M M 2
;
_chemical_formula_sum "Si O2"
_cell_formula_units_Z 64
_cell_length_a 30.848678
_cell_length_b 8.765887
_cell_length_c 14.740597
_cell_angle_alpha 90.000000
_cell_angle_beta 90.000000
_cell_angle_gamma 90.000000
_cell_volume 3986.093653
_symmetry_space_group_name_H-M "I M M 2"
_symmetry_group_IT_number 44
_symmetry_cell_setting 'orthorhombic'
loop_
_space_group_symop_operation_xyz
x,y,z
-x,-y,z
-x,y,z
x,-y,z
1/2+x,1/2+y,1/2+z
1/2-x,1/2-y,1/2+z
1/2-x,1/2+y,1/2+z
1/2+x,1/2-y,1/2+z
loop_
_atom_site_type_symbol
_atom_site_label
_atom_site_fract_x
_atom_site_fract_y
_atom_site_fract_z
Si Si1 0.864940 0.819859 0.657360
Si Si2 0.796434 0.819050 0.142120
Si Si3 0.775875 0.320522 0.329712
Si Si4 0.816569 0.677658 0.822609
Si Si5 0.634692 0.680346 0.490478
Si Si6 0.050039 0.683022 0.919585
Si Si7 0.784415 0.818990 0.528145
Si Si8 0.549922 0.816835 0.205711
O O1 0.848189 0.718755 0.740895
O O2 0.830391 0.791998 0.577599
O O3 0.914505 0.768668 0.645614
O O4 0.863144 0.000000 0.679477
O O5 0.799361 0.746706 0.241528
O O6 0.839979 0.792437 0.084057
O O7 0.755117 0.753986 0.085864
O O8 0.789755 0.000000 0.150793
O O9 0.782560 0.500000 0.335551
O O10 0.725550 0.281545 0.312207
O O11 0.785970 0.245251 0.426505
O O12 0.804585 0.500000 0.821463
O O13 0.839873 0.722212 0.915366
O O14 0.638551 0.500000 0.469572
O O15 0.585057 0.731684 0.480927
O O16 0.056163 0.500000 0.926720
O O17 0.056373 0.722704 0.812777
O O18 0.000000 0.717213 0.942148
O O19 0.776622 0.000000 0.525350
O O20 0.500000 0.780124 0.183346
O O21 0.555151 0.000000 0.198313
#
# Coordination Sequence:
#
# PCOD9375835 Si02
#       8
#     8   8   8   8   8   8   8   8
#     4  11  22  34  51  77 106 137 178 218 258 311
#     4  11  23  37  54  76 106 141 177 218 264 312
#     4  12  24  38  54  75 104 137 182 226 260 309
#     4  12  22  32  51  73 104 143 177 215 262 307
#     4  11  22  34  51  77 106 137 178 218 258 311
#     4   9  18  32  50  74 105 140 175 211 257 312
#     4  11  23  37  54  76 106 141 177 218 264 312
#     4   9  18  32  50  74 105 140 175 211 257 312
#
# _framework density 16.055819
#
# number of rings (size 3 to 8) (size 9 to 14) (size 15 to 20)
#    0.000    1.250    3.750    4.500    0.000    3.500 
#    0.000    1.250    0.000    0.000    0.000    0.875 
#    0.000    7.000    0.000    0.000    0.000    0.000 
#
# Total GULP energy -178673.630298 kJ/mol
# GULP energy per Si atom -5583.550947 kJ/mol
# Density = 1.601928 g / cm^3
# Si number density = 16.055819 Si / 1000 Ang^3
#
#
#
# Elastic Constant Matrix: (Units=GPa)
#
#
# Indices 1 2 3 4 5 6 
#
# 1 70.7696 14.5836 -3.1696 0.0000 0.0000 0.0000
# 2 14.5836 49.1241 10.8461 0.0000 0.0000 0.0000
# 3 -3.1696 10.8461 33.9709 0.0000 0.0000 0.0000
# 4 0.0000 0.0000 0.0000 20.6913 0.0000 0.0000
# 5 0.0000 0.0000 0.0000 0.0000 16.1936 0.0000
# 6 0.0000 0.0000 0.0000 0.0000 0.0000 27.7781
#
#
#
# Elastic Compliance Matrix: (Units=1/GPa)
#
#
# Indices 1 2 3 4 5 6 
#
# 1 0.015350 -0.005243 0.003106 0.000000 0.000000 0.000000
# 2 -0.005243 0.023691 -0.008053 0.000000 0.000000 0.000000
# 3 0.003106 -0.008053 0.032298 0.000000 0.000000 0.000000
# 4 0.000000 0.000000 0.000000 0.048329 0.000000 0.000000
# 5 0.000000 0.000000 0.000000 0.000000 0.061753 0.000000
# 6 0.000000 0.000000 0.000000 0.000000 0.000000 0.036000
#
#
# Mechanical properties :
#
#
# Convention : Reuss Voigt Hill
#
# Bulk Modulus (GPa) = 19.62355 22.04276 20.83316
# Shear Modulus (GPa) = 19.62428 21.70626 20.66527
#
# Velocity S-wave (km/s) = 3.49987 3.68084 3.59149
# Velocity P-wave (km/s) = 5.34609 5.64123 5.49564
#
# Compressibility (1/GPa) = 0.05095918
#
# Stress axis : x y z
#
# Youngs Moduli (GPa) = 65.14729 42.21003 30.96179
#
# Poissons Ratio (x) = 0.22130 -0.09617
# Poissons Ratio (y) = 0.34155 0.24934
# Poissons Ratio (z) = -0.20235 0.33992
#
# Static dielectric constant tensor:
#      x y z
#    x 1.559430 0.000000 0.000000 
#    y 0.000000 1.540390 0.000000 
#    z 0.000000 0.000000 1.529420 
# 
# From -- ./inp_files/15102.got.cif
#   From: 2010.05.17/outbox.cif.g08.bks.cpg/sg44_8_cif.got.tgz:15102.got - 2010.06.03 19:37:08.
