data_PCOD9375057
_publ_section_title
;
Structure prediction by ZEFSAII (Michael W. Deem and Ramdas Pophale) SiO2 
 PCOD9375057
Probable space group: I M M 2
;
_chemical_formula_sum "Si O2"
_cell_formula_units_Z 24
_cell_length_a 7.691488
_cell_length_b 8.905073
_cell_length_c 19.311738
_cell_angle_alpha 90.000000
_cell_angle_beta 90.000000
_cell_angle_gamma 90.000000
_cell_volume 1322.723933
_symmetry_space_group_name_H-M "I M M 2"
_symmetry_group_IT_number 44
_symmetry_cell_setting 'orthorhombic'
loop_
_space_group_symop_operation_xyz
x,y,z
-x,-y,z
-x,y,z
x,-y,z
1/2+x,1/2+y,1/2+z
1/2-x,1/2-y,1/2+z
1/2-x,1/2+y,1/2+z
1/2+x,1/2-y,1/2+z
loop_
_atom_site_type_symbol
_atom_site_label
_atom_site_fract_x
_atom_site_fract_y
_atom_site_fract_z
Si Si1 0.298188 0.820887 0.570190
Si Si2 0.500000 0.680313 0.825822
Si Si3 0.701290 0.179514 0.217291
Si Si4 0.000000 0.321142 0.476968
O O1 0.500000 0.787051 0.555281
O O2 0.254250 0.763839 0.647301
O O3 0.167825 0.742009 0.517289
O O4 0.273507 0.000000 0.566732
O O5 0.500000 0.500000 0.837444
O O6 0.331560 0.718149 0.779377
O O7 0.500000 0.762960 0.898604
O O8 0.500000 0.210941 0.233716
O O9 0.718305 0.000000 0.204855
O O10 0.000000 0.500000 0.479820
#
# Coordination Sequence:
#
# PCOD9375057 Si02
#       4
#     8   4   8   4
#     4  11  23  39  63  93 124 161 206 256 308 367
#     4  10  22  40  60  88 129 166 201 248 308 370
#     4  10  20  36  62  93 122 159 202 247 302 369
#     4  12  26  42  62  90 127 166 209 258 310 364
#
# _framework density 18.144375
#
# number of rings (size 3 to 8) (size 9 to 14) (size 15 to 20)
#    0.000    1.333    3.333    2.500    0.000    4.667 
#    0.000    3.333    0.000    0.000    0.000    0.000 
#    0.000    0.000    0.000    0.000    0.000    0.000 
#
# Total GULP energy -67083.466737 kJ/mol
# GULP energy per Si atom -5590.288895 kJ/mol
# Density = 1.810308 g / cm^3
# Si number density = 18.144375 Si / 1000 Ang^3
#
#
#
# Elastic Constant Matrix: (Units=GPa)
#
#
# Indices 1 2 3 4 5 6 
#
# 1 196.3276 98.6434 116.0741 0.0000 0.0000 0.0000
# 2 98.6434 83.3143 88.1071 0.0000 0.0000 0.0000
# 3 116.0741 88.1071 175.0120 0.0000 0.0000 0.0000
# 4 0.0000 0.0000 0.0000 39.3299 0.0000 0.0000
# 5 0.0000 0.0000 0.0000 0.0000 26.3017 0.0000
# 6 0.0000 0.0000 0.0000 0.0000 0.0000 23.0024
#
#
#
# Elastic Compliance Matrix: (Units=1/GPa)
#
#
# Indices 1 2 3 4 5 6 
#
# 1 0.012846 -0.013258 -0.001845 0.000000 0.000000 0.000000
# 2 -0.013258 0.039352 -0.011018 0.000000 0.000000 0.000000
# 3 -0.001845 -0.011018 0.012485 0.000000 0.000000 0.000000
# 4 0.000000 0.000000 0.000000 0.025426 0.000000 0.000000
# 5 0.000000 0.000000 0.000000 0.000000 0.038020 0.000000
# 6 0.000000 0.000000 0.000000 0.000000 0.000000 0.043474
#
#
# Mechanical properties :
#
#
# Convention : Reuss Voigt Hill
#
# Bulk Modulus (GPa) = 80.38682 117.81145 99.09914
# Shear Modulus (GPa) = 21.93069 27.84876 24.88973
#
# Velocity S-wave (km/s) = 3.48038 3.92196 3.70775
# Velocity P-wave (km/s) = 7.78144 9.25094 8.54783
#
# Compressibility (1/GPa) = 0.01243985
#
# Stress axis : x y z
#
# Youngs Moduli (GPa) = 77.84594 25.41192 80.09882
#
# Poissons Ratio (x) = 0.33691 0.14781
# Poissons Ratio (y) = 1.03207 0.88252
# Poissons Ratio (z) = 0.14365 0.27999
#
# Static dielectric constant tensor:
#      x y z
#    x 1.624490 0.000000 0.000000 
#    y 0.000000 1.609240 0.000000 
#    z 0.000000 0.000000 1.572170 
# 
# From -- ./inp_files/15337.got.cif
#   From: 2010.05.17/outbox.cif.g08.bks.cpg/sg44_8_cif.got.tgz:15337.got - 2010.06.03 19:37:08.
