data_PCOD9375247
_publ_section_title
;
Structure prediction by ZEFSAII (Michael W. Deem and Ramdas Pophale) SiO2 
 PCOD9375247
Probable space group: I M M 2
;
_chemical_formula_sum "Si O2"
_cell_formula_units_Z 56
_cell_length_a 15.741486
_cell_length_b 9.878523
_cell_length_c 17.980446
_cell_angle_alpha 90.000000
_cell_angle_beta 90.000000
_cell_angle_gamma 90.000000
_cell_volume 2796.006669
_symmetry_space_group_name_H-M "I M M 2"
_symmetry_group_IT_number 44
_symmetry_cell_setting 'orthorhombic'
loop_
_space_group_symop_operation_xyz
x,y,z
-x,-y,z
-x,y,z
x,-y,z
1/2+x,1/2+y,1/2+z
1/2-x,1/2-y,1/2+z
1/2-x,1/2+y,1/2+z
1/2+x,1/2-y,1/2+z
loop_
_atom_site_type_symbol
_atom_site_label
_atom_site_fract_x
_atom_site_fract_y
_atom_site_fract_z
Si Si1 0.663890 0.342257 0.468300
Si Si2 0.865889 0.158099 0.131193
Si Si3 0.397732 0.339400 0.308498
Si Si4 0.402260 0.150208 0.762550
Si Si5 0.833359 0.653622 0.675711
Si Si6 0.364310 0.845728 0.007238
Si Si7 0.902047 0.150079 0.381428
O O1 0.639134 0.500000 0.464483
O O2 0.623092 0.294550 0.545974
O O3 0.637659 0.286187 0.388215
O O4 0.764492 0.338245 0.484911
O O5 0.904679 0.265390 0.187107
O O6 0.766343 0.158470 0.154335
O O7 0.893881 0.000000 0.139141
O O8 0.500000 0.326302 0.308604
O O9 0.377201 0.500000 0.301722
O O10 0.359317 0.258111 0.239014
O O11 0.500000 0.132091 0.786669
O O12 0.358951 0.247225 0.823352
O O13 0.364060 0.000000 0.756441
O O14 0.852899 0.500000 0.700103
O O15 0.876657 0.675295 0.595055
O O16 0.392229 0.000000 0.988469
O O17 0.403918 0.727084 0.959259
O O18 0.000000 0.133395 0.357252
O O19 0.863636 0.000000 0.383987
#
# Coordination Sequence:
#
# PCOD9375247 Si02
#       7
#     8   8   8   8   8   8   8
#     4   8  17  35  56  79 106 138 178 223 271 321
#     4   9  18  35  58  81 106 138 180 227 271 320
#     4  10  21  36  55  81 111 144 185 228 271 326
#     4  10  21  35  51  76 110 144 177 214 263 323
#     4   9  20  37  55  79 110 142 179 223 272 326
#     4   9  18  35  57  78 104 140 181 224 270 322
#     4  10  21  35  51  76 109 141 176 219 265 315
#
# _framework density 20.028563999999999
#
# number of rings (size 3 to 8) (size 9 to 14) (size 15 to 20)
#    0.000    2.714    0.000    2.571    2.000    4.286 
#    0.000    7.143    0.000    0.000    0.000    0.000 
#    0.000    0.000    0.000    0.000    0.000    0.000 
#
# Total GULP energy -156000.095123 kJ/mol
# GULP energy per Si atom -5571.431969 kJ/mol
# Density = 1.998298 g / cm^3
# Si number density = 20.028564 Si / 1000 Ang^3
#
#
#
# Elastic Constant Matrix: (Units=GPa)
#
#
# Indices 1 2 3 4 5 6 
#
# 1 26.1787 21.7445 24.2574 0.0000 0.0000 0.0000
# 2 21.7445 143.0573 91.8457 0.0000 0.0000 0.0000
# 3 24.2574 91.8457 154.4505 0.0000 0.0000 0.0000
# 4 0.0000 0.0000 0.0000 29.1756 0.0000 0.0000
# 5 0.0000 0.0000 0.0000 0.0000 34.7166 0.0000
# 6 0.0000 0.0000 0.0000 0.0000 0.0000 339.9923
#
#
#
# Elastic Compliance Matrix: (Units=1/GPa)
#
#
# Indices 1 2 3 4 5 6 
#
# 1 0.045949 -0.003803 -0.004955 0.000000 0.000000 0.000000
# 2 -0.003803 0.011622 -0.006314 0.000000 0.000000 0.000000
# 3 -0.004955 -0.006314 0.011007 0.000000 0.000000 0.000000
# 4 0.000000 0.000000 0.000000 0.034275 0.000000 0.000000
# 5 0.000000 0.000000 0.000000 0.000000 0.028805 0.000000
# 6 0.000000 0.000000 0.000000 0.000000 0.000000 0.002941
#
#
# Mechanical properties :
#
#
# Convention : Reuss Voigt Hill
#
# Bulk Modulus (GPa) = 26.01815 66.59796 46.30805
# Shear Modulus (GPa) = 28.16034 93.16616 60.66325
#
# Velocity S-wave (km/s) = 3.75375 6.82771 5.50946
# Velocity P-wave (km/s) = 5.63970 9.77141 7.97768
#
# Compressibility (1/GPa) = 0.03843470
#
# Stress axis : x y z
#
# Youngs Moduli (GPa) = 21.76318 86.04516 90.84837
#
# Poissons Ratio (x) = 0.32722 0.45017
# Poissons Ratio (y) = 0.08276 0.57360
# Poissons Ratio (z) = 0.10784 0.54327
#
# Static dielectric constant tensor:
#      x y z
#    x 1.798170 0.000000 0.000000 
#    y 0.000000 1.724870 0.000000 
#    z 0.000000 0.000000 1.730370 
# 
# From -- ./inp_files/19201.got.cif
#   From: 2010.05.17/outbox.cif.g08.bks.cpg/sg44_10_cif.got.tgz:19201.got - 2010.06.03 19:37:08.
