data_PCOD9375698
_publ_section_title
;
Structure prediction by ZEFSAII (Michael W. Deem and Ramdas Pophale) SiO2 
 PCOD9375698
Probable space group: I M M 2
;
_chemical_formula_sum "Si O2"
_cell_formula_units_Z 34
_cell_length_a 7.421778
_cell_length_b 23.537612
_cell_length_c 8.303007
_cell_angle_alpha 90.000000
_cell_angle_beta 90.000000
_cell_angle_gamma 90.000000
_cell_volume 1450.460022
_symmetry_space_group_name_H-M "I M M 2"
_symmetry_group_IT_number 44
_symmetry_cell_setting 'orthorhombic'
loop_
_space_group_symop_operation_xyz
x,y,z
-x,-y,z
-x,y,z
x,-y,z
1/2+x,1/2+y,1/2+z
1/2-x,1/2-y,1/2+z
1/2-x,1/2+y,1/2+z
1/2+x,1/2-y,1/2+z
loop_
_atom_site_type_symbol
_atom_site_label
_atom_site_fract_x
_atom_site_fract_y
_atom_site_fract_z
Si Si1 0.292621 0.081787 0.497200
Si Si2 0.218498 0.439016 0.625319
Si Si3 0.000000 0.000000 0.634581
Si Si4 0.284490 0.298003 0.117777
Si Si5 0.787721 0.678857 0.488391
O O1 0.500000 0.066044 0.526725
O O2 0.241179 0.064224 0.315482
O O3 0.280340 0.149884 0.508953
O O4 0.157958 0.049802 0.616111
O O5 0.284173 0.500000 0.560700
O O6 0.287447 0.381857 0.542982
O O7 0.000000 0.439464 0.611106
O O8 0.500000 0.296642 0.104274
O O9 0.232428 0.313063 0.298909
O O10 0.213405 0.235838 0.070728
O O11 0.000000 0.677102 0.529281
#
# Coordination Sequence:
#
# PCOD9375698 Si02
#       5
#     8   8   2   8   8
#     4  11  22  41  68  94 134 173 213 266 323 378
#     4   9  18  37  62  91 125 172 218 258 319 391
#     4  12  22  40  64 104 132 168 220 262 304 410
#     4  11  23  41  61  94 128 167 223 274 322 393
#     4  10  22  40  63  89 128 171 219 273 327 385
#
# _framework density 23.440840999999999
#
# number of rings (size 3 to 8) (size 9 to 14) (size 15 to 20)
#    0.000    1.647    2.353    2.471    0.000    3.765 
#    4.235    0.000    0.000    0.000    0.000    0.000 
#    0.000    0.000    0.000    0.000    0.000    0.000 
#
# Total GULP energy -94842.152163 kJ/mol
# GULP energy per Si atom -5578.950127 kJ/mol
# Density = 2.338749 g / cm^3
# Si number density = 23.440841 Si / 1000 Ang^3
#
#
#
# Elastic Constant Matrix: (Units=GPa)
#
#
# Indices 1 2 3 4 5 6 
#
# 1 108.2405 20.1001 -13.8019 -0.0002 0.0000 0.0001
# 2 20.1001 268.9585 59.8363 0.0001 -0.0002 0.0001
# 3 -13.8019 59.8363 35.1563 -0.0004 -0.0005 0.0005
# 4 -0.0002 0.0001 -0.0004 30.5988 -0.0002 0.0000
# 5 0.0000 -0.0002 -0.0005 -0.0002 9.7955 0.0000
# 6 0.0001 0.0001 0.0005 0.0000 0.0000 15.3473
#
#
#
# Elastic Compliance Matrix: (Units=1/GPa)
#
#
# Indices 1 2 3 4 5 6 
#
# 1 0.010935 -0.002852 0.009147 0.000000 0.000000 0.000000
# 2 -0.002852 0.006728 -0.012571 0.000000 0.000000 0.000000
# 3 0.009147 -0.012571 0.053431 0.000001 0.000002 -0.000002
# 4 0.000000 0.000000 0.000001 0.032681 0.000001 0.000000
# 5 0.000000 0.000000 0.000002 0.000001 0.102088 0.000000
# 6 0.000000 0.000000 -0.000002 0.000000 0.000000 0.065158
#
#
# Mechanical properties :
#
#
# Convention : Reuss Voigt Hill
#
# Bulk Modulus (GPa) = 17.08164 60.51383 38.79773
# Shear Modulus (GPa) = 16.49702 34.22971 25.36337
#
# Velocity S-wave (km/s) = 2.65575 3.82548 3.29297
# Velocity P-wave (km/s) = 4.08741 6.73676 5.57185
#
# Compressibility (1/GPa) = 0.05854240
#
# Stress axis : x y z
#
# Youngs Moduli (GPa) = 91.45165 148.63642 18.71584
#
# Poissons Ratio (x) = 0.42395 -0.17120
# Poissons Ratio (y) = 0.26084 0.23527
# Poissons Ratio (z) = -0.83654 1.86844
#
# Static dielectric constant tensor:
#      x y z
#    x 1.880100 0.000000 0.000000 
#    y 0.000000 1.913180 0.000000 
#    z 0.000000 0.000000 1.841270 
# 
# From -- ./inp_files/4280.got.cif
#   From: 2010.05.17/outbox.cif.g08.bks.cpg/sg44_3_cif.got.tgz:4280.got - 2010.06.03 19:37:08.
