data_PCOD9375028
_publ_section_title
;
Structure prediction by ZEFSAII (Michael W. Deem and Ramdas Pophale) SiO2 
 PCOD9375028
Probable space group: I M M 2
;
_chemical_formula_sum "Si O2"
_cell_formula_units_Z 48
_cell_length_a 7.843870
_cell_length_b 9.163678
_cell_length_c 34.834046
_cell_angle_alpha 90.000000
_cell_angle_beta 90.000000
_cell_angle_gamma 90.000000
_cell_volume 2503.825906
_symmetry_space_group_name_H-M "I M M 2"
_symmetry_group_IT_number 44
_symmetry_cell_setting 'orthorhombic'
loop_
_space_group_symop_operation_xyz
x,y,z
-x,-y,z
-x,y,z
x,-y,z
1/2+x,1/2+y,1/2+z
1/2-x,1/2-y,1/2+z
1/2-x,1/2+y,1/2+z
1/2+x,1/2-y,1/2+z
loop_
_atom_site_type_symbol
_atom_site_label
_atom_site_fract_x
_atom_site_fract_y
_atom_site_fract_z
Si Si1 0.799833 0.830235 0.709370
Si Si2 0.693830 0.327201 0.634736
Si Si3 0.301774 0.325328 0.448423
Si Si4 0.702541 0.166030 0.793581
Si Si5 0.705347 0.165217 0.370433
Si Si6 0.500000 0.325041 0.089423
Si Si7 0.500000 0.824430 0.007077
O O1 0.706965 0.731812 0.678230
O O2 0.777086 0.779698 0.753225
O O3 0.000000 0.828430 0.699926
O O4 0.741064 0.000000 0.707531
O O5 0.500000 0.304902 0.620818
O O6 0.731333 0.500000 0.633455
O O7 0.833172 0.239255 0.610542
O O8 0.500000 0.283492 0.456457
O O9 0.298731 0.500000 0.443341
O O10 0.243855 0.252245 0.408612
O O11 0.168400 0.290133 0.481949
O O12 0.500000 0.161411 0.788652
O O13 0.742381 0.258603 0.831029
O O14 0.766413 0.000000 0.799437
O O15 0.500000 0.162656 0.370883
O O16 0.769549 0.000000 0.371889
O O17 0.500000 0.500000 0.091259
O O18 0.500000 0.264753 0.046215
O O19 0.500000 0.000000 0.014676
#
# Coordination Sequence:
#
# PCOD9375028 Si02
#       7
#     8   8   8   8   8   4   4
#     4  10  20  36  60  88 118 157 204 255 311 368
#     4  11  24  42  66  94 126 166 208 255 312 373
#     4   9  19  37  61  87 117 156 199 246 301 362
#     4  10  21  35  53  80 115 156 203 251 299 358
#     4  10  21  36  54  79 113 153 198 249 305 358
#     4  12  26  44  66  96 130 166 208 256 312 376
#     4  10  22  40  64  92 122 156 202 252 304 374
#
# _framework density 19.170663000000001
#
# number of rings (size 3 to 8) (size 9 to 14) (size 15 to 20)
#    0.000    1.833    0.833    2.750    1.167    6.000 
#    0.000    1.667    0.000    0.000    0.000    0.000 
#    0.000    0.000    0.000    0.000    0.000    0.000 
#
# Total GULP energy -134060.489817 kJ/mol
# GULP energy per Si atom -5585.853742 kJ/mol
# Density = 1.912703 g / cm^3
# Si number density = 19.170663 Si / 1000 Ang^3
#
#
#
# Elastic Constant Matrix: (Units=GPa)
#
#
# Indices 1 2 3 4 5 6 
#
# 1 92.9557 57.9895 62.7174 0.0000 0.0000 0.0000
# 2 57.9895 89.5230 79.2035 0.0000 0.0000 0.0000
# 3 62.7174 79.2035 149.6480 0.0000 0.0000 0.0000
# 4 0.0000 0.0000 0.0000 36.8331 0.0000 0.0000
# 5 0.0000 0.0000 0.0000 0.0000 12.0774 0.0000
# 6 0.0000 0.0000 0.0000 0.0000 0.0000 16.2693
#
#
#
# Elastic Compliance Matrix: (Units=1/GPa)
#
#
# Indices 1 2 3 4 5 6 
#
# 1 0.018603 -0.009690 -0.002668 0.000000 0.000000 0.000000
# 2 -0.009690 0.026054 -0.009729 0.000000 0.000000 0.000000
# 3 -0.002668 -0.009729 0.012949 0.000000 0.000000 0.000000
# 4 0.000000 0.000000 0.000000 0.027149 0.000000 0.000000
# 5 0.000000 0.000000 0.000000 0.000000 0.082799 0.000000
# 6 0.000000 0.000000 0.000000 0.000000 0.000000 0.061466
#
#
# Mechanical properties :
#
#
# Convention : Reuss Voigt Hill
#
# Bulk Modulus (GPa) = 74.43908 81.32751 77.88329
# Shear Modulus (GPa) = 18.00692 21.85038 19.92865
#
# Velocity S-wave (km/s) = 3.06812 3.37973 3.22769
# Velocity P-wave (km/s) = 7.17392 7.59902 7.38953
#
# Compressibility (1/GPa) = 0.01343380
#
# Stress axis : x y z
#
# Youngs Moduli (GPa) = 53.75557 38.38176 77.22317
#
# Poissons Ratio (x) = 0.37191 0.20603
# Poissons Ratio (y) = 0.52087 0.75127
# Poissons Ratio (z) = 0.14342 0.37340
#
# Static dielectric constant tensor:
#      x y z
#    x 1.691560 0.000000 0.000000 
#    y 0.000000 1.654980 0.000000 
#    z 0.000000 0.000000 1.641180 
# 
# From -- ./inp_files/26928.got.cif
#   From: 2010.05.17/outbox.cif.g08.bks.cpg/sg44_14_cif.got.tgz:26928.got - 2010.06.03 19:37:08.
