data_PCOD9375972
_publ_section_title
;
Structure prediction by ZEFSAII (Michael W. Deem and Ramdas Pophale) SiO2 
 PCOD9375972
Probable space group: I M M 2
;
_chemical_formula_sum "Si O2"
_cell_formula_units_Z 28
_cell_length_a 21.000000
_cell_length_b 9.000000
_cell_length_c 15.000000
_cell_angle_alpha 90.000000
_cell_angle_beta 90.000000
_cell_angle_gamma 90.000000
_cell_volume 2835.000000
_symmetry_space_group_name_H-M "I M M 2"
_symmetry_group_IT_number 44
_symmetry_cell_setting 'orthorhombic'
loop_
_space_group_symop_operation_xyz
x,y,z
-x,-y,z
-x,y,z
x,-y,z
1/2+x,1/2+y,1/2+z
1/2-x,1/2-y,1/2+z
1/2-x,1/2+y,1/2+z
1/2+x,1/2-y,1/2+z
loop_
_atom_site_type_symbol
_atom_site_label
_atom_site_fract_x
_atom_site_fract_y
_atom_site_fract_z
Si Si1 0.115993 0.326839 0.303940
Si Si2 0.722964 0.823277 0.477096
Si Si3 0.624686 0.323764 0.981800
Si Si4 0.500000 0.832519 0.668744
Si Si5 0.116164 0.179494 0.868726
Si Si6 0.776934 0.319074 0.175810
Si Si7 0.871327 0.819326 0.675180
Si Si8 0.000000 0.177341 0.986668
O O1 0.127515 0.500000 0.324138
O O2 0.096200 0.249523 0.394821
O O3 0.061218 0.316597 0.230772
O O4 0.179056 0.263338 0.255702
O O5 0.798837 0.797927 0.475216
O O6 0.683763 0.739247 0.402062
O O7 0.700390 0.775786 0.576531
O O8 0.712910 0.000000 0.468497
O O9 0.614169 0.500000 0.978457
O O10 0.603713 0.267274 0.079331
O O11 0.500000 0.719756 0.588649
O O12 0.500000 0.000000 0.631056
O O13 0.098412 0.226344 0.768323
O O14 0.062920 0.233421 0.937147
O O15 0.118989 0.000000 0.869348
O O16 0.779443 0.500000 0.177677
O O17 0.703183 0.277557 0.183025
O O18 0.873297 0.000000 0.671109
O O19 0.000000 0.000000 0.976651
#
# Coordination Sequence:
#
# PCOD9375972 Si02
#       8
#     8   8   8   4   8   8   8   4
#     4  10  19  32  51  73  97 129 169 206 242 290
#     4   9  17  30  49  74 102 129 161 201 245 299
#     4   9  18  32  50  74 102 129 159 201 251 297
#     4  10  22  38  55  74  98 134 173 204 243 302
#     4  10  19  32  50  71  98 132 168 206 248 292
#     4   8  14  26  46  70  95 125 158 194 240 293
#     4   8  15  29  48  69  95 127 160 193 237 296
#     4  10  22  36  51  76 104 128 163 214 257 288
#
# _framework density 9.8765429999999999
#
# number of rings (size 3 to 8) (size 9 to 14) (size 15 to 20)
#    0.000    2.857    0.000    3.429    0.000    4.000 
#    0.000    2.143    0.000    3.429    0.000    0.000 
#    0.000    0.000    0.000    0.000    0.000    0.000 
#
# Total GULP energy -156037.065987 kJ/mol
# GULP energy per Si atom -5572.752357 kJ/mol
# Density = 0.985406 g / cm^3
# Si number density = 9.876543 Si / 1000 Ang^3
#
#
#
# Elastic Constant Matrix: (Units=GPa)
#
#
# Indices 1 2 3 4 5 6 
#
# 1 -4.4399 8.1537 -11.1981 0.0000 0.0000 0.0000
# 2 8.1537 0.1681 19.3748 0.0000 0.0000 0.0000
# 3 -11.1981 19.3748 99.3519 0.0000 0.0000 0.0000
# 4 0.0000 0.0000 0.0000 17.7262 0.0000 0.0000
# 5 0.0000 0.0000 0.0000 0.0000 -11.7177 0.0000
# 6 0.0000 0.0000 0.0000 0.0000 0.0000 9.8776
#
#
#
# Elastic Compliance Matrix: (Units=1/GPa)
#
#
# Indices 1 2 3 4 5 6 
#
# 1 0.041845 0.119817 -0.018649 0.000000 0.000000 0.000000
# 2 0.119817 0.066091 0.000616 0.000000 0.000000 0.000000
# 3 -0.018649 0.000616 0.007843 0.000000 0.000000 0.000000
# 4 0.000000 0.000000 0.000000 0.056414 0.000000 0.000000
# 5 0.000000 0.000000 0.000000 0.000000 -0.085341 0.000000
# 6 0.000000 0.000000 0.000000 0.000000 0.000000 0.101239
#
#
# Mechanical properties :
#
#
# Convention : Reuss Voigt Hill
#
# Bulk Modulus (GPa) = 3.13138 14.19342 8.66240
# Shear Modulus (GPa) = 54.96220 8.42719 31.69469
#
# Velocity S-wave (km/s) = 5.28063 2.06773 4.01002
# Velocity P-wave (km/s) = 6.22645 3.59190 5.08284
#
# Compressibility (1/GPa) = 0.31934762
#
# Stress axis : x y z
#
# Youngs Moduli (GPa) = 23.89768 15.13067 127.50162
#
# Poissons Ratio (x) = -1.81292 2.37784
# Poissons Ratio (y) = -2.86336 -0.07858
# Poissons Ratio (z) = 0.44568 -0.00932
#
# Static dielectric constant tensor:
#      x y z
#    x 1.711540 0.000000 0.000000 
#    y 0.000000 1.666240 0.000000 
#    z 0.000000 0.000000 1.732070 
# 
# From -- ./inp_files/14670.got.cif
#   From: 2010.05.17/outbox.ucp.g08.bks.cvg/sg44_8_cif.got.tgz:14670.got - 2010.06.11 16:32:36.
