data_PCOD9375658
_publ_section_title
;
Structure prediction by ZEFSAII (Michael W. Deem and Ramdas Pophale) SiO2 
 PCOD9375658
Probable space group: I M M 2
;
_chemical_formula_sum "Si O2"
_cell_formula_units_Z 64
_cell_length_a 12.013209
_cell_length_b 19.703744
_cell_length_c 13.674047
_cell_angle_alpha 90.000000
_cell_angle_beta 90.000000
_cell_angle_gamma 90.000000
_cell_volume 3236.717958
_symmetry_space_group_name_H-M "I M M 2"
_symmetry_group_IT_number 44
_symmetry_cell_setting 'orthorhombic'
loop_
_space_group_symop_operation_xyz
x,y,z
-x,-y,z
-x,y,z
x,-y,z
1/2+x,1/2+y,1/2+z
1/2-x,1/2-y,1/2+z
1/2-x,1/2+y,1/2+z
1/2+x,1/2-y,1/2+z
loop_
_atom_site_type_symbol
_atom_site_label
_atom_site_fract_x
_atom_site_fract_y
_atom_site_fract_z
Si Si1 0.233630 0.919256 0.914410
Si Si2 0.874531 0.116068 0.722540
Si Si3 0.624189 0.919268 0.647433
Si Si4 0.774670 0.831622 0.275696
Si Si5 0.874321 0.737039 0.621228
Si Si6 0.131745 0.712563 0.403886
Si Si7 0.873508 0.923845 0.123287
Si Si8 0.373113 0.081098 0.418721
O O1 0.137648 0.895245 0.838990
O O2 0.332313 0.865795 0.894040
O O3 0.256034 0.000000 0.899358
O O4 0.199047 0.909268 0.027146
O O5 0.749311 0.092691 0.689374
O O6 0.876040 0.191299 0.677143
O O7 0.000000 0.087847 0.695015
O O8 0.500000 0.892196 0.683006
O O9 0.631532 0.899730 0.533049
O O10 0.613097 0.000000 0.653043
O O11 0.688550 0.813755 0.190834
O O12 0.816124 0.761765 0.322962
O O13 0.864200 0.874339 0.215215
O O14 0.715464 0.877297 0.356972
O O15 0.828808 0.739318 0.510829
O O16 0.000000 0.712825 0.609964
O O17 0.000000 0.719520 0.397303
O O18 0.000000 0.923869 0.088018
O O19 0.843677 0.000000 0.156715
O O20 0.500000 0.094562 0.384564
O O21 0.354143 0.000000 0.411650
#
# Coordination Sequence:
#
# PCOD9375658 Si02
#       8
#     8   8   8   8   8   8   8   8
#     4  11  23  41  63  88 124 170 212 262 321 377
#     4  11  22  39  63  92 124 164 211 261 320 381
#     4   9  19  37  59  86 123 161 200 254 312 368
#     4  12  20  38  66  88 119 165 206 250 317 382
#     4  10  22  39  59  86 124 159 199 260 315 368
#     4  11  24  42  62  92 129 162 208 268 323 380
#     4  10  22  40  62  92 125 159 207 263 315 376
#     4   9  19  36  60  92 126 160 204 258 316 381
#
# _framework density 19.773116999999999
#
# number of rings (size 3 to 8) (size 9 to 14) (size 15 to 20)
#    0.000    1.625    2.500    3.375    0.000    2.250 
#    0.000    0.625    0.000    1.500    0.000    0.000 
#    0.000    0.000    0.000    0.000    0.000    0.000 
#
# Total GULP energy -178147.659800 kJ/mol
# GULP energy per Si atom -5567.114369 kJ/mol
# Density = 1.972811 g / cm^3
# Si number density = 19.773117 Si / 1000 Ang^3
#
#
#
# Elastic Constant Matrix: (Units=GPa)
#
#
# Indices 1 2 3 4 5 6 
#
# 1 103.2364 16.9451 32.7669 0.0000 0.0000 0.0000
# 2 16.9451 61.0511 27.7301 0.0001 0.0000 0.0000
# 3 32.7669 27.7301 80.9090 0.0002 0.0000 0.0000
# 4 0.0000 0.0001 0.0002 32.6967 0.0001 0.0000
# 5 0.0000 0.0000 0.0000 0.0001 36.6494 0.0000
# 6 0.0000 0.0000 0.0000 0.0000 0.0000 22.7314
#
#
#
# Elastic Compliance Matrix: (Units=1/GPa)
#
#
# Indices 1 2 3 4 5 6 
#
# 1 0.011194 -0.001241 -0.004108 0.000000 0.000000 0.000000
# 2 -0.001241 0.019537 -0.006193 0.000000 0.000000 0.000000
# 3 -0.004108 -0.006193 0.016146 0.000000 0.000000 0.000000
# 4 0.000000 0.000000 0.000000 0.030584 0.000000 0.000000
# 5 0.000000 0.000000 0.000000 0.000000 0.027286 0.000000
# 6 0.000000 0.000000 0.000000 0.000000 0.000000 0.043992
#
#
# Mechanical properties :
#
#
# Convention : Reuss Voigt Hill
#
# Bulk Modulus (GPa) = 42.03056 44.45340 43.24198
# Shear Modulus (GPa) = 27.81563 29.59913 28.70738
#
# Velocity S-wave (km/s) = 3.75472 3.87323 3.81443
# Velocity P-wave (km/s) = 6.33244 6.52174 6.42779
#
# Compressibility (1/GPa) = 0.02379221
#
# Stress axis : x y z
#
# Youngs Moduli (GPa) = 89.33271 51.18409 61.93495
#
# Poissons Ratio (x) = 0.06352 0.25443
# Poissons Ratio (y) = 0.11087 0.38359
# Poissons Ratio (z) = 0.36699 0.31701
#
# Static dielectric constant tensor:
#      x y z
#    x 1.719490 0.000000 0.000000 
#    y 0.000000 1.698340 0.000000 
#    z 0.000000 0.000000 1.702290 
# 
# From -- ./inp_files/17928.got.cif
#   From: 2010.05.17/outbox.cif.g08.bks.cpg/sg44_9_cif.got.tgz:17928.got - 2010.06.03 19:37:08.
