data_PCOD9375832
_publ_section_title
;
Structure prediction by ZEFSAII (Michael W. Deem and Ramdas Pophale) SiO2 
 PCOD9375832
Probable space group: I M M 2
;
_chemical_formula_sum "Si O2"
_cell_formula_units_Z 48
_cell_length_a 15.583806
_cell_length_b 8.683295
_cell_length_c 19.515968
_cell_angle_alpha 90.000000
_cell_angle_beta 90.000000
_cell_angle_gamma 90.000000
_cell_volume 2640.877072
_symmetry_space_group_name_H-M "I M M 2"
_symmetry_group_IT_number 44
_symmetry_cell_setting 'orthorhombic'
loop_
_space_group_symop_operation_xyz
x,y,z
-x,-y,z
-x,y,z
x,-y,z
1/2+x,1/2+y,1/2+z
1/2-x,1/2-y,1/2+z
1/2-x,1/2+y,1/2+z
1/2+x,1/2-y,1/2+z
loop_
_atom_site_type_symbol
_atom_site_label
_atom_site_fract_x
_atom_site_fract_y
_atom_site_fract_z
Si Si1 0.500000 0.315890 0.564350
Si Si2 0.000000 0.683094 0.568055
Si Si3 0.845869 0.187270 0.317674
Si Si4 0.000000 0.811525 0.221403
Si Si5 0.150136 0.186072 0.474609
Si Si6 0.350394 0.186176 0.314677
Si Si7 0.348802 0.814768 0.473107
Si Si8 0.500000 0.683021 0.220854
O O1 0.500000 0.500000 0.564741
O O2 0.500000 0.260838 0.642941
O O3 0.583655 0.257990 0.524322
O O4 0.083321 0.740976 0.526568
O O5 0.000000 0.749299 0.644600
O O6 0.000000 0.500000 0.571045
O O7 0.868135 0.232611 0.395676
O O8 0.748286 0.233064 0.301326
O O9 0.915994 0.239236 0.263216
O O10 0.846025 0.000000 0.317934
O O11 0.000000 0.000000 0.221688
O O12 0.249728 0.226822 0.488017
O O13 0.142855 0.000000 0.478277
O O14 0.368873 0.227478 0.394055
O O15 0.417253 0.259457 0.262995
O O16 0.355859 0.000000 0.309663
O O17 0.354788 0.000000 0.477025
O O18 0.500000 0.500000 0.217175
#
# Coordination Sequence:
#
# PCOD9375832 Si02
#       8
#     4   4   8   4   8   8   8   4
#     4  11  22  31  46  77 114 147 182 219 256 310
#     4  12  25  38  54  79 112 148 179 220 276 330
#     4   8  15  31  58  83 104 134 173 217 265 314
#     4   9  17  29  47  77 109 135 166 207 254 308
#     4   9  18  36  61  84 103 133 180 228 270 322
#     4   9  18  35  58  82 103 132 177 224 269 320
#     4   9  19  36  58  80 106 141 180 222 272 326
#     4  12  25  38  53  77 109 146 183 224 272 322
#
# _framework density 18.17578
#
# number of rings (size 3 to 8) (size 9 to 14) (size 15 to 20)
#    0.000    2.500    0.000    4.750    0.000    6.000 
#    0.000    4.167    0.000    5.000    0.000    0.000 
#    0.000    0.000    0.000    0.000    0.000    0.000 
#
# Total GULP energy -133953.516734 kJ/mol
# GULP energy per Si atom -5581.396531 kJ/mol
# Density = 1.813441 g / cm^3
# Si number density = 18.175780 Si / 1000 Ang^3
#
#
#
# Elastic Constant Matrix: (Units=GPa)
#
#
# Indices 1 2 3 4 5 6 
#
# 1 158.0813 51.6657 147.7810 0.0000 0.0000 0.0000
# 2 51.6657 41.7889 55.0736 0.0000 0.0000 0.0000
# 3 147.7810 55.0736 189.0202 0.0000 0.0000 0.0000
# 4 0.0000 0.0000 0.0000 27.8842 0.0000 0.0000
# 5 0.0000 0.0000 0.0000 0.0000 -3.8852 0.0000
# 6 0.0000 0.0000 0.0000 0.0000 0.0000 21.7557
#
#
#
# Elastic Compliance Matrix: (Units=1/GPa)
#
#
# Indices 1 2 3 4 5 6 
#
# 1 0.025212 -0.008430 -0.017255 0.000000 0.000000 0.000000
# 2 -0.008430 0.041665 -0.005549 0.000000 0.000000 0.000000
# 3 -0.017255 -0.005549 0.020398 0.000000 0.000000 0.000000
# 4 0.000000 0.000000 0.000000 0.035863 0.000000 0.000000
# 5 0.000000 0.000000 0.000000 0.000000 -0.257387 0.000000
# 6 0.000000 0.000000 0.000000 0.000000 0.000000 0.045965
#
#
# Mechanical properties :
#
#
# Convention : Reuss Voigt Hill
#
# Bulk Modulus (GPa) = 40.31177 99.77010 70.04093
# Shear Modulus (GPa) = -284.93304 18.10894 -133.41205
#
# Velocity S-wave (km/s) = -12.53418 3.15988 -8.57673
# Velocity P-wave (km/s) = 13.68383 8.26584 7.71113
#
# Compressibility (1/GPa) = 0.02480665
#
# Stress axis : x y z
#
# Youngs Moduli (GPa) = 39.66387 24.00079 49.02546
#
# Poissons Ratio (x) = 0.20233 0.84594
# Poissons Ratio (y) = 0.33438 0.27203
# Poissons Ratio (z) = 0.68440 0.13317
#
# Static dielectric constant tensor:
#      x y z
#    x 1.615490 0.000000 0.000000 
#    y 0.000000 1.618190 0.000000 
#    z 0.000000 0.000000 1.600240 
# 
# From -- ./inp_files/20387.got.cif
#   From: 2010.05.17/outbox.cif.g08.bks.cpg/sg44_11_cif.got.tgz:20387.got - 2010.06.03 19:37:08.
