data_PCOD9375350
_publ_section_title
;
Structure prediction by ZEFSAII (Michael W. Deem and Ramdas Pophale) SiO2 
 PCOD9375350
Probable space group: I M M 2
;
_chemical_formula_sum "Si O2"
_cell_formula_units_Z 56
_cell_length_a 18.978258
_cell_length_b 8.918082
_cell_length_c 17.051509
_cell_angle_alpha 90.000000
_cell_angle_beta 90.000000
_cell_angle_gamma 90.000000
_cell_volume 2885.962119
_symmetry_space_group_name_H-M "I M M 2"
_symmetry_group_IT_number 44
_symmetry_cell_setting 'orthorhombic'
loop_
_space_group_symop_operation_xyz
x,y,z
-x,-y,z
-x,y,z
x,-y,z
1/2+x,1/2+y,1/2+z
1/2-x,1/2-y,1/2+z
1/2-x,1/2+y,1/2+z
1/2+x,1/2-y,1/2+z
loop_
_atom_site_type_symbol
_atom_site_label
_atom_site_fract_x
_atom_site_fract_y
_atom_site_fract_z
Si Si1 0.582337 0.680087 0.157980
Si Si2 0.801112 0.321720 0.759499
Si Si3 0.798133 0.821727 0.929919
Si Si4 0.663745 0.322100 0.997766
Si Si5 0.081521 0.820034 0.047389
Si Si6 0.335500 0.822301 0.691913
Si Si7 0.416734 0.176321 0.855026
O O1 0.500000 0.719680 0.155353
O O2 0.587585 0.500000 0.168847
O O3 0.625153 0.761833 0.226066
O O4 0.620544 0.717245 0.075865
O O5 0.798530 0.500000 0.760109
O O6 0.789274 0.258210 0.846688
O O7 0.739317 0.257041 0.704264
O O8 0.737217 0.764207 0.988065
O O9 0.791146 0.000000 0.918821
O O10 0.873244 0.788241 0.969500
O O11 0.676830 0.500000 0.998110
O O12 0.617659 0.275881 0.922445
O O13 0.120419 0.741586 0.119680
O O14 0.000000 0.774468 0.041693
O O15 0.084005 0.000000 0.059356
O O16 0.379549 0.796732 0.771838
O O17 0.324451 0.000000 0.682416
O O18 0.500000 0.203222 0.848927
O O19 0.405741 0.000000 0.874634
#
# Coordination Sequence:
#
# PCOD9375350 Si02
#       7
#     8   8   8   8   8   8   8
#     4  10  23  43  65  91 126 167 207 251 309 372
#     4  12  25  41  64  94 124 161 210 261 311 363
#     4  11  23  41  64  90 123 166 210 254 309 371
#     4  11  22  38  62  92 123 159 206 255 304 363
#     4  10  23  42  64  92 125 162 206 256 310 367
#     4  11  22  39  63  91 125 165 207 250 304 369
#     4  10  21  36  57  87 124 165 204 246 302 366
#
# _framework density 19.404274000000001
#
# number of rings (size 3 to 8) (size 9 to 14) (size 15 to 20)
#    0.000    1.286    1.429    4.286    0.000    7.714 
#    0.000    1.429    0.000    0.000    0.000    0.000 
#    0.000    0.000    0.000    0.000    0.000    0.000 
#
# Total GULP energy -156629.157000 kJ/mol
# GULP energy per Si atom -5593.898464 kJ/mol
# Density = 1.936011 g / cm^3
# Si number density = 19.404274 Si / 1000 Ang^3
#
#
#
# Elastic Constant Matrix: (Units=GPa)
#
#
# Indices 1 2 3 4 5 6 
#
# 1 152.6132 51.4157 42.0636 0.0000 0.0000 0.0000
# 2 51.4157 43.3060 24.4109 0.0000 0.0000 0.0000
# 3 42.0636 24.4109 40.5482 0.0000 0.0000 0.0000
# 4 0.0000 0.0000 0.0000 31.8140 0.0000 0.0000
# 5 0.0000 0.0000 0.0000 0.0000 24.4958 0.0000
# 6 0.0000 0.0000 0.0000 0.0000 0.0000 30.2634
#
#
#
# Elastic Compliance Matrix: (Units=1/GPa)
#
#
# Indices 1 2 3 4 5 6 
#
# 1 0.011740 -0.010707 -0.005733 0.000000 0.000000 0.000000
# 2 -0.010707 0.044717 -0.015814 0.000000 0.000000 0.000000
# 3 -0.005733 -0.015814 0.040129 0.000000 0.000000 0.000000
# 4 0.000000 0.000000 0.000000 0.031433 0.000000 0.000000
# 5 0.000000 0.000000 0.000000 0.000000 0.040823 0.000000
# 6 0.000000 0.000000 0.000000 0.000000 0.000000 0.033043
#
#
# Mechanical properties :
#
#
# Convention : Reuss Voigt Hill
#
# Bulk Modulus (GPa) = 31.17254 52.47196 41.82225
# Shear Modulus (GPa) = 18.04500 25.21981 21.63240
#
# Velocity S-wave (km/s) = 3.05282 3.60905 3.34252
# Velocity P-wave (km/s) = 5.34096 6.66837 6.04124
#
# Compressibility (1/GPa) = 0.03207951
#
# Stress axis : x y z
#
# Youngs Moduli (GPa) = 85.18115 22.36284 24.91938
#
# Poissons Ratio (x) = 0.23943 0.14286
# Poissons Ratio (y) = 0.91200 0.39407
# Poissons Ratio (z) = 0.48833 0.35364
#
# Static dielectric constant tensor:
#      x y z
#    x 1.673000 0.000000 0.000000 
#    y 0.000000 1.649570 0.000000 
#    z 0.000000 0.000000 1.649190 
# 
# From -- ./inp_files/19205.got.cif
#   From: 2010.05.17/outbox.cif.g08.bks.cpg/sg44_10_cif.got.tgz:19205.got - 2010.06.03 19:37:08.
