data_PCOD9375396
_publ_section_title
;
Structure prediction by ZEFSAII (Michael W. Deem and Ramdas Pophale) SiO2 
 PCOD9375396
Probable space group: I M M 2
;
_chemical_formula_sum "Si O2"
_cell_formula_units_Z 64
_cell_length_a 15.910368
_cell_length_b 7.868480
_cell_length_c 24.606498
_cell_angle_alpha 90.000000
_cell_angle_beta 90.000000
_cell_angle_gamma 90.000000
_cell_volume 3080.497632
_symmetry_space_group_name_H-M "I M M 2"
_symmetry_group_IT_number 44
_symmetry_cell_setting 'orthorhombic'
loop_
_space_group_symop_operation_xyz
x,y,z
-x,-y,z
-x,y,z
x,-y,z
1/2+x,1/2+y,1/2+z
1/2-x,1/2-y,1/2+z
1/2-x,1/2+y,1/2+z
1/2+x,1/2-y,1/2+z
loop_
_atom_site_type_symbol
_atom_site_label
_atom_site_fract_x
_atom_site_fract_y
_atom_site_fract_z
Si Si1 0.593580 0.794503 0.186900
Si Si2 0.905505 0.292169 0.182756
Si Si3 0.667974 0.799038 0.798435
Si Si4 0.250082 0.795944 0.611091
Si Si5 0.407368 0.301466 0.425731
Si Si6 0.406518 0.293999 0.912018
Si Si7 0.258170 0.701024 0.988869
Si Si8 0.858447 0.303107 0.806847
O O1 0.500000 0.740719 0.169525
O O2 0.667950 0.739115 0.147221
O O3 0.610040 0.734678 0.248832
O O4 0.595534 0.000000 0.188518
O O5 0.906077 0.500000 0.181788
O O6 0.877970 0.242233 0.243553
O O7 0.833364 0.232042 0.141805
O O8 0.000000 0.235303 0.170244
O O9 0.612353 0.767451 0.851305
O O10 0.757504 0.709487 0.805924
O O11 0.685372 0.000000 0.793386
O O12 0.243240 0.728031 0.549850
O O13 0.258930 0.000000 0.607905
O O14 0.500000 0.230275 0.438455
O O15 0.406999 0.500000 0.439431
O O16 0.330219 0.221176 0.458177
O O17 0.391501 0.284247 0.361196
O O18 0.500000 0.243107 0.929434
O O19 0.403223 0.500000 0.910941
O O20 0.333059 0.228875 0.951438
O O21 0.274688 0.500000 0.993834
O O22 0.884045 0.500000 0.810739
#
# Coordination Sequence:
#
# PCOD9375396 Si02
#       8
#     8   8   8   8   8   8   8   8
#     4  10  22  39  59  85 118 155 192 234 289 349
#     4   9  18  33  54  82 116 148 181 229 284 337
#     4  11  20  33  57  86 116 148 187 235 290 350
#     4  10  21  38  60  86 114 149 197 243 284 333
#     4  11  24  40  60  88 120 153 191 239 293 348
#     4  10  21  37  56  81 115 152 192 237 285 342
#     4  10  22  39  60  85 115 155 197 239 288 339
#     4  11  21  36  60  87 118 154 192 237 292 353
#
# _framework density 20.775863000000001
#
# number of rings (size 3 to 8) (size 9 to 14) (size 15 to 20)
#    0.000    1.750    2.500    1.875    0.000    4.500 
#    0.000    2.500    0.000    1.125    0.000    0.000 
#    0.000    0.000    0.000    0.000    0.000    0.000 
#
# Total GULP energy -178806.862657 kJ/mol
# GULP energy per Si atom -5587.714458 kJ/mol
# Density = 2.072858 g / cm^3
# Si number density = 20.775863 Si / 1000 Ang^3
#
#
#
# Elastic Constant Matrix: (Units=GPa)
#
#
# Indices 1 2 3 4 5 6 
#
# 1 143.5805 -8.6821 54.2640 0.0000 0.0000 0.0000
# 2 -8.6821 22.5808 -1.3183 0.0000 0.0000 0.0000
# 3 54.2640 -1.3183 137.8393 0.0000 0.0000 0.0000
# 4 0.0000 0.0000 0.0000 19.0711 0.0000 0.0000
# 5 0.0000 0.0000 0.0000 0.0000 -1.7827 0.0000
# 6 0.0000 0.0000 0.0000 0.0000 0.0000 19.6919
#
#
#
# Elastic Compliance Matrix: (Units=1/GPa)
#
#
# Indices 1 2 3 4 5 6 
#
# 1 0.008385 0.003033 -0.003272 0.000000 0.000000 0.000000
# 2 0.003033 0.045407 -0.000760 0.000000 0.000000 0.000000
# 3 -0.003272 -0.000760 0.008536 0.000000 0.000000 0.000000
# 4 0.000000 0.000000 0.000000 0.052435 0.000000 0.000000
# 5 0.000000 0.000000 0.000000 0.000000 -0.560944 0.000000
# 6 0.000000 0.000000 0.000000 0.000000 0.000000 0.050782
#
#
# Mechanical properties :
#
#
# Convention : Reuss Voigt Hill
#
# Bulk Modulus (GPa) = 16.57550 43.61420 30.09485
# Shear Modulus (GPa) = -13.39434 24.71187 5.65877
#
# Velocity S-wave (km/s) = -2.54186 3.45258 1.65216
# Velocity P-wave (km/s) = 0.78688 6.07718 4.26104
#
# Compressibility (1/GPa) = 0.06032999
#
# Stress axis : x y z
#
# Youngs Moduli (GPa) = 119.26546 22.02298 117.15637
#
# Poissons Ratio (x) = -0.06679 0.38332
# Poissons Ratio (y) = -0.36171 0.08900
# Poissons Ratio (z) = 0.39022 0.01673
#
# Static dielectric constant tensor:
#      x y z
#    x 1.731860 0.000000 0.000000 
#    y 0.000000 1.766110 0.000000 
#    z 0.000000 0.000000 1.717870 
# 
# From -- ./inp_files/25101.got.cif
#   From: 2010.05.17/outbox.cif.g08.bks.cpg/sg44_13_cif.got.tgz:25101.got - 2010.06.03 19:37:08.
