data_PCOD9375033
_publ_section_title
;
Structure prediction by ZEFSAII (Michael W. Deem and Ramdas Pophale) SiO2 
 PCOD9375033
Probable space group: I M M 2
;
_chemical_formula_sum "Si O2"
_cell_formula_units_Z 48
_cell_length_a 17.351087
_cell_length_b 8.529871
_cell_length_c 17.352968
_cell_angle_alpha 90.000000
_cell_angle_beta 90.000000
_cell_angle_gamma 90.000000
_cell_volume 2568.283233
_symmetry_space_group_name_H-M "I M M 2"
_symmetry_group_IT_number 44
_symmetry_cell_setting 'orthorhombic'
loop_
_space_group_symop_operation_xyz
x,y,z
-x,-y,z
-x,y,z
x,-y,z
1/2+x,1/2+y,1/2+z
1/2-x,1/2-y,1/2+z
1/2-x,1/2+y,1/2+z
1/2+x,1/2-y,1/2+z
loop_
_atom_site_type_symbol
_atom_site_label
_atom_site_fract_x
_atom_site_fract_y
_atom_site_fract_z
Si Si1 0.149507 0.809654 0.068560
Si Si2 0.676980 0.811753 0.098211
Si Si3 0.500000 0.690484 0.662758
Si Si4 0.814057 0.810143 0.896567
Si Si5 0.500000 0.813401 0.836502
Si Si6 0.146038 0.813226 0.429762
Si Si7 0.588981 0.310314 0.247525
O O1 0.232915 0.761993 0.101655
O O2 0.076554 0.755503 0.117450
O O3 0.147809 0.000000 0.069788
O O4 0.148734 0.762932 0.978632
O O5 0.630187 0.752133 0.171255
O O6 0.674847 0.000000 0.095065
O O7 0.644061 0.746653 0.017888
O O8 0.500000 0.500000 0.663089
O O9 0.500000 0.748304 0.749907
O O10 0.727702 0.743988 0.895588
O O11 0.864327 0.760243 0.823622
O O12 0.809192 0.000000 0.896492
O O13 0.424607 0.754126 0.881389
O O14 0.500000 0.000000 0.834800
O O15 0.143013 0.000000 0.428903
O O16 0.500000 0.259960 0.250842
O O17 0.590165 0.500000 0.245650
#
# Coordination Sequence:
#
# PCOD9375033 Si02
#       7
#     8   8   4   8   4   8   8
#     4   8  17  34  59  86 115 152 196 240 289 344
#     4  10  21  39  60  86 119 159 199 242 297 355
#     4  10  20  36  60  91 120 155 198 241 282 345
#     4   9  19  38  61  89 121 157 195 243 298 351
#     4  12  26  42  60  87 120 155 192 245 304 355
#     4  11  23  41  64  88 115 154 199 246 296 357
#     4  10  22  37  58  89 123 157 199 246 294 349
#
# _framework density 18.689527999999999
#
# number of rings (size 3 to 8) (size 9 to 14) (size 15 to 20)
#    0.000    2.167    0.000    3.750    4.667    1.000 
#    0.000    3.333    0.000    0.000    0.000    0.000 
#    0.000    0.000    0.000    0.000    0.000    0.000 
#
# Total GULP energy -134037.466294 kJ/mol
# GULP energy per Si atom -5584.894429 kJ/mol
# Density = 1.864699 g / cm^3
# Si number density = 18.689528 Si / 1000 Ang^3
#
#
#
# Elastic Constant Matrix: (Units=GPa)
#
#
# Indices 1 2 3 4 5 6 
#
# 1 180.0712 44.1944 154.3831 0.0000 0.0000 0.0000
# 2 44.1944 45.3246 42.9292 0.0000 0.0000 0.0000
# 3 154.3831 42.9292 182.2012 0.0000 0.0000 0.0000
# 4 0.0000 0.0000 0.0000 26.3219 0.0000 0.0000
# 5 0.0000 0.0000 0.0000 0.0000 31.0712 0.0000
# 6 0.0000 0.0000 0.0000 0.0000 0.0000 21.2686
#
#
#
# Elastic Compliance Matrix: (Units=1/GPa)
#
#
# Indices 1 2 3 4 5 6 
#
# 1 0.021043 -0.004673 -0.016729 0.000000 0.000000 0.000000
# 2 -0.004673 0.029439 -0.002977 0.000000 0.000000 0.000000
# 3 -0.016729 -0.002977 0.020364 0.000000 0.000000 0.000000
# 4 0.000000 0.000000 0.000000 0.037991 0.000000 0.000000
# 5 0.000000 0.000000 0.000000 0.000000 0.032184 0.000000
# 6 0.000000 0.000000 0.000000 0.000000 0.000000 0.047018
#
#
# Mechanical properties :
#
#
# Convention : Reuss Voigt Hill
#
# Bulk Modulus (GPa) = 45.27153 98.95671 72.11412
# Shear Modulus (GPa) = 20.47844 26.80503 23.64173
#
# Velocity S-wave (km/s) = 3.31375 3.79123 3.56050
# Velocity P-wave (km/s) = 6.23833 8.49866 7.45466
#
# Compressibility (1/GPa) = 0.02208894
#
# Stress axis : x y z
#
# Youngs Moduli (GPa) = 47.52250 33.96858 49.10518
#
# Poissons Ratio (x) = 0.15874 0.82147
# Poissons Ratio (y) = 0.22208 0.14616
# Poissons Ratio (z) = 0.79500 0.10111
#
# Static dielectric constant tensor:
#      x y z
#    x 1.628850 0.000000 0.000000 
#    y 0.000000 1.637400 0.000000 
#    z 0.000000 0.000000 1.616050 
# 
# From -- ./inp_files/16200.got.cif
#   From: 2010.05.17/outbox.cif.g08.bks.cpg/sg44_9_cif.got.tgz:16200.got - 2010.06.03 19:37:08.
