data_PCOD9375415
_publ_section_title
;
Structure prediction by ZEFSAII (Michael W. Deem and Ramdas Pophale) SiO2 
 PCOD9375415
Probable space group: I M M 2
;
_chemical_formula_sum "Si O2"
_cell_formula_units_Z 40
_cell_length_a 28.677916
_cell_length_b 9.044179
_cell_length_c 7.980794
_cell_angle_alpha 90.000000
_cell_angle_beta 90.000000
_cell_angle_gamma 90.000000
_cell_volume 2069.964219
_symmetry_space_group_name_H-M "I M M 2"
_symmetry_group_IT_number 44
_symmetry_cell_setting 'orthorhombic'
loop_
_space_group_symop_operation_xyz
x,y,z
-x,-y,z
-x,y,z
x,-y,z
1/2+x,1/2+y,1/2+z
1/2-x,1/2-y,1/2+z
1/2-x,1/2+y,1/2+z
1/2+x,1/2-y,1/2+z
loop_
_atom_site_type_symbol
_atom_site_label
_atom_site_fract_x
_atom_site_fract_y
_atom_site_fract_z
Si Si1 0.299454 0.675667 0.699750
Si Si2 0.902480 0.324848 0.694934
Si Si3 0.110065 0.677343 0.323255
Si Si4 0.698097 0.825521 0.343815
Si Si5 0.944630 0.826679 0.018090
O O1 0.306035 0.500000 0.712403
O O2 0.337794 0.758409 0.810819
O O3 0.306911 0.730095 0.510663
O O4 0.246660 0.711126 0.754089
O O5 0.912402 0.500000 0.713946
O O6 0.911928 0.281565 0.503017
O O7 0.847278 0.304090 0.729626
O O8 0.929357 0.236954 0.838291
O O9 0.111887 0.500000 0.313545
O O10 0.081857 0.741258 0.166161
O O11 0.699347 0.000000 0.389886
O O12 0.000000 0.809958 0.038166
O O13 0.932599 0.000000 0.027616
#
# Coordination Sequence:
#
# PCOD9375415 Si02
#       5
#     8   8   8   8   8
#     4  11  22  36  58  90 126 167 213 257 311 371
#     4  10  22  41  65  92 125 166 210 259 313 375
#     4  11  23  41  65  93 128 167 211 260 313 377
#     4  10  21  37  57  86 125 166 208 257 312 371
#     4  11  25  44  66  94 127 164 210 266 325 380
#
# _framework density 19.324005
#
# number of rings (size 3 to 8) (size 9 to 14) (size 15 to 20)
#    0.000    1.400    2.000    3.000    0.000    7.200 
#    0.000    4.000    0.000    0.000    0.000    0.000 
#    0.000    0.000    0.000    0.000    0.000    0.000 
#
# Total GULP energy -111804.521836 kJ/mol
# GULP energy per Si atom -5590.226092 kJ/mol
# Density = 1.928002 g / cm^3
# Si number density = 19.324005 Si / 1000 Ang^3
#
#
#
# Elastic Constant Matrix: (Units=GPa)
#
#
# Indices 1 2 3 4 5 6 
#
# 1 44.6996 28.7246 5.6898 0.0000 0.0000 0.0000
# 2 28.7246 60.3071 43.0976 0.0000 0.0000 0.0000
# 3 5.6898 43.0976 100.0763 0.0000 0.0000 0.0000
# 4 0.0000 0.0000 0.0000 16.4082 0.0000 0.0000
# 5 0.0000 0.0000 0.0000 0.0000 23.8687 0.0000
# 6 0.0000 0.0000 0.0000 0.0000 0.0000 23.2695
#
#
#
# Elastic Compliance Matrix: (Units=1/GPa)
#
#
# Indices 1 2 3 4 5 6 
#
# 1 0.035920 -0.022606 0.007693 0.000000 0.000000 0.000000
# 2 -0.022606 0.038181 -0.015157 0.000000 0.000000 0.000000
# 3 0.007693 -0.015157 0.016082 0.000000 0.000000 0.000000
# 4 0.000000 0.000000 0.000000 0.060945 0.000000 0.000000
# 5 0.000000 0.000000 0.000000 0.000000 0.041896 0.000000
# 6 0.000000 0.000000 0.000000 0.000000 0.000000 0.042975
#
#
# Mechanical properties :
#
#
# Convention : Reuss Voigt Hill
#
# Bulk Modulus (GPa) = 33.28671 40.01189 36.64930
# Shear Modulus (GPa) = 16.33163 21.21402 18.77283
#
# Velocity S-wave (km/s) = 2.91030 3.31691 3.12023
# Velocity P-wave (km/s) = 5.34379 5.95147 5.65579
#
# Compressibility (1/GPa) = 0.03004202
#
# Stress axis : x y z
#
# Youngs Moduli (GPa) = 27.84002 26.19077 62.17948
#
# Poissons Ratio (x) = 0.59208 -0.47836
# Poissons Ratio (y) = 0.62937 0.94248
# Poissons Ratio (z) = -0.21418 0.39698
#
# Static dielectric constant tensor:
#      x y z
#    x 1.676790 0.000000 0.000000 
#    y 0.000000 1.646620 0.000000 
#    z 0.000000 0.000000 1.655910 
# 
# From -- ./inp_files/4596.got.cif
#   From: 2010.05.17/outbox.cif.g08.bks.cpg/sg44_3_cif.got.tgz:4596.got - 2010.06.03 19:37:08.
