data_PCOD9375353
_publ_section_title
;
Structure prediction by ZEFSAII (Michael W. Deem and Ramdas Pophale) SiO2 
 PCOD9375353
Probable space group: I M M 2
;
_chemical_formula_sum "Si O2"
_cell_formula_units_Z 64
_cell_length_a 14.281595
_cell_length_b 9.058324
_cell_length_c 24.453943
_cell_angle_alpha 90.000000
_cell_angle_beta 90.000000
_cell_angle_gamma 90.000000
_cell_volume 3163.540941
_symmetry_space_group_name_H-M "I M M 2"
_symmetry_group_IT_number 44
_symmetry_cell_setting 'orthorhombic'
loop_
_space_group_symop_operation_xyz
x,y,z
-x,-y,z
-x,y,z
x,-y,z
1/2+x,1/2+y,1/2+z
1/2-x,1/2-y,1/2+z
1/2-x,1/2+y,1/2+z
1/2+x,1/2-y,1/2+z
loop_
_atom_site_type_symbol
_atom_site_label
_atom_site_fract_x
_atom_site_fract_y
_atom_site_fract_z
Si Si1 0.110138 0.177885 0.165870
Si Si2 0.694901 0.822260 0.559190
Si Si3 0.888751 0.175396 0.290934
Si Si4 0.259174 0.330675 0.366159
Si Si5 0.110993 0.338566 0.660773
Si Si6 0.103007 0.174865 0.550422
Si Si7 0.110274 0.834505 0.761296
Si Si8 0.395982 0.177366 0.448951
O O1 0.170843 0.247637 0.117072
O O2 0.132785 0.226032 0.228361
O O3 0.000000 0.213855 0.156623
O O4 0.118553 0.000000 0.164396
O O5 0.794460 0.774505 0.531499
O O6 0.618020 0.789540 0.513152
O O7 0.698865 0.000000 0.567228
O O8 0.830526 0.254509 0.338378
O O9 0.000000 0.196263 0.298463
O O10 0.869590 0.000000 0.293243
O O11 0.238589 0.500000 0.380933
O O12 0.334711 0.328909 0.317160
O O13 0.311786 0.247606 0.414842
O O14 0.147590 0.500000 0.644149
O O15 0.115018 0.216119 0.614156
O O16 0.149361 0.282008 0.717921
O O17 0.000000 0.353818 0.669791
O O18 0.000000 0.236198 0.533300
O O19 0.098403 0.000000 0.541733
O O20 0.000000 0.808999 0.770899
O O21 0.119287 0.000000 0.737695
O O22 0.500000 0.226697 0.431000
O O23 0.391235 0.000000 0.442751
#
# Coordination Sequence:
#
# PCOD9375353 Si02
#       8
#     8   8   8   8   8   8   8   8
#     4   9  19  36  58  86 119 153 190 237 295 355
#     4  10  21  36  58  86 115 153 203 249 291 342
#     4   9  20  40  62  85 118 157 196 241 294 356
#     4  11  23  37  58  86 115 149 193 243 296 350
#     4   9  17  28  44  69 101 138 180 223 267 319
#     4   9  18  33  51  73 108 150 187 227 277 334
#     4   9  18  32  48  70 105 145 182 222 273 334
#     4  10  22  41  62  85 117 154 194 246 302 356
#
# _framework density 20.230495000000001
#
# number of rings (size 3 to 8) (size 9 to 14) (size 15 to 20)
#    0.000    2.500    0.000    2.250    1.750    5.750 
#    0.000    3.125    0.000    2.250    0.000    0.000 
#    0.000    0.000    0.000    0.000    0.000    0.000 
#
# Total GULP energy -178302.059412 kJ/mol
# GULP energy per Si atom -5571.939357 kJ/mol
# Density = 2.018445 g / cm^3
# Si number density = 20.230495 Si / 1000 Ang^3
#
#
#
# Elastic Constant Matrix: (Units=GPa)
#
#
# Indices 1 2 3 4 5 6 
#
# 1 115.2468 27.0144 30.2908 0.0000 0.0000 0.0000
# 2 27.0144 23.8525 25.4047 0.0000 0.0000 0.0000
# 3 30.2908 25.4047 67.3999 0.0000 0.0000 0.0000
# 4 0.0000 0.0000 0.0000 20.2434 0.0000 0.0000
# 5 0.0000 0.0000 0.0000 0.0000 20.6398 0.0000
# 6 0.0000 0.0000 0.0000 0.0000 0.0000 22.0400
#
#
#
# Elastic Compliance Matrix: (Units=1/GPa)
#
#
# Indices 1 2 3 4 5 6 
#
# 1 0.011821 -0.012914 -0.000445 0.000000 0.000000 0.000000
# 2 -0.012914 0.084152 -0.025915 0.000000 0.000000 0.000000
# 3 -0.000445 -0.025915 0.024805 0.000000 0.000000 0.000000
# 4 0.000000 0.000000 0.000000 0.049399 0.000000 0.000000
# 5 0.000000 0.000000 0.000000 0.000000 0.048450 0.000000
# 6 0.000000 0.000000 0.000000 0.000000 0.000000 0.045372
#
#
# Mechanical properties :
#
#
# Convention : Reuss Voigt Hill
#
# Bulk Modulus (GPa) = 23.68013 41.32433 32.50223
# Shear Modulus (GPa) = 14.02035 20.83726 17.42880
#
# Velocity S-wave (km/s) = 2.63540 3.21283 2.93834
# Velocity P-wave (km/s) = 4.58160 5.85099 5.25477
#
# Compressibility (1/GPa) = 0.04222950
#
# Stress axis : x y z
#
# Youngs Moduli (GPa) = 84.59428 11.88322 40.31470
#
# Poissons Ratio (x) = 0.15346 0.01794
# Poissons Ratio (y) = 1.09247 1.04476
# Poissons Ratio (z) = 0.03764 0.30796
#
# Static dielectric constant tensor:
#      x y z
#    x 1.787170 0.000000 0.000000 
#    y 0.000000 1.727320 0.000000 
#    z 0.000000 0.000000 1.680330 
# 
# From -- ./inp_files/25192.got.cif
#   From: 2010.05.17/outbox.cif.g08.bks.cpg/sg44_13_cif.got.tgz:25192.got - 2010.06.03 19:37:08.
