data_PCOD9375989
_publ_section_title
;
Structure prediction by ZEFSAII (Michael W. Deem and Ramdas Pophale) SiO2 
 PCOD9375989
Probable space group: I M M 2
;
_chemical_formula_sum "Si O2"
_cell_formula_units_Z 32
_cell_length_a 9.000000
_cell_length_b 15.000000
_cell_length_c 24.000000
_cell_angle_alpha 90.000000
_cell_angle_beta 90.000000
_cell_angle_gamma 90.000000
_cell_volume 3240.000000
_symmetry_space_group_name_H-M "I M M 2"
_symmetry_group_IT_number 44
_symmetry_cell_setting 'orthorhombic'
loop_
_space_group_symop_operation_xyz
x,y,z
-x,-y,z
-x,y,z
x,-y,z
1/2+x,1/2+y,1/2+z
1/2-x,1/2-y,1/2+z
1/2-x,1/2+y,1/2+z
1/2+x,1/2-y,1/2+z
loop_
_atom_site_type_symbol
_atom_site_label
_atom_site_fract_x
_atom_site_fract_y
_atom_site_fract_z
Si Si1 0.177906 0.895483 0.073070
Si Si2 0.330623 0.140937 0.955135
Si Si3 0.838097 0.603887 0.022094
Si Si4 0.177262 0.902468 0.841875
Si Si5 0.820814 0.778226 0.300331
Si Si6 0.824101 0.895440 0.632314
Si Si7 0.668303 0.653730 0.916110
Si Si8 0.178600 0.225594 0.177271
O O1 0.227529 0.835498 0.125480
O O2 0.000000 0.883516 0.065905
O O3 0.204259 0.000000 0.084584
O O4 0.258452 0.870757 0.015499
O O5 0.500000 0.107110 0.954727
O O6 0.233643 0.098849 0.905768
O O7 0.337209 0.244617 0.938092
O O8 0.854755 0.500000 0.034120
O O9 0.724399 0.633811 0.069658
O O10 0.000000 0.648418 0.027734
O O11 0.776335 0.609639 0.960153
O O12 0.253155 0.819244 0.811683
O O13 0.000000 0.891537 0.840643
O O14 0.214353 0.000000 0.817672
O O15 0.778245 0.840880 0.352388
O O16 0.780034 0.809817 0.238607
O O17 0.000000 0.770557 0.303977
O O18 0.741799 0.825127 0.671143
O O19 0.000000 0.887351 0.638234
O O20 0.786119 0.000000 0.641781
O O21 0.500000 0.617203 0.918610
O O22 0.000000 0.229724 0.174963
#
# Coordination Sequence:
#
# PCOD9375989 Si02
#       8
#     8   8   8   8   8   8   8   8
#     4  10  21  36  54  78 108 141 178 221 268 316
#     4  10  20  33  52  79 108 136 169 211 259 313
#     4  10  20  33  51  77 106 134 168 211 259 313
#     4  10  20  33  51  77 107 137 169 206 253 311
#     4   9  20  37  54  74 100 133 176 218 256 305
#     4  10  21  36  55  81 112 143 175 214 263 319
#     4   9  18  33  52  75 103 133 167 211 262 313
#     4  10  21  38  58  78 104 141 183 224 264 309
#
# _framework density 9.8765429999999999
#
# number of rings (size 3 to 8) (size 9 to 14) (size 15 to 20)
#    0.000    2.250    0.000    3.375    0.000   10.250 
#    0.000    3.125    0.000    2.250    0.000    0.000 
#    0.000    0.000    0.000    0.000    0.000    0.000 
#
# Total GULP energy -178482.239164 kJ/mol
# GULP energy per Si atom -5577.569974 kJ/mol
# Density = 0.985406 g / cm^3
# Si number density = 9.876543 Si / 1000 Ang^3
#
#
#
# Elastic Constant Matrix: (Units=GPa)
#
#
# Indices 1 2 3 4 5 6 
#
# 1 11.9351 4.8698 3.5519 0.0000 0.0000 0.0000
# 2 4.8698 32.7596 13.7894 0.0000 0.0000 0.0000
# 3 3.5519 13.7894 97.2662 0.0000 0.0000 0.0000
# 4 0.0000 0.0000 0.0000 14.9421 0.0000 0.0000
# 5 0.0000 0.0000 0.0000 0.0000 22.8519 0.0000
# 6 0.0000 0.0000 0.0000 0.0000 0.0000 14.4686
#
#
#
# Elastic Compliance Matrix: (Units=1/GPa)
#
#
# Indices 1 2 3 4 5 6 
#
# 1 0.089394 -0.012671 -0.001468 0.000000 0.000000 0.000000
# 2 -0.012671 0.034258 -0.004394 0.000000 0.000000 0.000000
# 3 -0.001468 -0.004394 0.010958 0.000000 0.000000 0.000000
# 4 0.000000 0.000000 0.000000 0.066925 0.000000 0.000000
# 5 0.000000 0.000000 0.000000 0.000000 0.043760 0.000000
# 6 0.000000 0.000000 0.000000 0.000000 0.000000 0.069115
#
#
# Mechanical properties :
#
#
# Convention : Reuss Voigt Hill
#
# Bulk Modulus (GPa) = 10.25179 20.70923 15.48051
# Shear Modulus (GPa) = 13.02117 18.43584 15.72850
#
# Velocity S-wave (km/s) = 2.57027 3.05833 2.82486
# Velocity P-wave (km/s) = 3.74294 4.79354 4.30044
#
# Compressibility (1/GPa) = 0.09754397
#
# Stress axis : x y z
#
# Youngs Moduli (GPa) = 11.18649 29.18985 91.26067
#
# Poissons Ratio (x) = 0.36985 0.13398
# Poissons Ratio (y) = 0.14174 0.40101
# Poissons Ratio (z) = 0.01642 0.12826
#
# Static dielectric constant tensor:
#      x y z
#    x 1.687380 0.000000 0.000000 
#    y 0.000000 1.730800 0.000000 
#    z 0.000000 0.000000 1.706130 
# 
# From -- ./inp_files/23286.got.cif
#   From: 2010.05.17/outbox.ucp.g08.bks.cvg/sg44_12_cif.got.tgz:23286.got - 2010.06.11 16:32:36.
