data_PCOD9375161
_publ_section_title
;
Structure prediction by ZEFSAII (Michael W. Deem and Ramdas Pophale) SiO2 
 PCOD9375161
Probable space group: I M M 2
;
_chemical_formula_sum "Si O2"
_cell_formula_units_Z 64
_cell_length_a 25.582509
_cell_length_b 15.110807
_cell_length_c 7.947432
_cell_angle_alpha 90.000000
_cell_angle_beta 90.000000
_cell_angle_gamma 90.000000
_cell_volume 3072.257513
_symmetry_space_group_name_H-M "I M M 2"
_symmetry_group_IT_number 44
_symmetry_cell_setting 'orthorhombic'
loop_
_space_group_symop_operation_xyz
x,y,z
-x,-y,z
-x,y,z
x,-y,z
1/2+x,1/2+y,1/2+z
1/2-x,1/2-y,1/2+z
1/2-x,1/2+y,1/2+z
1/2+x,1/2-y,1/2+z
loop_
_atom_site_type_symbol
_atom_site_label
_atom_site_fract_x
_atom_site_fract_y
_atom_site_fract_z
Si Si1 0.414505 0.227392 0.609740
Si Si2 0.640132 0.831842 0.090627
Si Si3 0.661813 0.400124 0.327832
Si Si4 0.144642 0.897261 0.207440
Si Si5 0.554810 0.094519 0.874968
Si Si6 0.440185 0.301300 0.256205
Si Si7 0.824323 0.393273 0.956850
Si Si8 0.290086 0.683455 0.008938
O O1 0.398586 0.321014 0.692156
O O2 0.445766 0.172823 0.744112
O O3 0.441037 0.248310 0.432344
O O4 0.365531 0.163194 0.566384
O O5 0.594723 0.758299 0.130737
O O6 0.659633 0.875089 0.262947
O O7 0.687791 0.783410 0.994039
O O8 0.607347 0.899072 0.980437
O O9 0.674549 0.500000 0.283378
O O10 0.673122 0.386232 0.525323
O O11 0.599832 0.381965 0.296833
O O12 0.693022 0.338931 0.200258
O O13 0.178925 0.874165 0.369796
O O14 0.127328 0.000000 0.214515
O O15 0.500000 0.098494 0.976786
O O16 0.555239 0.000000 0.784697
O O17 0.500000 0.320958 0.205083
O O18 0.822616 0.500000 0.988661
O O19 0.769297 0.344291 0.986386
#
# Coordination Sequence:
#
# PCOD9375161 Si02
#       8
#     8   8   8   8   8   8   8   8
#     4  10  21  39  58  88 123 160 204 263 314 370
#     4  10  22  39  60  87 123 158 205 263 310 377
#     4   9  19  35  57  88 121 155 205 251 298 367
#     4  10  20  38  63  89 123 165 210 255 310 374
#     4  11  22  38  62  89 119 161 207 257 323 387
#     4   9  18  34  57  82 111 155 199 242 309 366
#     4  11  24  41  62  90 127 167 211 261 319 378
#     4  11  22  40  64  88 123 170 204 256 315 374
#
# _framework density 20.831586999999999
#
# number of rings (size 3 to 8) (size 9 to 14) (size 15 to 20)
#    0.000    1.875    1.250    3.375    1.750    0.250 
#    2.250    0.000    0.000    7.125    0.000    0.000 
#    0.000    0.000    0.000    0.000    0.000    0.000 
#
# Total GULP energy -178383.217180 kJ/mol
# GULP energy per Si atom -5574.475537 kJ/mol
# Density = 2.078417 g / cm^3
# Si number density = 20.831587 Si / 1000 Ang^3
#
#
#
# Elastic Constant Matrix: (Units=GPa)
#
#
# Indices 1 2 3 4 5 6 
#
# 1 113.0211 40.0310 20.4697 0.0000 0.0000 0.0000
# 2 40.0310 109.7505 23.1580 0.0000 0.0000 0.0000
# 3 20.4697 23.1580 53.2816 0.0000 0.0000 0.0000
# 4 0.0000 0.0000 0.0000 30.6939 0.0000 0.0000
# 5 0.0000 0.0000 0.0000 0.0000 11.5109 0.0000
# 6 0.0000 0.0000 0.0000 0.0000 0.0000 14.6307
#
#
#
# Elastic Compliance Matrix: (Units=1/GPa)
#
#
# Indices 1 2 3 4 5 6 
#
# 1 0.010479 -0.003273 -0.002603 0.000000 0.000000 0.000000
# 2 -0.003273 0.011054 -0.003547 0.000000 0.000000 0.000000
# 3 -0.002603 -0.003547 0.021310 0.000000 0.000000 0.000000
# 4 0.000000 0.000000 0.000000 0.032580 0.000000 0.000000
# 5 0.000000 0.000000 0.000000 0.000000 0.086874 0.000000
# 6 0.000000 0.000000 0.000000 0.000000 0.000000 0.068350
#
#
# Mechanical properties :
#
#
# Convention : Reuss Voigt Hill
#
# Bulk Modulus (GPa) = 41.67300 49.26341 45.46820
# Shear Modulus (GPa) = 19.41821 24.19339 21.80580
#
# Velocity S-wave (km/s) = 3.05643 3.41160 3.23889
# Velocity P-wave (km/s) = 5.70121 6.26246 5.98842
#
# Compressibility (1/GPa) = 0.02399636
#
# Stress axis : x y z
#
# Youngs Moduli (GPa) = 95.43313 90.46724 46.92637
#
# Poissons Ratio (x) = 0.29607 0.12216
# Poissons Ratio (y) = 0.31232 0.16645
# Poissons Ratio (z) = 0.24843 0.32089
#
# Static dielectric constant tensor:
#      x y z
#    x 1.766710 0.000000 0.000000 
#    y 0.000000 1.753390 0.000000 
#    z 0.000000 0.000000 1.756140 
# 
# From -- ./inp_files/9467.got.cif
#   From: 2010.05.17/outbox.cif.g08.bks.cpg/sg44_5_cif.got.tgz:9467.got - 2010.06.03 19:37:08.
