data_PCOD9375153
_publ_section_title
;
Structure prediction by ZEFSAII (Michael W. Deem and Ramdas Pophale) SiO2 
 PCOD9375153
Probable space group: I M M 2
;
_chemical_formula_sum "Si O2"
_cell_formula_units_Z 48
_cell_length_a 7.659303
_cell_length_b 28.401514
_cell_length_c 9.845225
_cell_angle_alpha 90.000000
_cell_angle_beta 90.000000
_cell_angle_gamma 90.000000
_cell_volume 2141.688910
_symmetry_space_group_name_H-M "I M M 2"
_symmetry_group_IT_number 44
_symmetry_cell_setting 'orthorhombic'
loop_
_space_group_symop_operation_xyz
x,y,z
-x,-y,z
-x,y,z
x,-y,z
1/2+x,1/2+y,1/2+z
1/2-x,1/2-y,1/2+z
1/2-x,1/2+y,1/2+z
1/2+x,1/2-y,1/2+z
loop_
_atom_site_type_symbol
_atom_site_label
_atom_site_fract_x
_atom_site_fract_y
_atom_site_fract_z
Si Si1 0.205514 0.807390 0.023420
Si Si2 0.205297 0.127568 0.433264
Si Si3 0.288450 0.411665 0.445283
Si Si4 0.287027 0.550381 0.731136
Si Si5 0.711763 0.724660 0.822914
Si Si6 0.202507 0.552594 0.151081
O O1 0.271763 0.786040 0.167604
O O2 0.000000 0.815026 0.048740
O O3 0.274394 0.858646 0.979304
O O4 0.226674 0.771490 0.898791
O O5 0.280518 0.094060 0.316507
O O6 0.272258 0.180398 0.416275
O O7 0.221484 0.096628 0.568080
O O8 0.000000 0.132668 0.405870
O O9 0.500000 0.410591 0.433132
O O10 0.242529 0.442946 0.574972
O O11 0.218953 0.434163 0.308346
O O12 0.500000 0.551045 0.739920
O O13 0.227495 0.500000 0.784783
O O14 0.500000 0.727900 0.821100
O O15 0.278790 0.500000 0.126182
O O16 0.000000 0.550660 0.113516
#
# Coordination Sequence:
#
# PCOD9375153 Si02
#       6
#     8   8   8   8   8   8
#     4  10  22  40  61  88 120 152 192 241 293 348
#     4  10  20  38  62  87 115 149 194 245 289 341
#     4  10  20  38  62  87 115 149 194 245 289 341
#     4   9  16  30  58  89 110 136 181 237 292 339
#     4  10  22  40  61  88 120 152 192 241 293 348
#     4  11  25  41  56  83 124 162 195 237 292 351
#
# _framework density 22.412217999999999
#
# number of rings (size 3 to 8) (size 9 to 14) (size 15 to 20)
#    0.000    2.000    1.667    1.500    2.333    4.667 
#    0.000    0.833    0.000    3.000    0.000    0.000 
#    0.000    0.000    0.000    0.000    0.000    0.000 
#
# Total GULP energy -133996.427276 kJ/mol
# GULP energy per Si atom -5583.184470 kJ/mol
# Density = 2.236121 g / cm^3
# Si number density = 22.412218 Si / 1000 Ang^3
#
#
#
# Elastic Constant Matrix: (Units=GPa)
#
#
# Indices 1 2 3 4 5 6 
#
# 1 37.4770 0.0783 -10.3124 0.0000 0.0000 0.0000
# 2 0.0783 109.5907 -1.0690 -0.0001 0.0001 -0.0001
# 3 -10.3124 -1.0690 67.7909 -0.0004 -0.0001 -0.0004
# 4 0.0000 -0.0001 -0.0004 43.1603 -0.0001 -0.0001
# 5 0.0000 0.0001 -0.0001 -0.0001 -5.0325 -0.0001
# 6 0.0000 -0.0001 -0.0004 -0.0001 -0.0001 46.0983
#
#
#
# Elastic Compliance Matrix: (Units=1/GPa)
#
#
# Indices 1 2 3 4 5 6 
#
# 1 0.027849 0.000021 0.004237 0.000000 0.000000 0.000000
# 2 0.000021 0.009126 0.000147 0.000000 0.000000 0.000000
# 3 0.004237 0.000147 0.015398 0.000000 0.000000 0.000000
# 4 0.000000 0.000000 0.000000 0.023169 0.000000 0.000000
# 5 0.000000 0.000000 0.000000 0.000000 -0.198708 0.000000
# 6 0.000000 0.000000 0.000000 0.000000 0.000000 0.021693
#
#
# Mechanical properties :
#
#
# Convention : Reuss Voigt Hill
#
# Bulk Modulus (GPa) = 16.34420 21.36138 18.85279
# Shear Modulus (GPa) = -55.62403 31.92268 -11.85067
#
# Velocity S-wave (km/s) = -4.98723 3.77814 -2.30197
# Velocity P-wave (km/s) = 5.08478 5.34643 1.16819
#
# Compressibility (1/GPa) = 0.06118377
#
# Stress axis : x y z
#
# Youngs Moduli (GPa) = 35.90822 109.57365 64.94328
#
# Poissons Ratio (x) = -0.00235 -0.27515
# Poissons Ratio (y) = -0.00077 -0.00956
# Poissons Ratio (z) = -0.15213 -0.01613
#
# Static dielectric constant tensor:
#      x y z
#    x 1.876860 0.000000 0.000000 
#    y 0.000000 1.747430 0.000000 
#    z 0.000000 0.000000 1.802710 
# 
# From -- ./inp_files/4901.got.cif
#   From: 2010.05.17/outbox.cif.g08.bks.cpg/sg44_3_cif.got.tgz:4901.got - 2010.06.03 19:37:08.
