data_PCOD9375480
_publ_section_title
;
Structure prediction by ZEFSAII (Michael W. Deem and Ramdas Pophale) SiO2 
 PCOD9375480
Probable space group: I M M 2
;
_chemical_formula_sum "Si O2"
_cell_formula_units_Z 64
_cell_length_a 8.354636
_cell_length_b 29.077946
_cell_length_c 12.974169
_cell_angle_alpha 90.000000
_cell_angle_beta 90.000000
_cell_angle_gamma 90.000000
_cell_volume 3151.888237
_symmetry_space_group_name_H-M "I M M 2"
_symmetry_group_IT_number 44
_symmetry_cell_setting 'orthorhombic'
loop_
_space_group_symop_operation_xyz
x,y,z
-x,-y,z
-x,y,z
x,-y,z
1/2+x,1/2+y,1/2+z
1/2-x,1/2-y,1/2+z
1/2-x,1/2+y,1/2+z
1/2+x,1/2-y,1/2+z
loop_
_atom_site_type_symbol
_atom_site_label
_atom_site_fract_x
_atom_site_fract_y
_atom_site_fract_z
Si Si1 0.187145 0.192465 0.071090
Si Si2 0.689636 0.333434 0.797558
Si Si3 0.690974 0.552753 0.303051
Si Si4 0.814813 0.430119 0.741230
Si Si5 0.190540 0.791726 0.517246
Si Si6 0.695328 0.951186 0.461426
Si Si7 0.691515 0.121277 0.625972
Si Si8 0.808198 0.590976 0.520188
O O1 0.204907 0.196961 0.195030
O O2 0.249757 0.239802 0.025604
O O3 0.000000 0.186893 0.048414
O O4 0.269319 0.145365 0.032251
O O5 0.500000 0.346909 0.803876
O O6 0.799508 0.376764 0.771726
O O7 0.738245 0.311073 0.904855
O O8 0.500000 0.552108 0.292524
O O9 0.750185 0.500000 0.284515
O O10 0.756259 0.591596 0.224812
O O11 0.736225 0.568633 0.418331
O O12 0.746530 0.433181 0.626161
O O13 0.000000 0.444500 0.734533
O O14 0.743485 0.451765 0.844330
O O15 0.251417 0.826817 0.605457
O O16 0.000000 0.791684 0.521888
O O17 0.500000 0.948179 0.456691
O O18 0.752830 0.908581 0.528046
O O19 0.735565 0.000000 0.512036
O O20 0.500000 0.121825 0.624869
O O21 0.000000 0.586030 0.517011
#
# Coordination Sequence:
#
# PCOD9375480 Si02
#       8
#     8   8   8   8   8   8   8   8
#     4  10  21  38  59  86 119 161 208 256 310 366
#     4   9  19  35  55  77 110 150 187 235 294 354
#     4  11  25  44  64  87 122 168 214 262 316 377
#     4   9  17  32  56  84 113 146 187 235 290 349
#     4  11  22  37  58  86 120 159 206 258 311 369
#     4   9  17  30  52  84 117 146 181 231 290 350
#     4  11  22  38  61  87 118 158 204 255 310 370
#     4  10  21  38  62  90 121 158 202 254 310 369
#
# _framework density 20.305289999999999
#
# number of rings (size 3 to 8) (size 9 to 14) (size 15 to 20)
#    0.000    2.000    1.250    2.250    0.000    4.500 
#    0.000    5.000    0.000    1.125    0.000    0.000 
#    0.000    0.000    0.000    0.000    0.000    0.000 
#
# Total GULP energy -178454.959047 kJ/mol
# GULP energy per Si atom -5576.717470 kJ/mol
# Density = 2.025907 g / cm^3
# Si number density = 20.305290 Si / 1000 Ang^3
#
#
#
# Elastic Constant Matrix: (Units=GPa)
#
#
# Indices 1 2 3 4 5 6 
#
# 1 22.9928 0.1013 2.3066 -0.0001 0.0000 0.0000
# 2 0.1013 55.6823 8.8695 -0.0004 0.0000 0.0000
# 3 2.3066 8.8695 83.0508 -0.0008 0.0000 0.0000
# 4 -0.0001 -0.0004 -0.0008 14.2288 0.0000 0.0000
# 5 0.0000 0.0000 0.0000 0.0000 21.1990 0.0000
# 6 0.0000 0.0000 0.0000 0.0000 0.0000 13.3205
#
#
#
# Elastic Compliance Matrix: (Units=1/GPa)
#
#
# Indices 1 2 3 4 5 6 
#
# 1 0.043614 0.000116 -0.001224 0.000000 0.000000 0.000000
# 2 0.000116 0.018270 -0.001954 0.000000 0.000000 0.000000
# 3 -0.001224 -0.001954 0.012284 0.000001 0.000000 0.000000
# 4 0.000000 0.000000 0.000001 0.070280 0.000000 0.000000
# 5 0.000000 0.000000 0.000000 0.000000 0.047172 0.000000
# 6 0.000000 0.000000 0.000000 0.000000 0.000000 0.075072
#
#
# Mechanical properties :
#
#
# Convention : Reuss Voigt Hill
#
# Bulk Modulus (GPa) = 14.69663 20.47563 17.58613
# Shear Modulus (GPa) = 16.92060 19.77956 18.35008
#
# Velocity S-wave (km/s) = 2.88984 3.12446 3.00944
# Velocity P-wave (km/s) = 4.28818 4.80854 4.55580
#
# Compressibility (1/GPa) = 0.06804281
#
# Stress axis : x y z
#
# Youngs Moduli (GPa) = 22.92835 54.73414 81.40979
#
# Poissons Ratio (x) = -0.00632 0.09962
# Poissons Ratio (y) = -0.00265 0.15911
# Poissons Ratio (z) = 0.02806 0.10697
#
# Static dielectric constant tensor:
#      x y z
#    x 1.705360 0.000000 0.000000 
#    y 0.000000 1.735920 0.000000 
#    z 0.000000 0.000000 1.745400 
# 
# From -- ./inp_files/11520.got.cif
#   From: 2010.05.17/outbox.cif.g08.bks.cpg/sg44_6_cif.got.tgz:11520.got - 2010.06.03 19:37:08.
