data_PCOD9375050
_publ_section_title
;
Structure prediction by ZEFSAII (Michael W. Deem and Ramdas Pophale) SiO2 
 PCOD9375050
Probable space group: I M M 2
;
_chemical_formula_sum "Si O2"
_cell_formula_units_Z 26
_cell_length_a 7.797033
_cell_length_b 8.059263
_cell_length_c 22.196018
_cell_angle_alpha 90.000000
_cell_angle_beta 90.000000
_cell_angle_gamma 90.000000
_cell_volume 1394.760916
_symmetry_space_group_name_H-M "I M M 2"
_symmetry_group_IT_number 44
_symmetry_cell_setting 'orthorhombic'
loop_
_space_group_symop_operation_xyz
x,y,z
-x,-y,z
-x,y,z
x,-y,z
1/2+x,1/2+y,1/2+z
1/2-x,1/2-y,1/2+z
1/2-x,1/2+y,1/2+z
1/2+x,1/2-y,1/2+z
loop_
_atom_site_type_symbol
_atom_site_label
_atom_site_fract_x
_atom_site_fract_y
_atom_site_fract_z
Si Si1 0.792432 0.186050 0.662970
Si Si2 0.500000 0.000000 0.990334
Si Si3 0.804204 0.695465 0.794673
Si Si4 0.691031 0.500000 0.583539
Si Si5 0.000000 0.687798 0.373059
O O1 0.750584 0.212565 0.733394
O O2 0.716356 0.336047 0.624437
O O3 0.000000 0.198787 0.658500
O O4 0.741571 0.000000 0.644080
O O5 0.665410 0.000000 0.032309
O O6 0.500000 0.843016 0.944669
O O7 0.805318 0.500000 0.780474
O O8 0.669739 0.727485 0.847453
O O9 0.000000 0.745084 0.810013
O O10 0.500000 0.500000 0.558038
O O11 0.000000 0.500000 0.347956
#
# Coordination Sequence:
#
# PCOD9375050 Si02
#       5
#     8   2   8   4   4
#     4  10  20  37  64  97 136 169 205 271 337 388
#     4  10  26  48  62  86 134 186 224 264 310 398
#     4  10  20  36  61  96 134 165 207 269 331 389
#     4  12  24  42  68  94 128 178 224 269 322 394
#     4  10  23  39  62  88 121 177 216 264 311 391
#
# _framework density 18.641186999999999
#
# number of rings (size 3 to 8) (size 9 to 14) (size 15 to 20)
#    0.462    1.231    3.077    1.385    2.154    3.692 
#    0.000    3.077    0.000    0.000    0.000    0.000 
#    0.000    0.000    0.000    0.000    0.000    0.000 
#
# Total GULP energy -72544.942664 kJ/mol
# GULP energy per Si atom -5580.380205 kJ/mol
# Density = 1.859876 g / cm^3
# Si number density = 18.641187 Si / 1000 Ang^3
#
#
#
# Elastic Constant Matrix: (Units=GPa)
#
#
# Indices 1 2 3 4 5 6 
#
# 1 116.5612 29.5287 71.2402 0.0000 0.0000 0.0000
# 2 29.5287 109.9679 34.3267 0.0000 0.0000 0.0000
# 3 71.2402 34.3267 105.1070 0.0000 0.0000 0.0000
# 4 0.0000 0.0000 0.0000 29.5756 0.0000 0.0000
# 5 0.0000 0.0000 0.0000 0.0000 -16.0435 0.0000
# 6 0.0000 0.0000 0.0000 0.0000 0.0000 15.2388
#
#
#
# Elastic Compliance Matrix: (Units=1/GPa)
#
#
# Indices 1 2 3 4 5 6 
#
# 1 0.014732 -0.000934 -0.009680 0.000000 0.000000 0.000000
# 2 -0.000934 0.010185 -0.002693 0.000000 0.000000 0.000000
# 3 -0.009680 -0.002693 0.016955 0.000000 0.000000 0.000000
# 4 0.000000 0.000000 0.000000 0.033812 0.000000 0.000000
# 5 0.000000 0.000000 0.000000 0.000000 -0.062331 0.000000
# 6 0.000000 0.000000 0.000000 0.000000 0.000000 0.065622
#
#
# Mechanical properties :
#
#
# Convention : Reuss Voigt Hill
#
# Bulk Modulus (GPa) = 65.54376 66.86969 66.20673
# Shear Modulus (GPa) = 45.17706 18.85690 32.01698
#
# Velocity S-wave (km/s) = 4.92825 3.18397 4.14882
# Velocity P-wave (km/s) = 8.22318 7.03326 7.65139
#
# Compressibility (1/GPa) = 0.01525698
#
# Stress axis : x y z
#
# Youngs Moduli (GPa) = 67.87842 98.18279 58.98045
#
# Poissons Ratio (x) = 0.09172 0.57094
# Poissons Ratio (y) = 0.06341 0.15884
# Poissons Ratio (z) = 0.65708 0.26442
#
# Static dielectric constant tensor:
#      x y z
#    x 1.678230 0.000000 0.000000 
#    y 0.000000 1.658530 0.000000 
#    z 0.000000 0.000000 1.602310 
# 
# From -- ./inp_files/19909.got.cif
#   From: 2010.05.17/outbox.cif.g08.bks.cpg/sg44_10_cif.got.tgz:19909.got - 2010.06.03 19:37:08.
