data_PCOD9375798
_publ_section_title
;
Structure prediction by ZEFSAII (Michael W. Deem and Ramdas Pophale) SiO2 
 PCOD9375798
Probable space group: I M M 2
;
_chemical_formula_sum "Si O2"
_cell_formula_units_Z 56
_cell_length_a 7.562705
_cell_length_b 30.724463
_cell_length_c 10.329645
_cell_angle_alpha 90.000000
_cell_angle_beta 90.000000
_cell_angle_gamma 90.000000
_cell_volume 2400.196828
_symmetry_space_group_name_H-M "I M M 2"
_symmetry_group_IT_number 44
_symmetry_cell_setting 'orthorhombic'
loop_
_space_group_symop_operation_xyz
x,y,z
-x,-y,z
-x,y,z
x,-y,z
1/2+x,1/2+y,1/2+z
1/2-x,1/2-y,1/2+z
1/2-x,1/2+y,1/2+z
1/2+x,1/2-y,1/2+z
loop_
_atom_site_type_symbol
_atom_site_label
_atom_site_fract_x
_atom_site_fract_y
_atom_site_fract_z
Si Si1 0.210922 0.220941 0.668110
Si Si2 0.283695 0.549626 0.668109
Si Si3 0.788500 0.785052 0.337840
Si Si4 0.216342 0.116145 0.950665
Si Si5 0.711501 0.714948 0.498379
Si Si6 0.216342 0.883855 0.385554
Si Si7 0.284002 0.622927 0.168109
O O1 0.245079 0.229773 0.503439
O O2 0.245080 0.229773 0.832781
O O3 0.285232 0.172229 0.668110
O O4 0.000000 0.218311 0.668110
O O5 0.500000 0.548603 0.668109
O O6 0.223021 0.500000 0.668109
O O7 0.227534 0.578564 0.546619
O O8 0.227533 0.578564 0.789599
O O9 0.750416 0.776443 0.168110
O O10 0.720833 0.834986 0.348941
O O11 0.000000 0.786472 0.335910
O O12 0.279167 0.165014 0.987278
O O13 0.268655 0.104007 0.805113
O O14 0.000000 0.118785 0.956089
O O15 0.500000 0.713528 0.500309
O O16 0.268655 0.895994 0.531106
O O17 0.000000 0.881215 0.380129
O O18 0.500000 0.624361 0.168109
#
# Coordination Sequence:
#
# PCOD9375798 Si02
#       7
#     8   8   8   8   8   8   8
#     4  11  20  32  46  67 103 145 184 221 263 312
#     4   9  17  30  48  70  97 132 177 225 272 326
#     4  11  20  31  48  72 104 145 185 220 264 323
#     4   9  17  30  47  68  98 136 175 217 271 323
#     4  11  20  31  48  72 104 145 185 220 264 323
#     4   9  17  30  47  68  98 136 175 217 271 323
#     4   9  16  28  45  66  95 133 167 202 257 320
#
# _framework density 23.331419
#
# number of rings (size 3 to 8) (size 9 to 14) (size 15 to 20)
#    0.000    2.143    2.857    2.143    0.000    2.286 
#    0.000    0.714    0.000    4.286    0.000    0.000 
#    0.000   20.571    0.000    2.571    0.000    3.714 
#
# Total GULP energy -156111.664604 kJ/mol
# GULP energy per Si atom -5575.416593 kJ/mol
# Density = 2.327832 g / cm^3
# Si number density = 23.331419 Si / 1000 Ang^3
#
#
#
# Elastic Constant Matrix: (Units=GPa)
#
#
# Indices 1 2 3 4 5 6 
#
# 1 51.3920 13.4130 -14.0618 0.0000 0.0000 0.0000
# 2 13.4130 202.0668 146.1082 -0.0001 0.0000 0.0000
# 3 -14.0618 146.1082 259.6204 -0.0001 0.0000 0.0000
# 4 0.0000 -0.0001 -0.0001 22.0938 0.0000 0.0000
# 5 0.0000 0.0000 0.0000 0.0000 24.2277 0.0000
# 6 0.0000 0.0000 0.0000 0.0000 0.0000 8.2658
#
#
#
# Elastic Compliance Matrix: (Units=1/GPa)
#
#
# Indices 1 2 3 4 5 6 
#
# 1 0.021352 -0.003800 0.003295 0.000000 0.000000 0.000000
# 2 -0.003800 0.009021 -0.005282 0.000000 0.000000 0.000000
# 3 0.003295 -0.005282 0.007003 0.000000 0.000000 0.000000
# 4 0.000000 0.000000 0.000000 0.045262 0.000000 0.000000
# 5 0.000000 0.000000 0.000000 0.000000 0.041275 0.000000
# 6 0.000000 0.000000 0.000000 0.000000 0.000000 0.120980
#
#
# Mechanical properties :
#
#
# Convention : Reuss Voigt Hill
#
# Bulk Modulus (GPa) = 38.75869 89.33313 64.04591
# Shear Modulus (GPa) = 18.86318 35.42544 27.14431
#
# Velocity S-wave (km/s) = 2.84648 3.90084 3.41460
# Velocity P-wave (km/s) = 5.23942 7.65902 6.56171
#
# Compressibility (1/GPa) = 0.02580067
#
# Stress axis : x y z
#
# Youngs Moduli (GPa) = 46.83511 110.85726 142.79518
#
# Poissons Ratio (x) = 0.42122 -0.47049
# Poissons Ratio (y) = 0.17796 0.75430
# Poissons Ratio (z) = -0.15431 0.58559
#
# Static dielectric constant tensor:
#      x y z
#    x 1.784490 0.000000 0.000000 
#    y 0.000000 1.785410 0.000000 
#    z 0.000000 0.000000 2.231260 
# 
# From -- ./inp_files/12670.got.cif
#   From: 2010.05.17/outbox.cif.g08.bks.cpg/sg44_7_cif.got.tgz:12670.got - 2010.06.03 19:37:08.
