data_PCOD9375740
_publ_section_title
;
Structure prediction by ZEFSAII (Michael W. Deem and Ramdas Pophale) SiO2 
 PCOD9375740
Probable space group: I M M 2
;
_chemical_formula_sum "Si O2"
_cell_formula_units_Z 30
_cell_length_a 8.433187
_cell_length_b 19.855443
_cell_length_c 6.909600
_cell_angle_alpha 90.000000
_cell_angle_beta 90.000000
_cell_angle_gamma 90.000000
_cell_volume 1156.975649
_symmetry_space_group_name_H-M "I M M 2"
_symmetry_group_IT_number 44
_symmetry_cell_setting 'orthorhombic'
loop_
_space_group_symop_operation_xyz
x,y,z
-x,-y,z
-x,y,z
x,-y,z
1/2+x,1/2+y,1/2+z
1/2-x,1/2-y,1/2+z
1/2-x,1/2+y,1/2+z
1/2+x,1/2-y,1/2+z
loop_
_atom_site_type_symbol
_atom_site_label
_atom_site_fract_x
_atom_site_fract_y
_atom_site_fract_z
Si Si1 0.687494 0.922836 0.082860
Si Si2 0.500000 0.283959 0.053619
Si Si3 0.750320 0.886377 0.513580
Si Si4 0.000000 0.311926 0.251488
Si Si5 0.000000 0.000000 0.621362
Si Si6 0.000000 0.172817 0.999826
O O1 0.500000 0.920399 0.017992
O O2 0.677632 0.913686 0.316568
O O3 0.839574 0.873167 0.031013
O O4 0.742126 0.000000 0.039823
O O5 0.350175 0.320341 0.960834
O O6 0.500000 0.258544 0.629038
O O7 0.500000 0.209416 0.974915
O O8 0.642346 0.857627 0.680939
O O9 0.864438 0.941693 0.600936
O O10 0.000000 0.202084 0.780576
#
# Coordination Sequence:
#
# PCOD9375740 Si02
#       6
#     8   4   8   4   2   4
#     4  11  23  48  88 132 175 232 301 370 447 541
#     4  11  28  50  76 117 170 232 292 352 452 528
#     4  11  23  48  81 120 172 230 295 358 449 534
#     4  12  27  47  79 122 169 238 295 362 447 546
#     4  10  22  46  84 118 168 236 296 372 456 536
#     4  12  27  51  82 121 181 239 291 376 450 530
#
# _framework density 25.929673999999999
#
# number of rings (size 3 to 8) (size 9 to 14) (size 15 to 20)
#    0.000    0.800    5.333    1.200    3.733    0.533 
#   16.800    0.000    0.000    3.200    0.000    0.000 
#    0.000    0.000    0.000    0.000    0.000    0.000 
#
# Total GULP energy -83596.309370 kJ/mol
# GULP energy per Si atom -5573.087291 kJ/mol
# Density = 2.587066 g / cm^3
# Si number density = 25.929674 Si / 1000 Ang^3
#
#
#
# Elastic Constant Matrix: (Units=GPa)
#
#
# Indices 1 2 3 4 5 6 
#
# 1 210.4981 93.8014 56.9259 -0.0013 0.0009 0.0002
# 2 93.8014 201.7840 58.3760 -0.0002 0.0003 0.0001
# 3 56.9259 58.3760 146.3861 -0.0070 0.0063 0.0011
# 4 -0.0013 -0.0002 -0.0070 30.7859 0.0034 0.0005
# 5 0.0009 0.0003 0.0063 0.0034 50.2049 -0.0008
# 6 0.0002 0.0001 0.0011 0.0005 -0.0008 71.3391
#
#
#
# Elastic Compliance Matrix: (Units=1/GPa)
#
#
# Indices 1 2 3 4 5 6 
#
# 1 0.006248 -0.002489 -0.001437 0.000000 0.000000 0.000000
# 2 -0.002489 0.006593 -0.001661 0.000000 0.000000 0.000000
# 3 -0.001437 -0.001661 0.008053 0.000002 -0.000001 0.000000
# 4 0.000000 0.000000 0.000002 0.032482 -0.000002 0.000000
# 5 0.000000 0.000000 -0.000001 -0.000002 0.019918 0.000000
# 6 0.000000 0.000000 0.000000 0.000000 0.000000 0.014018
#
#
# Mechanical properties :
#
#
# Convention : Reuss Voigt Hill
#
# Bulk Modulus (GPa) = 102.88838 108.54164 105.71501
# Shear Modulus (GPa) = 49.15066 53.77030 51.46048
#
# Velocity S-wave (km/s) = 4.35850 4.55873 4.45974
# Velocity P-wave (km/s) = 8.06812 8.34627 8.20837
#
# Compressibility (1/GPa) = 0.00971927
#
# Stress axis : x y z
#
# Youngs Moduli (GPa) = 160.04097 151.66656 124.18085
#
# Poissons Ratio (x) = 0.37747 0.17849
# Poissons Ratio (y) = 0.39831 0.20633
# Poissons Ratio (z) = 0.23004 0.25199
#
# Static dielectric constant tensor:
#      x y z
#    x 1.678680 0.000010 -0.000010 
#    y 0.000010 1.989330 0.000000 
#    z -0.000010 0.000000 2.143300 
# 
# From -- ./inp_files/4261.got.cif
#   From: 2010.05.17/outbox.cif.g08.bks.cpg/sg44_3_cif.got.tgz:4261.got - 2010.06.03 19:37:08.
