data_PCOD9375817
_publ_section_title
;
Structure prediction by ZEFSAII (Michael W. Deem and Ramdas Pophale) SiO2 
 PCOD9375817
Probable space group: I M M 2
;
_chemical_formula_sum "Si O2"
_cell_formula_units_Z 48
_cell_length_a 7.597155
_cell_length_b 18.971516
_cell_length_c 18.660396
_cell_angle_alpha 90.000000
_cell_angle_beta 90.000000
_cell_angle_gamma 90.000000
_cell_volume 2689.514434
_symmetry_space_group_name_H-M "I M M 2"
_symmetry_group_IT_number 44
_symmetry_cell_setting 'orthorhombic'
loop_
_space_group_symop_operation_xyz
x,y,z
-x,-y,z
-x,y,z
x,-y,z
1/2+x,1/2+y,1/2+z
1/2-x,1/2-y,1/2+z
1/2-x,1/2+y,1/2+z
1/2+x,1/2-y,1/2+z
loop_
_atom_site_type_symbol
_atom_site_label
_atom_site_fract_x
_atom_site_fract_y
_atom_site_fract_z
Si Si1 0.290336 0.328026 0.775150
Si Si2 0.701043 0.821835 0.111587
Si Si3 0.500000 0.420084 0.550253
Si Si4 0.500000 0.580051 0.378025
Si Si5 0.707599 0.191151 0.869714
Si Si6 0.715707 0.419159 0.910965
Si Si7 0.788016 0.210761 0.503604
O O1 0.500000 0.338470 0.766032
O O2 0.208805 0.328350 0.696913
O O3 0.264018 0.251762 0.810906
O O4 0.230629 0.385198 0.834425
O O5 0.500000 0.832932 0.087586
O O6 0.830102 0.879178 0.078513
O O7 0.759963 0.745408 0.079672
O O8 0.500000 0.500000 0.577137
O O9 0.500000 0.421306 0.464485
O O10 0.500000 0.500000 0.351671
O O11 0.328658 0.624387 0.356188
O O12 0.500000 0.174490 0.872830
O O13 0.758193 0.229990 0.944273
O O14 0.500000 0.418810 0.911096
O O15 0.772194 0.500000 0.919494
O O16 0.775861 0.364317 0.972922
O O17 0.000000 0.204238 0.502804
#
# Coordination Sequence:
#
# PCOD9375817 Si02
#       7
#     8   8   4   4   8   8   8
#     4   9  18  32  52  82 109 141 181 216 265 322
#     4  11  21  35  54  79 108 145 185 220 263 317
#     4  11  24  38  52  78 112 143 179 222 271 328
#     4  11  22  34  56  82 102 137 183 226 279 324
#     4   9  18  34  53  76 107 137 177 229 265 312
#     4   8  14  27  50  78 106 137 170 213 269 319
#     4   8  15  29  49  73 102 135 177 220 254 307
#
# _framework density 17.847087999999999
#
# number of rings (size 3 to 8) (size 9 to 14) (size 15 to 20)
#    0.000    2.667    2.500    2.000    1.167    1.333 
#    0.000    1.667    0.000    1.000    0.000    0.000 
#    0.000    0.000    0.000    0.000    0.000    0.000 
#
# Total GULP energy -133757.634222 kJ/mol
# GULP energy per Si atom -5573.234759 kJ/mol
# Density = 1.780647 g / cm^3
# Si number density = 17.847088 Si / 1000 Ang^3
#
#
#
# Elastic Constant Matrix: (Units=GPa)
#
#
# Indices 1 2 3 4 5 6 
#
# 1 66.9902 52.9728 14.3755 0.0000 0.0000 0.0000
# 2 52.9728 160.9388 37.2557 0.0000 0.0000 0.0000
# 3 14.3755 37.2557 54.6504 0.0000 0.0000 0.0000
# 4 0.0000 0.0000 0.0000 13.9350 0.0000 0.0000
# 5 0.0000 0.0000 0.0000 0.0000 8.4869 0.0000
# 6 0.0000 0.0000 0.0000 0.0000 0.0000 18.9171
#
#
#
# Elastic Compliance Matrix: (Units=1/GPa)
#
#
# Indices 1 2 3 4 5 6 
#
# 1 0.020219 -0.006440 -0.000928 0.000000 0.000000 0.000000
# 2 -0.006440 0.009429 -0.004734 0.000000 0.000000 0.000000
# 3 -0.000928 -0.004734 0.021769 0.000000 0.000000 0.000000
# 4 0.000000 0.000000 0.000000 0.071762 0.000000 0.000000
# 5 0.000000 0.000000 0.000000 0.000000 0.117829 0.000000
# 6 0.000000 0.000000 0.000000 0.000000 0.000000 0.052862
#
#
# Mechanical properties :
#
#
# Convention : Reuss Voigt Hill
#
# Bulk Modulus (GPa) = 36.74678 54.64306 45.69492
# Shear Modulus (GPa) = 15.28368 20.13283 17.70826
#
# Velocity S-wave (km/s) = 2.92955 3.36232 3.15337
# Velocity P-wave (km/s) = 5.66370 6.76443 6.23839
#
# Compressibility (1/GPa) = 0.02721327
#
# Stress axis : x y z
#
# Youngs Moduli (GPa) = 49.45729 106.05320 45.93604
#
# Poissons Ratio (x) = 0.68302 0.04264
# Poissons Ratio (y) = 0.31852 0.21746
# Poissons Ratio (z) = 0.04590 0.50204
#
# Static dielectric constant tensor:
#      x y z
#    x 1.638990 0.000000 0.000000 
#    y 0.000000 1.604940 0.000000 
#    z 0.000000 0.000000 1.614530 
# 
# From -- ./inp_files/23168.got.cif
#   From: 2010.05.17/outbox.cif.g08.bks.cpg/sg44_12_cif.got.tgz:23168.got - 2010.06.03 19:37:08.
