data_PCOD9375398
_publ_section_title
;
Structure prediction by ZEFSAII (Michael W. Deem and Ramdas Pophale) SiO2 
 PCOD9375398
Probable space group: I M M 2
;
_chemical_formula_sum "Si O2"
_cell_formula_units_Z 40
_cell_length_a 7.442119
_cell_length_b 31.036890
_cell_length_c 7.243748
_cell_angle_alpha 90.000000
_cell_angle_beta 90.000000
_cell_angle_gamma 90.000000
_cell_volume 1673.162570
_symmetry_space_group_name_H-M "I M M 2"
_symmetry_group_IT_number 44
_symmetry_cell_setting 'orthorhombic'
loop_
_space_group_symop_operation_xyz
x,y,z
-x,-y,z
-x,y,z
x,-y,z
1/2+x,1/2+y,1/2+z
1/2-x,1/2-y,1/2+z
1/2-x,1/2+y,1/2+z
1/2+x,1/2-y,1/2+z
loop_
_atom_site_type_symbol
_atom_site_label
_atom_site_fract_x
_atom_site_fract_y
_atom_site_fract_z
Si Si1 0.790454 0.623975 0.059190
Si Si2 0.704395 0.692915 0.516699
Si Si3 0.220008 0.287261 0.934060
Si Si4 0.213196 0.547823 0.311250
Si Si5 0.715104 0.394607 0.633223
O O1 0.723068 0.673784 0.070354
O O2 0.709505 0.586056 0.183154
O O3 0.000000 0.627277 0.105209
O O4 0.778930 0.609656 0.843568
O O5 0.500000 0.691817 0.448048
O O6 0.786320 0.738378 0.456506
O O7 0.786576 0.645316 0.505805
O O8 0.707514 0.698406 0.737630
O O9 0.000000 0.286432 0.934453
O O10 0.286190 0.500000 0.278038
O O11 0.237370 0.562517 0.522935
O O12 0.000000 0.545993 0.273916
O O13 0.500000 0.390478 0.638319
#
# Coordination Sequence:
#
# PCOD9375398 Si02
#       5
#     8   8   8   8   8
#     4   9  19  37  58  80 110 148 189 232 277 326
#     4   9  19  33  49  76 110 143 179 220 267 320
#     4   9  18  32  50  75 105 141 183 221 265 321
#     4  10  22  39  60  85 109 141 189 238 282 327
#     4  10  21  37  56  82 117 150 182 225 281 338
#
# _framework density 23.906822999999999
#
# number of rings (size 3 to 8) (size 9 to 14) (size 15 to 20)
#    0.000    2.600    0.000    0.600    2.800    3.600 
#    0.000    2.000    0.000    0.000    0.000    0.000 
#    0.000    0.000    0.000    0.000    0.000    0.000 
#
# Total GULP energy -111567.137782 kJ/mol
# GULP energy per Si atom -5578.356889 kJ/mol
# Density = 2.385241 g / cm^3
# Si number density = 23.906823 Si / 1000 Ang^3
#
#
#
# Elastic Constant Matrix: (Units=GPa)
#
#
# Indices 1 2 3 4 5 6 
#
# 1 95.4846 7.5505 1.2891 -0.0002 -0.0001 -0.0001
# 2 7.5505 154.9016 39.2505 -0.0017 -0.0006 -0.0002
# 3 1.2891 39.2505 61.3281 -0.0022 -0.0012 -0.0010
# 4 -0.0002 -0.0017 -0.0022 37.3254 -0.0006 0.0000
# 5 -0.0001 -0.0006 -0.0012 -0.0006 15.2255 0.0004
# 6 -0.0001 -0.0002 -0.0010 0.0000 0.0004 7.5161
#
#
#
# Elastic Compliance Matrix: (Units=1/GPa)
#
#
# Indices 1 2 3 4 5 6 
#
# 1 0.010514 -0.000545 0.000128 0.000000 0.000000 0.000000
# 2 -0.000545 0.007734 -0.004938 0.000000 0.000000 -0.000001
# 3 0.000128 -0.004938 0.019463 0.000001 0.000001 0.000003
# 4 0.000000 0.000000 0.000001 0.026791 0.000001 0.000000
# 5 0.000000 0.000000 0.000001 0.000001 0.065679 -0.000003
# 6 0.000000 -0.000001 0.000003 0.000000 -0.000003 0.133048
#
#
# Mechanical properties :
#
#
# Convention : Reuss Voigt Hill
#
# Bulk Modulus (GPa) = 37.03592 45.32159 41.17875
# Shear Modulus (GPa) = 17.67154 29.58835 23.62995
#
# Velocity S-wave (km/s) = 2.72174 3.52185 3.14732
# Velocity P-wave (km/s) = 5.04010 5.96126 5.51993
#
# Compressibility (1/GPa) = 0.02700082
#
# Stress axis : x y z
#
# Youngs Moduli (GPa) = 95.10897 129.30716 51.37832
#
# Poissons Ratio (x) = 0.07045 -0.00656
# Poissons Ratio (y) = 0.05182 0.25371
# Poissons Ratio (z) = -0.01215 0.63853
#
# Static dielectric constant tensor:
#      x y z
#    x 1.908290 0.000000 0.000000 
#    y 0.000000 2.033540 0.000000 
#    z 0.000000 0.000000 1.908900 
# 
# From -- ./inp_files/1077.got.cif
#   From: 2010.05.17/outbox.cif.g08.bks.cpg/sg44_1_cif.got.tgz:1077.got - 2010.06.03 19:37:08.
