data_PCOD9375468
_publ_section_title
;
Structure prediction by ZEFSAII (Michael W. Deem and Ramdas Pophale) SiO2 
 PCOD9375468
Probable space group: I M M 2
;
_chemical_formula_sum "Si O2"
_cell_formula_units_Z 64
_cell_length_a 13.922546
_cell_length_b 8.966114
_cell_length_c 24.674299
_cell_angle_alpha 90.000000
_cell_angle_beta 90.000000
_cell_angle_gamma 90.000000
_cell_volume 3080.120740
_symmetry_space_group_name_H-M "I M M 2"
_symmetry_group_IT_number 44
_symmetry_cell_setting 'orthorhombic'
loop_
_space_group_symop_operation_xyz
x,y,z
-x,-y,z
-x,y,z
x,-y,z
1/2+x,1/2+y,1/2+z
1/2-x,1/2-y,1/2+z
1/2-x,1/2+y,1/2+z
1/2+x,1/2-y,1/2+z
loop_
_atom_site_type_symbol
_atom_site_label
_atom_site_fract_x
_atom_site_fract_y
_atom_site_fract_z
Si Si1 0.884030 0.171336 0.565330
Si Si2 0.391671 0.320713 0.288370
Si Si3 0.615664 0.827537 0.728924
Si Si4 0.883175 0.830694 0.119417
Si Si5 0.612639 0.823096 0.506744
Si Si6 0.793010 0.678654 0.460917
Si Si7 0.298442 0.181090 0.842229
Si Si8 0.882882 0.329414 0.675619
O O1 0.849194 0.250288 0.510937
O O2 0.850593 0.255634 0.619549
O O3 0.000000 0.172446 0.566001
O O4 0.851717 0.000000 0.566414
O O5 0.500000 0.267294 0.299391
O O6 0.393716 0.500000 0.285876
O O7 0.312518 0.277038 0.332130
O O8 0.359132 0.261344 0.229738
O O9 0.500000 0.829364 0.727669
O O10 0.649385 0.732795 0.677321
O O11 0.646753 0.769673 0.788021
O O12 0.648594 0.000000 0.723151
O O13 0.861265 0.726896 0.068093
O O14 0.000000 0.834267 0.121959
O O15 0.850124 0.000000 0.109735
O O16 0.500000 0.788561 0.498230
O O17 0.683369 0.732459 0.468094
O O18 0.626009 0.000000 0.500702
O O19 0.798085 0.500000 0.464095
O O20 0.830383 0.729309 0.401817
O O21 0.305190 0.000000 0.842386
O O22 0.851347 0.500000 0.679991
O O23 0.000000 0.329113 0.673779
#
# Coordination Sequence:
#
# PCOD9375468 Si02
#       8
#     8   8   8   8   8   8   8   8
#     4  10  21  38  59  82 111 148 186 225 274 332
#     4   9  17  32  54  77 104 139 175 214 264 322
#     4   9  17  32  54  77 104 139 175 214 264 322
#     4   9  17  31  53  82 112 139 173 220 273 327
#     4  10  21  38  59  82 111 148 186 225 274 332
#     4  11  23  38  57  82 111 144 188 237 278 321
#     4   9  20  36  53  76 103 136 182 225 262 317
#     4   9  17  31  53  82 112 139 173 220 273 327
#
# _framework density 20.778404999999999
#
# number of rings (size 3 to 8) (size 9 to 14) (size 15 to 20)
#    0.000    2.500    0.000    1.875    0.000    6.500 
#    0.000    9.375    0.000    3.000    0.000    0.000 
#    0.000    0.000    0.000    0.000    0.000    0.000 
#
# Total GULP energy -178740.837338 kJ/mol
# GULP energy per Si atom -5585.651167 kJ/mol
# Density = 2.073111 g / cm^3
# Si number density = 20.778405 Si / 1000 Ang^3
#
#
#
# Elastic Constant Matrix: (Units=GPa)
#
#
# Indices 1 2 3 4 5 6 
#
# 1 30.1308 -0.6355 -5.7579 0.0000 0.0000 0.0000
# 2 -0.6355 57.8314 18.1081 0.0000 0.0000 0.0000
# 3 -5.7579 18.1081 100.6303 0.0000 0.0000 0.0000
# 4 0.0000 0.0000 0.0000 25.3907 0.0000 0.0000
# 5 0.0000 0.0000 0.0000 0.0000 25.4818 0.0000
# 6 0.0000 0.0000 0.0000 0.0000 0.0000 22.5427
#
#
#
# Elastic Compliance Matrix: (Units=1/GPa)
#
#
# Indices 1 2 3 4 5 6 
#
# 1 0.033559 -0.000246 0.001965 0.000000 0.000000 0.000000
# 2 -0.000246 0.018326 -0.003312 0.000000 0.000000 0.000000
# 3 0.001965 -0.003312 0.010646 0.000000 0.000000 0.000000
# 4 0.000000 0.000000 0.000000 0.039385 0.000000 0.000000
# 5 0.000000 0.000000 0.000000 0.000000 0.039244 0.000000
# 6 0.000000 0.000000 0.000000 0.000000 0.000000 0.044360
#
#
# Mechanical properties :
#
#
# Convention : Reuss Voigt Hill
#
# Bulk Modulus (GPa) = 16.85113 23.55799 20.20456
# Shear Modulus (GPa) = 23.98226 26.47488 25.22857
#
# Velocity S-wave (km/s) = 3.40103 3.57340 3.48828
# Velocity P-wave (km/s) = 4.85285 5.32803 5.09598
#
# Compressibility (1/GPa) = 0.05934322
#
# Stress axis : x y z
#
# Youngs Moduli (GPa) = 29.79842 54.56753 93.93452
#
# Poissons Ratio (x) = 0.01344 -0.18454
# Poissons Ratio (y) = 0.00734 0.31109
# Poissons Ratio (z) = -0.05854 0.18072
#
# Static dielectric constant tensor:
#      x y z
#    x 1.813540 0.000000 0.000000 
#    y 0.000000 1.705200 0.000000 
#    z 0.000000 0.000000 1.714910 
# 
# From -- ./inp_files/25121.got.cif
#   From: 2010.05.17/outbox.cif.g08.bks.cpg/sg44_13_cif.got.tgz:25121.got - 2010.06.03 19:37:08.
