data_PCOD9375631
_publ_section_title
;
Structure prediction by ZEFSAII (Michael W. Deem and Ramdas Pophale) SiO2 
 PCOD9375631
Probable space group: I M M 2
;
_chemical_formula_sum "Si O2"
_cell_formula_units_Z 48
_cell_length_a 8.882783
_cell_length_b 31.408533
_cell_length_c 9.306465
_cell_angle_alpha 90.000000
_cell_angle_beta 90.000000
_cell_angle_gamma 90.000000
_cell_volume 2596.458906
_symmetry_space_group_name_H-M "I M M 2"
_symmetry_group_IT_number 44
_symmetry_cell_setting 'orthorhombic'
loop_
_space_group_symop_operation_xyz
x,y,z
-x,-y,z
-x,y,z
x,-y,z
1/2+x,1/2+y,1/2+z
1/2-x,1/2-y,1/2+z
1/2-x,1/2+y,1/2+z
1/2+x,1/2-y,1/2+z
loop_
_atom_site_type_symbol
_atom_site_label
_atom_site_fract_x
_atom_site_fract_y
_atom_site_fract_z
Si Si1 0.318466 0.290282 0.110710
Si Si2 0.318859 0.951462 0.599031
Si Si3 0.818636 0.126619 0.429741
Si Si4 0.819636 0.127706 0.097102
Si Si5 0.180626 0.450734 0.435051
Si Si6 0.819627 0.706643 0.426717
O O1 0.500000 0.291240 0.126491
O O2 0.244176 0.289513 0.266499
O O3 0.271982 0.332467 0.023254
O O4 0.279064 0.248454 0.019054
O O5 0.500000 0.949484 0.587704
O O6 0.246644 0.916036 0.499233
O O7 0.281233 0.943555 0.766867
O O8 0.272782 0.000000 0.563728
O O9 0.773385 0.131577 0.263754
O O10 0.000000 0.124516 0.433551
O O11 0.000000 0.130760 0.088597
O O12 0.764955 0.082885 0.033310
O O13 0.747100 0.165266 0.004080
O O14 0.215876 0.500000 0.469073
O O15 0.000000 0.445391 0.449399
O O16 0.000000 0.703516 0.421212
#
# Coordination Sequence:
#
# PCOD9375631 Si02
#       6
#     8   8   8   8   8   8
#     4  10  22  40  60  83 113 147 183 227 279 331
#     4   9  19  36  57  81 109 142 182 229 279 330
#     4  10  22  38  55  79 112 148 185 227 275 328
#     4  11  23  38  56  81 116 152 188 231 278 331
#     4   9  19  37  59  83 112 146 188 236 283 335
#     4  11  23  39  61  87 114 146 186 229 276 332
#
# _framework density 18.486716999999999
#
# number of rings (size 3 to 8) (size 9 to 14) (size 15 to 20)
#    0.000    2.000    0.000    4.000    0.000    9.333 
#    0.000    5.000    0.000    0.000    0.000    0.000 
#    0.000    0.000    0.000    0.000    0.000    0.000 
#
# Total GULP energy -134099.774091 kJ/mol
# GULP energy per Si atom -5587.490587 kJ/mol
# Density = 1.844464 g / cm^3
# Si number density = 18.486717 Si / 1000 Ang^3
#
#
#
# Elastic Constant Matrix: (Units=GPa)
#
#
# Indices 1 2 3 4 5 6 
#
# 1 28.6106 48.6592 57.7288 -0.0002 0.0000 0.0000
# 2 48.6592 142.6190 115.3631 -0.0003 0.0000 -0.0001
# 3 57.7288 115.3631 182.5878 -0.0013 0.0000 -0.0002
# 4 -0.0002 -0.0003 -0.0013 39.3019 0.0000 -0.0001
# 5 0.0000 0.0000 0.0000 0.0000 34.5917 -0.0003
# 6 0.0000 -0.0001 -0.0002 -0.0001 -0.0003 27.2527
#
#
#
# Elastic Compliance Matrix: (Units=1/GPa)
#
#
# Indices 1 2 3 4 5 6 
#
# 1 0.121517 -0.021234 -0.025004 0.000000 0.000000 0.000000
# 2 -0.021234 0.018052 -0.004692 0.000000 0.000000 0.000000
# 3 -0.025004 -0.004692 0.016347 0.000000 0.000000 0.000000
# 4 0.000000 0.000000 0.000000 0.025444 0.000000 0.000000
# 5 0.000000 0.000000 0.000000 0.000000 0.028909 0.000000
# 6 0.000000 0.000000 0.000000 0.000000 0.000000 0.036694
#
#
# Mechanical properties :
#
#
# Convention : Reuss Voigt Hill
#
# Bulk Modulus (GPa) = 18.49942 88.59106 53.54524
# Shear Modulus (GPa) = 13.62991 29.03369 21.33180
#
# Velocity S-wave (km/s) = 2.71824 3.96727 3.40059
# Velocity P-wave (km/s) = 4.45874 8.30730 6.66677
#
# Compressibility (1/GPa) = 0.05405576
#
# Stress axis : x y z
#
# Youngs Moduli (GPa) = 8.22928 55.39671 61.17493
#
# Poissons Ratio (x) = 1.17632 1.52960
# Poissons Ratio (y) = 0.17474 0.28702
# Poissons Ratio (z) = 0.20576 0.25991
#
# Static dielectric constant tensor:
#      x y z
#    x 1.620140 0.000000 0.000000 
#    y 0.000000 1.613960 0.000000 
#    z 0.000000 0.000000 1.609050 
# 
# From -- ./inp_files/4854.got.cif
#   From: 2010.05.17/outbox.cif.g08.bks.cpg/sg44_3_cif.got.tgz:4854.got - 2010.06.03 19:37:08.
