data_PCOD9375800
_publ_section_title
;
Structure prediction by ZEFSAII (Michael W. Deem and Ramdas Pophale) SiO2 
 PCOD9375800
Probable space group: I M M 2
;
_chemical_formula_sum "Si O2"
_cell_formula_units_Z 64
_cell_length_a 8.620114
_cell_length_b 31.130975
_cell_length_c 14.761429
_cell_angle_alpha 90.000000
_cell_angle_beta 90.000000
_cell_angle_gamma 90.000000
_cell_volume 3961.267164
_symmetry_space_group_name_H-M "I M M 2"
_symmetry_group_IT_number 44
_symmetry_cell_setting 'orthorhombic'
loop_
_space_group_symop_operation_xyz
x,y,z
-x,-y,z
-x,y,z
x,-y,z
1/2+x,1/2+y,1/2+z
1/2-x,1/2-y,1/2+z
1/2-x,1/2+y,1/2+z
1/2+x,1/2-y,1/2+z
loop_
_atom_site_type_symbol
_atom_site_label
_atom_site_fract_x
_atom_site_fract_y
_atom_site_fract_z
Si Si1 0.178824 0.325993 0.458950
Si Si2 0.316145 0.784332 0.671142
Si Si3 0.810965 0.951502 0.851068
Si Si4 0.320700 0.276286 0.970829
Si Si5 0.682859 0.637048 0.280632
Si Si6 0.311430 0.451960 0.560619
Si Si7 0.315709 0.798058 0.280732
Si Si8 0.313512 0.636176 0.642219
O O1 0.181787 0.274744 0.452578
O O2 0.287325 0.345674 0.382079
O O3 0.240953 0.339174 0.556678
O O4 0.000000 0.340142 0.446231
O O5 0.500000 0.778743 0.673837
O O6 0.256720 0.783464 0.568136
O O7 0.269803 0.829635 0.716188
O O8 0.243458 0.744900 0.728606
O O9 0.761900 0.912479 0.786486
O O10 0.000000 0.950829 0.851362
O O11 0.762658 0.000000 0.826471
O O12 0.763040 0.943566 0.956016
O O13 0.500000 0.290174 0.974312
O O14 0.236248 0.296874 0.884968
O O15 0.500000 0.638205 0.259687
O O16 0.500000 0.452382 0.559350
O O17 0.259449 0.500000 0.585547
O O18 0.265371 0.413377 0.626494
O O19 0.500000 0.798654 0.273551
O O20 0.245609 0.839395 0.230364
O O21 0.500000 0.638763 0.638271
#
# Coordination Sequence:
#
# PCOD9375800 Si02
#       8
#     8   8   8   8   8   8   8   8
#     4  11  21  31  48  72 104 138 172 214 254 299
#     4  12  24  37  53  75 103 137 173 213 255 304
#     4   8  14  26  46  74 104 133 169 211 251 296
#     4  11  23  39  55  74 100 135 175 218 255 299
#     4  11  20  32  52  76 102 138 177 212 252 302
#     4   8  14  26  46  74 104 133 169 211 251 296
#     4  12  24  37  53  75 103 137 173 213 255 304
#     4  11  20  32  52  76 102 138 177 212 252 302
#
# _framework density 16.156445999999999
#
# number of rings (size 3 to 8) (size 9 to 14) (size 15 to 20)
#    0.000    1.500    3.750    4.500    0.000    1.000 
#    0.000    0.000    0.000    3.750    0.000    0.875 
#    0.000    7.000    0.000    0.000    0.000    0.000 
#
# Total GULP energy -178574.876864 kJ/mol
# GULP energy per Si atom -5580.464902 kJ/mol
# Density = 1.611967 g / cm^3
# Si number density = 16.156446 Si / 1000 Ang^3
#
#
#
# Elastic Constant Matrix: (Units=GPa)
#
#
# Indices 1 2 3 4 5 6 
#
# 1 48.4538 12.4838 -5.7780 0.0001 0.0000 0.0001
# 2 12.4838 91.1128 12.8450 0.0001 0.0000 0.0002
# 3 -5.7780 12.8450 44.1067 0.0003 0.0000 0.0007
# 4 0.0001 0.0001 0.0003 20.5612 0.0000 0.0002
# 5 0.0000 0.0000 0.0000 0.0000 26.0140 0.0000
# 6 0.0001 0.0002 0.0007 0.0002 0.0000 -0.8435
#
#
#
# Elastic Compliance Matrix: (Units=1/GPa)
#
#
# Indices 1 2 3 4 5 6 
#
# 1 0.022026 -0.003571 0.003926 0.000000 0.000000 0.000004
# 2 -0.003571 0.012024 -0.003970 0.000000 0.000000 0.000000
# 3 0.003926 -0.003970 0.024343 0.000000 0.000000 0.000019
# 4 0.000000 0.000000 0.000000 0.048635 0.000000 0.000012
# 5 0.000000 0.000000 0.000000 0.000000 0.038441 0.000001
# 6 0.000004 0.000000 0.000019 0.000012 0.000001 -1.185570
#
#
# Mechanical properties :
#
#
# Convention : Reuss Voigt Hill
#
# Bulk Modulus (GPa) = 19.54558 24.75276 22.14917
# Shear Modulus (GPa) = -4.92216 20.08784 7.58284
#
# Velocity S-wave (km/s) = -1.74733 3.52992 2.16877
# Velocity P-wave (km/s) = 2.83779 5.65400 4.47330
#
# Compressibility (1/GPa) = 0.05116246
#
# Stress axis : x y z
#
# Youngs Moduli (GPa) = 45.39997 83.16440 41.08024
#
# Poissons Ratio (x) = 0.29701 -0.16126
# Poissons Ratio (y) = 0.16214 0.16307
# Poissons Ratio (z) = -0.17822 0.33013
#
# Static dielectric constant tensor:
#      x y z
#    x 1.557470 0.000000 0.000000 
#    y 0.000000 1.568050 0.000000 
#    z 0.000000 0.000000 1.517060 
# 
# From -- ./inp_files/17082.got.cif
#   From: 2010.05.17/outbox.cif.g08.bks.cpg/sg44_9_cif.got.tgz:17082.got - 2010.06.03 19:37:08.
