data_PCOD9375196
_publ_section_title
;
Structure prediction by ZEFSAII (Michael W. Deem and Ramdas Pophale) SiO2 
 PCOD9375196
Probable space group: I M M 2
;
_chemical_formula_sum "Si O2"
_cell_formula_units_Z 48
_cell_length_a 19.307500
_cell_length_b 14.354457
_cell_length_c 7.029104
_cell_angle_alpha 90.000000
_cell_angle_beta 90.000000
_cell_angle_gamma 90.000000
_cell_volume 1948.106885
_symmetry_space_group_name_H-M "I M M 2"
_symmetry_group_IT_number 44
_symmetry_cell_setting 'orthorhombic'
loop_
_space_group_symop_operation_xyz
x,y,z
-x,-y,z
-x,y,z
x,-y,z
1/2+x,1/2+y,1/2+z
1/2-x,1/2-y,1/2+z
1/2-x,1/2+y,1/2+z
1/2+x,1/2-y,1/2+z
loop_
_atom_site_type_symbol
_atom_site_label
_atom_site_fract_x
_atom_site_fract_y
_atom_site_fract_z
Si Si1 0.229625 0.610650 0.919440
Si Si2 0.267167 0.610186 0.477513
Si Si3 0.574389 0.109917 0.522809
Si Si4 0.124710 0.698403 0.369840
Si Si5 0.919461 0.099970 0.328610
Si Si6 0.858450 0.175775 0.667974
O O1 0.233621 0.500000 0.961556
O O2 0.252169 0.624017 0.700737
O O3 0.150604 0.641723 0.953452
O O4 0.286070 0.662137 0.049240
O O5 0.267492 0.500000 0.440225
O O6 0.200738 0.655059 0.373920
O O7 0.335744 0.652528 0.379329
O O8 0.500000 0.149628 0.455540
O O9 0.578517 0.128624 0.749858
O O10 0.573429 0.000000 0.482358
O O11 0.111848 0.799889 0.272683
O O12 0.110638 0.726484 0.590335
O O13 0.907907 0.103471 0.557894
O O14 0.000000 0.101972 0.282211
O O15 0.890120 0.000000 0.259353
#
# Coordination Sequence:
#
# PCOD9375196 Si02
#       6
#     8   8   8   8   8   8
#     4  10  21  37  63  95 128 172 226 278 335 407
#     4  11  22  39  63  95 130 170 222 281 345 402
#     4  10  20  39  66  98 142 186 223 278 347 413
#     4  10  22  34  62  93 131 168 224 270 336 403
#     4   9  19  36  60  90 127 173 223 274 330 394
#     4  10  22  37  62  89 129 168 222 280 332 395
#
# _framework density 24.639306000000001
#
# number of rings (size 3 to 8) (size 9 to 14) (size 15 to 20)
#    1.000    1.000    1.667    2.500    2.333    0.000 
#    0.000    1.667    0.000    5.000    0.000    4.667 
#    0.000    0.000    0.000    0.000    0.000    0.000 
#
# Total GULP energy -133699.047278 kJ/mol
# GULP energy per Si atom -5570.793637 kJ/mol
# Density = 2.458323 g / cm^3
# Si number density = 24.639306 Si / 1000 Ang^3
#
#
#
# Elastic Constant Matrix: (Units=GPa)
#
#
# Indices 1 2 3 4 5 6 
#
# 1 91.6693 14.8785 7.8545 0.0000 0.0000 0.0000
# 2 14.8785 73.7273 8.0836 0.0000 0.0000 0.0000
# 3 7.8545 8.0836 97.2048 0.0000 0.0000 0.0000
# 4 0.0000 0.0000 0.0000 24.4001 0.0000 0.0000
# 5 0.0000 0.0000 0.0000 0.0000 15.8825 0.0000
# 6 0.0000 0.0000 0.0000 0.0000 0.0000 6.3639
#
#
#
# Elastic Compliance Matrix: (Units=1/GPa)
#
#
# Indices 1 2 3 4 5 6 
#
# 1 0.011330 -0.002206 -0.000732 0.000000 0.000000 0.000000
# 2 -0.002206 0.014118 -0.000996 0.000000 0.000000 0.000000
# 3 -0.000732 -0.000996 0.010430 0.000000 0.000000 0.000000
# 4 0.000000 0.000000 0.000000 0.040983 0.000000 0.000000
# 5 0.000000 0.000000 0.000000 0.000000 0.062962 0.000000
# 6 0.000000 0.000000 0.000000 0.000000 0.000000 0.157137
#
#
# Mechanical properties :
#
#
# Convention : Reuss Voigt Hill
#
# Bulk Modulus (GPa) = 35.70259 36.02605 35.86432
# Shear Modulus (GPa) = 15.91528 24.78163 20.34845
#
# Velocity S-wave (km/s) = 2.54427 3.17484 2.87688
# Velocity P-wave (km/s) = 4.81172 5.30024 5.06188
#
# Compressibility (1/GPa) = 0.02800917
#
# Stress axis : x y z
#
# Youngs Moduli (GPa) = 88.26471 70.83219 95.88171
#
# Poissons Ratio (x) = 0.15626 0.07019
# Poissons Ratio (y) = 0.19472 0.09548
# Poissons Ratio (z) = 0.06461 0.07053
#
# Static dielectric constant tensor:
#      x y z
#    x 1.969590 0.000000 0.000000 
#    y 0.000000 1.983980 0.000000 
#    z 0.000000 0.000000 2.007950 
# 
# From -- ./inp_files/14273.got.cif
#   From: 2010.05.17/outbox.cif.g08.bks.cpg/sg44_8_cif.got.tgz:14273.got - 2010.06.03 19:37:08.
