data_PCOD9375899
_publ_section_title
;
Structure prediction by ZEFSAII (Michael W. Deem and Ramdas Pophale) SiO2 
 PCOD9375899
Probable space group: I M M 2
;
_chemical_formula_sum "Si O2"
_cell_formula_units_Z 48
_cell_length_a 7.354312
_cell_length_b 9.714181
_cell_length_c 32.570951
_cell_angle_alpha 90.000000
_cell_angle_beta 90.000000
_cell_angle_gamma 90.000000
_cell_volume 2326.905150
_symmetry_space_group_name_H-M "I M M 2"
_symmetry_group_IT_number 44
_symmetry_cell_setting 'orthorhombic'
loop_
_space_group_symop_operation_xyz
x,y,z
-x,-y,z
-x,y,z
x,-y,z
1/2+x,1/2+y,1/2+z
1/2-x,1/2-y,1/2+z
1/2-x,1/2+y,1/2+z
1/2+x,1/2-y,1/2+z
loop_
_atom_site_type_symbol
_atom_site_label
_atom_site_fract_x
_atom_site_fract_y
_atom_site_fract_z
Si Si1 0.777687 0.658321 0.349550
Si Si2 0.277245 0.340676 0.106180
Si Si3 0.282475 0.156442 0.181550
Si Si4 0.711534 0.667363 0.016779
Si Si5 0.222305 0.840551 0.426857
Si Si6 0.283641 0.656991 0.774077
O O1 0.719316 0.500000 0.349688
O O2 0.721553 0.741980 0.390060
O O3 0.716020 0.741539 0.309285
O O4 0.000000 0.657647 0.349384
O O5 0.500000 0.338908 0.105226
O O6 0.224426 0.500000 0.111194
O O7 0.215552 0.250501 0.144503
O O8 0.214466 0.289685 0.061163
O O9 0.500000 0.150568 0.177312
O O10 0.246350 0.207639 0.227654
O O11 0.212425 0.000000 0.179023
O O12 0.500000 0.709268 0.016505
O O13 0.716594 0.500000 0.017288
O O14 0.786334 0.705991 0.972164
O O15 0.000000 0.840908 0.427923
O O16 0.275818 0.000000 0.419912
O O17 0.500000 0.647750 0.779916
O O18 0.211736 0.500000 0.777250
#
# Coordination Sequence:
#
# PCOD9375899 Si02
#       6
#     8   8   8   8   8   8
#     4   9  16  24  34  51  75  99 124 158 196 227
#     4   8  13  22  36  53  74 101 130 156 185 225
#     4   9  17  28  41  58  79 100 125 161 198 225
#     4   7  10  17  30  48  69  95 127 156 179 214
#     4   8  12  19  32  48  68  97 129 155 182 223
#     4   9  17  29  43  56  73 102 135 159 184 227
#
# _framework density 20.628257000000001
#
# number of rings (size 3 to 8) (size 9 to 14) (size 15 to 20)
#    0.000    3.667    0.000    2.500    0.000    2.667 
#    0.000    0.833    0.000    5.000    0.000    0.000 
#    0.000    1.333    0.000    6.333    0.000    8.333 
#
# Total GULP energy -133763.680886 kJ/mol
# GULP energy per Si atom -5573.486704 kJ/mol
# Density = 2.058131 g / cm^3
# Si number density = 20.628257 Si / 1000 Ang^3
#
#
#
# Elastic Constant Matrix: (Units=GPa)
#
#
# Indices 1 2 3 4 5 6 
#
# 1 75.8968 5.0755 5.9679 0.0000 0.0000 0.0000
# 2 5.0755 96.9816 125.9018 0.0000 0.0000 0.0000
# 3 5.9679 125.9018 269.3952 0.0000 0.0000 0.0000
# 4 0.0000 0.0000 0.0000 31.0711 0.0000 0.0000
# 5 0.0000 0.0000 0.0000 0.0000 5.9089 0.0000
# 6 0.0000 0.0000 0.0000 0.0000 0.0000 -10.9276
#
#
#
# Elastic Compliance Matrix: (Units=1/GPa)
#
#
# Indices 1 2 3 4 5 6 
#
# 1 0.013223 -0.000793 0.000078 0.000000 0.000000 0.000000
# 2 -0.000793 0.026266 -0.012258 0.000000 0.000000 0.000000
# 3 0.000078 -0.012258 0.009439 0.000000 0.000000 0.000000
# 4 0.000000 0.000000 0.000000 0.032184 0.000000 0.000000
# 5 0.000000 0.000000 0.000000 0.000000 0.169237 0.000000
# 6 0.000000 0.000000 0.000000 0.000000 0.000000 -0.091511
#
#
# Mechanical properties :
#
#
# Convention : Reuss Voigt Hill
#
# Bulk Modulus (GPa) = 43.51291 79.57377 61.54334
# Shear Modulus (GPa) = 25.98158 25.56569 25.77363
#
# Velocity S-wave (km/s) = 3.55281 3.52426 3.53857
# Velocity P-wave (km/s) = 6.16195 7.43098 6.82602
#
# Compressibility (1/GPa) = 0.02298169
#
# Stress axis : x y z
#
# Youngs Moduli (GPa) = 75.62752 38.07241 105.94404
#
# Poissons Ratio (x) = 0.03018 -0.00821
# Poissons Ratio (y) = 0.05995 1.29863
# Poissons Ratio (z) = -0.00586 0.46668
#
# Static dielectric constant tensor:
#      x y z
#    x 1.885110 0.000000 0.000000 
#    y 0.000000 1.689880 0.000000 
#    z 0.000000 0.000000 1.745220 
# 
# From -- ./inp_files/26035.got.cif
#   From: 2010.05.17/outbox.cif.g08.bks.cpg/sg44_14_cif.got.tgz:26035.got - 2010.06.03 19:37:08.
