data_PCOD9375507
_publ_section_title
;
Structure prediction by ZEFSAII (Michael W. Deem and Ramdas Pophale) SiO2 
 PCOD9375507
Probable space group: I M M 2
;
_chemical_formula_sum "Si O2"
_cell_formula_units_Z 48
_cell_length_a 18.763262
_cell_length_b 14.063246
_cell_length_c 9.086675
_cell_angle_alpha 90.000000
_cell_angle_beta 90.000000
_cell_angle_gamma 90.000000
_cell_volume 2397.722461
_symmetry_space_group_name_H-M "I M M 2"
_symmetry_group_IT_number 44
_symmetry_cell_setting 'orthorhombic'
loop_
_space_group_symop_operation_xyz
x,y,z
-x,-y,z
-x,y,z
x,-y,z
1/2+x,1/2+y,1/2+z
1/2-x,1/2-y,1/2+z
1/2-x,1/2+y,1/2+z
1/2+x,1/2-y,1/2+z
loop_
_atom_site_type_symbol
_atom_site_label
_atom_site_fract_x
_atom_site_fract_y
_atom_site_fract_z
Si Si1 0.082287 0.754000 0.816220
Si Si2 0.584340 0.604972 0.559304
Si Si3 0.693878 0.890119 0.174848
Si Si4 0.160212 0.110422 0.628529
Si Si5 0.695398 0.106037 0.819677
Si Si6 0.161123 0.189827 0.306852
O O1 0.130091 0.670577 0.747429
O O2 0.092340 0.842616 0.705668
O O3 0.000000 0.725696 0.831391
O O4 0.110460 0.803849 0.966189
O O5 0.500000 0.601268 0.533735
O O6 0.614583 0.500000 0.518397
O O7 0.601316 0.626972 0.728228
O O8 0.766110 0.842748 0.230345
O O9 0.689888 0.000000 0.222875
O O10 0.697754 0.890560 0.997316
O O11 0.228067 0.118896 0.738996
O O12 0.171096 0.166983 0.477843
O O13 0.150771 0.000000 0.596432
O O14 0.649531 0.198375 0.779591
O O15 0.669646 0.000000 0.777834
#
# Coordination Sequence:
#
# PCOD9375507 Si02
#       6
#     8   8   8   8   8   8
#     4  11  23  40  60  85 119 165 209 251 302 358
#     4  10  23  42  64  90 124 164 202 248 311 374
#     4  11  23  40  62  90 120 160 205 251 305 364
#     4  11  22  36  59  93 123 152 195 254 311 364
#     4  10  21  38  61  89 123 157 195 246 306 362
#     4  12  21  39  62  94 124 155 201 249 306 366
#
# _framework density 20.018998
#
# number of rings (size 3 to 8) (size 9 to 14) (size 15 to 20)
#    0.000    1.167    3.333    3.000    2.333    3.333 
#    0.000    0.000    0.000    1.500    0.000    0.000 
#    0.000    0.000    0.000    0.000    0.000    0.000 
#
# Total GULP energy -133902.231659 kJ/mol
# GULP energy per Si atom -5579.259652 kJ/mol
# Density = 1.997343 g / cm^3
# Si number density = 20.018998 Si / 1000 Ang^3
#
#
#
# Elastic Constant Matrix: (Units=GPa)
#
#
# Indices 1 2 3 4 5 6 
#
# 1 19.7060 14.3454 12.7492 0.0000 0.0000 0.0000
# 2 14.3454 148.9834 37.2513 0.0000 0.0000 0.0000
# 3 12.7492 37.2513 72.5272 0.0000 0.0000 0.0000
# 4 0.0000 0.0000 0.0000 32.4397 0.0000 0.0000
# 5 0.0000 0.0000 0.0000 0.0000 23.1006 0.0000
# 6 0.0000 0.0000 0.0000 0.0000 0.0000 18.7241
#
#
#
# Elastic Compliance Matrix: (Units=1/GPa)
#
#
# Indices 1 2 3 4 5 6 
#
# 1 0.058835 -0.003533 -0.008528 0.000000 0.000000 0.000000
# 2 -0.003533 0.007913 -0.003443 0.000000 0.000000 0.000000
# 3 -0.008528 -0.003443 0.017056 0.000000 0.000000 0.000000
# 4 0.000000 0.000000 0.000000 0.030826 0.000000 0.000000
# 5 0.000000 0.000000 0.000000 0.000000 0.043289 0.000000
# 6 0.000000 0.000000 0.000000 0.000000 0.000000 0.053407
#
#
# Mechanical properties :
#
#
# Convention : Reuss Voigt Hill
#
# Bulk Modulus (GPa) = 18.94089 41.10093 30.02091
# Shear Modulus (GPa) = 19.23575 26.64428 22.94001
#
# Velocity S-wave (km/s) = 3.10316 3.65218 3.38880
# Velocity P-wave (km/s) = 4.72456 6.19355 5.50824
#
# Compressibility (1/GPa) = 0.05279583
#
# Stress axis : x y z
#
# Youngs Moduli (GPa) = 16.99670 126.36945 58.63194
#
# Poissons Ratio (x) = 0.44645 0.50000
# Poissons Ratio (y) = 0.06005 0.20189
# Poissons Ratio (z) = 0.14494 0.43514
#
# Static dielectric constant tensor:
#      x y z
#    x 1.685780 0.000000 0.000000 
#    y 0.000000 1.733650 0.000000 
#    z 0.000000 0.000000 1.771030 
# 
# From -- ./inp_files/7096.got.cif
#   From: 2010.05.17/outbox.cif.g08.bks.cpg/sg44_4_cif.got.tgz:7096.got - 2010.06.03 19:37:08.
