data_PCOD9375616
_publ_section_title
;
Structure prediction by ZEFSAII (Michael W. Deem and Ramdas Pophale) SiO2 
 PCOD9375616
Probable space group: I M M 2
;
_chemical_formula_sum "Si O2"
_cell_formula_units_Z 58
_cell_length_a 18.511062
_cell_length_b 7.916609
_cell_length_c 17.529246
_cell_angle_alpha 90.000000
_cell_angle_beta 90.000000
_cell_angle_gamma 90.000000
_cell_volume 2568.820551
_symmetry_space_group_name_H-M "I M M 2"
_symmetry_group_IT_number 44
_symmetry_cell_setting 'orthorhombic'
loop_
_space_group_symop_operation_xyz
x,y,z
-x,-y,z
-x,y,z
x,-y,z
1/2+x,1/2+y,1/2+z
1/2-x,1/2-y,1/2+z
1/2-x,1/2+y,1/2+z
1/2+x,1/2-y,1/2+z
loop_
_atom_site_type_symbol
_atom_site_label
_atom_site_fract_x
_atom_site_fract_y
_atom_site_fract_z
Si Si1 0.316344 0.799765 0.839930
Si Si2 0.420224 0.300038 0.708692
Si Si3 0.202090 0.802604 0.593079
Si Si4 0.000000 0.500000 0.691586
Si Si5 0.358593 0.205263 0.550605
Si Si6 0.606059 0.310225 0.221728
Si Si7 0.418585 0.797863 0.975386
Si Si8 0.346473 0.801800 0.377937
O O1 0.353946 0.773119 0.757935
O O2 0.376406 0.736215 0.900572
O O3 0.239403 0.718447 0.861596
O O4 0.305563 0.000000 0.850521
O O5 0.500000 0.233784 0.732260
O O6 0.419471 0.500000 0.721225
O O7 0.409170 0.265695 0.618839
O O8 0.278363 0.727632 0.570556
O O9 0.184135 0.788463 0.682075
O O10 0.134151 0.736268 0.545861
O O11 0.206726 0.000000 0.573695
O O12 0.939167 0.349003 0.694498
O O13 0.369623 0.253070 0.462584
O O14 0.359710 0.000000 0.553022
O O15 0.581894 0.500000 0.199372
O O16 0.612803 0.297985 0.312069
O O17 0.500000 0.730244 0.984507
O O18 0.424772 0.000000 0.968742
O O19 0.364377 0.000000 0.369845
#
# Coordination Sequence:
#
# PCOD9375616 Si02
#       8
#     8   8   8   2   8   8   8   8
#     4  11  22  39  65  95 130 171 220 277 334 401
#     4  11  25  43  64  94 130 172 222 276 341 407
#     4  10  22  40  62  93 128 170 219 270 330 401
#     4  12  26  48  68  98 136 180 222 292 336 406
#     4  10  22  42  68  96 131 170 218 273 331 402
#     4  11  25  44  69  98 133 179 229 278 342 408
#     4  10  22  36  57  90 129 171 215 269 333 400
#     4  11  22  42  68  98 131 172 224 279 338 398
#
# _framework density 22.578454000000001
#
# number of rings (size 3 to 8) (size 9 to 14) (size 15 to 20)
#    0.000    1.379    2.069    2.690    1.931    5.241 
#    1.241    0.000    0.000    0.000    0.000    0.000 
#    0.000    0.000    0.000    0.000    0.000    0.000 
#
# Total GULP energy -161759.670394 kJ/mol
# GULP energy per Si atom -5577.919669 kJ/mol
# Density = 2.252706 g / cm^3
# Si number density = 22.578454 Si / 1000 Ang^3
#
#
#
# Elastic Constant Matrix: (Units=GPa)
#
#
# Indices 1 2 3 4 5 6 
#
# 1 41.5945 3.8094 -11.5246 0.0000 0.0000 0.0000
# 2 3.8094 80.2335 1.3091 0.0000 0.0000 0.0000
# 3 -11.5246 1.3091 90.4933 0.0000 0.0000 0.0000
# 4 0.0000 0.0000 0.0000 10.8893 0.0000 0.0000
# 5 0.0000 0.0000 0.0000 0.0000 -18.0491 0.0000
# 6 0.0000 0.0000 0.0000 0.0000 0.0000 25.7896
#
#
#
# Elastic Compliance Matrix: (Units=1/GPa)
#
#
# Indices 1 2 3 4 5 6 
#
# 1 0.025044 -0.001241 0.003207 0.000000 0.000000 0.000000
# 2 -0.001241 0.012528 -0.000339 0.000000 0.000000 0.000000
# 3 0.003207 -0.000339 0.011464 0.000000 0.000000 0.000000
# 4 0.000000 0.000000 0.000000 0.091834 0.000000 0.000000
# 5 0.000000 0.000000 0.000000 0.000000 -0.055404 0.000000
# 6 0.000000 0.000000 0.000000 0.000000 0.000000 0.038775
#
#
# Mechanical properties :
#
#
# Convention : Reuss Voigt Hill
#
# Bulk Modulus (GPa) = 19.12435 22.16767 20.64601
# Shear Modulus (GPa) = 36.12272 18.30777 27.21524
#
# Velocity S-wave (km/s) = 4.00418 2.85063 3.47560
# Velocity P-wave (km/s) = 5.46503 4.54689 5.02696
#
# Compressibility (1/GPa) = 0.05228936
#
# Stress axis : x y z
#
# Youngs Moduli (GPa) = 39.92970 79.82055 87.23018
#
# Poissons Ratio (x) = 0.09909 -0.27978
# Poissons Ratio (y) = 0.04957 0.02960
# Poissons Ratio (z) = -0.12807 0.02708
#
# Static dielectric constant tensor:
#      x y z
#    x 1.900350 0.000000 0.000000 
#    y 0.000000 1.797750 0.000000 
#    z 0.000000 0.000000 1.869120 
# 
# From -- ./inp_files/22119.got.cif
#   From: 2010.05.17/outbox.cif.g08.bks.cpg/sg44_12_cif.got.tgz:22119.got - 2010.06.03 19:37:08.
