data_PCOD9375185
_publ_section_title
;
Structure prediction by ZEFSAII (Michael W. Deem and Ramdas Pophale) SiO2 
 PCOD9375185
Probable space group: I M M 2
;
_chemical_formula_sum "Si O2"
_cell_formula_units_Z 58
_cell_length_a 7.477656
_cell_length_b 28.354730
_cell_length_c 11.531384
_cell_angle_alpha 90.000000
_cell_angle_beta 90.000000
_cell_angle_gamma 90.000000
_cell_volume 2444.963797
_symmetry_space_group_name_H-M "I M M 2"
_symmetry_group_IT_number 44
_symmetry_cell_setting 'orthorhombic'
loop_
_space_group_symop_operation_xyz
x,y,z
-x,-y,z
-x,y,z
x,-y,z
1/2+x,1/2+y,1/2+z
1/2-x,1/2-y,1/2+z
1/2-x,1/2+y,1/2+z
1/2+x,1/2-y,1/2+z
loop_
_atom_site_type_symbol
_atom_site_label
_atom_site_fract_x
_atom_site_fract_y
_atom_site_fract_z
Si Si1 0.788520 0.283754 0.505680
Si Si2 0.285824 0.642378 0.191171
Si Si3 0.500000 0.500000 0.106302
Si Si4 0.782804 0.552867 0.755763
Si Si5 0.200095 0.254058 0.262133
Si Si6 0.784829 0.612212 0.548520
Si Si7 0.290799 0.927114 0.519911
Si Si8 0.786731 0.947659 0.833505
O O1 0.718101 0.253460 0.394081
O O2 0.773791 0.266665 0.639860
O O3 0.714703 0.337357 0.505264
O O4 0.000000 0.285822 0.481659
O O5 0.500000 0.646553 0.204011
O O6 0.201333 0.690186 0.234190
O O7 0.216054 0.597642 0.264552
O O8 0.239163 0.626513 0.060997
O O9 0.657331 0.459426 0.092966
O O10 0.720994 0.500000 0.724477
O O11 0.720838 0.594827 0.673440
O O12 0.737564 0.563223 0.888122
O O13 0.000000 0.552076 0.748943
O O14 0.000000 0.234392 0.269549
O O15 0.737742 0.569248 0.464515
O O16 0.000000 0.616675 0.551765
O O17 0.500000 0.939326 0.533158
O O18 0.000000 0.951924 0.811139
O O19 0.710964 0.000000 0.816194
#
# Coordination Sequence:
#
# PCOD9375185 Si02
#       8
#     8   8   2   8   8   8   8   8
#     4  10  23  43  68 100 133 172 222 287 355 431
#     4  11  23  40  65  92 131 172 216 274 338 405
#     4  12  22  40  60  90 130 184 230 276 340 400
#     4   9  18  34  57  86 124 171 219 272 327 391
#     4  11  24  44  70  98 132 171 228 288 356 431
#     4  10  20  39  63  88 125 165 215 271 327 395
#     4  11  23  39  61  91 130 175 229 278 333 401
#     4  10  22  37  57  90 131 170 210 260 318 391
#
# _framework density 23.722232000000002
#
# number of rings (size 3 to 8) (size 9 to 14) (size 15 to 20)
#    0.000    1.655    2.759    1.448    0.966    4.138 
#    1.241    1.379    0.000    0.000    0.000    0.000 
#    0.000    0.000    0.000    0.000    0.000    0.000 
#
# Total GULP energy -161638.104148 kJ/mol
# GULP energy per Si atom -5573.727729 kJ/mol
# Density = 2.366824 g / cm^3
# Si number density = 23.722232 Si / 1000 Ang^3
#
#
#
# Elastic Constant Matrix: (Units=GPa)
#
#
# Indices 1 2 3 4 5 6 
#
# 1 95.2098 -4.2707 7.3781 0.0000 0.0000 0.0000
# 2 -4.2707 63.9113 34.0014 0.0001 0.0000 0.0000
# 3 7.3781 34.0014 119.1942 -0.0007 0.0001 0.0008
# 4 0.0000 0.0001 -0.0007 40.1548 0.0000 0.0006
# 5 0.0000 0.0000 0.0001 0.0000 28.6017 -0.0002
# 6 0.0000 0.0000 0.0008 0.0006 -0.0002 154.0911
#
#
#
# Elastic Compliance Matrix: (Units=1/GPa)
#
#
# Indices 1 2 3 4 5 6 
#
# 1 0.010638 0.001251 -0.001015 0.000000 0.000000 0.000000
# 2 0.001251 0.018593 -0.005381 0.000000 0.000000 0.000000
# 3 -0.001015 -0.005381 0.009988 0.000000 0.000000 0.000000
# 4 0.000000 0.000000 0.000000 0.024904 0.000000 0.000000
# 5 0.000000 0.000000 0.000000 0.000000 0.034963 0.000000
# 6 0.000000 0.000000 0.000000 0.000000 0.000000 0.006490
#
#
# Mechanical properties :
#
#
# Convention : Reuss Voigt Hill
#
# Bulk Modulus (GPa) = 34.56930 39.17033 36.86982
# Shear Modulus (GPa) = 39.83782 60.64994 50.24388
#
# Velocity S-wave (km/s) = 4.10243 5.06184 4.60718
# Velocity P-wave (km/s) = 6.08638 7.12116 6.62401
#
# Compressibility (1/GPa) = 0.02892740
#
# Stress axis : x y z
#
# Youngs Moduli (GPa) = 94.00332 53.78304 100.12406
#
# Poissons Ratio (x) = -0.06728 0.10166
# Poissons Ratio (y) = -0.11760 0.53880
# Poissons Ratio (z) = 0.09545 0.28943
#
# Static dielectric constant tensor:
#      x y z
#    x 1.867300 0.000000 0.000000 
#    y 0.000000 1.846960 0.000000 
#    z 0.000000 0.000000 2.028090 
# 
# From -- ./inp_files/11318.got.cif
#   From: 2010.05.17/outbox.cif.g08.bks.cpg/sg44_6_cif.got.tgz:11318.got - 2010.06.03 19:37:08.
