data_PCOD9375708
_publ_section_title
;
Structure prediction by ZEFSAII (Michael W. Deem and Ramdas Pophale) SiO2 
 PCOD9375708
Probable space group: I M M 2
;
_chemical_formula_sum "Si O2"
_cell_formula_units_Z 64
_cell_length_a 23.048621
_cell_length_b 23.198302
_cell_length_c 4.997630
_cell_angle_alpha 90.000000
_cell_angle_beta 90.000000
_cell_angle_gamma 90.000000
_cell_volume 2672.177141
_symmetry_space_group_name_H-M "I M M 2"
_symmetry_group_IT_number 44
_symmetry_cell_setting 'orthorhombic'
loop_
_space_group_symop_operation_xyz
x,y,z
-x,-y,z
-x,y,z
x,-y,z
1/2+x,1/2+y,1/2+z
1/2-x,1/2-y,1/2+z
1/2-x,1/2+y,1/2+z
1/2+x,1/2-y,1/2+z
loop_
_atom_site_type_symbol
_atom_site_label
_atom_site_fract_x
_atom_site_fract_y
_atom_site_fract_z
Si Si1 0.066685 0.565785 0.888920
Si Si2 0.065742 0.861007 0.401519
Si Si3 0.750768 0.569417 0.692636
Si Si4 0.709844 0.750915 0.419045
Si Si5 0.182177 0.431118 0.202554
Si Si6 0.436874 0.769869 0.687827
Si Si7 0.858349 0.130772 0.928591
Si Si8 0.111258 0.679703 0.673546
O O1 0.075775 0.500000 0.784665
O O2 0.116808 0.577080 0.105923
O O3 0.080309 0.618145 0.693081
O O4 0.000000 0.568675 0.981545
O O5 0.063466 0.794347 0.305361
O O6 0.113229 0.871374 0.633836
O O7 0.000000 0.877627 0.477311
O O8 0.090121 0.887738 0.129019
O O9 0.746658 0.500000 0.703372
O O10 0.769071 0.589158 0.989154
O O11 0.695017 0.592932 0.538070
O O12 0.803561 0.588090 0.499400
O O13 0.743387 0.764097 0.690947
O O14 0.667325 0.695938 0.459185
O O15 0.672892 0.804127 0.303453
O O16 0.189143 0.500000 0.206655
O O17 0.500000 0.795167 0.752390
O O18 0.427820 0.779171 0.372402
O O19 0.389370 0.801326 0.866973
#
# Coordination Sequence:
#
# PCOD9375708 Si02
#       8
#     8   8   8   8   8   8   8   8
#     4  10  23  43  66  94 130 173 222 273 326 385
#     4  11  22  40  64  96 130 164 210 258 312 389
#     4  10  22  40  66  94 125 167 219 265 314 384
#     4  12  26  41  60  91 131 165 210 266 328 387
#     4   9  20  40  61  88 121 164 216 267 315 367
#     4  11  21  39  62  88 118 155 206 260 305 370
#     4  12  23  41  66  95 129 171 208 261 327 382
#     4  12  24  42  64  90 125 166 213 258 324 383
#
# _framework density 23.950509
#
# number of rings (size 3 to 8) (size 9 to 14) (size 15 to 20)
#    0.000    1.125    2.500    3.750    3.500    3.000 
#    0.000    3.750    0.000   11.250    0.000    0.000 
#    0.000    0.000    0.000    0.000    0.000    0.000 
#
# Total GULP energy -178769.108152 kJ/mol
# GULP energy per Si atom -5586.534630 kJ/mol
# Density = 2.389600 g / cm^3
# Si number density = 23.950509 Si / 1000 Ang^3
#
#
#
# Elastic Constant Matrix: (Units=GPa)
#
#
# Indices 1 2 3 4 5 6 
#
# 1 108.0441 19.9375 23.5766 0.0000 0.0000 0.0000
# 2 19.9375 58.5151 6.9268 0.0000 0.0000 0.0000
# 3 23.5766 6.9268 113.3287 0.0000 0.0000 0.0000
# 4 0.0000 0.0000 0.0000 23.2789 0.0000 0.0000
# 5 0.0000 0.0000 0.0000 0.0000 33.3159 0.0000
# 6 0.0000 0.0000 0.0000 0.0000 0.0000 31.0857
#
#
#
# Elastic Compliance Matrix: (Units=1/GPa)
#
#
# Indices 1 2 3 4 5 6 
#
# 1 0.010283 -0.003274 -0.001939 0.000000 0.000000 0.000000
# 2 -0.003274 0.018257 -0.000435 0.000000 0.000000 0.000000
# 3 -0.001939 -0.000435 0.009254 0.000000 0.000000 0.000000
# 4 0.000000 0.000000 0.000000 0.042957 0.000000 0.000000
# 5 0.000000 0.000000 0.000000 0.000000 0.030016 0.000000
# 6 0.000000 0.000000 0.000000 0.000000 0.000000 0.032169
#
#
# Mechanical properties :
#
#
# Convention : Reuss Voigt Hill
#
# Bulk Modulus (GPa) = 37.73942 42.30775 40.02359
# Shear Modulus (GPa) = 30.66286 32.83256 31.74771
#
# Velocity S-wave (km/s) = 3.58195 3.70652 3.64477
# Velocity P-wave (km/s) = 5.73573 6.00172 5.87024
#
# Compressibility (1/GPa) = 0.02649750
#
# Stress axis : x y z
#
# Youngs Moduli (GPa) = 97.24994 54.77464 108.06291
#
# Poissons Ratio (x) = 0.17934 0.20954
# Poissons Ratio (y) = 0.31840 0.04698
# Poissons Ratio (z) = 0.18858 0.02381
#
# Static dielectric constant tensor:
#      x y z
#    x 1.958020 0.000000 0.000000 
#    y 0.000000 1.962780 0.000000 
#    z 0.000000 0.000000 1.900860 
# 
# From -- ./inp_files/2530.got.cif
#   From: 2010.05.17/outbox.cif.g08.bks.cpg/sg44_2_cif.got.tgz:2530.got - 2010.06.03 19:37:08.
