data_PCOD9375107
_publ_section_title
;
Structure prediction by ZEFSAII (Michael W. Deem and Ramdas Pophale) SiO2 
 PCOD9375107
Probable space group: I M M 2
;
_chemical_formula_sum "Si O2"
_cell_formula_units_Z 64
_cell_length_a 8.591581
_cell_length_b 24.487941
_cell_length_c 15.915347
_cell_angle_alpha 90.000000
_cell_angle_beta 90.000000
_cell_angle_gamma 90.000000
_cell_volume 3348.431902
_symmetry_space_group_name_H-M "I M M 2"
_symmetry_group_IT_number 44
_symmetry_cell_setting 'orthorhombic'
loop_
_space_group_symop_operation_xyz
x,y,z
-x,-y,z
-x,y,z
x,-y,z
1/2+x,1/2+y,1/2+z
1/2-x,1/2-y,1/2+z
1/2-x,1/2+y,1/2+z
1/2+x,1/2-y,1/2+z
loop_
_atom_site_type_symbol
_atom_site_label
_atom_site_fract_x
_atom_site_fract_y
_atom_site_fract_z
Si Si1 0.812066 0.636536 0.970760
Si Si2 0.813406 0.250094 0.406429
Si Si3 0.312055 0.136782 0.658536
Si Si4 0.811731 0.437096 0.813335
Si Si5 0.689965 0.062646 0.814663
Si Si6 0.814811 0.252024 0.717207
Si Si7 0.684729 0.367466 0.658399
Si Si8 0.187784 0.368136 0.477348
O O1 0.741233 0.696039 0.954031
O O2 0.761653 0.595905 0.896610
O O3 0.000000 0.641092 0.966375
O O4 0.771087 0.617670 0.064705
O O5 0.738350 0.249665 0.314187
O O6 0.769410 0.305740 0.454204
O O7 0.000000 0.249884 0.396977
O O8 0.500000 0.140408 0.663580
O O9 0.259368 0.096637 0.732872
O O10 0.245001 0.196861 0.674226
O O11 0.760700 0.500000 0.815269
O O12 0.752225 0.405917 0.731251
O O13 0.000000 0.436328 0.811893
O O14 0.500000 0.062632 0.813821
O O15 0.741689 0.000000 0.812897
O O16 0.736871 0.093784 0.899622
O O17 0.744617 0.306139 0.675645
O O18 0.000000 0.255149 0.712094
O O19 0.500000 0.368126 0.662915
O O20 0.741056 0.384514 0.566097
O O21 0.000000 0.370490 0.483681
#
# Coordination Sequence:
#
# PCOD9375107 Si02
#       8
#     8   8   8   8   8   8   8   8
#     4  10  21  36  59  89 121 155 193 240 291 350
#     4  11  21  36  60  88 120 155 192 241 297 357
#     4  10  20  37  60  91 124 156 197 242 290 346
#     4  10  22  41  62  86 119 160 204 247 293 348
#     4   9  18  35  60  88 119 157 200 244 289 340
#     4  12  23  37  60  88 120 157 196 240 300 360
#     4  12  25  40  61  89 120 155 199 248 302 354
#     4  10  21  38  60  88 122 158 198 240 294 357
#
# _framework density 19.113426
#
# number of rings (size 3 to 8) (size 9 to 14) (size 15 to 20)
#    0.000    1.500    2.500    3.375    0.000    4.750 
#    0.000    3.750    0.000    1.125    0.000    1.750 
#    0.000    0.000    0.000    0.000    0.000    0.000 
#
# Total GULP energy -178862.862165 kJ/mol
# GULP energy per Si atom -5589.464443 kJ/mol
# Density = 1.906992 g / cm^3
# Si number density = 19.113426 Si / 1000 Ang^3
#
#
#
# Elastic Constant Matrix: (Units=GPa)
#
#
# Indices 1 2 3 4 5 6 
#
# 1 24.9818 28.0945 34.0837 0.0000 0.0000 0.0000
# 2 28.0945 161.0404 86.3568 0.0000 0.0000 0.0000
# 3 34.0837 86.3568 175.4089 0.0000 0.0000 0.0000
# 4 0.0000 0.0000 0.0000 -0.4782 0.0000 0.0000
# 5 0.0000 0.0000 0.0000 0.0000 19.2828 0.0000
# 6 0.0000 0.0000 0.0000 0.0000 0.0000 22.7050
#
#
#
# Elastic Compliance Matrix: (Units=1/GPa)
#
#
# Indices 1 2 3 4 5 6 
#
# 1 0.057874 -0.005525 -0.008526 0.000000 0.000000 0.000000
# 2 -0.005525 0.008964 -0.003340 0.000000 0.000000 0.000000
# 3 -0.008526 -0.003340 0.009002 0.000000 0.000000 0.000000
# 4 0.000000 0.000000 0.000000 -2.091365 0.000000 0.000000
# 5 0.000000 0.000000 0.000000 0.000000 0.051860 0.000000
# 6 0.000000 0.000000 0.000000 0.000000 0.000000 0.044043
#
#
# Mechanical properties :
#
#
# Convention : Reuss Voigt Hill
#
# Bulk Modulus (GPa) = 24.35455 73.16681 48.76068
# Shear Modulus (GPa) = -2.67215 22.49499 9.91142
#
# Velocity S-wave (km/s) = -1.18367 3.43435 2.27966
# Velocity P-wave (km/s) = 3.30177 7.35457 5.70050
#
# Compressibility (1/GPa) = 0.04106008
#
# Stress axis : x y z
#
# Youngs Moduli (GPa) = 17.27887 111.55238 111.08844
#
# Poissons Ratio (x) = 0.61629 0.94710
# Poissons Ratio (y) = 0.09546 0.37102
# Poissons Ratio (z) = 0.14731 0.37257
#
# Static dielectric constant tensor:
#      x y z
#    x 1.646980 0.000000 0.000000 
#    y 0.000000 1.640260 0.000000 
#    z 0.000000 0.000000 1.662530 
# 
# From -- ./inp_files/16791.got.cif
#   From: 2010.05.17/outbox.cif.g08.bks.cpg/sg44_9_cif.got.tgz:16791.got - 2010.06.03 19:37:08.
