data_PCOD9375970
_publ_section_title
;
Structure prediction by ZEFSAII (Michael W. Deem and Ramdas Pophale) SiO2 
 PCOD9375970
Probable space group: I M M 2
;
_chemical_formula_sum "Si O2"
_cell_formula_units_Z 32
_cell_length_a 21.000000
_cell_length_b 9.000000
_cell_length_c 21.000000
_cell_angle_alpha 90.000000
_cell_angle_beta 90.000000
_cell_angle_gamma 90.000000
_cell_volume 3969.000000
_symmetry_space_group_name_H-M "I M M 2"
_symmetry_group_IT_number 44
_symmetry_cell_setting 'orthorhombic'
loop_
_space_group_symop_operation_xyz
x,y,z
-x,-y,z
-x,y,z
x,-y,z
1/2+x,1/2+y,1/2+z
1/2-x,1/2-y,1/2+z
1/2-x,1/2+y,1/2+z
1/2+x,1/2-y,1/2+z
loop_
_atom_site_type_symbol
_atom_site_label
_atom_site_fract_x
_atom_site_fract_y
_atom_site_fract_z
Si Si1 0.794815 0.319748 0.842830
Si Si2 0.427647 0.178203 0.523485
Si Si3 0.714298 0.179489 0.959716
Si Si4 0.070887 0.820464 0.283096
Si Si5 0.705084 0.680009 0.724591
Si Si6 0.073275 0.821035 0.882599
Si Si7 0.071666 0.679055 0.423423
Si Si8 0.802324 0.820512 0.080551
O O1 0.798306 0.500000 0.846419
O O2 0.752886 0.258273 0.902267
O O3 0.756290 0.275916 0.778493
O O4 0.866207 0.251407 0.846515
O O5 0.500000 0.207543 0.547577
O O6 0.423163 0.254053 0.453918
O O7 0.370069 0.245718 0.564206
O O8 0.420360 0.000000 0.517452
O O9 0.638590 0.219102 0.958257
O O10 0.718741 0.000000 0.951007
O O11 0.750840 0.216324 0.025593
O O12 0.133290 0.772083 0.244052
O O13 0.075739 0.751573 0.353519
O O14 0.000000 0.781088 0.257514
O O15 0.073152 0.000000 0.287903
O O16 0.704882 0.500000 0.725693
O O17 0.718680 0.724373 0.651814
O O18 0.000000 0.789961 0.859651
O O19 0.080805 0.000000 0.884481
O O20 0.072086 0.500000 0.417889
O O21 0.000000 0.719313 0.449106
O O22 0.810524 0.000000 0.079491
#
# Coordination Sequence:
#
# PCOD9375970 Si02
#       8
#     8   8   8   8   8   8   8   8
#     4  11  20  32  53  77 103 132 167 214 259 302
#     4  10  20  33  49  73 105 137 171 211 254 300
#     4  10  19  31  50  74  98 129 170 214 254 300
#     4   9  16  28  46  67  93 126 164 200 237 290
#     4   9  19  33  48  72 102 135 170 207 253 301
#     4  10  20  34  53  77 103 132 169 210 255 309
#     4   9  17  29  46  70  98 125 157 203 256 299
#     4  10  20  34  51  71 100 137 176 211 249 304
#
# _framework density 8.0624839999999995
#
# number of rings (size 3 to 8) (size 9 to 14) (size 15 to 20)
#    0.000    2.250    2.500    1.125    0.000    2.000 
#    0.000    3.125    0.000    2.250    0.000    3.500 
#    0.000    2.000    0.000    0.000    0.000    0.000 
#
# Total GULP energy -178300.821250 kJ/mol
# GULP energy per Si atom -5571.900664 kJ/mol
# Density = 0.804413 g / cm^3
# Si number density = 8.062484 Si / 1000 Ang^3
#
#
#
# Elastic Constant Matrix: (Units=GPa)
#
#
# Indices 1 2 3 4 5 6 
#
# 1 167.2066 35.4212 77.4816 0.0000 0.0000 0.0000
# 2 35.4212 36.5864 23.2486 0.0000 0.0000 0.0000
# 3 77.4816 23.2486 111.5296 0.0000 0.0000 0.0000
# 4 0.0000 0.0000 0.0000 18.4829 0.0000 0.0000
# 5 0.0000 0.0000 0.0000 0.0000 26.4359 0.0000
# 6 0.0000 0.0000 0.0000 0.0000 0.0000 27.8095
#
#
#
# Elastic Compliance Matrix: (Units=1/GPa)
#
#
# Indices 1 2 3 4 5 6 
#
# 1 0.009835 -0.005971 -0.005588 0.000000 0.000000 0.000000
# 2 -0.005971 0.035131 -0.003175 0.000000 0.000000 0.000000
# 3 -0.005588 -0.003175 0.013510 0.000000 0.000000 0.000000
# 4 0.000000 0.000000 0.000000 0.054104 0.000000 0.000000
# 5 0.000000 0.000000 0.000000 0.000000 0.037827 0.000000
# 6 0.000000 0.000000 0.000000 0.000000 0.000000 0.035959
#
#
# Mechanical properties :
#
#
# Convention : Reuss Voigt Hill
#
# Bulk Modulus (GPa) = 34.47295 65.29174 49.88234
# Shear Modulus (GPa) = 22.17267 26.49040 24.33154
#
# Velocity S-wave (km/s) = 3.71219 4.05757 3.88872
# Velocity P-wave (km/s) = 6.30863 7.90764 7.15296
#
# Compressibility (1/GPa) = 0.02900825
#
# Stress axis : x y z
#
# Youngs Moduli (GPa) = 101.67959 28.46505 74.01927
#
# Poissons Ratio (x) = 0.16996 0.41360
# Poissons Ratio (y) = 0.60712 0.23501
# Poissons Ratio (z) = 0.56816 0.09038
#
# Static dielectric constant tensor:
#      x y z
#    x 1.568960 0.000000 0.000000 
#    y 0.000000 1.537660 0.000000 
#    z 0.000000 0.000000 1.526160 
# 
# From -- ./inp_files/20729.got.cif
#   From: 2010.05.17/outbox.ucp.g08.bks.cvg/sg44_11_cif.got.tgz:20729.got - 2010.06.11 16:32:36.
