data_PCOD9375696
_publ_section_title
;
Structure prediction by ZEFSAII (Michael W. Deem and Ramdas Pophale) SiO2 
 PCOD9375696
Probable space group: I M M 2
;
_chemical_formula_sum "Si O2"
_cell_formula_units_Z 64
_cell_length_a 8.913851
_cell_length_b 24.120612
_cell_length_c 15.743512
_cell_angle_alpha 90.000000
_cell_angle_beta 90.000000
_cell_angle_gamma 90.000000
_cell_volume 3384.973808
_symmetry_space_group_name_H-M "I M M 2"
_symmetry_group_IT_number 44
_symmetry_cell_setting 'orthorhombic'
loop_
_space_group_symop_operation_xyz
x,y,z
-x,-y,z
-x,y,z
x,-y,z
1/2+x,1/2+y,1/2+z
1/2-x,1/2-y,1/2+z
1/2-x,1/2+y,1/2+z
1/2+x,1/2-y,1/2+z
loop_
_atom_site_type_symbol
_atom_site_label
_atom_site_fract_x
_atom_site_fract_y
_atom_site_fract_z
Si Si1 0.320154 0.435027 0.604600
Si Si2 0.320595 0.252534 0.516046
Si Si3 0.321668 0.130064 0.448015
Si Si4 0.179269 0.065423 0.604503
Si Si5 0.178373 0.634535 0.452509
Si Si6 0.320701 0.636181 0.771311
Si Si7 0.679255 0.630252 0.275489
Si Si8 0.679413 0.248101 0.203630
O O1 0.500000 0.429471 0.592042
O O2 0.283850 0.500000 0.608730
O O3 0.237787 0.404860 0.527372
O O4 0.283087 0.404059 0.692628
O O5 0.500000 0.259975 0.520816
O O6 0.289114 0.194590 0.469373
O O7 0.248956 0.304863 0.469149
O O8 0.253098 0.249908 0.610600
O O9 0.500000 0.124164 0.438758
O O10 0.263351 0.094374 0.526926
O O11 0.240327 0.114541 0.360774
O O12 0.221422 0.093730 0.693767
O O13 0.000000 0.074254 0.593685
O O14 0.207950 0.000000 0.606511
O O15 0.235377 0.614609 0.360896
O O16 0.000000 0.637951 0.455011
O O17 0.500000 0.642156 0.774570
O O18 0.245716 0.695470 0.752307
O O19 0.500000 0.624631 0.289076
O O20 0.710173 0.694294 0.251554
O O21 0.500000 0.242408 0.195314
#
# Coordination Sequence:
#
# PCOD9375696 Si02
#       8
#     8   8   8   8   8   8   8   8
#     4  10  23  44  66  87 117 161 209 255 305 363
#     4  11  22  38  61  89 124 165 203 244 304 371
#     4  11  24  40  62  92 127 163 203 253 307 361
#     4  10  22  42  66  90 119 161 211 256 303 364
#     4  12  25  39  62  94 126 160 202 253 308 363
#     4  11  23  39  63  92 124 162 204 249 303 368
#     4  10  22  40  62  90 125 163 204 248 302 368
#     4  11  21  36  62  93 125 159 198 251 309 362
#
# _framework density 18.907088000000002
#
# number of rings (size 3 to 8) (size 9 to 14) (size 15 to 20)
#    0.000    1.250    2.500    3.375    0.000    8.000 
#    0.000    2.500    0.000    0.000    0.000    0.000 
#    0.000    0.000    0.000    0.000    0.000    0.000 
#
# Total GULP energy -178987.958627 kJ/mol
# GULP energy per Si atom -5593.373707 kJ/mol
# Density = 1.886405 g / cm^3
# Si number density = 18.907088 Si / 1000 Ang^3
#
#
#
# Elastic Constant Matrix: (Units=GPa)
#
#
# Indices 1 2 3 4 5 6 
#
# 1 64.4401 62.1786 69.9243 0.0000 0.0000 0.0000
# 2 62.1786 111.0246 62.9646 0.0000 0.0000 0.0000
# 3 69.9243 62.9646 168.0180 0.0001 0.0000 0.0000
# 4 0.0000 0.0000 0.0001 -4.6783 0.0000 0.0000
# 5 0.0000 0.0000 0.0000 0.0000 33.2910 0.0000
# 6 0.0000 0.0000 0.0000 0.0000 0.0000 25.4663
#
#
#
# Elastic Compliance Matrix: (Units=1/GPa)
#
#
# Indices 1 2 3 4 5 6 
#
# 1 0.048692 -0.020036 -0.012756 0.000000 0.000000 0.000000
# 2 -0.020036 0.019682 0.000962 0.000000 0.000000 0.000000
# 3 -0.012756 0.000962 0.010900 0.000000 0.000000 0.000000
# 4 0.000000 0.000000 0.000000 -0.213754 0.000000 0.000000
# 5 0.000000 0.000000 0.000000 0.000000 0.030038 0.000000
# 6 0.000000 0.000000 0.000000 0.000000 0.000000 0.039268
#
#
# Mechanical properties :
#
#
# Convention : Reuss Voigt Hill
#
# Bulk Modulus (GPa) = 64.03806 81.51305 72.77556
# Shear Modulus (GPa) = 1355.46706 20.71017 688.08862
#
# Velocity S-wave (km/s) = 26.80421 3.31322 19.09769
# Velocity P-wave (km/s) = 31.49441 7.60543 22.91005
#
# Compressibility (1/GPa) = 0.01561571
#
# Stress axis : x y z
#
# Youngs Moduli (GPa) = 20.53714 50.80792 91.74506
#
# Poissons Ratio (x) = 1.01796 1.17030
# Poissons Ratio (y) = 0.41147 -0.08830
# Poissons Ratio (z) = 0.26197 -0.04890
#
# Static dielectric constant tensor:
#      x y z
#    x 1.629720 0.000000 0.000000 
#    y 0.000000 1.635350 0.000000 
#    z 0.000000 0.000000 1.640390 
# 
# From -- ./inp_files/16794.got.cif
#   From: 2010.05.17/outbox.cif.g08.bks.cpg/sg44_9_cif.got.tgz:16794.got - 2010.06.03 19:37:08.
