data_PCOD9375408
_publ_section_title
;
Structure prediction by ZEFSAII (Michael W. Deem and Ramdas Pophale) SiO2 
 PCOD9375408
Probable space group: I M M 2
;
_chemical_formula_sum "Si O2"
_cell_formula_units_Z 48
_cell_length_a 8.799214
_cell_length_b 31.302517
_cell_length_c 9.321687
_cell_angle_alpha 90.000000
_cell_angle_beta 90.000000
_cell_angle_gamma 90.000000
_cell_volume 2567.542590
_symmetry_space_group_name_H-M "I M M 2"
_symmetry_group_IT_number 44
_symmetry_cell_setting 'orthorhombic'
loop_
_space_group_symop_operation_xyz
x,y,z
-x,-y,z
-x,y,z
x,-y,z
1/2+x,1/2+y,1/2+z
1/2-x,1/2-y,1/2+z
1/2-x,1/2+y,1/2+z
1/2+x,1/2-y,1/2+z
loop_
_atom_site_type_symbol
_atom_site_label
_atom_site_fract_x
_atom_site_fract_y
_atom_site_fract_z
Si Si1 0.317363 0.951297 0.321440
Si Si2 0.183229 0.369706 0.636707
Si Si3 0.682126 0.872650 0.803211
Si Si4 0.318610 0.450513 0.135399
Si Si5 0.682330 0.707988 0.138141
Si Si6 0.682197 0.710812 0.802694
O O1 0.500000 0.949586 0.341868
O O2 0.276126 0.915368 0.206240
O O3 0.238739 0.942147 0.473527
O O4 0.278245 0.000000 0.278531
O O5 0.225924 0.367560 0.469784
O O6 0.259367 0.331925 0.726077
O O7 0.000000 0.365025 0.645783
O O8 0.500000 0.870553 0.793602
O O9 0.739484 0.917526 0.741358
O O10 0.753296 0.834811 0.709552
O O11 0.500000 0.445272 0.141137
O O12 0.281494 0.500000 0.168287
O O13 0.500000 0.707892 0.146949
O O14 0.746966 0.748559 0.222906
O O15 0.725415 0.710499 0.970505
O O16 0.500000 0.713158 0.793827
#
# Coordination Sequence:
#
# PCOD9375408 Si02
#       6
#     8   8   8   8   8   8
#     4   9  18  35  59  84 111 147 190 235 285 338
#     4  10  22  38  57  84 116 149 188 234 282 334
#     4  11  23  38  58  85 116 150 190 233 279 334
#     4  10  21  37  57  83 115 150 190 235 282 334
#     4  11  24  41  61  86 116 148 186 232 280 333
#     4  11  24  40  60  86 114 147 188 231 278 334
#
# _framework density 18.694918999999999
#
# number of rings (size 3 to 8) (size 9 to 14) (size 15 to 20)
#    0.000    1.667    0.000    4.000    0.000   13.000 
#    0.000    1.667    0.000    2.000    0.000    0.000 
#    0.000    0.000    0.000    0.000    0.000    0.000 
#
# Total GULP energy -134164.412405 kJ/mol
# GULP energy per Si atom -5590.183850 kJ/mol
# Density = 1.865237 g / cm^3
# Si number density = 18.694919 Si / 1000 Ang^3
#
#
#
# Elastic Constant Matrix: (Units=GPa)
#
#
# Indices 1 2 3 4 5 6 
#
# 1 42.2855 51.3106 66.4999 -0.0001 -0.0001 -0.0002
# 2 51.3106 130.0637 111.7076 0.0001 -0.0001 -0.0001
# 3 66.4999 111.7076 187.6725 0.0002 -0.0003 -0.0007
# 4 -0.0001 0.0001 0.0002 42.6758 -0.0001 -0.0002
# 5 -0.0001 -0.0001 -0.0003 -0.0001 26.9246 0.0002
# 6 -0.0002 -0.0001 -0.0007 -0.0002 0.0002 46.0873
#
#
#
# Elastic Compliance Matrix: (Units=1/GPa)
#
#
# Indices 1 2 3 4 5 6 
#
# 1 0.060393 -0.011142 -0.014768 0.000000 0.000000 0.000000
# 2 -0.011142 0.017786 -0.006639 0.000000 0.000000 0.000000
# 3 -0.014768 -0.006639 0.014513 0.000000 0.000000 0.000000
# 4 0.000000 0.000000 0.000000 0.023432 0.000000 0.000000
# 5 0.000000 0.000000 0.000000 0.000000 0.037141 0.000000
# 6 0.000000 0.000000 0.000000 0.000000 0.000000 0.021698
#
#
# Mechanical properties :
#
#
# Convention : Reuss Voigt Hill
#
# Bulk Modulus (GPa) = 36.23815 91.00641 63.62228
# Shear Modulus (GPa) = 20.05965 31.83778 25.94872
#
# Velocity S-wave (km/s) = 3.27922 4.13124 3.72964
# Velocity P-wave (km/s) = 5.81066 8.45823 7.25622
#
# Compressibility (1/GPa) = 0.02759523
#
# Stress axis : x y z
#
# Youngs Moduli (GPa) = 16.55824 56.22542 68.90522
#
# Poissons Ratio (x) = 0.62644 1.01758
# Poissons Ratio (y) = 0.18449 0.45743
# Poissons Ratio (z) = 0.24453 0.37325
#
# Static dielectric constant tensor:
#      x y z
#    x 1.626710 0.000000 0.000000 
#    y 0.000000 1.624890 0.000000 
#    z 0.000000 0.000000 1.615760 
# 
# From -- ./inp_files/4859.got.cif
#   From: 2010.05.17/outbox.cif.g08.bks.cpg/sg44_3_cif.got.tgz:4859.got - 2010.06.03 19:37:08.
