data_PCOD9375208
_publ_section_title
;
Structure prediction by ZEFSAII (Michael W. Deem and Ramdas Pophale) SiO2 
 PCOD9375208
Probable space group: I M M 2
;
_chemical_formula_sum "Si O2"
_cell_formula_units_Z 30
_cell_length_a 15.728598
_cell_length_b 10.786970
_cell_length_c 8.335165
_cell_angle_alpha 90.000000
_cell_angle_beta 90.000000
_cell_angle_gamma 90.000000
_cell_volume 1414.176724
_symmetry_space_group_name_H-M "I M M 2"
_symmetry_group_IT_number 44
_symmetry_cell_setting 'orthorhombic'
loop_
_space_group_symop_operation_xyz
x,y,z
-x,-y,z
-x,y,z
x,-y,z
1/2+x,1/2+y,1/2+z
1/2-x,1/2-y,1/2+z
1/2-x,1/2+y,1/2+z
1/2+x,1/2-y,1/2+z
loop_
_atom_site_type_symbol
_atom_site_label
_atom_site_fract_x
_atom_site_fract_y
_atom_site_fract_z
Si Si1 0.000000 0.241478 0.494591
Si Si2 0.829290 0.855438 0.335856
Si Si3 0.094571 0.500000 0.021086
Si Si4 0.000000 0.140065 0.835292
Si Si5 0.832937 0.244579 0.000100
Si Si6 0.000000 0.500000 0.692484
O O1 0.916625 0.208617 0.392446
O O2 0.000000 0.377647 0.580452
O O3 0.000000 0.148323 0.644992
O O4 0.822519 0.850390 0.144038
O O5 0.751816 0.773174 0.402543
O O6 0.825012 0.000000 0.388965
O O7 0.000000 0.500000 0.090095
O O8 0.078005 0.500000 0.824706
O O9 0.142375 0.622037 0.072252
O O10 0.085353 0.206009 0.896332
O O11 0.000000 0.000000 0.894648
#
# Coordination Sequence:
#
# PCOD9375208 Si02
#       6
#     4   8   4   4   8   2
#     4  12  25  46  70  99 139 183 222 286 348 394
#     4  12  28  46  68 101 141 178 232 286 338 409
#     4  10  20  43  74  96 137 170 222 293 338 396
#     4  12  23  44  72 103 138 179 225 274 348 414
#     4  12  24  45  72  98 137 183 224 283 345 397
#     4  10  22  44  76  96 134 174 230 288 334 412
#
# _framework density 21.213757000000001
#
# number of rings (size 3 to 8) (size 9 to 14) (size 15 to 20)
#    0.400    0.000    5.333    4.400    0.000    1.067 
#    7.200    0.000    0.000    0.000    0.000    0.000 
#    0.000    0.000    0.000    0.000    0.000    0.000 
#
# Total GULP energy -83811.710674 kJ/mol
# GULP energy per Si atom -5587.447378 kJ/mol
# Density = 2.116547 g / cm^3
# Si number density = 21.213757 Si / 1000 Ang^3
#
#
#
# Elastic Constant Matrix: (Units=GPa)
#
#
# Indices 1 2 3 4 5 6 
#
# 1 178.2977 31.3314 45.2408 0.0000 0.0000 0.0000
# 2 31.3314 126.3747 8.8989 0.0000 0.0000 0.0000
# 3 45.2408 8.8989 79.3628 0.0000 0.0000 0.0000
# 4 0.0000 0.0000 0.0000 19.5844 0.0000 0.0000
# 5 0.0000 0.0000 0.0000 0.0000 -2.5298 0.0000
# 6 0.0000 0.0000 0.0000 0.0000 0.0000 47.3975
#
#
#
# Elastic Compliance Matrix: (Units=1/GPa)
#
#
# Indices 1 2 3 4 5 6 
#
# 1 0.006802 -0.001425 -0.003718 0.000000 0.000000 0.000000
# 2 -0.001425 0.008274 -0.000116 0.000000 0.000000 0.000000
# 3 -0.003718 -0.000116 0.014733 0.000000 0.000000 0.000000
# 4 0.000000 0.000000 0.000000 0.051061 0.000000 0.000000
# 5 0.000000 0.000000 0.000000 0.000000 -0.395295 0.000000
# 6 0.000000 0.000000 0.000000 0.000000 0.000000 0.021098
#
#
# Mechanical properties :
#
#
# Convention : Reuss Voigt Hill
#
# Bulk Modulus (GPa) = 51.83255 61.66416 56.74835
# Shear Modulus (GPa) = -18.09114 32.79468 7.35177
#
# Velocity S-wave (km/s) = -2.92345 3.93608 1.86362
# Velocity P-wave (km/s) = 3.61817 7.05607 5.60710
#
# Compressibility (1/GPa) = 0.01929289
#
# Stress axis : x y z
#
# Youngs Moduli (GPa) = 147.00861 120.85575 67.87601
#
# Poissons Ratio (x) = 0.17218 0.25236
# Poissons Ratio (y) = 0.20944 0.00785
# Poissons Ratio (z) = 0.54657 0.01398
#
# Static dielectric constant tensor:
#      x y z
#    x 1.935010 0.000000 0.000000 
#    y 0.000000 2.339490 0.000000 
#    z 0.000000 0.000000 1.743140 
# 
# From -- ./inp_files/6561.got.cif
#   From: 2010.05.17/outbox.cif.g08.bks.cpg/sg44_4_cif.got.tgz:6561.got - 2010.06.03 19:37:08.
