data_PCOD9375446
_publ_section_title
;
Structure prediction by ZEFSAII (Michael W. Deem and Ramdas Pophale) SiO2 
 PCOD9375446
Probable space group: I M M 2
;
_chemical_formula_sum "Si O2"
_cell_formula_units_Z 58
_cell_length_a 7.510709
_cell_length_b 20.339894
_cell_length_c 15.205535
_cell_angle_alpha 90.000000
_cell_angle_beta 90.000000
_cell_angle_gamma 90.000000
_cell_volume 2322.904344
_symmetry_space_group_name_H-M "I M M 2"
_symmetry_group_IT_number 44
_symmetry_cell_setting 'orthorhombic'
loop_
_space_group_symop_operation_xyz
x,y,z
-x,-y,z
-x,y,z
x,-y,z
1/2+x,1/2+y,1/2+z
1/2-x,1/2-y,1/2+z
1/2-x,1/2+y,1/2+z
1/2+x,1/2-y,1/2+z
loop_
_atom_site_type_symbol
_atom_site_label
_atom_site_fract_x
_atom_site_fract_y
_atom_site_fract_z
Si Si1 0.714182 0.248366 0.203090
Si Si2 0.704585 0.428258 0.436666
Si Si3 0.799607 0.897052 0.652243
Si Si4 0.780932 0.218133 0.896862
Si Si5 0.500000 0.000000 0.704900
Si Si6 0.291536 0.884633 0.124917
Si Si7 0.296825 0.844856 0.481902
Si Si8 0.212955 0.072517 0.319220
O O1 0.500000 0.238511 0.206885
O O2 0.744754 0.320617 0.166895
O O3 0.777565 0.252833 0.303327
O O4 0.783824 0.188184 0.145362
O O5 0.500000 0.429789 0.406359
O O6 0.785949 0.500000 0.412904
O O7 0.779427 0.357633 0.405483
O O8 0.705396 0.420676 0.542507
O O9 0.656466 0.943249 0.695960
O O10 0.795606 0.897161 0.545956
O O11 0.000000 0.909979 0.684014
O O12 0.721925 0.270790 0.970597
O O13 0.000000 0.217342 0.899572
O O14 0.500000 0.880769 0.102377
O O15 0.271060 0.919501 0.218555
O O16 0.500000 0.840468 0.512100
O O17 0.294703 0.874729 0.384330
O O18 0.000000 0.079249 0.321878
O O19 0.263704 0.000000 0.350061
#
# Coordination Sequence:
#
# PCOD9375446 Si02
#       8
#     8   8   8   8   2   8   8   8
#     4   9  19  39  64  93 122 160 214 269 324 384
#     4  10  21  37  60  90 124 164 210 259 317 387
#     4  11  24  43  68  94 131 174 219 274 330 392
#     4   9  18  37  64  93 125 164 217 269 319 385
#     4  12  26  48  64  98 132 172 226 272 328 402
#     4  11  21  38  63  89 123 163 208 263 323 389
#     4  11  21  38  63  93 128 167 215 266 324 394
#     4  11  24  38  55  86 126 167 213 264 322 389
#
# _framework density 24.968743
#
# number of rings (size 3 to 8) (size 9 to 14) (size 15 to 20)
#    0.000    1.655    2.069    2.690    0.966    3.034 
#    3.724    0.690    1.517    0.000    0.000    0.000 
#    0.000    0.000    0.000    0.000    0.000    0.000 
#
# Total GULP energy -161936.442825 kJ/mol
# GULP energy per Si atom -5584.015270 kJ/mol
# Density = 2.491191 g / cm^3
# Si number density = 24.968743 Si / 1000 Ang^3
#
#
#
# Elastic Constant Matrix: (Units=GPa)
#
#
# Indices 1 2 3 4 5 6 
#
# 1 114.2428 27.0848 -10.9192 0.0000 0.0000 0.0000
# 2 27.0848 144.9825 -9.4409 0.0000 0.0000 0.0000
# 3 -10.9192 -9.4409 51.7853 0.0000 0.0000 0.0000
# 4 0.0000 0.0000 0.0000 24.1177 0.0000 0.0000
# 5 0.0000 0.0000 0.0000 0.0000 10.0360 0.0000
# 6 0.0000 0.0000 0.0000 0.0000 0.0000 18.6486
#
#
#
# Elastic Compliance Matrix: (Units=1/GPa)
#
#
# Indices 1 2 3 4 5 6 
#
# 1 0.009298 -0.001629 0.001664 0.000000 0.000000 0.000000
# 2 -0.001629 0.007266 0.000981 0.000000 0.000000 0.000000
# 3 0.001664 0.000981 0.019840 0.000000 0.000000 0.000000
# 4 0.000000 0.000000 0.000000 0.041463 0.000000 0.000000
# 5 0.000000 0.000000 0.000000 0.000000 0.099641 0.000000
# 6 0.000000 0.000000 0.000000 0.000000 0.000000 0.053623
#
#
# Mechanical properties :
#
#
# Convention : Reuss Voigt Hill
#
# Bulk Modulus (GPa) = 26.01705 36.05111 31.03408
# Shear Modulus (GPa) = 20.66866 30.84619 25.75742
#
# Velocity S-wave (km/s) = 2.88024 3.51863 3.21532
# Velocity P-wave (km/s) = 4.63719 5.56574 5.12255
#
# Compressibility (1/GPa) = 0.03843633
#
# Stress axis : x y z
#
# Youngs Moduli (GPa) = 107.54485 137.63588 50.40281
#
# Poissons Ratio (x) = 0.22417 -0.08385
# Poissons Ratio (y) = 0.17516 -0.04945
# Poissons Ratio (z) = -0.17892 -0.13504
#
# Static dielectric constant tensor:
#      x y z
#    x 1.996160 0.000000 0.000000 
#    y 0.000000 1.968590 0.000000 
#    z 0.000000 0.000000 2.055490 
# 
# From -- ./inp_files/20596.got.cif
#   From: 2010.05.17/outbox.cif.g08.bks.cpg/sg44_11_cif.got.tgz:20596.got - 2010.06.03 19:37:08.
