data_PCOD9375862
_publ_section_title
;
Structure prediction by ZEFSAII (Michael W. Deem and Ramdas Pophale) SiO2 
 PCOD9375862
Probable space group: I M M 2
;
_chemical_formula_sum "Si O2"
_cell_formula_units_Z 48
_cell_length_a 23.687344
_cell_length_b 7.837058
_cell_length_c 12.095322
_cell_angle_alpha 90.000000
_cell_angle_beta 90.000000
_cell_angle_gamma 90.000000
_cell_volume 2245.364555
_symmetry_space_group_name_H-M "I M M 2"
_symmetry_group_IT_number 44
_symmetry_cell_setting 'orthorhombic'
loop_
_space_group_symop_operation_xyz
x,y,z
-x,-y,z
-x,y,z
x,-y,z
1/2+x,1/2+y,1/2+z
1/2-x,1/2-y,1/2+z
1/2-x,1/2+y,1/2+z
1/2+x,1/2-y,1/2+z
loop_
_atom_site_type_symbol
_atom_site_label
_atom_site_fract_x
_atom_site_fract_y
_atom_site_fract_z
Si Si1 0.262164 0.207255 0.812520
Si Si2 0.562818 0.791919 0.784256
Si Si3 0.344760 0.792535 0.615714
Si Si4 0.639836 0.799879 0.369442
Si Si5 0.144320 0.703927 0.478742
Si Si6 0.563982 0.300762 0.176369
O O1 0.296810 0.262112 0.703082
O O2 0.199160 0.274932 0.807574
O O3 0.296023 0.264394 0.924663
O O4 0.260424 0.000000 0.812601
O O5 0.500000 0.726735 0.786969
O O6 0.596645 0.747836 0.674714
O O7 0.598681 0.734240 0.888919
O O8 0.561579 0.000000 0.789433
O O9 0.347048 0.727093 0.491341
O O10 0.339959 0.000000 0.611521
O O11 0.588311 0.725075 0.299542
O O12 0.627823 0.000000 0.380640
O O13 0.148489 0.500000 0.472593
O O14 0.114434 0.739980 0.595172
O O15 0.500000 0.226400 0.160986
O O16 0.559170 0.500000 0.154754
#
# Coordination Sequence:
#
# PCOD9375862 Si02
#       6
#     8   8   8   8   8   8
#     4   9  19  37  59  85 118 150 183 233 296 352
#     4   8  13  25  50  81 109 138 174 222 279 329
#     4   8  17  33  51  77 111 143 179 225 280 340
#     4  11  23  37  57  85 113 149 196 240 284 345
#     4   9  18  34  59  89 116 145 187 238 286 342
#     4  11  25  42  58  80 116 161 201 241 297 352
#
# _framework density 21.377375000000001
#
# number of rings (size 3 to 8) (size 9 to 14) (size 15 to 20)
#    0.000    2.667    0.000    3.500    2.333    3.333 
#    0.000    2.500    0.000    2.000    0.000    9.333 
#    0.000    0.000    0.000    0.000    0.000    0.000 
#
# Total GULP energy -133760.019786 kJ/mol
# GULP energy per Si atom -5573.334158 kJ/mol
# Density = 2.132872 g / cm^3
# Si number density = 21.377375 Si / 1000 Ang^3
#
#
#
# Elastic Constant Matrix: (Units=GPa)
#
#
# Indices 1 2 3 4 5 6 
#
# 1 79.2995 -6.2639 16.9136 0.0000 0.0000 0.0000
# 2 -6.2639 22.9757 -3.5385 0.0000 0.0000 0.0000
# 3 16.9136 -3.5385 93.0303 0.0000 0.0000 0.0000
# 4 0.0000 0.0000 0.0000 3.0882 0.0000 0.0000
# 5 0.0000 0.0000 0.0000 0.0000 13.3933 0.0000
# 6 0.0000 0.0000 0.0000 0.0000 0.0000 12.2511
#
#
#
# Elastic Compliance Matrix: (Units=1/GPa)
#
#
# Indices 1 2 3 4 5 6 
#
# 1 0.013362 0.003288 -0.002304 0.000000 0.000000 0.000000
# 2 0.003288 0.044590 0.001098 0.000000 0.000000 0.000000
# 3 -0.002304 0.001098 0.011210 0.000000 0.000000 0.000000
# 4 0.000000 0.000000 0.000000 0.323809 0.000000 0.000000
# 5 0.000000 0.000000 0.000000 0.000000 0.074664 0.000000
# 6 0.000000 0.000000 0.000000 0.000000 0.000000 0.081625
#
#
# Mechanical properties :
#
#
# Convention : Reuss Voigt Hill
#
# Bulk Modulus (GPa) = 13.63791 23.28090 18.45940
# Shear Modulus (GPa) = 8.77906 18.29283 13.53594
#
# Velocity S-wave (km/s) = 2.02870 2.92843 2.51906
# Velocity P-wave (km/s) = 3.44687 4.72740 4.13698
#
# Compressibility (1/GPa) = 0.07332504
#
# Stress axis : x y z
#
# Youngs Moduli (GPa) = 74.84147 22.42672 89.20707
#
# Poissons Ratio (x) = -0.07374 0.20555
# Poissons Ratio (y) = -0.24607 -0.09797
# Poissons Ratio (z) = 0.17245 -0.02463
#
# Static dielectric constant tensor:
#      x y z
#    x 1.776500 0.000000 0.000000 
#    y 0.000000 1.784650 0.000000 
#    z 0.000000 0.000000 1.816440 
# 
# From -- ./inp_files/11166.got.cif
#   From: 2010.05.17/outbox.cif.g08.bks.cpg/sg44_6_cif.got.tgz:11166.got - 2010.06.03 19:37:08.
