data_PCOD9375608
_publ_section_title
;
Structure prediction by ZEFSAII (Michael W. Deem and Ramdas Pophale) SiO2 
 PCOD9375608
Probable space group: I M M 2
;
_chemical_formula_sum "Si O2"
_cell_formula_units_Z 36
_cell_length_a 23.871754
_cell_length_b 11.196376
_cell_length_c 4.567838
_cell_angle_alpha 90.000000
_cell_angle_beta 90.000000
_cell_angle_gamma 90.000000
_cell_volume 1220.878647
_symmetry_space_group_name_H-M "I M M 2"
_symmetry_group_IT_number 44
_symmetry_cell_setting 'orthorhombic'
loop_
_space_group_symop_operation_xyz
x,y,z
-x,-y,z
-x,y,z
x,-y,z
1/2+x,1/2+y,1/2+z
1/2-x,1/2-y,1/2+z
1/2-x,1/2+y,1/2+z
1/2+x,1/2-y,1/2+z
loop_
_atom_site_type_symbol
_atom_site_label
_atom_site_fract_x
_atom_site_fract_y
_atom_site_fract_z
Si Si1 0.719817 0.209268 0.088870
Si Si2 0.500000 0.500000 0.228643
Si Si3 0.247848 0.500000 0.045438
Si Si4 0.881325 0.238119 0.174497
Si Si5 0.124423 0.500000 0.138375
Si Si6 0.000000 0.760630 0.115903
Si Si7 0.626588 0.500000 0.282352
Si Si8 0.500000 0.000000 0.655964
O O1 0.738609 0.312932 0.316837
O O2 0.766760 0.394128 0.813539
O O3 0.662692 0.242827 0.931809
O O4 0.500000 0.376762 0.414049
O O5 0.565576 0.500000 0.112776
O O6 0.189322 0.500000 0.253883
O O7 0.315655 0.500000 0.098987
O O8 0.877965 0.366153 0.999581
O O9 0.943686 0.233296 0.299615
O O10 0.873564 0.119159 0.986173
O O11 0.062961 0.500000 0.304325
O O12 0.000000 0.626147 0.982785
#
# Coordination Sequence:
#
# PCOD9375608 Si02
#       8
#     8   2   4   8   4   4   4   2
#     4  12  30  51  79 114 171 221 293 350 442 516
#     4   8  16  40  74 138 174 236 288 372 430 560
#     4  12  29  49  78 122 178 242 288 375 433 545
#     4  10  22  45  83 131 174 234 286 371 432 548
#     4  10  21  41  80 118 181 218 294 347 442 508
#     4   8  16  36  73 124 178 217 287 351 450 508
#     4  10  24  45  92 131 190 232 307 361 468 520
#     4   8  16  34  64 122 164 228 270 358 418 520
#
# _framework density 29.48696
#
# number of rings (size 3 to 8) (size 9 to 14) (size 15 to 20)
#    0.000    1.778    0.000    2.000    9.333    2.667 
#    0.000    1.111    0.000    4.000    0.000    0.000 
#    0.000    0.000    0.000    0.000    0.000    0.000 
#
# Total GULP energy -100299.598956 kJ/mol
# GULP energy per Si atom -5572.199942 kJ/mol
# Density = 2.941985 g / cm^3
# Si number density = 29.486960 Si / 1000 Ang^3
#
#
#
# Elastic Constant Matrix: (Units=GPa)
#
#
# Indices 1 2 3 4 5 6 
#
# 1 408.8716 45.0524 75.3504 0.0000 0.0000 0.0000
# 2 45.0524 225.2630 36.9958 0.0000 0.0000 0.0000
# 3 75.3504 36.9958 120.5650 0.0000 0.0001 0.0000
# 4 0.0000 0.0000 0.0000 17.6744 0.0000 0.0000
# 5 0.0000 0.0000 0.0001 0.0000 24.1974 0.0000
# 6 0.0000 0.0000 0.0000 0.0000 0.0000 40.9547
#
#
#
# Elastic Compliance Matrix: (Units=1/GPa)
#
#
# Indices 1 2 3 4 5 6 
#
# 1 0.002781 -0.000285 -0.001651 0.000000 0.000000 0.000000
# 2 -0.000285 0.004704 -0.001265 0.000000 0.000000 0.000000
# 3 -0.001651 -0.001265 0.009714 0.000000 0.000000 0.000000
# 4 0.000000 0.000000 0.000000 0.056579 0.000000 0.000000
# 5 0.000000 0.000000 0.000000 0.000000 0.041327 0.000000
# 6 0.000000 0.000000 0.000000 0.000000 0.000000 0.024417
#
#
# Mechanical properties :
#
#
# Convention : Reuss Voigt Hill
#
# Bulk Modulus (GPa) = 92.61575 118.83298 105.72436
# Shear Modulus (GPa) = 33.43939 56.38536 44.91238
#
# Velocity S-wave (km/s) = 3.37120 4.37763 3.90696
# Velocity P-wave (km/s) = 6.82866 8.12030 7.50233
#
# Compressibility (1/GPa) = 0.01079730
#
# Stress axis : x y z
#
# Youngs Moduli (GPa) = 359.53089 212.58129 102.94155
#
# Poissons Ratio (x) = 0.06062 0.16994
# Poissons Ratio (y) = 0.10252 0.13025
# Poissons Ratio (z) = 0.59352 0.26897
#
# Static dielectric constant tensor:
#      x y z
#    x 2.393380 0.000000 0.000000 
#    y 0.000000 3.241270 0.000000 
#    z 0.000000 0.000000 2.211460 
# 
# From -- ./inp_files/2691.got.cif
#   From: 2010.05.17/outbox.cif.g08.bks.cpg/sg44_2_cif.got.tgz:2691.got - 2010.06.03 19:37:08.
