data_PCOD9375915
_publ_section_title
;
Structure prediction by ZEFSAII (Michael W. Deem and Ramdas Pophale) SiO2 
 PCOD9375915
Probable space group: I M M 2
;
_chemical_formula_sum "Si O2"
_cell_formula_units_Z 40
_cell_length_a 7.355576
_cell_length_b 9.890471
_cell_length_c 26.494225
_cell_angle_alpha 90.000000
_cell_angle_beta 90.000000
_cell_angle_gamma 90.000000
_cell_volume 1927.457813
_symmetry_space_group_name_H-M "I M M 2"
_symmetry_group_IT_number 44
_symmetry_cell_setting 'orthorhombic'
loop_
_space_group_symop_operation_xyz
x,y,z
-x,-y,z
-x,y,z
x,-y,z
1/2+x,1/2+y,1/2+z
1/2-x,1/2-y,1/2+z
1/2-x,1/2+y,1/2+z
1/2+x,1/2-y,1/2+z
loop_
_atom_site_type_symbol
_atom_site_label
_atom_site_fract_x
_atom_site_fract_y
_atom_site_fract_z
Si Si1 0.783973 0.845821 0.239600
Si Si2 0.777592 0.344220 0.330002
Si Si3 0.221590 0.845074 0.535907
Si Si4 0.721239 0.655478 0.921865
Si Si5 0.282143 0.153420 0.125133
O O1 0.716408 0.740835 0.281160
O O2 0.755305 0.799332 0.182093
O O3 0.000000 0.855128 0.247468
O O4 0.711856 0.000000 0.244569
O O5 0.719031 0.500000 0.329773
O O6 0.720286 0.260878 0.379542
O O7 0.000000 0.345824 0.329866
O O8 0.277308 0.808130 0.478906
O O9 0.285811 0.748101 0.580365
O O10 0.000000 0.842465 0.536103
O O11 0.275644 0.000000 0.544956
O O12 0.500000 0.654766 0.921332
O O13 0.776824 0.500000 0.911268
O O14 0.500000 0.148260 0.120236
O O15 0.212766 0.000000 0.120928
#
# Coordination Sequence:
#
# PCOD9375915 Si02
#       5
#     8   8   8   8   8
#     4   9  17  29  43  58  80 111 140 163 195 242
#     4   9  16  24  36  57  82 105 132 168 205 237
#     4   8  14  24  38  57  81 108 135 162 197 242
#     4   8  13  22  36  54  78 107 134 160 197 245
#     4   9  17  28  42  61  83 106 135 170 202 232
#
# _framework density 20.752724000000001
#
# number of rings (size 3 to 8) (size 9 to 14) (size 15 to 20)
#    0.000    3.400    0.000    1.800    0.000    4.000 
#    0.000    4.000    0.000    0.000    0.000    1.400 
#    0.000    1.600    0.000    0.000    0.000    0.000 
#
# Total GULP energy -111585.827439 kJ/mol
# GULP energy per Si atom -5579.291372 kJ/mol
# Density = 2.070549 g / cm^3
# Si number density = 20.752724 Si / 1000 Ang^3
#
#
#
# Elastic Constant Matrix: (Units=GPa)
#
#
# Indices 1 2 3 4 5 6 
#
# 1 76.8506 6.2084 2.0610 0.0000 0.0000 0.0000
# 2 6.2084 152.4200 162.1616 0.0000 0.0000 0.0000
# 3 2.0610 162.1616 234.7161 0.0000 0.0000 0.0000
# 4 0.0000 0.0000 0.0000 37.8208 0.0000 0.0000
# 5 0.0000 0.0000 0.0000 0.0000 12.0906 0.0000
# 6 0.0000 0.0000 0.0000 0.0000 0.0000 -12.5953
#
#
#
# Elastic Compliance Matrix: (Units=1/GPa)
#
#
# Indices 1 2 3 4 5 6 
#
# 1 0.013112 -0.001553 0.000958 0.000000 0.000000 0.000000
# 2 -0.001553 0.024946 -0.017221 0.000000 0.000000 0.000000
# 3 0.000958 -0.017221 0.016150 0.000000 0.000000 0.000000
# 4 0.000000 0.000000 0.000000 0.026441 0.000000 0.000000
# 5 0.000000 0.000000 0.000000 0.000000 0.082709 0.000000
# 6 0.000000 0.000000 0.000000 0.000000 0.000000 -0.079394
#
#
# Mechanical properties :
#
#
# Convention : Reuss Voigt Hill
#
# Bulk Modulus (GPa) = 53.83596 89.42764 71.63180
# Shear Modulus (GPa) = 39.74989 27.03358 33.39173
#
# Velocity S-wave (km/s) = 4.38128 3.61314 4.01562
# Velocity P-wave (km/s) = 7.18277 7.78408 7.48946
#
# Compressibility (1/GPa) = 0.01857495
#
# Stress axis : x y z
#
# Youngs Moduli (GPa) = 76.26570 40.08723 61.92076
#
# Poissons Ratio (x) = 0.06227 -0.05933
# Poissons Ratio (y) = 0.11847 1.06633
# Poissons Ratio (z) = -0.07307 0.69034
#
# Static dielectric constant tensor:
#      x y z
#    x 1.850740 0.000000 0.000000 
#    y 0.000000 1.706130 0.000000 
#    z 0.000000 0.000000 1.711560 
# 
# From -- ./inp_files/22744.got.cif
#   From: 2010.05.17/outbox.cif.g08.bks.cpg/sg44_12_cif.got.tgz:22744.got - 2010.06.03 19:37:08.
