data_PCOD9375933
_publ_section_title
;
Structure prediction by ZEFSAII (Michael W. Deem and Ramdas Pophale) SiO2 
 PCOD9375933
Probable space group: I M M 2
;
_chemical_formula_sum "Si O2"
_cell_formula_units_Z 48
_cell_length_a 22.368893
_cell_length_b 7.355931
_cell_length_c 13.355484
_cell_angle_alpha 90.000000
_cell_angle_beta 90.000000
_cell_angle_gamma 90.000000
_cell_volume 2197.565206
_symmetry_space_group_name_H-M "I M M 2"
_symmetry_group_IT_number 44
_symmetry_cell_setting 'orthorhombic'
loop_
_space_group_symop_operation_xyz
x,y,z
-x,-y,z
-x,y,z
x,-y,z
1/2+x,1/2+y,1/2+z
1/2-x,1/2-y,1/2+z
1/2-x,1/2+y,1/2+z
1/2+x,1/2-y,1/2+z
loop_
_atom_site_type_symbol
_atom_site_label
_atom_site_fract_x
_atom_site_fract_y
_atom_site_fract_z
Si Si1 0.708334 0.782390 0.034270
Si Si2 0.594895 0.711601 0.926663
Si Si3 0.155547 0.222286 0.034270
Si Si4 0.566344 0.278102 0.706691
Si Si5 0.905105 0.211601 0.641877
Si Si6 0.066344 0.221898 0.861849
O O1 0.775872 0.716572 0.034270
O O2 0.666918 0.722132 0.127722
O O3 0.709134 0.000000 0.034269
O O4 0.666918 0.722131 0.940818
O O5 0.577338 0.500000 0.926399
O O6 0.575215 0.786849 0.820716
O O7 0.573407 0.788780 0.034270
O O8 0.118149 0.280058 0.131590
O O9 0.156448 0.000000 0.034270
O O10 0.118149 0.280058 0.936951
O O11 0.500000 0.227705 0.671370
O O12 0.568476 0.500000 0.708671
O O13 0.924785 0.286849 0.747824
O O14 0.922661 0.000000 0.642142
O O15 0.000000 0.272295 0.897171
O O16 0.068476 0.000000 0.859869
#
# Coordination Sequence:
#
# PCOD9375933 Si02
#       6
#     8   8   8   8   8   8
#     4   9  17  30  46  67  94 123 150 183 226 266
#     4   8  16  30  46  69  95 116 148 188 225 268
#     4   9  17  27  42  68  95 118 150 187 224 270
#     4   9  16  27  45  67  92 120 148 186 231 269
#     4   8  16  30  46  69  95 116 148 188 225 268
#     4   9  16  27  45  67  92 120 148 186 231 269
#
# _framework density 21.842355000000001
#
# number of rings (size 3 to 8) (size 9 to 14) (size 15 to 20)
#    1.000    2.333    0.000    0.500    0.000    4.000 
#    0.000    3.333    0.000    2.000    0.000    0.000 
#    0.000    8.000    0.000    0.000    0.000    0.000 
#
# Total GULP energy -133652.962176 kJ/mol
# GULP energy per Si atom -5568.873424 kJ/mol
# Density = 2.179264 g / cm^3
# Si number density = 21.842355 Si / 1000 Ang^3
#
#
#
# Elastic Constant Matrix: (Units=GPa)
#
#
# Indices 1 2 3 4 5 6 
#
# 1 148.9599 -5.7971 36.7585 0.0000 0.0000 0.0000
# 2 -5.7971 85.0790 0.8086 0.0000 0.0000 0.0000
# 3 36.7585 0.8086 106.9081 0.0000 0.0000 0.0000
# 4 0.0000 0.0000 0.0000 -8.6144 0.0000 0.0000
# 5 0.0000 0.0000 0.0000 0.0000 18.8340 0.0000
# 6 0.0000 0.0000 0.0000 0.0000 0.0000 7.5525
#
#
#
# Elastic Compliance Matrix: (Units=1/GPa)
#
#
# Indices 1 2 3 4 5 6 
#
# 1 0.007359 0.000526 -0.002534 0.000000 0.000000 0.000000
# 2 0.000526 0.011792 -0.000270 0.000000 0.000000 0.000000
# 3 -0.002534 -0.000270 0.010227 0.000000 0.000000 0.000000
# 4 0.000000 0.000000 0.000000 -0.116085 0.000000 0.000000
# 5 0.000000 0.000000 0.000000 0.000000 0.053096 0.000000
# 6 0.000000 0.000000 0.000000 0.000000 0.000000 0.132406
#
#
# Mechanical properties :
#
#
# Convention : Reuss Voigt Hill
#
# Bulk Modulus (GPa) = 40.28816 44.94300 42.61558
# Shear Modulus (GPa) = 44.79267 24.16622 34.47944
#
# Velocity S-wave (km/s) = 4.53341 3.32986 3.97742
# Velocity P-wave (km/s) = 6.77402 5.95018 6.37542
#
# Compressibility (1/GPa) = 0.02482119
#
# Stress axis : x y z
#
# Youngs Moduli (GPa) = 135.88725 84.80213 97.77817
#
# Poissons Ratio (x) = -0.04456 0.24779
# Poissons Ratio (y) = -0.07141 0.02639
# Poissons Ratio (z) = 0.34437 0.02289
#
# Static dielectric constant tensor:
#      x y z
#    x 1.780910 0.000000 0.000000 
#    y 0.000000 1.822220 0.000000 
#    z 0.000000 0.000000 1.777460 
# 
# From -- ./inp_files/14268.got.cif
#   From: 2010.05.17/outbox.cif.g08.bks.cpg/sg44_8_cif.got.tgz:14268.got - 2010.06.03 19:37:08.
