data_PCOD9375296
_publ_section_title
;
Structure prediction by ZEFSAII (Michael W. Deem and Ramdas Pophale) SiO2 
 PCOD9375296
Probable space group: I M M 2
;
_chemical_formula_sum "Si O2"
_cell_formula_units_Z 64
_cell_length_a 9.120734
_cell_length_b 14.429744
_cell_length_c 24.754794
_cell_angle_alpha 90.000000
_cell_angle_beta 90.000000
_cell_angle_gamma 90.000000
_cell_volume 3257.974891
_symmetry_space_group_name_H-M "I M M 2"
_symmetry_group_IT_number 44
_symmetry_cell_setting 'orthorhombic'
loop_
_space_group_symop_operation_xyz
x,y,z
-x,-y,z
-x,y,z
x,-y,z
1/2+x,1/2+y,1/2+z
1/2-x,1/2-y,1/2+z
1/2-x,1/2+y,1/2+z
1/2+x,1/2-y,1/2+z
loop_
_atom_site_type_symbol
_atom_site_label
_atom_site_fract_x
_atom_site_fract_y
_atom_site_fract_z
Si Si1 0.325144 0.390607 0.444890
Si Si2 0.831489 0.386732 0.554148
Si Si3 0.326594 0.390370 0.893642
Si Si4 0.824045 0.281728 0.229189
Si Si5 0.824563 0.106281 0.164996
Si Si6 0.321528 0.106929 0.622427
Si Si7 0.331455 0.112940 0.504630
Si Si8 0.324762 0.274052 0.339162
O O1 0.500000 0.381345 0.452127
O O2 0.292597 0.500000 0.438482
O O3 0.247316 0.355806 0.499261
O O4 0.282576 0.336707 0.390773
O O5 0.827260 0.500000 0.552989
O O6 0.749372 0.361434 0.609312
O O7 0.000000 0.357523 0.555274
O O8 0.500000 0.373912 0.889899
O O9 0.299804 0.500000 0.885799
O O10 0.241026 0.326976 0.851537
O O11 0.266707 0.364756 0.953223
O O12 0.789983 0.175407 0.213539
O O13 0.778665 0.338577 0.175900
O O14 0.743208 0.310035 0.283504
O O15 0.000000 0.291170 0.235854
O O16 0.000000 0.109610 0.156828
O O17 0.782205 0.000000 0.175738
O O18 0.500000 0.108755 0.620129
O O19 0.275220 0.144127 0.563476
O O20 0.275645 0.000000 0.627327
O O21 0.500000 0.144448 0.495822
O O22 0.336351 0.000000 0.508052
O O23 0.500000 0.271338 0.335967
#
# Coordination Sequence:
#
# PCOD9375296 Si02
#       8
#     8   8   8   8   8   8   8   8
#     4   9  19  37  58  78 105 142 179 216 263 320
#     4   9  17  30  52  83 112 135 166 212 264 315
#     4  10  21  37  57  81 110 142 175 216 267 319
#     4  10  21  36  53  74 101 136 181 223 257 305
#     4   9  18  33  52  74 104 141 174 206 252 312
#     4   8  15  30  53  79 105 134 169 212 262 313
#     4   8  14  28  52  80 108 137 172 213 257 311
#     4  11  24  39  55  77 105 140 184 227 266 313
#
# _framework density 19.644105
#
# number of rings (size 3 to 8) (size 9 to 14) (size 15 to 20)
#    0.000    2.750    0.000    1.875    0.000    5.750 
#    0.000    4.375    0.000    0.750    0.000    0.000 
#    0.000    0.000    0.000    0.000    0.000    0.000 
#
# Total GULP energy -178624.452201 kJ/mol
# GULP energy per Si atom -5582.014131 kJ/mol
# Density = 1.959939 g / cm^3
# Si number density = 19.644105 Si / 1000 Ang^3
#
#
#
# Elastic Constant Matrix: (Units=GPa)
#
#
# Indices 1 2 3 4 5 6 
#
# 1 19.8203 7.6317 16.8762 0.0000 0.0000 0.0000
# 2 7.6317 39.6853 8.7451 0.0000 0.0000 0.0000
# 3 16.8762 8.7451 82.4906 0.0000 0.0000 0.0000
# 4 0.0000 0.0000 0.0000 26.4345 0.0000 0.0000
# 5 0.0000 0.0000 0.0000 0.0000 35.1992 0.0000
# 6 0.0000 0.0000 0.0000 0.0000 0.0000 11.8189
#
#
#
# Elastic Compliance Matrix: (Units=1/GPa)
#
#
# Indices 1 2 3 4 5 6 
#
# 1 0.064571 -0.009734 -0.012178 0.000000 0.000000 0.000000
# 2 -0.009734 0.027268 -0.000899 0.000000 0.000000 0.000000
# 3 -0.012178 -0.000899 0.014709 0.000000 0.000000 0.000000
# 4 0.000000 0.000000 0.000000 0.037829 0.000000 0.000000
# 5 0.000000 0.000000 0.000000 0.000000 0.028410 0.000000
# 6 0.000000 0.000000 0.000000 0.000000 0.000000 0.084610
#
#
# Mechanical properties :
#
#
# Convention : Reuss Voigt Hill
#
# Bulk Modulus (GPa) = 16.41344 23.16690 19.79017
# Shear Modulus (GPa) = 15.46413 21.94005 18.70209
#
# Velocity S-wave (km/s) = 2.80878 3.34560 3.08887
# Velocity P-wave (km/s) = 4.34655 5.17136 4.77679
#
# Compressibility (1/GPa) = 0.06092568
#
# Stress axis : x y z
#
# Youngs Moduli (GPa) = 15.48695 36.67263 67.98383
#
# Poissons Ratio (x) = 0.35696 0.82792
# Poissons Ratio (y) = 0.15074 0.06115
# Poissons Ratio (z) = 0.18860 0.03298
#
# Static dielectric constant tensor:
#      x y z
#    x 1.654370 0.000000 0.000000 
#    y 0.000000 1.732680 0.000000 
#    z 0.000000 0.000000 1.669370 
# 
# From -- ./inp_files/25100.got.cif
#   From: 2010.05.17/outbox.cif.g08.bks.cpg/sg44_13_cif.got.tgz:25100.got - 2010.06.03 19:37:08.
