data_PCOD9375347
_publ_section_title
;
Structure prediction by ZEFSAII (Michael W. Deem and Ramdas Pophale) SiO2 
 PCOD9375347
Probable space group: I M M 2
;
_chemical_formula_sum "Si O2"
_cell_formula_units_Z 56
_cell_length_a 13.153374
_cell_length_b 21.758165
_cell_length_c 10.661977
_cell_angle_alpha 90.000000
_cell_angle_beta 90.000000
_cell_angle_gamma 90.000000
_cell_volume 3051.386188
_symmetry_space_group_name_H-M "I M M 2"
_symmetry_group_IT_number 44
_symmetry_cell_setting 'orthorhombic'
loop_
_space_group_symop_operation_xyz
x,y,z
-x,-y,z
-x,y,z
x,-y,z
1/2+x,1/2+y,1/2+z
1/2-x,1/2-y,1/2+z
1/2-x,1/2+y,1/2+z
1/2+x,1/2-y,1/2+z
loop_
_atom_site_type_symbol
_atom_site_label
_atom_site_fract_x
_atom_site_fract_y
_atom_site_fract_z
Si Si1 0.308854 0.072389 0.666160
Si Si2 0.500000 0.927359 0.213807
Si Si3 0.110180 0.223017 0.770418
Si Si4 0.672175 0.157336 0.137353
Si Si5 0.382038 0.316030 0.761990
Si Si6 0.500000 0.925972 0.497999
Si Si7 0.884231 0.128844 0.541089
Si Si8 0.817133 0.684443 0.354770
O O1 0.398948 0.091139 0.572052
O O2 0.202642 0.083971 0.593512
O O3 0.321704 0.119752 0.781494
O O4 0.318148 0.000000 0.699371
O O5 0.395047 0.903155 0.154723
O O6 0.500000 0.904185 0.356864
O O7 0.500000 0.000000 0.211250
O O8 0.126705 0.292996 0.733349
O O9 0.119666 0.185220 0.640066
O O10 0.198474 0.201418 0.859971
O O11 0.000000 0.211796 0.824655
O O12 0.792589 0.157988 0.171657
O O13 0.647938 0.179328 0.996760
O O14 0.500000 0.327450 0.725266
O O15 0.366759 0.242186 0.781428
O O16 0.365916 0.346494 0.900325
O O17 0.500000 0.000000 0.493876
O O18 0.000000 0.104005 0.545694
#
# Coordination Sequence:
#
# PCOD9375347 Si02
#       8
#     8   4   8   8   8   4   8   8
#     4  10  21  37  57  82 113 152 196 240 291 349
#     4  11  24  39  61  87 117 160 200 237 284 347
#     4   9  17  34  53  78 109 150 191 235 292 341
#     4  11  21  36  56  83 120 156 192 237 288 351
#     4  10  21  36  57  86 115 152 195 241 297 351
#     4   9  20  39  55  75 111 148 191 237 272 325
#     4   9  17  33  58  79 107 142 189 247 291 335
#     4  10  22  34  55  85 120 154 189 239 298 350
#
# _framework density 18.352314
#
# number of rings (size 3 to 8) (size 9 to 14) (size 15 to 20)
#    0.000    2.143    2.143    0.857    2.000    1.429 
#    0.000    0.714    0.000    1.286    0.000    2.000 
#    0.000    0.000    0.000    0.000    0.000    0.000 
#
# Total GULP energy -156024.394372 kJ/mol
# GULP energy per Si atom -5572.299799 kJ/mol
# Density = 1.831054 g / cm^3
# Si number density = 18.352314 Si / 1000 Ang^3
#
#
#
# Elastic Constant Matrix: (Units=GPa)
#
#
# Indices 1 2 3 4 5 6 
#
# 1 107.2086 29.3013 14.7147 0.0001 0.0000 0.0000
# 2 29.3013 78.5785 25.3950 0.0000 0.0000 0.0000
# 3 14.7147 25.3950 34.6122 -0.0006 0.0001 0.0000
# 4 0.0001 0.0000 -0.0006 14.5004 0.0000 0.0000
# 5 0.0000 0.0000 0.0001 0.0000 20.3746 0.0000
# 6 0.0000 0.0000 0.0000 0.0000 0.0000 27.7896
#
#
#
# Elastic Compliance Matrix: (Units=1/GPa)
#
#
# Indices 1 2 3 4 5 6 
#
# 1 0.010500 -0.003241 -0.002086 0.000000 0.000000 0.000000
# 2 -0.003241 0.017682 -0.011595 -0.000001 0.000000 0.000000
# 3 -0.002086 -0.011595 0.038286 0.000002 0.000000 0.000000
# 4 0.000000 -0.000001 0.000002 0.068963 0.000000 0.000000
# 5 0.000000 0.000000 0.000000 0.000000 0.049081 0.000000
# 6 0.000000 0.000000 0.000000 0.000000 0.000000 0.035985
#
#
# Mechanical properties :
#
#
# Convention : Reuss Voigt Hill
#
# Bulk Modulus (GPa) = 30.65323 39.91350 35.28337
# Shear Modulus (GPa) = 18.85257 22.59880 20.72569
#
# Velocity S-wave (km/s) = 3.20856 3.51292 3.36419
# Velocity P-wave (km/s) = 5.51955 6.18465 5.86154
#
# Compressibility (1/GPa) = 0.03262299
#
# Stress axis : x y z
#
# Youngs Moduli (GPa) = 95.24047 56.55411 26.11933
#
# Poissons Ratio (x) = 0.18330 0.05448
# Poissons Ratio (y) = 0.30870 0.30287
# Poissons Ratio (z) = 0.19864 0.65577
#
# Static dielectric constant tensor:
#      x y z
#    x 1.669800 0.000000 0.000000 
#    y 0.000000 1.620740 0.000000 
#    z 0.000000 0.000000 1.616240 
# 
# From -- ./inp_files/7416.got.cif
#   From: 2010.05.17/outbox.cif.g08.bks.cpg/sg44_4_cif.got.tgz:7416.got - 2010.06.03 19:37:08.
