data_PCOD9375101
_publ_section_title
;
Structure prediction by ZEFSAII (Michael W. Deem and Ramdas Pophale) SiO2 
 PCOD9375101
Probable space group: I M M 2
;
_chemical_formula_sum "Si O2"
_cell_formula_units_Z 64
_cell_length_a 23.054222
_cell_length_b 14.697200
_cell_length_c 9.021368
_cell_angle_alpha 90.000000
_cell_angle_beta 90.000000
_cell_angle_gamma 90.000000
_cell_volume 3056.732777
_symmetry_space_group_name_H-M "I M M 2"
_symmetry_group_IT_number 44
_symmetry_cell_setting 'orthorhombic'
loop_
_space_group_symop_operation_xyz
x,y,z
-x,-y,z
-x,y,z
x,-y,z
1/2+x,1/2+y,1/2+z
1/2-x,1/2-y,1/2+z
1/2-x,1/2+y,1/2+z
1/2+x,1/2-y,1/2+z
loop_
_atom_site_type_symbol
_atom_site_label
_atom_site_fract_x
_atom_site_fract_y
_atom_site_fract_z
Si Si1 0.761226 0.899063 0.516830
Si Si2 0.429871 0.784994 0.249541
Si Si3 0.223469 0.898577 0.164772
Si Si4 0.066682 0.098306 0.266654
Si Si5 0.824537 0.713035 0.541936
Si Si6 0.931672 0.901956 0.907630
Si Si7 0.357567 0.247526 0.734800
Si Si8 0.120772 0.395480 0.016527
O O1 0.776842 0.901571 0.342740
O O2 0.794737 0.811120 0.579727
O O3 0.691277 0.887563 0.518413
O O4 0.774633 0.000000 0.580030
O O5 0.500000 0.787891 0.228416
O O6 0.389353 0.793600 0.105803
O O7 0.411791 0.688956 0.327065
O O8 0.408735 0.861670 0.365839
O O9 0.286138 0.866309 0.113432
O O10 0.180327 0.814675 0.130467
O O11 0.208379 0.000000 0.109649
O O12 0.102027 0.182298 0.324216
O O13 0.000000 0.102359 0.309799
O O14 0.090548 0.000000 0.311695
O O15 0.069732 0.103830 0.087049
O O16 0.820853 0.701122 0.364024
O O17 0.000000 0.906035 0.871247
O O18 0.905419 0.000000 0.864589
O O19 0.395270 0.176414 0.643875
O O20 0.106117 0.500000 0.046398
#
# Coordination Sequence:
#
# PCOD9375101 Si02
#       8
#     8   8   8   8   8   8   8   8
#     4   9  19  38  62  86 118 160 205 254 310 370
#     4  11  23  40  62  90 126 170 214 253 307 382
#     4  10  20  37  60  85 118 160 201 248 308 375
#     4   9  17  32  56  86 118 153 194 241 296 362
#     4  11  23  37  61  92 126 162 201 259 326 384
#     4   8  15  30  54  82 112 149 194 244 291 342
#     4  11  22  37  61  90 124 155 203 258 319 377
#     4  11  22  39  63  87 118 162 214 264 307 364
#
# _framework density 20.937387999999999
#
# number of rings (size 3 to 8) (size 9 to 14) (size 15 to 20)
#    0.000    2.000    3.750    1.125    0.000    2.250 
#    0.000    0.000    0.000    1.500    0.000    1.750 
#    0.000    0.000    0.000    0.000    0.000    0.000 
#
# Total GULP energy -178391.772733 kJ/mol
# GULP energy per Si atom -5574.742898 kJ/mol
# Density = 2.088973 g / cm^3
# Si number density = 20.937388 Si / 1000 Ang^3
#
#
#
# Elastic Constant Matrix: (Units=GPa)
#
#
# Indices 1 2 3 4 5 6 
#
# 1 87.3199 24.0461 16.2701 0.0000 0.0000 0.0000
# 2 24.0461 123.1748 24.1615 0.0000 0.0000 0.0000
# 3 16.2701 24.1615 32.0916 0.0000 0.0000 0.0000
# 4 0.0000 0.0000 0.0000 16.4105 0.0000 0.0000
# 5 0.0000 0.0000 0.0000 0.0000 19.0352 0.0000
# 6 0.0000 0.0000 0.0000 0.0000 0.0000 26.3479
#
#
#
# Elastic Compliance Matrix: (Units=1/GPa)
#
#
# Indices 1 2 3 4 5 6 
#
# 1 0.012862 -0.001445 -0.005433 0.000000 0.000000 0.000000
# 2 -0.001445 0.009688 -0.006561 0.000000 0.000000 0.000000
# 3 -0.005433 -0.006561 0.038855 0.000000 0.000000 0.000000
# 4 0.000000 0.000000 0.000000 0.060936 0.000000 0.000000
# 5 0.000000 0.000000 0.000000 0.000000 0.052534 0.000000
# 6 0.000000 0.000000 0.000000 0.000000 0.000000 0.037954
#
#
# Mechanical properties :
#
#
# Convention : Reuss Voigt Hill
#
# Bulk Modulus (GPa) = 28.96324 41.28241 35.12283
# Shear Modulus (GPa) = 19.90310 24.23263 22.06787
#
# Velocity S-wave (km/s) = 3.08653 3.40573 3.25005
# Velocity P-wave (km/s) = 5.15417 5.93508 5.55836
#
# Compressibility (1/GPa) = 0.03452653
#
# Stress axis : x y z
#
# Youngs Moduli (GPa) = 77.74566 103.22394 25.73672
#
# Poissons Ratio (x) = 0.14919 0.13983
# Poissons Ratio (y) = 0.11236 0.16886
# Poissons Ratio (z) = 0.42239 0.67725
#
# Static dielectric constant tensor:
#      x y z
#    x 1.796470 0.000000 0.000000 
#    y 0.000000 1.811680 0.000000 
#    z 0.000000 0.000000 1.736690 
# 
# From -- ./inp_files/9471.got.cif
#   From: 2010.05.17/outbox.cif.g08.bks.cpg/sg44_5_cif.got.tgz:9471.got - 2010.06.03 19:37:08.
