data_PCOD9375260
_publ_section_title
;
Structure prediction by ZEFSAII (Michael W. Deem and Ramdas Pophale) SiO2 
 PCOD9375260
Probable space group: I M M 2
;
_chemical_formula_sum "Si O2"
_cell_formula_units_Z 48
_cell_length_a 34.491158
_cell_length_b 13.967428
_cell_length_c 5.197490
_cell_angle_alpha 90.000000
_cell_angle_beta 90.000000
_cell_angle_gamma 90.000000
_cell_volume 2503.905184
_symmetry_space_group_name_H-M "I M M 2"
_symmetry_group_IT_number 44
_symmetry_cell_setting 'orthorhombic'
loop_
_space_group_symop_operation_xyz
x,y,z
-x,-y,z
-x,y,z
x,-y,z
1/2+x,1/2+y,1/2+z
1/2-x,1/2-y,1/2+z
1/2-x,1/2+y,1/2+z
1/2+x,1/2-y,1/2+z
loop_
_atom_site_type_symbol
_atom_site_label
_atom_site_fract_x
_atom_site_fract_y
_atom_site_fract_z
Si Si1 0.346840 0.886923 0.101700
Si Si2 0.623787 0.707080 0.824765
Si Si3 0.930428 0.609844 0.821049
Si Si4 0.158877 0.886863 0.822637
Si Si5 0.456185 0.782433 0.814855
Si Si6 0.724560 0.750481 0.193156
O O1 0.383593 0.879410 0.296601
O O2 0.307129 0.837014 0.197376
O O3 0.342193 0.000000 0.039440
O O4 0.361105 0.816171 0.872353
O O5 0.645689 0.658925 0.590276
O O6 0.578096 0.706964 0.773002
O O7 0.632655 0.652875 0.090147
O O8 0.939353 0.500000 0.764719
O O9 0.949035 0.674073 0.597488
O O10 0.946984 0.638903 0.096399
O O11 0.201011 0.845381 0.758434
O O12 0.157823 0.000000 0.835299
O O13 0.500000 0.748422 0.788664
O O14 0.756881 0.760206 0.412139
#
# Coordination Sequence:
#
# PCOD9375260 Si02
#       6
#     8   8   8   8   8   8
#     4   9  20  39  61  83 115 159 194 230 283 345
#     4  10  21  40  61  88 116 148 201 243 275 344
#     4  10  21  35  53  80 113 155 203 233 267 342
#     4  11  23  42  66  85 111 154 199 243 291 338
#     4  11  21  34  55  82 117 155 185 235 300 337
#     4  11  23  38  57  87 122 148 186 241 290 346
#
# _framework density 19.170052999999999
#
# number of rings (size 3 to 8) (size 9 to 14) (size 15 to 20)
#    0.000    1.667    0.000    6.500    0.000    5.333 
#    0.000   10.000    0.000    3.000    0.000    0.000 
#    0.000    0.000    0.000    0.000    0.000    0.000 
#
# Total GULP energy -134007.329846 kJ/mol
# GULP energy per Si atom -5583.638744 kJ/mol
# Density = 1.912642 g / cm^3
# Si number density = 19.170053 Si / 1000 Ang^3
#
#
#
# Elastic Constant Matrix: (Units=GPa)
#
#
# Indices 1 2 3 4 5 6 
#
# 1 98.3188 31.6654 8.6401 0.0006 -0.0008 0.0000
# 2 31.6654 110.2818 31.1004 0.0000 -0.0006 -0.0009
# 3 8.6401 31.1004 67.3928 0.0059 0.0001 0.0016
# 4 0.0006 0.0000 0.0059 18.9882 0.0005 0.0002
# 5 -0.0008 -0.0006 0.0001 0.0005 21.5258 0.0008
# 6 0.0000 -0.0009 0.0016 0.0002 0.0008 4.1170
#
#
#
# Elastic Compliance Matrix: (Units=1/GPa)
#
#
# Indices 1 2 3 4 5 6 
#
# 1 0.011208 -0.003234 0.000055 0.000000 0.000000 -0.000001
# 2 -0.003234 0.011357 -0.004827 0.000002 0.000000 0.000004
# 3 0.000055 -0.004827 0.017059 -0.000005 0.000000 -0.000008
# 4 0.000000 0.000002 -0.000005 0.052664 -0.000001 -0.000003
# 5 0.000000 0.000000 0.000000 -0.000001 0.046456 -0.000009
# 6 -0.000001 0.000004 -0.000008 -0.000003 -0.000009 0.242893
#
#
# Mechanical properties :
#
#
# Convention : Reuss Voigt Hill
#
# Bulk Modulus (GPa) = 42.34809 46.53391 44.44100
# Shear Modulus (GPa) = 12.32993 22.56538 17.44765
#
# Velocity S-wave (km/s) = 2.53886 3.43463 3.02014
# Velocity P-wave (km/s) = 5.54375 6.32897 5.94933
#
# Compressibility (1/GPa) = 0.02361381
#
# Stress axis : x y z
#
# Youngs Moduli (GPa) = 89.22529 88.04902 58.62133
#
# Poissons Ratio (x) = 0.28472 -0.00325
# Poissons Ratio (y) = 0.28853 0.28294
# Poissons Ratio (z) = -0.00494 0.42498
#
# Static dielectric constant tensor:
#      x y z
#    x 1.701050 0.000000 0.000000 
#    y 0.000000 1.651700 0.000000 
#    z 0.000000 0.000000 1.685670 
# 
# From -- ./inp_files/3280.got.cif
#   From: 2010.05.17/outbox.cif.g08.bks.cpg/sg44_2_cif.got.tgz:3280.got - 2010.06.03 19:37:08.
