data_PCOD9376794
_publ_section_title
;
Structure prediction by ZEFSAII (Michael W. Deem and Ramdas Pophale) SiO2 
 PCOD9376794
Probable space group: I B A 2
;
_chemical_formula_sum "Si O2"
_cell_formula_units_Z 48
_cell_length_a 4.955566
_cell_length_b 26.825949
_cell_length_c 13.865029
_cell_angle_alpha 90.000000
_cell_angle_beta 90.000000
_cell_angle_gamma 90.000000
_cell_volume 1843.185908
_symmetry_space_group_name_H-M "I B A 2"
_symmetry_group_IT_number 45
_symmetry_cell_setting 'orthorhombic'
loop_
_space_group_symop_operation_xyz
x,y,z
-x,-y,z
-x,y,1/2+z
x,-y,1/2+z
1/2+x,1/2+y,1/2+z
1/2-x,1/2-y,1/2+z
1/2-x,1/2+y,z
1/2+x,1/2-y,z
loop_
_atom_site_type_symbol
_atom_site_label
_atom_site_fract_x
_atom_site_fract_y
_atom_site_fract_z
Si Si1 0.000000 0.000000 0.304651
Si Si2 0.408191 0.609058 0.283536
Si Si3 0.113852 0.375967 0.608064
Si Si4 0.843936 0.783905 0.791997
Si Si5 0.876836 0.084862 0.010181
Si Si6 0.623282 0.278734 0.024095
Si Si7 0.500000 0.000000 0.948301
O O1 0.259633 0.986962 0.372019
O O2 0.980476 0.947447 0.249670
O O3 0.137661 0.617369 0.222230
O O4 0.578627 0.659413 0.264637
O O5 0.375464 0.602586 0.398491
O O6 0.320584 0.414136 0.551267
O O7 0.249808 0.324717 0.577746
O O8 0.812834 0.378914 0.570845
O O9 0.565561 0.757734 0.763305
O O10 0.847274 0.786501 0.909195
O O11 0.688874 0.035807 0.012621
O O12 0.315787 0.267736 0.047052
#
# Coordination Sequence:
#
# PCOD9376794 Si02
#       7
#     4   8   8   8   8   8   4
#     4  10  24  44  70 106 138 190 232 294 346 414
#     4  11  26  47  73 103 148 185 240 289 353 423
#     4  12  26  42  72 103 133 190 229 292 353 416
#     4  10  23  39  69 101 135 185 226 287 351 410
#     4  11  25  45  67 100 139 177 237 290 347 415
#     4  10  21  40  64  97 137 177 229 287 346 409
#     4  10  22  42  72  94 134 190 226 286 360 410
#
# _framework density 26.041864
#
# number of rings (size 3 to 8) (size 9 to 14) (size 15 to 20)
#    0.000    1.333    1.667    3.000    4.667    9.333 
#    0.000    0.833    0.000    0.000    0.000    0.000 
#    0.000    0.000    0.000    0.000    0.000    0.000 
#
# Total GULP energy -134078.484370 kJ/mol
# GULP energy per Si atom -5586.603515 kJ/mol
# Density = 2.598259 g / cm^3
# Si number density = 26.041864 Si / 1000 Ang^3
#
#
#
# Elastic Constant Matrix: (Units=GPa)
#
#
# Indices 1 2 3 4 5 6 
#
# 1 117.3932 8.6203 8.0258 0.0000 0.0000 0.0000
# 2 8.6203 169.1904 -13.1582 0.0000 0.0000 0.0000
# 3 8.0258 -13.1582 86.3001 0.0000 0.0000 0.0000
# 4 0.0000 0.0000 0.0000 2.7940 0.0000 0.0000
# 5 0.0000 0.0000 0.0000 0.0000 26.2832 0.0000
# 6 0.0000 0.0000 0.0000 0.0000 0.0000 38.0295
#
#
#
# Elastic Compliance Matrix: (Units=1/GPa)
#
#
# Indices 1 2 3 4 5 6 
#
# 1 0.008616 -0.000507 -0.000879 0.000000 0.000000 0.000000
# 2 -0.000507 0.006011 0.000964 0.000000 0.000000 0.000000
# 3 -0.000879 0.000964 0.011816 0.000000 0.000000 0.000000
# 4 0.000000 0.000000 0.000000 0.357916 0.000000 0.000000
# 5 0.000000 0.000000 0.000000 0.000000 0.038047 0.000000
# 6 0.000000 0.000000 0.000000 0.000000 0.000000 0.026295
#
#
# Mechanical properties :
#
#
# Convention : Reuss Voigt Hill
#
# Bulk Modulus (GPa) = 39.06438 42.20661 40.63550
# Shear Modulus (GPa) = 10.91516 38.04773 24.48144
#
# Velocity S-wave (km/s) = 2.04951 3.82648 3.06940
# Velocity P-wave (km/s) = 4.54245 5.98038 5.31031
#
# Compressibility (1/GPa) = 0.02559877
#
# Stress axis : x y z
#
# Youngs Moduli (GPa) = 116.06718 166.35337 84.63013
#
# Poissons Ratio (x) = 0.08439 0.07436
# Poissons Ratio (y) = 0.05888 -0.08156
# Poissons Ratio (z) = 0.10198 -0.16032
#
# Static dielectric constant tensor:
#      x y z
#    x 1.980540 0.000000 0.000000 
#    y 0.000000 2.166710 0.000000 
#    z 0.000000 0.000000 2.056590 
# 
# From -- ./inp_files/5195.got.cif
#   From: 2010.05.17/outbox.cif.g08.bks.cpg/sg45_3_cif.got.tgz:5195.got - 2010.06.03 19:51:22.
