data_PCOD9376450
_publ_section_title
;
Structure prediction by ZEFSAII (Michael W. Deem and Ramdas Pophale) SiO2 
 PCOD9376450
Probable space group: I B A 2
;
_chemical_formula_sum "Si O2"
_cell_formula_units_Z 48
_cell_length_a 20.349206
_cell_length_b 12.147825
_cell_length_c 8.584699
_cell_angle_alpha 90.000000
_cell_angle_beta 90.000000
_cell_angle_gamma 90.000000
_cell_volume 2122.125517
_symmetry_space_group_name_H-M "I B A 2"
_symmetry_group_IT_number 45
_symmetry_cell_setting 'orthorhombic'
loop_
_space_group_symop_operation_xyz
x,y,z
-x,-y,z
-x,y,1/2+z
x,-y,1/2+z
1/2+x,1/2+y,1/2+z
1/2-x,1/2-y,1/2+z
1/2-x,1/2+y,z
1/2+x,1/2-y,z
loop_
_atom_site_type_symbol
_atom_site_label
_atom_site_fract_x
_atom_site_fract_y
_atom_site_fract_z
Si Si1 0.359624 0.540421 0.557410
Si Si2 0.827174 0.206453 0.525908
Si Si3 0.572555 0.870383 0.035464
Si Si4 0.500000 0.000000 0.278869
Si Si5 0.428141 0.315898 0.279853
Si Si6 0.188780 0.747019 0.877795
Si Si7 0.500000 0.500000 0.917454
O O1 0.323270 0.424894 0.559744
O O2 0.369780 0.601557 0.721692
O O3 0.333749 0.632508 0.439126
O O4 0.434094 0.509706 0.513400
O O5 0.893905 0.236066 0.431691
O O6 0.823379 0.262754 0.694310
O O7 0.764584 0.237355 0.422734
O O8 0.559388 0.964173 0.164971
O O9 0.555696 0.762396 0.136340
O O10 0.525738 0.902792 0.891506
O O11 0.644526 0.843163 0.969153
O O12 0.490776 0.388974 0.320087
#
# Coordination Sequence:
#
# PCOD9376450 Si02
#       7
#     8   8   8   4   8   8   4
#     4  10  22  42  66 102 138 179 225 279 342 411
#     4  11  23  44  68  97 142 174 231 283 335 413
#     4  10  24  45  71  96 134 181 227 279 345 402
#     4  10  24  50  66  98 138 174 232 286 328 422
#     4  10  22  40  68 105 137 180 220 276 349 414
#     4  11  24  44  70  99 132 184 229 282 344 408
#     4  10  20  36  68 106 142 174 218 276 348 402
#
# _framework density 22.618831
#
# number of rings (size 3 to 8) (size 9 to 14) (size 15 to 20)
#    0.000    1.667    0.000    4.500    4.667    4.000 
#   15.000    0.000    0.000    0.000    0.000    0.000 
#    0.000    0.000    0.000    0.000    0.000    0.000 
#
# Total GULP energy -134106.782003 kJ/mol
# GULP energy per Si atom -5587.782583 kJ/mol
# Density = 2.256735 g / cm^3
# Si number density = 22.618831 Si / 1000 Ang^3
#
#
#
# Elastic Constant Matrix: (Units=GPa)
#
#
# Indices 1 2 3 4 5 6 
#
# 1 83.8529 33.1601 33.1174 0.0000 0.0000 0.0000
# 2 33.1601 64.2549 32.1358 0.0000 0.0000 0.0000
# 3 33.1174 32.1358 140.0674 0.0000 0.0000 0.0000
# 4 0.0000 0.0000 0.0000 32.2191 0.0000 0.0000
# 5 0.0000 0.0000 0.0000 0.0000 22.4194 0.0000
# 6 0.0000 0.0000 0.0000 0.0000 0.0000 31.0196
#
#
#
# Elastic Compliance Matrix: (Units=1/GPa)
#
#
# Indices 1 2 3 4 5 6 
#
# 1 0.015495 -0.006963 -0.002066 0.000000 0.000000 0.000000
# 2 -0.006963 0.020710 -0.003105 0.000000 0.000000 0.000000
# 3 -0.002066 -0.003105 0.008340 0.000000 0.000000 0.000000
# 4 0.000000 0.000000 0.000000 0.031037 0.000000 0.000000
# 5 0.000000 0.000000 0.000000 0.000000 0.044604 0.000000
# 6 0.000000 0.000000 0.000000 0.000000 0.000000 0.032238
#
#
# Mechanical properties :
#
#
# Convention : Reuss Voigt Hill
#
# Bulk Modulus (GPa) = 49.31879 53.88908 51.60393
# Shear Modulus (GPa) = 27.25504 29.78241 28.51873
#
# Velocity S-wave (km/s) = 3.47504 3.63258 3.55468
# Velocity P-wave (km/s) = 6.16058 6.43978 6.30173
#
# Compressibility (1/GPa) = 0.02027625
#
# Stress axis : x y z
#
# Youngs Moduli (GPa) = 64.53556 48.28695 119.89972
#
# Poissons Ratio (x) = 0.33624 0.24772
# Poissons Ratio (y) = 0.44939 0.37229
# Poissons Ratio (z) = 0.13334 0.14993
#
# Static dielectric constant tensor:
#      x y z
#    x 1.781900 0.000000 0.000000 
#    y 0.000000 1.928920 0.000000 
#    z 0.000000 0.000000 1.900520 
# 
# From -- ./inp_files/2298.got.cif
#   From: 2010.05.17/outbox.cif.g08.bks.cpg/sg45_2_cif.got.tgz:2298.got - 2010.06.03 19:51:22.
