data_PCOD9376610
_publ_section_title
;
Structure prediction by ZEFSAII (Michael W. Deem and Ramdas Pophale) SiO2 
 PCOD9376610
Probable space group: I B A 2
;
_chemical_formula_sum "Si O2"
_cell_formula_units_Z 56
_cell_length_a 13.156373
_cell_length_b 13.779125
_cell_length_c 13.638432
_cell_angle_alpha 90.000000
_cell_angle_beta 90.000000
_cell_angle_gamma 90.000000
_cell_volume 2472.420070
_symmetry_space_group_name_H-M "I B A 2"
_symmetry_group_IT_number 45
_symmetry_cell_setting 'orthorhombic'
loop_
_space_group_symop_operation_xyz
x,y,z
-x,-y,z
-x,y,1/2+z
x,-y,1/2+z
1/2+x,1/2+y,1/2+z
1/2-x,1/2-y,1/2+z
1/2-x,1/2+y,z
1/2+x,1/2-y,z
loop_
_atom_site_type_symbol
_atom_site_label
_atom_site_fract_x
_atom_site_fract_y
_atom_site_fract_z
Si Si1 0.513692 0.714685 0.628250
Si Si2 0.101569 0.942920 0.016567
Si Si3 0.386198 0.993805 0.139070
Si Si4 0.766651 0.214190 0.913735
Si Si5 0.225330 0.871980 0.582067
Si Si6 0.404013 0.157664 0.786443
Si Si7 0.945168 0.367402 0.455777
O O1 0.435772 0.627276 0.606119
O O2 0.626596 0.668920 0.635413
O O3 0.512637 0.781846 0.723561
O O4 0.515664 0.783873 0.531664
O O5 0.183002 0.025697 0.040663
O O6 0.155346 0.870903 0.941660
O O7 0.000000 0.000000 0.982699
O O8 0.344269 0.913938 0.212901
O O9 0.500000 0.000000 0.179231
O O10 0.324398 0.092486 0.139243
O O11 0.403290 0.950133 0.030034
O O12 0.817559 0.272473 0.827320
O O13 0.654349 0.171594 0.900264
O O14 0.755627 0.291319 0.003075
O O15 0.464646 0.112661 0.879192
#
# Coordination Sequence:
#
# PCOD9376610 Si02
#       7
#     8   8   8   8   8   8   8
#     4   9  21  41  67  93 130 173 221 277 336 391
#     4  10  20  42  73  96 126 177 227 276 334 402
#     4  11  24  40  62  91 135 181 221 273 331 409
#     4  11  22  42  71  94 132 177 223 284 334 398
#     4  10  22  41  68  96 127 181 225 273 342 399
#     4  11  24  40  62 101 133 172 224 277 339 399
#     4  10  21  42  64  92 129 177 221 271 337 398
#
# _framework density 22.649872999999999
#
# number of rings (size 3 to 8) (size 9 to 14) (size 15 to 20)
#    0.000    1.714    2.857    0.857    2.000    4.000 
#    2.571    2.143    0.000    0.000    0.000    0.000 
#    0.000    0.000    0.000    0.000    0.000    0.000 
#
# Total GULP energy -156341.137138 kJ/mol
# GULP energy per Si atom -5583.612041 kJ/mol
# Density = 2.259832 g / cm^3
# Si number density = 22.649873 Si / 1000 Ang^3
#
#
#
# Elastic Constant Matrix: (Units=GPa)
#
#
# Indices 1 2 3 4 5 6 
#
# 1 66.8422 4.5241 5.2171 0.0000 0.0000 0.0000
# 2 4.5241 70.9508 17.9016 0.0000 0.0000 0.0000
# 3 5.2171 17.9016 68.7936 0.0000 0.0000 0.0000
# 4 0.0000 0.0000 0.0000 28.7664 0.0000 0.0000
# 5 0.0000 0.0000 0.0000 0.0000 19.4980 0.0000
# 6 0.0000 0.0000 0.0000 0.0000 0.0000 -53.6233
#
#
#
# Elastic Compliance Matrix: (Units=1/GPa)
#
#
# Indices 1 2 3 4 5 6 
#
# 1 0.015084 -0.000721 -0.000956 0.000000 0.000000 0.000000
# 2 -0.000721 0.015119 -0.003880 0.000000 0.000000 0.000000
# 3 -0.000956 -0.003880 0.015618 0.000000 0.000000 0.000000
# 4 0.000000 0.000000 0.000000 0.034763 0.000000 0.000000
# 5 0.000000 0.000000 0.000000 0.000000 0.051287 0.000000
# 6 0.000000 0.000000 0.000000 0.000000 0.000000 -0.018649
#
#
# Mechanical properties :
#
#
# Convention : Reuss Voigt Hill
#
# Bulk Modulus (GPa) = 28.81162 29.09693 28.95427
# Shear Modulus (GPa) = 36.79025 10.85781 23.82403
#
# Velocity S-wave (km/s) = 4.03464 2.19184 3.24673
# Velocity P-wave (km/s) = 5.86962 4.39088 5.18326
#
# Compressibility (1/GPa) = 0.03470822
#
# Stress axis : x y z
#
# Youngs Moduli (GPa) = 66.29526 66.14150 64.02730
#
# Poissons Ratio (x) = 0.04766 0.06124
# Poissons Ratio (y) = 0.04777 0.24841
# Poissons Ratio (z) = 0.06341 0.25661
#
# Static dielectric constant tensor:
#      x y z
#    x 1.904140 0.000000 0.000000 
#    y 0.000000 1.910270 0.000000 
#    z 0.000000 0.000000 1.825610 
# 
# From -- ./inp_files/4152.got.cif
#   From: 2010.05.17/outbox.cif.g08.bks.cpg/sg45_3_cif.got.tgz:4152.got - 2010.06.03 19:51:22.
