data_PCOD9376784
_publ_section_title
;
Structure prediction by ZEFSAII (Michael W. Deem and Ramdas Pophale) SiO2 
 PCOD9376784
Probable space group: I B A 2
;
_chemical_formula_sum "Si O2"
_cell_formula_units_Z 64
_cell_length_a 9.232770
_cell_length_b 25.466667
_cell_length_c 13.150484
_cell_angle_alpha 90.000000
_cell_angle_beta 90.000000
_cell_angle_gamma 90.000000
_cell_volume 3092.045412
_symmetry_space_group_name_H-M "I B A 2"
_symmetry_group_IT_number 45
_symmetry_cell_setting 'orthorhombic'
loop_
_space_group_symop_operation_xyz
x,y,z
-x,-y,z
-x,y,1/2+z
x,-y,1/2+z
1/2+x,1/2+y,1/2+z
1/2-x,1/2-y,1/2+z
1/2-x,1/2+y,z
1/2+x,1/2-y,z
loop_
_atom_site_type_symbol
_atom_site_label
_atom_site_fract_x
_atom_site_fract_y
_atom_site_fract_z
Si Si1 0.370063 0.192283 0.034620
Si Si2 0.432219 0.719935 0.699704
Si Si3 0.362331 0.035379 0.180268
Si Si4 0.173765 0.091666 0.010245
Si Si5 0.638917 0.469934 0.813084
Si Si6 0.892974 0.898334 0.626496
Si Si7 0.574688 0.124514 0.163593
Si Si8 0.339640 0.218778 0.808848
O O1 0.370023 0.239296 0.116437
O O2 0.237160 0.150520 0.027585
O O3 0.503446 0.156531 0.071501
O O4 0.388779 0.216708 0.923896
O O5 0.424032 0.661656 0.657314
O O6 0.587526 0.736762 0.739793
O O7 0.331212 0.724463 0.798708
O O8 0.257419 0.053316 0.088879
O O9 0.450065 0.087871 0.210593
O O10 0.500000 0.000000 0.147329
O O11 0.265231 0.006947 0.266181
O O12 0.002814 0.089938 0.035655
O O13 0.199799 0.070077 0.897157
O O14 0.500000 0.500000 0.857863
O O15 0.572763 0.436877 0.719558
O O16 0.718715 0.903186 0.619622
O O17 0.621240 0.164914 0.250870
#
# Coordination Sequence:
#
# PCOD9376784 Si02
#       8
#     8   8   8   8   8   8   8   8
#     4  10  22  42  63  96 130 171 223 268 331 404
#     4  10  22  38  67  94 130 177 211 272 338 393
#     4  11  23  43  68  90 133 172 213 270 333 387
#     4  11  25  43  67  97 132 170 222 275 330 400
#     4  12  26  43  66  97 132 175 221 274 329 397
#     4  11  22  43  65  95 136 167 217 274 335 387
#     4   9  21  41  64  93 124 174 210 275 328 400
#     4  10  21  40  63  92 134 163 222 271 325 392
#
# _framework density 20.698273
#
# number of rings (size 3 to 8) (size 9 to 14) (size 15 to 20)
#    0.000    1.500    2.500    2.250    1.750    5.500 
#    4.500    0.000    0.000    0.000    0.000    0.000 
#    0.000    0.000    0.000    0.000    0.000    0.000 
#
# Total GULP energy -178513.421134 kJ/mol
# GULP energy per Si atom -5578.544410 kJ/mol
# Density = 2.065116 g / cm^3
# Si number density = 20.698273 Si / 1000 Ang^3
#
#
#
# Elastic Constant Matrix: (Units=GPa)
#
#
# Indices 1 2 3 4 5 6 
#
# 1 88.2725 20.3762 13.1339 0.0000 0.0000 0.0000
# 2 20.3762 55.7629 1.2273 0.0000 0.0000 0.0000
# 3 13.1339 1.2273 59.6406 0.0000 -0.0001 0.0000
# 4 0.0000 0.0000 0.0000 18.9397 0.0000 0.0000
# 5 0.0000 0.0000 -0.0001 0.0000 5.7307 0.0000
# 6 0.0000 0.0000 0.0000 0.0000 0.0000 16.4418
#
#
#
# Elastic Compliance Matrix: (Units=1/GPa)
#
#
# Indices 1 2 3 4 5 6 
#
# 1 0.012800 -0.004617 -0.002724 0.000000 0.000000 0.000000
# 2 -0.004617 0.019607 0.000613 0.000000 0.000000 0.000000
# 3 -0.002724 0.000613 0.017354 0.000000 0.000000 0.000000
# 4 0.000000 0.000000 0.000000 0.052799 0.000000 0.000000
# 5 0.000000 0.000000 0.000000 0.000000 0.174498 0.000000
# 6 0.000000 0.000000 0.000000 0.000000 0.000000 0.060821
#
#
# Mechanical properties :
#
#
# Convention : Reuss Voigt Hill
#
# Bulk Modulus (GPa) = 27.54399 30.35009 28.94704
# Shear Modulus (GPa) = 13.75761 19.48501 16.62131
#
# Velocity S-wave (km/s) = 2.58093 3.07153 2.83685
# Velocity P-wave (km/s) = 4.71358 5.22245 4.97453
#
# Compressibility (1/GPa) = 0.03630556
#
# Stress axis : x y z
#
# Youngs Moduli (GPa) = 78.12746 51.00298 57.62271
#
# Poissons Ratio (x) = 0.23549 0.15695
# Poissons Ratio (y) = 0.36072 -0.03534
# Poissons Ratio (z) = 0.21279 -0.03128
#
# Static dielectric constant tensor:
#      x y z
#    x 1.762570 0.000000 0.000000 
#    y 0.000000 1.782350 0.000000 
#    z 0.000000 0.000000 1.689370 
# 
# From -- ./inp_files/3420.got.cif
#   From: 2010.05.17/outbox.cif.g08.bks.cpg/sg45_2_cif.got.tgz:3420.got - 2010.06.03 19:51:22.
