data_PCOD9376597
_publ_section_title
;
Structure prediction by ZEFSAII (Michael W. Deem and Ramdas Pophale) SiO2 
 PCOD9376597
Probable space group: I B A 2
;
_chemical_formula_sum "Si O2"
_cell_formula_units_Z 60
_cell_length_a 12.048171
_cell_length_b 22.586497
_cell_length_c 9.842171
_cell_angle_alpha 90.000000
_cell_angle_beta 90.000000
_cell_angle_gamma 90.000000
_cell_volume 2678.310410
_symmetry_space_group_name_H-M "I B A 2"
_symmetry_group_IT_number 45
_symmetry_cell_setting 'orthorhombic'
loop_
_space_group_symop_operation_xyz
x,y,z
-x,-y,z
-x,y,1/2+z
x,-y,1/2+z
1/2+x,1/2+y,1/2+z
1/2-x,1/2-y,1/2+z
1/2-x,1/2+y,z
1/2+x,1/2-y,z
loop_
_atom_site_type_symbol
_atom_site_label
_atom_site_fract_x
_atom_site_fract_y
_atom_site_fract_z
Si Si1 0.563736 0.403176 0.734640
Si Si2 0.949814 0.173437 0.499457
Si Si3 0.739491 0.223291 0.662081
Si Si4 0.325505 0.302688 0.941496
Si Si5 0.174181 0.067606 0.318255
Si Si6 0.500000 0.000000 0.668691
Si Si7 0.718882 0.046798 0.316732
Si Si8 0.656473 0.102808 0.581781
O O1 0.517830 0.368493 0.604287
O O2 0.454599 0.439826 0.781149
O O3 0.680828 0.435695 0.715586
O O4 0.584989 0.361527 0.865326
O O5 0.851673 0.199700 0.589004
O O6 0.045458 0.216357 0.441722
O O7 0.715471 0.284513 0.588624
O O8 0.758632 0.229472 0.821661
O O9 0.649622 0.171484 0.628150
O O10 0.315611 0.371157 0.899852
O O11 0.246930 0.077782 0.181711
O O12 0.228020 0.011128 0.389936
O O13 0.396537 0.026538 0.752057
O O14 0.553154 0.057432 0.594315
O O15 0.694050 0.096721 0.427071
#
# Coordination Sequence:
#
# PCOD9376597 Si02
#       8
#     8   8   8   8   8   4   8   8
#     4  11  20  37  66  98 132 174 215 275 350 400
#     4  11  21  42  64  96 139 164 219 290 333 404
#     4  11  22  44  67  93 133 176 228 278 347 398
#     4  10  24  39  66  94 129 181 220 282 335 405
#     4   9  20  39  59 100 133 162 219 285 331 410
#     4  10  24  38  58  90 138 170 230 276 328 412
#     4  11  21  37  66  93 131 183 218 269 348 415
#     4  10  20  42  63  87 133 177 212 284 334 400
#
# _framework density 22.402183000000001
#
# number of rings (size 3 to 8) (size 9 to 14) (size 15 to 20)
#    0.000    1.600    5.333    0.800    1.867    4.267 
#    0.000   14.667    0.000    0.000    0.000    0.000 
#    0.000    0.000    0.000    0.000    0.000    0.000 
#
# Total GULP energy -167327.830736 kJ/mol
# GULP energy per Si atom -5577.594358 kJ/mol
# Density = 2.235119 g / cm^3
# Si number density = 22.402183 Si / 1000 Ang^3
#
#
#
# Elastic Constant Matrix: (Units=GPa)
#
#
# Indices 1 2 3 4 5 6 
#
# 1 105.7221 24.3589 8.6076 -0.0008 0.0002 0.0002
# 2 24.3589 47.7376 15.3997 0.0000 0.0000 0.0001
# 3 8.6076 15.3997 67.5394 -0.0025 0.0005 0.0012
# 4 -0.0008 0.0000 -0.0025 28.4676 0.0004 0.0007
# 5 0.0002 0.0000 0.0005 0.0004 26.9772 -0.0002
# 6 0.0002 0.0001 0.0012 0.0007 -0.0002 16.2725
#
#
#
# Elastic Compliance Matrix: (Units=1/GPa)
#
#
# Indices 1 2 3 4 5 6 
#
# 1 0.010720 -0.005429 -0.000128 0.000000 0.000000 0.000000
# 2 -0.005429 0.025360 -0.005091 -0.000001 0.000000 0.000000
# 3 -0.000128 -0.005091 0.015983 0.000001 0.000000 -0.000001
# 4 0.000000 -0.000001 0.000001 0.035128 -0.000001 -0.000001
# 5 0.000000 0.000000 0.000000 -0.000001 0.037068 0.000001
# 6 0.000000 0.000000 -0.000001 -0.000001 0.000001 0.061453
#
#
# Mechanical properties :
#
#
# Convention : Reuss Voigt Hill
#
# Bulk Modulus (GPa) = 32.50115 35.30351 33.90233
# Shear Modulus (GPa) = 23.01347 25.85230 24.43289
#
# Velocity S-wave (km/s) = 3.20861 3.40076 3.30608
# Velocity P-wave (km/s) = 5.31662 5.58689 5.45343
#
# Compressibility (1/GPa) = 0.03076814
#
# Stress axis : x y z
#
# Youngs Moduli (GPa) = 93.28351 39.43205 62.56551
#
# Poissons Ratio (x) = 0.21406 0.00804
# Poissons Ratio (y) = 0.50640 0.31849
# Poissons Ratio (z) = 0.01198 0.20073
#
# Static dielectric constant tensor:
#      x y z
#    x 1.887880 0.000000 0.000000 
#    y 0.000000 1.916260 0.000000 
#    z 0.000000 0.000000 1.829820 
# 
# From -- ./inp_files/1436.got.cif
#   From: 2010.05.17/outbox.cif.g08.bks.cpg/sg45_1_cif.got.tgz:1436.got - 2010.06.03 19:51:22.
