data_PCOD9376542
_publ_section_title
;
Structure prediction by ZEFSAII (Michael W. Deem and Ramdas Pophale) SiO2 
 PCOD9376542
Probable space group: I B A 2
;
_chemical_formula_sum "Si O2"
_cell_formula_units_Z 56
_cell_length_a 21.889121
_cell_length_b 7.355395
_cell_length_c 17.243709
_cell_angle_alpha 90.000000
_cell_angle_beta 90.000000
_cell_angle_gamma 90.000000
_cell_volume 2776.291142
_symmetry_space_group_name_H-M "I B A 2"
_symmetry_group_IT_number 45
_symmetry_cell_setting 'orthorhombic'
loop_
_space_group_symop_operation_xyz
x,y,z
-x,-y,z
-x,y,1/2+z
x,-y,1/2+z
1/2+x,1/2+y,1/2+z
1/2-x,1/2-y,1/2+z
1/2-x,1/2+y,z
1/2+x,1/2-y,z
loop_
_atom_site_type_symbol
_atom_site_label
_atom_site_fract_x
_atom_site_fract_y
_atom_site_fract_z
Si Si1 0.062345 0.601920 0.718490
Si Si2 0.689570 0.111296 0.507941
Si Si3 0.864728 0.754252 0.664412
Si Si4 0.839306 0.314635 0.839528
Si Si5 0.295778 0.772806 0.814380
Si Si6 0.670690 0.312843 0.981577
Si Si7 0.436433 0.576378 0.094833
O O1 0.102517 0.433604 0.687473
O O2 0.099964 0.703004 0.787700
O O3 0.053581 0.744080 0.647817
O O4 0.000000 0.500000 0.744137
O O5 0.669066 0.211512 0.584742
O O6 0.659797 0.208285 0.432481
O O7 0.763065 0.112823 0.506206
O O8 0.670042 0.901506 0.502844
O O9 0.818929 0.802798 0.733410
O O10 0.910641 0.918817 0.650664
O O11 0.777453 0.214163 0.813954
O O12 0.820439 0.524676 0.826727
O O13 0.324614 0.668525 0.888254
O O14 0.613565 0.392758 0.027664
O O15 0.500000 0.500000 0.062491
#
# Coordination Sequence:
#
# PCOD9376542 Si02
#       7
#     8   8   8   8   8   8   8
#     4  11  23  44  63  87 133 169 216 270 310 381
#     4  10  20  39  65  96 131 166 209 272 326 379
#     4  11  23  40  65  94 128 165 216 270 321 379
#     4   9  21  38  64  92 128 172 205 264 330 377
#     4   9  21  38  61  94 130 160 210 267 325 378
#     4  10  21  40  62  93 134 168 212 266 323 383
#     4  12  25  41  65  92 125 175 221 261 317 382
#
# _framework density 20.170794999999998
#
# number of rings (size 3 to 8) (size 9 to 14) (size 15 to 20)
#    0.000    1.714    2.857    0.857    4.000    2.286 
#    0.000    5.714    0.000    0.000    0.000    0.000 
#    0.000    0.000    0.000    0.000    0.000    0.000 
#
# Total GULP energy -156274.525505 kJ/mol
# GULP energy per Si atom -5581.233054 kJ/mol
# Density = 2.012489 g / cm^3
# Si number density = 20.170795 Si / 1000 Ang^3
#
#
#
# Elastic Constant Matrix: (Units=GPa)
#
#
# Indices 1 2 3 4 5 6 
#
# 1 112.8067 22.1074 79.8822 0.0000 0.0000 0.0000
# 2 22.1074 63.8186 25.2038 0.0000 0.0000 0.0000
# 3 79.8822 25.2038 119.9628 0.0000 0.0000 0.0000
# 4 0.0000 0.0000 0.0000 13.5724 0.0000 0.0000
# 5 0.0000 0.0000 0.0000 0.0000 -1.9523 0.0000
# 6 0.0000 0.0000 0.0000 0.0000 0.0000 17.8154
#
#
#
# Elastic Compliance Matrix: (Units=1/GPa)
#
#
# Indices 1 2 3 4 5 6 
#
# 1 0.016912 -0.001539 -0.010938 0.000000 0.000000 0.000000
# 2 -0.001539 0.017227 -0.002595 0.000000 0.000000 0.000000
# 3 -0.010938 -0.002595 0.016165 0.000000 0.000000 0.000000
# 4 0.000000 0.000000 0.000000 0.073679 0.000000 0.000000
# 5 0.000000 0.000000 0.000000 0.000000 -0.512226 0.000000
# 6 0.000000 0.000000 0.000000 0.000000 0.000000 0.056131
#
#
# Mechanical properties :
#
#
# Convention : Reuss Voigt Hill
#
# Bulk Modulus (GPa) = 49.60196 61.21945 55.41070
# Shear Modulus (GPa) = -16.93492 17.18006 0.12257
#
# Velocity S-wave (km/s) = -2.90069 2.92161 0.24678
# Velocity P-wave (km/s) = 3.66411 6.46510 5.25467
#
# Compressibility (1/GPa) = 0.02016049
#
# Stress axis : x y z
#
# Youngs Moduli (GPa) = 59.12930 58.04775 61.86263
#
# Poissons Ratio (x) = 0.08931 0.67668
# Poissons Ratio (y) = 0.09098 0.16052
# Poissons Ratio (z) = 0.64678 0.15062
#
# Static dielectric constant tensor:
#      x y z
#    x 1.706940 0.000000 0.000000 
#    y 0.000000 1.759640 0.000000 
#    z 0.000000 0.000000 1.727560 
# 
# From -- ./inp_files/6934.got.cif
#   From: 2010.05.17/outbox.cif.g08.bks.cpg/sg45_4_cif.got.tgz:6934.got - 2010.06.03 19:51:22.
