data_PCOD9376269
_publ_section_title
;
Structure prediction by ZEFSAII (Michael W. Deem and Ramdas Pophale) SiO2 
 PCOD9376269
Probable space group: I B A 2
;
_chemical_formula_sum "Si O2"
_cell_formula_units_Z 40
_cell_length_a 23.895103
_cell_length_b 13.981522
_cell_length_c 5.214401
_cell_angle_alpha 90.000000
_cell_angle_beta 90.000000
_cell_angle_gamma 90.000000
_cell_volume 1742.078752
_symmetry_space_group_name_H-M "I B A 2"
_symmetry_group_IT_number 45
_symmetry_cell_setting 'orthorhombic'
loop_
_space_group_symop_operation_xyz
x,y,z
-x,-y,z
-x,y,1/2+z
x,-y,1/2+z
1/2+x,1/2+y,1/2+z
1/2-x,1/2-y,1/2+z
1/2-x,1/2+y,z
1/2+x,1/2-y,z
loop_
_atom_site_type_symbol
_atom_site_label
_atom_site_fract_x
_atom_site_fract_y
_atom_site_fract_z
Si Si1 0.362599 0.665162 0.440670
Si Si2 0.255267 0.186611 0.333247
Si Si3 0.522791 0.605608 0.787143
Si Si4 0.874734 0.709699 0.939971
Si Si5 0.563478 0.962072 0.260773
O O1 0.300371 0.625943 0.390725
O O2 0.413766 0.596784 0.376384
O O3 0.369540 0.706824 0.725913
O O4 0.372060 0.748378 0.225775
O O5 0.248130 0.272833 0.543769
O O6 0.317274 0.149379 0.390270
O O7 0.500000 0.500000 0.736163
O O8 0.487939 0.654990 0.014587
O O9 0.926967 0.642608 0.874735
O O10 0.500000 0.000000 0.222789
O O11 0.589245 0.030335 0.478733
#
# Coordination Sequence:
#
# PCOD9376269 Si02
#       5
#     8   8   8   8   8
#     4  10  19  35  57  88 107 140 187 229 267 326
#     4   8  16  30  54  81 109 134 172 232 276 308
#     4  10  21  38  55  76 116 151 175 223 277 319
#     4  10  19  35  58  83 111 142 187 227 271 324
#     4  10  21  38  52  72 113 155 177 223 275 317
#
# _framework density 22.961075000000001
#
# number of rings (size 3 to 8) (size 9 to 14) (size 15 to 20)
#    0.000    2.400    0.000    2.400    0.000    0.000 
#   21.600    0.000    8.800    0.000    0.000    0.000 
#    0.000    0.000    0.000    0.000    0.000    0.000 
#
# Total GULP energy -111433.820279 kJ/mol
# GULP energy per Si atom -5571.691014 kJ/mol
# Density = 2.290881 g / cm^3
# Si number density = 22.961075 Si / 1000 Ang^3
#
#
#
# Elastic Constant Matrix: (Units=GPa)
#
#
# Indices 1 2 3 4 5 6 
#
# 1 117.4851 24.5457 -12.4281 0.0000 0.0000 0.0000
# 2 24.5457 26.5021 -7.6270 0.0000 0.0000 0.0000
# 3 -12.4281 -7.6270 141.1329 0.0000 0.0000 0.0000
# 4 0.0000 0.0000 0.0000 13.9963 0.0000 0.0000
# 5 0.0000 0.0000 0.0000 0.0000 27.8838 0.0000
# 6 0.0000 0.0000 0.0000 0.0000 0.0000 3.9015
#
#
#
# Elastic Compliance Matrix: (Units=1/GPa)
#
#
# Indices 1 2 3 4 5 6 
#
# 1 0.010577 -0.009679 0.000408 0.000000 0.000000 0.000000
# 2 -0.009679 0.047186 0.001698 0.000000 0.000000 0.000000
# 3 0.000408 0.001698 0.007213 0.000000 0.000000 0.000000
# 4 0.000000 0.000000 0.000000 0.071447 0.000000 0.000000
# 5 0.000000 0.000000 0.000000 0.000000 0.035863 0.000000
# 6 0.000000 0.000000 0.000000 0.000000 0.000000 0.256313
#
#
# Mechanical properties :
#
#
# Convention : Reuss Voigt Hill
#
# Bulk Modulus (GPa) = 20.06803 32.67792 26.37297
# Shear Modulus (GPa) = 10.86119 27.86496 19.36308
#
# Velocity S-wave (km/s) = 2.17728 3.48742 2.90711
# Velocity P-wave (km/s) = 3.88326 5.52077 4.77277
#
# Compressibility (1/GPa) = 0.04983050
#
# Stress axis : x y z
#
# Youngs Moduli (GPa) = 94.54432 21.19291 138.63421
#
# Poissons Ratio (x) = 0.20512 -0.05661
# Poissons Ratio (y) = 0.91507 -0.23535
# Poissons Ratio (z) = -0.03861 -0.03598
#
# Static dielectric constant tensor:
#      x y z
#    x 2.008540 0.000000 0.000000 
#    y 0.000000 1.957150 0.000000 
#    z 0.000000 0.000000 1.969440 
# 
# From -- ./inp_files/90.got.cif
#   From: 2010.05.17/outbox.cif.g08.bks.cpg/sg45_1_cif.got.tgz:90.got - 2010.06.03 19:51:22.
