data_PCOD9376840
_publ_section_title
;
Structure prediction by ZEFSAII (Michael W. Deem and Ramdas Pophale) SiO2 
 PCOD9376840
Probable space group: I B A 2
;
_chemical_formula_sum "Si O2"
_cell_formula_units_Z 64
_cell_length_a 8.860386
_cell_length_b 22.388558
_cell_length_c 14.821486
_cell_angle_alpha 90.000000
_cell_angle_beta 90.000000
_cell_angle_gamma 90.000000
_cell_volume 2940.156940
_symmetry_space_group_name_H-M "I B A 2"
_symmetry_group_IT_number 45
_symmetry_cell_setting 'orthorhombic'
loop_
_space_group_symop_operation_xyz
x,y,z
-x,-y,z
-x,y,1/2+z
x,-y,1/2+z
1/2+x,1/2+y,1/2+z
1/2-x,1/2-y,1/2+z
1/2-x,1/2+y,z
1/2+x,1/2-y,z
loop_
_atom_site_type_symbol
_atom_site_label
_atom_site_fract_x
_atom_site_fract_y
_atom_site_fract_z
Si Si1 0.814900 0.575463 0.354310
Si Si2 0.839674 0.883283 0.430863
Si Si3 0.852315 0.843492 0.991504
Si Si4 0.451718 0.935021 0.000447
Si Si5 0.901550 0.692917 0.266049
Si Si6 0.679286 0.234313 0.856995
Si Si7 0.849368 0.368735 0.146054
Si Si8 0.152112 0.964943 0.762854
O O1 0.715744 0.598673 0.438714
O O2 0.823480 0.629649 0.284833
O O3 0.755334 0.516665 0.306793
O O4 0.979285 0.570298 0.399677
O O5 0.723876 0.922103 0.489957
O O6 0.752189 0.827302 0.388161
O O7 0.898458 0.922736 0.346646
O O8 0.971479 0.856263 0.490911
O O9 0.811058 0.786529 0.931065
O O10 0.781935 0.837067 0.089427
O O11 0.535454 0.892518 0.069734
O O12 0.500000 0.000000 0.032134
O O13 0.763834 0.739807 0.267529
O O14 0.002507 0.720951 0.346142
O O15 0.039523 0.674878 0.200778
O O16 0.759924 0.422120 0.200339
O O17 0.000000 0.000000 0.726659
#
# Coordination Sequence:
#
# PCOD9376840 Si02
#       8
#     8   8   8   8   8   8   8   8
#     4  10  21  41  69  94 132 183 234 271 337 434
#     4  12  22  43  74 101 133 190 244 278 347 432
#     4  10  24  45  67  99 138 182 238 290 344 421
#     4  11  23  39  65 101 134 181 226 283 347 417
#     4  11  23  44  71 100 135 179 232 289 349 414
#     4  11  22  44  75  98 130 185 243 282 336 429
#     4  11  27  45  62 105 148 174 230 297 366 407
#     4  12  24  42  73 105 143 187 237 295 351 426
#
# _framework density 21.767545999999999
#
# number of rings (size 3 to 8) (size 9 to 14) (size 15 to 20)
#    0.000    1.000    6.250    0.000    1.750    1.000 
#    4.500    0.000    0.000    0.000    0.000    0.000 
#    0.000    0.000    0.000    0.000    0.000    0.000 
#
# Total GULP energy -178394.115769 kJ/mol
# GULP energy per Si atom -5574.816118 kJ/mol
# Density = 2.171800 g / cm^3
# Si number density = 21.767546 Si / 1000 Ang^3
#
#
#
# Elastic Constant Matrix: (Units=GPa)
#
#
# Indices 1 2 3 4 5 6 
#
# 1 92.0703 19.6051 13.4649 0.0000 0.0000 0.0000
# 2 19.6051 90.4773 22.1196 0.0000 0.0000 0.0000
# 3 13.4649 22.1196 54.2048 0.0001 0.0000 0.0000
# 4 0.0000 0.0000 0.0001 20.4720 0.0000 0.0000
# 5 0.0000 0.0000 0.0000 0.0000 -1.7901 0.0000
# 6 0.0000 0.0000 0.0000 0.0000 0.0000 37.1665
#
#
#
# Elastic Compliance Matrix: (Units=1/GPa)
#
#
# Indices 1 2 3 4 5 6 
#
# 1 0.011590 -0.002008 -0.002060 0.000000 0.000000 0.000000
# 2 -0.002008 0.012625 -0.004653 0.000000 0.000000 0.000000
# 3 -0.002060 -0.004653 0.020859 0.000000 0.000000 0.000000
# 4 0.000000 0.000000 0.000000 0.048847 0.000000 0.000000
# 5 0.000000 0.000000 0.000000 0.000000 -0.558633 0.000000
# 6 0.000000 0.000000 0.000000 0.000000 0.000000 0.026906
#
#
# Mechanical properties :
#
#
# Convention : Reuss Voigt Hill
#
# Bulk Modulus (GPa) = 36.18901 38.57017 37.37959
# Shear Modulus (GPa) = -12.16093 23.27388 5.55648
#
# Velocity S-wave (km/s) = -2.36619 3.27341 1.59943
# Velocity P-wave (km/s) = 3.03252 5.66079 4.54096
#
# Compressibility (1/GPa) = 0.02763270
#
# Stress axis : x y z
#
# Youngs Moduli (GPa) = 86.28104 79.20677 47.94073
#
# Poissons Ratio (x) = 0.15903 0.09874
# Poissons Ratio (y) = 0.17324 0.22308
# Poissons Ratio (z) = 0.17771 0.36857
#
# Static dielectric constant tensor:
#      x y z
#    x 1.842160 0.000000 0.000000 
#    y 0.000000 1.834250 0.000000 
#    z 0.000000 0.000000 1.833710 
# 
# From -- ./inp_files/5845.got.cif
#   From: 2010.05.17/outbox.cif.g08.bks.cpg/sg45_3_cif.got.tgz:5845.got - 2010.06.03 19:51:22.
