data_PCOD9376855
_publ_section_title
;
Structure prediction by ZEFSAII (Michael W. Deem and Ramdas Pophale) SiO2 
 PCOD9376855
Probable space group: I B A 2
;
_chemical_formula_sum "Si O2"
_cell_formula_units_Z 64
_cell_length_a 15.046321
_cell_length_b 16.259096
_cell_length_c 10.954321
_cell_angle_alpha 90.000000
_cell_angle_beta 90.000000
_cell_angle_gamma 90.000000
_cell_volume 2679.860462
_symmetry_space_group_name_H-M "I B A 2"
_symmetry_group_IT_number 45
_symmetry_cell_setting 'orthorhombic'
loop_
_space_group_symop_operation_xyz
x,y,z
-x,-y,z
-x,y,1/2+z
x,-y,1/2+z
1/2+x,1/2+y,1/2+z
1/2-x,1/2-y,1/2+z
1/2-x,1/2+y,z
1/2+x,1/2-y,z
loop_
_atom_site_type_symbol
_atom_site_label
_atom_site_fract_x
_atom_site_fract_y
_atom_site_fract_z
Si Si1 0.860200 0.929441 0.026600
Si Si2 0.432241 0.109428 0.155528
Si Si3 0.221646 0.355094 0.352788
Si Si4 0.832169 0.111644 0.928722
Si Si5 0.761881 0.533603 0.735930
Si Si6 0.516916 0.328594 0.877115
Si Si7 0.150259 0.209285 0.676989
Si Si8 0.514727 0.142748 0.406751
O O1 0.828173 0.949853 0.161627
O O2 0.785127 0.868735 0.969162
O O3 0.950389 0.884078 0.990335
O O4 0.858515 0.017769 0.960889
O O5 0.346238 0.052236 0.152424
O O6 0.395555 0.203456 0.152206
O O7 0.478570 0.098365 0.286328
O O8 0.494305 0.099773 0.037710
O O9 0.230847 0.440975 0.280496
O O10 0.263745 0.286699 0.264589
O O11 0.120140 0.344450 0.386960
O O12 0.743551 0.096750 0.849602
O O13 0.914092 0.152320 0.856969
O O14 0.823840 0.164197 0.052002
O O15 0.578912 0.342313 0.758839
O O16 0.528037 0.233142 0.910932
#
# Coordination Sequence:
#
# PCOD9376855 Si02
#       8
#     8   8   8   8   8   8   8   8
#     4  10  21  42  64  95 136 171 222 276 333 419
#     4  11  25  45  67 101 133 173 235 281 351 406
#     4  10  22  44  69  92 133 178 220 283 345 407
#     4  11  22  38  64 100 132 173 220 271 340 417
#     4  11  24  41  69  99 129 180 227 276 347 417
#     4  10  23  40  63  95 134 180 216 274 345 407
#     4  10  22  41  64  97 135 169 223 276 341 419
#     4  11  24  45  68  97 135 178 230 291 341 415
#
# _framework density 23.88184
#
# number of rings (size 3 to 8) (size 9 to 14) (size 15 to 20)
#    0.000    1.500    3.750    0.375    3.500    1.500 
#    2.250    1.250    0.000    0.000    0.000    0.000 
#    0.000    0.000    0.000    0.000    0.000    0.000 
#
# Total GULP energy -178967.795422 kJ/mol
# GULP energy per Si atom -5592.743607 kJ/mol
# Density = 2.382748 g / cm^3
# Si number density = 23.881840 Si / 1000 Ang^3
#
#
#
# Elastic Constant Matrix: (Units=GPa)
#
#
# Indices 1 2 3 4 5 6 
#
# 1 34.0095 -3.0001 1.8813 0.0000 0.0000 0.0000
# 2 -3.0001 80.9120 24.0944 0.0000 0.0000 0.0000
# 3 1.8813 24.0944 105.9426 0.0000 0.0000 0.0000
# 4 0.0000 0.0000 0.0000 15.4459 0.0000 0.0000
# 5 0.0000 0.0000 0.0000 0.0000 42.3100 0.0000
# 6 0.0000 0.0000 0.0000 0.0000 0.0000 32.3946
#
#
#
# Elastic Compliance Matrix: (Units=1/GPa)
#
#
# Indices 1 2 3 4 5 6 
#
# 1 0.029568 0.001344 -0.000831 0.000000 0.000000 0.000000
# 2 0.001344 0.013318 -0.003053 0.000000 0.000000 0.000000
# 3 -0.000831 -0.003053 0.010148 0.000000 0.000000 0.000000
# 4 0.000000 0.000000 0.000000 0.064742 0.000000 0.000000
# 5 0.000000 0.000000 0.000000 0.000000 0.023635 0.000000
# 6 0.000000 0.000000 0.000000 0.000000 0.000000 0.030869
#
#
# Mechanical properties :
#
#
# Convention : Reuss Voigt Hill
#
# Bulk Modulus (GPa) = 20.85301 29.64614 25.24957
# Shear Modulus (GPa) = 25.86054 31.22269 28.54161
#
# Velocity S-wave (km/s) = 3.29424 3.61970 3.46080
# Velocity P-wave (km/s) = 4.81872 5.46902 5.15414
#
# Compressibility (1/GPa) = 0.04795471
#
# Stress axis : x y z
#
# Youngs Moduli (GPa) = 33.82031 75.08640 98.54053
#
# Poissons Ratio (x) = -0.10089 0.08185
# Poissons Ratio (y) = -0.04544 0.30082
# Poissons Ratio (z) = 0.02809 0.22922
#
# Static dielectric constant tensor:
#      x y z
#    x 1.886540 0.000000 0.000000 
#    y 0.000000 1.874230 0.000000 
#    z 0.000000 0.000000 1.973990 
# 
# From -- ./inp_files/4271.got.cif
#   From: 2010.05.17/outbox.cif.g08.bks.cpg/sg45_3_cif.got.tgz:4271.got - 2010.06.03 19:51:22.
