data_PCOD9376846
_publ_section_title
;
Structure prediction by ZEFSAII (Michael W. Deem and Ramdas Pophale) SiO2 
 PCOD9376846
Probable space group: I B A 2
;
_chemical_formula_sum "Si O2"
_cell_formula_units_Z 44
_cell_length_a 14.248177
_cell_length_b 8.897194
_cell_length_c 13.814317
_cell_angle_alpha 90.000000
_cell_angle_beta 90.000000
_cell_angle_gamma 90.000000
_cell_volume 1751.224319
_symmetry_space_group_name_H-M "I B A 2"
_symmetry_group_IT_number 45
_symmetry_cell_setting 'orthorhombic'
loop_
_space_group_symop_operation_xyz
x,y,z
-x,-y,z
-x,y,1/2+z
x,-y,1/2+z
1/2+x,1/2+y,1/2+z
1/2-x,1/2-y,1/2+z
1/2-x,1/2+y,z
1/2+x,1/2-y,z
loop_
_atom_site_type_symbol
_atom_site_label
_atom_site_fract_x
_atom_site_fract_y
_atom_site_fract_z
Si Si1 0.557294 0.748238 0.727410
Si Si2 0.345231 0.190057 0.238720
Si Si3 0.265814 0.075763 0.649773
Si Si4 0.647210 0.918653 0.453149
Si Si5 0.054658 0.742643 0.950190
Si Si6 0.000000 0.000000 0.585113
O O1 0.455311 0.827514 0.718584
O O2 0.640251 0.859895 0.701435
O O3 0.562200 0.703465 0.839554
O O4 0.557366 0.610795 0.653955
O O5 0.318390 0.359618 0.213264
O O6 0.322558 0.134406 0.346512
O O7 0.279298 0.100487 0.165206
O O8 0.278417 0.113454 0.537168
O O9 0.549815 0.827013 0.469224
O O10 0.621152 0.096081 0.458084
O O11 0.061268 0.887035 0.019052
#
# Coordination Sequence:
#
# PCOD9376846 Si02
#       6
#     8   8   8   8   8   4
#     4  11  24  46  73 102 148 197 239 309 382 445
#     4  11  27  46  70 106 150 190 255 310 376 452
#     4  12  25  47  72 106 142 198 247 309 376 447
#     4  10  22  46  71 103 145 198 249 296 381 458
#     4  10  21  41  74 106 140 195 247 304 370 453
#     4  12  22  38  72 114 136 186 250 306 366 442
#
# _framework density 25.125278999999999
#
# number of rings (size 3 to 8) (size 9 to 14) (size 15 to 20)
#    0.000    1.091    3.636    2.182    5.091    1.455 
#    3.273    0.000    0.000    0.000    0.000    0.000 
#    0.000    0.000    0.000    0.000    0.000    0.000 
#
# Total GULP energy -123230.298347 kJ/mol
# GULP energy per Si atom -5601.377198 kJ/mol
# Density = 2.506809 g / cm^3
# Si number density = 25.125279 Si / 1000 Ang^3
#
#
#
# Elastic Constant Matrix: (Units=GPa)
#
#
# Indices 1 2 3 4 5 6 
#
# 1 89.9359 10.2256 28.5566 0.0000 0.0000 0.0000
# 2 10.2256 112.4437 69.9176 0.0000 0.0000 0.0000
# 3 28.5566 69.9176 171.7100 0.0000 0.0000 0.0000
# 4 0.0000 0.0000 0.0000 49.8887 0.0000 0.0000
# 5 0.0000 0.0000 0.0000 0.0000 17.4507 0.0000
# 6 0.0000 0.0000 0.0000 0.0000 0.0000 33.0947
#
#
#
# Elastic Compliance Matrix: (Units=1/GPa)
#
#
# Indices 1 2 3 4 5 6 
#
# 1 0.011742 0.000196 -0.002033 0.000000 0.000000 0.000000
# 2 0.000196 0.011912 -0.004883 0.000000 0.000000 0.000000
# 3 -0.002033 -0.004883 0.008150 0.000000 0.000000 0.000000
# 4 0.000000 0.000000 0.000000 0.020045 0.000000 0.000000
# 5 0.000000 0.000000 0.000000 0.000000 0.057304 0.000000
# 6 0.000000 0.000000 0.000000 0.000000 0.000000 0.030216
#
#
# Mechanical properties :
#
#
# Convention : Reuss Voigt Hill
#
# Bulk Modulus (GPa) = 54.45137 65.72103 60.08620
# Shear Modulus (GPa) = 31.46045 37.77946 34.61996
#
# Velocity S-wave (km/s) = 3.54240 3.88189 3.71603
# Velocity P-wave (km/s) = 6.20085 6.80487 6.50987
#
# Compressibility (1/GPa) = 0.01836501
#
# Stress axis : x y z
#
# Youngs Moduli (GPa) = 85.16332 83.95122 122.69882
#
# Poissons Ratio (x) = -0.01646 0.24940
# Poissons Ratio (y) = -0.01670 0.59912
# Poissons Ratio (z) = 0.17311 0.40992
#
# Static dielectric constant tensor:
#      x y z
#    x 2.023640 0.000000 0.000000 
#    y 0.000000 1.988450 0.000000 
#    z 0.000000 0.000000 1.943830 
# 
# From -- ./inp_files/6726.got.cif
#   From: 2010.05.17/outbox.cif.g08.bks.cpg/sg45_4_cif.got.tgz:6726.got - 2010.06.03 19:51:22.
