data_PCOD9376391
_publ_section_title
;
Structure prediction by ZEFSAII (Michael W. Deem and Ramdas Pophale) SiO2 
 PCOD9376391
Probable space group: I B A 2
;
_chemical_formula_sum "Si O2"
_cell_formula_units_Z 52
_cell_length_a 16.087771
_cell_length_b 6.895333
_cell_length_c 21.556443
_cell_angle_alpha 90.000000
_cell_angle_beta 90.000000
_cell_angle_gamma 90.000000
_cell_volume 2391.267825
_symmetry_space_group_name_H-M "I B A 2"
_symmetry_group_IT_number 45
_symmetry_cell_setting 'orthorhombic'
loop_
_space_group_symop_operation_xyz
x,y,z
-x,-y,z
-x,y,1/2+z
x,-y,1/2+z
1/2+x,1/2+y,1/2+z
1/2-x,1/2-y,1/2+z
1/2-x,1/2+y,z
1/2+x,1/2-y,z
loop_
_atom_site_type_symbol
_atom_site_label
_atom_site_fract_x
_atom_site_fract_y
_atom_site_fract_z
Si Si1 0.401009 0.434555 0.893750
Si Si2 0.861146 0.404034 0.496773
Si Si3 0.590021 0.987457 0.369573
Si Si4 0.917037 0.142576 0.279307
Si Si5 0.823381 0.150255 0.020056
Si Si6 0.000000 0.500000 0.079670
Si Si7 0.919726 0.138328 0.139978
O O1 0.500000 0.500000 0.901786
O O2 0.365157 0.550919 0.835304
O O3 0.388315 0.213588 0.869252
O O4 0.355768 0.463470 0.959389
O O5 0.858937 0.378180 0.422741
O O6 0.858758 0.636424 0.506978
O O7 0.775177 0.329035 0.523545
O O8 0.943509 0.359191 0.536047
O O9 0.575268 0.862160 0.307085
O O10 0.500000 0.000000 0.401339
O O11 0.884393 0.137791 0.209741
O O12 0.000000 0.000000 0.277832
O O13 0.858818 0.076048 0.084863
O O14 0.947639 0.357047 0.123353
O O15 0.000000 0.000000 0.139033
#
# Coordination Sequence:
#
# PCOD9376391 Si02
#       7
#     8   8   8   8   8   4   8
#     4  10  20  34  60  91 119 155 205 247 302 355
#     4  10  23  38  63  91 119 153 206 249 309 351
#     4  11  19  34  59  88 122 149 195 257 299 347
#     4  10  21  34  60  90 120 159 200 246 298 363
#     4  10  23  39  60  90 121 157 204 250 305 352
#     4  10  22  40  60  90 120 158 200 252 298 362
#     4  10  23  38  61  88 122 163 204 241 304 360
#
# _framework density 21.745787
#
# number of rings (size 3 to 8) (size 9 to 14) (size 15 to 20)
#    0.000    1.846    3.846    0.462    5.385    0.000 
#    0.000    0.000    6.769    0.000    0.000    0.000 
#    0.000    0.000    0.000    0.000    0.000    0.000 
#
# Total GULP energy -144761.661269 kJ/mol
# GULP energy per Si atom -5567.756203 kJ/mol
# Density = 2.169629 g / cm^3
# Si number density = 21.745787 Si / 1000 Ang^3
#
#
#
# Elastic Constant Matrix: (Units=GPa)
#
#
# Indices 1 2 3 4 5 6 
#
# 1 57.1044 -2.4480 46.1835 0.0000 0.0000 0.0000
# 2 -2.4480 90.7626 44.8304 0.0000 0.0000 0.0000
# 3 46.1835 44.8304 212.0173 0.0000 0.0000 0.0000
# 4 0.0000 0.0000 0.0000 33.1018 0.0000 0.0000
# 5 0.0000 0.0000 0.0000 0.0000 1.7603 0.0000
# 6 0.0000 0.0000 0.0000 0.0000 0.0000 20.3761
#
#
#
# Elastic Compliance Matrix: (Units=1/GPa)
#
#
# Indices 1 2 3 4 5 6 
#
# 1 0.022119 0.003324 -0.005521 0.000000 0.000000 0.000000
# 2 0.003324 0.012802 -0.003431 0.000000 0.000000 0.000000
# 3 -0.005521 -0.003431 0.006645 0.000000 0.000000 0.000000
# 4 0.000000 0.000000 0.000000 0.030210 0.000000 0.000000
# 5 0.000000 0.000000 0.000000 0.000000 0.568088 0.000000
# 6 0.000000 0.000000 0.000000 0.000000 0.000000 0.049077
#
#
# Mechanical properties :
#
#
# Convention : Reuss Voigt Hill
#
# Bulk Modulus (GPa) = 32.99303 59.66847 46.33075
# Shear Modulus (GPa) = 7.03927 29.13554 18.08740
#
# Velocity S-wave (km/s) = 1.80114 3.66433 2.88716
# Velocity P-wave (km/s) = 4.41934 6.73808 5.69791
#
# Compressibility (1/GPa) = 0.03030944
#
# Stress axis : x y z
#
# Youngs Moduli (GPa) = 45.20919 78.11259 150.49610
#
# Poissons Ratio (x) = -0.25961 0.83089
# Poissons Ratio (y) = -0.15026 0.51634
# Poissons Ratio (z) = 0.24960 0.26800
#
# Static dielectric constant tensor:
#      x y z
#    x 1.851700 0.000000 0.000000 
#    y 0.000000 1.931730 0.000000 
#    z 0.000000 0.000000 1.795050 
# 
# From -- ./inp_files/9153.got.cif
#   From: 2010.05.17/outbox.cif.g08.bks.cpg/sg45_5_cif.got.tgz:9153.got - 2010.06.03 19:51:22.
