data_PCOD9376498
_publ_section_title
;
Structure prediction by ZEFSAII (Michael W. Deem and Ramdas Pophale) SiO2 
 PCOD9376498
Probable space group: I B A 2
;
_chemical_formula_sum "Si O2"
_cell_formula_units_Z 60
_cell_length_a 29.630138
_cell_length_b 13.580111
_cell_length_c 8.748308
_cell_angle_alpha 90.000000
_cell_angle_beta 90.000000
_cell_angle_gamma 90.000000
_cell_volume 3520.149098
_symmetry_space_group_name_H-M "I B A 2"
_symmetry_group_IT_number 45
_symmetry_cell_setting 'orthorhombic'
loop_
_space_group_symop_operation_xyz
x,y,z
-x,-y,z
-x,y,1/2+z
x,-y,1/2+z
1/2+x,1/2+y,1/2+z
1/2-x,1/2-y,1/2+z
1/2-x,1/2+y,z
1/2+x,1/2-y,z
loop_
_atom_site_type_symbol
_atom_site_label
_atom_site_fract_x
_atom_site_fract_y
_atom_site_fract_z
Si Si1 0.694101 0.112197 0.398080
Si Si2 0.793155 0.079384 0.830015
Si Si3 0.865246 0.795402 0.501295
Si Si4 0.294232 0.084879 0.535464
Si Si5 0.208825 0.812858 0.520723
Si Si6 0.564179 0.574998 0.871602
Si Si7 0.857595 0.085645 0.301534
Si Si8 0.000000 0.000000 0.631859
O O1 0.657280 0.192993 0.452184
O O2 0.701321 0.089260 0.218544
O O3 0.743064 0.156005 0.448906
O O4 0.678861 0.010376 0.478609
O O5 0.784196 0.158656 0.697705
O O6 0.815725 0.984691 0.749830
O O7 0.830614 0.124226 0.937857
O O8 0.751956 0.060395 0.943109
O O9 0.910011 0.824045 0.407449
O O10 0.868837 0.828430 0.679315
O O11 0.301509 0.198456 0.491366
O O12 0.165338 0.869283 0.453299
O O13 0.599830 0.486384 0.832241
O O14 0.526905 0.575780 0.739303
O O15 0.537486 0.547330 0.024354
#
# Coordination Sequence:
#
# PCOD9376498 Si02
#       8
#     8   8   8   8   8   8   8   4
#     4  12  26  37  55  74 114 155 216 260 294 339
#     4  11  21  36  55  75 111 149 210 245 295 343
#     4  11  22  38  54  83 117 159 195 240 295 356
#     4  12  24  38  51  77 104 158 209 261 293 326
#     4  12  23  36  56  77 113 159 212 256 293 344
#     4  10  21  38  62  91 127 151 183 232 300 372
#     4  11  23  35  58  86 114 160 197 239 290 361
#     4  10  20  38  62  94 124 154 176 230 302 382
#
# _framework density 17.044733999999998
#
# number of rings (size 3 to 8) (size 9 to 14) (size 15 to 20)
#    0.000    0.800    5.333    3.200    5.600    0.000 
#    0.000    0.000    0.000    0.000    0.000    0.000 
#    0.000   18.133    0.000    0.000    0.000    0.000 
#
# Total GULP energy -167027.953576 kJ/mol
# GULP energy per Si atom -5567.598453 kJ/mol
# Density = 1.700594 g / cm^3
# Si number density = 17.044734 Si / 1000 Ang^3
#
#
#
# Elastic Constant Matrix: (Units=GPa)
#
#
# Indices 1 2 3 4 5 6 
#
# 1 64.0335 21.1906 31.0938 0.0000 0.0000 0.0000
# 2 21.1906 91.8912 28.3270 0.0000 0.0000 0.0000
# 3 31.0938 28.3270 94.8966 0.0000 0.0000 0.0000
# 4 0.0000 0.0000 0.0000 22.4495 0.0000 0.0000
# 5 0.0000 0.0000 0.0000 0.0000 20.6102 0.0000
# 6 0.0000 0.0000 0.0000 0.0000 0.0000 13.4989
#
#
#
# Elastic Compliance Matrix: (Units=1/GPa)
#
#
# Indices 1 2 3 4 5 6 
#
# 1 0.019177 -0.002737 -0.005466 0.000000 0.000000 0.000000
# 2 -0.002737 0.012376 -0.002797 0.000000 0.000000 0.000000
# 3 -0.005466 -0.002797 0.013164 0.000000 0.000000 0.000000
# 4 0.000000 0.000000 0.000000 0.044545 0.000000 0.000000
# 5 0.000000 0.000000 0.000000 0.000000 0.048520 0.000000
# 6 0.000000 0.000000 0.000000 0.000000 0.000000 0.074080
#
#
# Mechanical properties :
#
#
# Convention : Reuss Voigt Hill
#
# Bulk Modulus (GPa) = 44.02405 45.78267 44.90336
# Shear Modulus (GPa) = 20.70951 22.65905 21.68428
#
# Velocity S-wave (km/s) = 3.48948 3.65003 3.57066
# Velocity P-wave (km/s) = 6.48998 6.68448 6.58795
#
# Compressibility (1/GPa) = 0.02271486
#
# Stress axis : x y z
#
# Youngs Moduli (GPa) = 52.14551 80.80160 75.96490
#
# Poissons Ratio (x) = 0.22117 0.41526
# Poissons Ratio (y) = 0.14273 0.21251
# Poissons Ratio (z) = 0.28505 0.22604
#
# Static dielectric constant tensor:
#      x y z
#    x 1.598120 0.000000 0.000000 
#    y 0.000000 1.624590 0.000000 
#    z 0.000000 0.000000 1.652410 
# 
# From -- ./inp_files/2664.got.cif
#   From: 2010.05.17/outbox.cif.g08.bks.cpg/sg45_2_cif.got.tgz:2664.got - 2010.06.03 19:51:22.
