data_PCOD9376849
_publ_section_title
;
Structure prediction by ZEFSAII (Michael W. Deem and Ramdas Pophale) SiO2 
 PCOD9376849
Probable space group: I B A 2
;
_chemical_formula_sum "Si O2"
_cell_formula_units_Z 64
_cell_length_a 17.422388
_cell_length_b 10.952267
_cell_length_c 13.874706
_cell_angle_alpha 90.000000
_cell_angle_beta 90.000000
_cell_angle_gamma 90.000000
_cell_volume 2647.497102
_symmetry_space_group_name_H-M "I B A 2"
_symmetry_group_IT_number 45
_symmetry_cell_setting 'orthorhombic'
loop_
_space_group_symop_operation_xyz
x,y,z
-x,-y,z
-x,y,1/2+z
x,-y,1/2+z
1/2+x,1/2+y,1/2+z
1/2-x,1/2-y,1/2+z
1/2-x,1/2+y,z
1/2+x,1/2-y,z
loop_
_atom_site_type_symbol
_atom_site_label
_atom_site_fract_x
_atom_site_fract_y
_atom_site_fract_z
Si Si1 0.607270 0.131954 0.127270
Si Si2 0.594945 0.353874 0.619631
Si Si3 0.653717 0.939599 0.349826
Si Si4 0.490744 0.788324 0.782489
Si Si5 0.471747 0.678277 0.980036
Si Si6 0.306838 0.312635 0.424529
Si Si7 0.742408 0.589988 0.218676
Si Si8 0.155280 0.391053 0.518989
O O1 0.556726 0.145576 0.222927
O O2 0.693986 0.166217 0.159078
O O3 0.620716 0.997270 0.086046
O O4 0.560569 0.213197 0.050220
O O5 0.546280 0.314965 0.713515
O O6 0.533797 0.394387 0.540873
O O7 0.667439 0.432666 0.653978
O O8 0.627216 0.232238 0.567831
O O9 0.578410 0.879317 0.306843
O O10 0.688304 0.835933 0.422430
O O11 0.713390 0.974878 0.266008
O O12 0.632394 0.057843 0.413185
O O13 0.512574 0.729633 0.884437
O O14 0.389961 0.628587 0.943723
O O15 0.284329 0.339598 0.314235
O O16 0.245624 0.368971 0.497936
#
# Coordination Sequence:
#
# PCOD9376849 Si02
#       8
#     8   8   8   8   8   8   8   8
#     4  11  23  39  64 103 132 184 225 282 370 421
#     4  11  23  38  63  95 130 177 226 280 352 424
#     4  10  21  42  65  92 141 182 221 288 355 425
#     4  10  21  42  61  97 146 171 225 289 362 427
#     4  10  21  42  63  91 141 179 227 287 345 433
#     4  10  21  44  63  94 136 178 228 284 354 414
#     4  11  23  39  65 100 134 176 233 289 346 434
#     4  11  23  39  63 101 131 180 223 281 354 431
#
# _framework density 24.173776
#
# number of rings (size 3 to 8) (size 9 to 14) (size 15 to 20)
#    0.000    1.500    5.000    1.500    3.500    4.500 
#    2.250    0.000    0.000    0.750    3.250    0.000 
#    0.000    0.000    0.000    0.000    0.000    0.000 
#
# Total GULP energy -178740.419712 kJ/mol
# GULP energy per Si atom -5585.638116 kJ/mol
# Density = 2.411876 g / cm^3
# Si number density = 24.173776 Si / 1000 Ang^3
#
#
#
# Elastic Constant Matrix: (Units=GPa)
#
#
# Indices 1 2 3 4 5 6 
#
# 1 124.2829 28.4813 71.0862 0.0000 0.0000 0.0000
# 2 28.4813 34.5530 35.0377 0.0000 0.0000 0.0000
# 3 71.0862 35.0377 158.0282 0.0000 0.0000 0.0000
# 4 0.0000 0.0000 0.0000 2.5226 0.0000 0.0000
# 5 0.0000 0.0000 0.0000 0.0000 69.2700 0.0000
# 6 0.0000 0.0000 0.0000 0.0000 0.0000 32.8601
#
#
#
# Elastic Compliance Matrix: (Units=1/GPa)
#
#
# Indices 1 2 3 4 5 6 
#
# 1 0.011592 -0.005505 -0.003994 0.000000 0.000000 0.000000
# 2 -0.005505 0.039949 -0.006381 0.000000 0.000000 0.000000
# 3 -0.003994 -0.006381 0.009539 0.000000 0.000000 0.000000
# 4 0.000000 0.000000 0.000000 0.396409 0.000000 0.000000
# 5 0.000000 0.000000 0.000000 0.000000 0.014436 0.000000
# 6 0.000000 0.000000 0.000000 0.000000 0.000000 0.030432
#
#
# Mechanical properties :
#
#
# Convention : Reuss Voigt Hill
#
# Bulk Modulus (GPa) = 34.10580 65.11938 49.61259
# Shear Modulus (GPa) = 9.19300 33.08114 21.13707
#
# Velocity S-wave (km/s) = 1.95221 3.70330 2.96020
# Velocity P-wave (km/s) = 4.38415 6.72922 5.67905
#
# Compressibility (1/GPa) = 0.02932053
#
# Stress axis : x y z
#
# Youngs Moduli (GPa) = 86.26510 25.03167 104.82860
#
# Poissons Ratio (x) = 0.13780 0.41868
# Poissons Ratio (y) = 0.47491 0.66892
# Poissons Ratio (z) = 0.34454 0.15973
#
# Static dielectric constant tensor:
#      x y z
#    x 1.957420 0.000000 0.000000 
#    y 0.000000 1.976900 0.000000 
#    z 0.000000 0.000000 1.972500 
# 
# From -- ./inp_files/6814.got.cif
#   From: 2010.05.17/outbox.cif.g08.bks.cpg/sg45_4_cif.got.tgz:6814.got - 2010.06.03 19:51:22.
