data_PCOD9376346
_publ_section_title
;
Structure prediction by ZEFSAII (Michael W. Deem and Ramdas Pophale) SiO2 
 PCOD9376346
Probable space group: I B A 2
;
_chemical_formula_sum "Si O2"
_cell_formula_units_Z 48
_cell_length_a 16.872471
_cell_length_b 14.048837
_cell_length_c 8.077010
_cell_angle_alpha 90.000000
_cell_angle_beta 90.000000
_cell_angle_gamma 90.000000
_cell_volume 1914.563101
_symmetry_space_group_name_H-M "I B A 2"
_symmetry_group_IT_number 45
_symmetry_cell_setting 'orthorhombic'
loop_
_space_group_symop_operation_xyz
x,y,z
-x,-y,z
-x,y,1/2+z
x,-y,1/2+z
1/2+x,1/2+y,1/2+z
1/2-x,1/2-y,1/2+z
1/2-x,1/2+y,z
1/2+x,1/2-y,z
loop_
_atom_site_type_symbol
_atom_site_label
_atom_site_fract_x
_atom_site_fract_y
_atom_site_fract_z
Si Si1 0.205689 0.784510 0.404140
Si Si2 0.108289 0.455472 0.745901
Si Si3 0.794783 0.928974 0.199500
Si Si4 0.615755 0.184398 0.276740
Si Si5 0.308994 0.640185 0.562573
Si Si6 0.989982 0.343859 0.512375
O O1 0.185599 0.865192 0.538810
O O2 0.297558 0.801327 0.347425
O O3 0.223874 0.688468 0.511708
O O4 0.162931 0.792540 0.222440
O O5 0.198965 0.425494 0.719913
O O6 0.106736 0.569327 0.758805
O O7 0.050664 0.411377 0.609602
O O8 0.067934 0.408502 0.904228
O O9 0.833954 0.891351 0.371903
O O10 0.808990 0.038855 0.155521
O O11 0.570602 0.220406 0.114132
O O12 0.551869 0.218687 0.411707
#
# Coordination Sequence:
#
# PCOD9376346 Si02
#       6
#     8   8   8   8   8   8
#     4  12  24  38  57  86 115 157 201 250 288 346
#     4  11  18  30  47  75 108 156 193 221 267 343
#     4  12  23  38  60  79 116 162 198 240 298 341
#     4  11  18  31  45  71 110 146 186 224 277 336
#     4  12  24  40  59  82 113 157 207 247 291 344
#     4  10  20  27  46  76 111 148 193 225 265 356
#
# _framework density 25.070995
#
# number of rings (size 3 to 8) (size 9 to 14) (size 15 to 20)
#    0.000    0.667    6.667    5.000    0.000    0.000 
#    0.000    0.000    0.000    0.000    0.000    0.000 
#    0.000    4.000    0.000    0.167    0.000    0.000 
#
# Total GULP energy -133716.075601 kJ/mol
# GULP energy per Si atom -5571.503150 kJ/mol
# Density = 2.501393 g / cm^3
# Si number density = 25.070995 Si / 1000 Ang^3
#
#
#
# Elastic Constant Matrix: (Units=GPa)
#
#
# Indices 1 2 3 4 5 6 
#
# 1 67.9676 -16.3850 -5.2517 0.0000 0.0000 0.0000
# 2 -16.3850 107.1165 27.9204 0.0000 0.0000 0.0000
# 3 -5.2517 27.9204 179.0553 0.0000 0.0000 0.0000
# 4 0.0000 0.0000 0.0000 30.4514 0.0000 0.0000
# 5 0.0000 0.0000 0.0000 0.0000 4.0647 0.0000
# 6 0.0000 0.0000 0.0000 0.0000 0.0000 24.6058
#
#
#
# Elastic Compliance Matrix: (Units=1/GPa)
#
#
# Indices 1 2 3 4 5 6 
#
# 1 0.015278 0.002314 0.000087 0.000000 0.000000 0.000000
# 2 0.002314 0.010082 -0.001504 0.000000 0.000000 0.000000
# 3 0.000087 -0.001504 0.005822 0.000000 0.000000 0.000000
# 4 0.000000 0.000000 0.000000 0.032839 0.000000 0.000000
# 5 0.000000 0.000000 0.000000 0.000000 0.246018 0.000000
# 6 0.000000 0.000000 0.000000 0.000000 0.000000 0.040641
#
#
# Mechanical properties :
#
#
# Convention : Reuss Voigt Hill
#
# Bulk Modulus (GPa) = 30.32541 40.74520 35.53531
# Shear Modulus (GPa) = 13.89365 35.01478 24.45421
#
# Velocity S-wave (km/s) = 2.35664 3.74120 3.12653
# Velocity P-wave (km/s) = 4.41895 5.91179 5.21902
#
# Compressibility (1/GPa) = 0.03297565
#
# Stress axis : x y z
#
# Youngs Moduli (GPa) = 65.45566 99.18974 171.76305
#
# Poissons Ratio (x) = -0.22954 -0.01498
# Poissons Ratio (y) = -0.15148 0.25836
# Poissons Ratio (z) = -0.00571 0.14920
#
# Static dielectric constant tensor:
#      x y z
#    x 1.966870 0.000000 0.000000 
#    y 0.000000 2.069280 0.000000 
#    z 0.000000 0.000000 2.387170 
# 
# From -- ./inp_files/1397.got.cif
#   From: 2010.05.17/outbox.cif.g08.bks.cpg/sg45_1_cif.got.tgz:1397.got - 2010.06.03 19:51:22.
