data_PCOD9376464
_publ_section_title
;
Structure prediction by ZEFSAII (Michael W. Deem and Ramdas Pophale) SiO2 
 PCOD9376464
Probable space group: I B A 2
;
_chemical_formula_sum "Si O2"
_cell_formula_units_Z 48
_cell_length_a 29.902130
_cell_length_b 5.212588
_cell_length_c 13.911124
_cell_angle_alpha 90.000000
_cell_angle_beta 90.000000
_cell_angle_gamma 90.000000
_cell_volume 2168.291898
_symmetry_space_group_name_H-M "I B A 2"
_symmetry_group_IT_number 45
_symmetry_cell_setting 'orthorhombic'
loop_
_space_group_symop_operation_xyz
x,y,z
-x,-y,z
-x,y,1/2+z
x,-y,1/2+z
1/2+x,1/2+y,1/2+z
1/2-x,1/2-y,1/2+z
1/2-x,1/2+y,z
1/2+x,1/2-y,z
loop_
_atom_site_type_symbol
_atom_site_label
_atom_site_fract_x
_atom_site_fract_y
_atom_site_fract_z
Si Si1 0.949674 0.547609 0.822460
Si Si2 0.631804 0.389333 0.066875
Si Si3 0.224753 0.521121 0.872596
Si Si4 0.548738 0.546881 0.953251
Si Si5 0.177884 0.388808 0.549266
Si Si6 0.355121 0.082308 0.739734
O O1 0.946679 0.323395 0.903469
O O2 0.905254 0.518343 0.757791
O O3 0.000000 0.500000 0.779507
O O4 0.947347 0.827047 0.871309
O O5 0.640582 0.106730 0.023894
O O6 0.638005 0.346494 0.180676
O O7 0.666490 0.596532 0.027598
O O8 0.584855 0.497380 0.034544
O O9 0.241722 0.244433 0.841454
O O10 0.175515 0.592065 0.833108
O O11 0.220203 0.528499 0.988307
O O12 0.500000 0.500000 0.995816
O O13 0.175237 0.421133 0.664018
#
# Coordination Sequence:
#
# PCOD9376464 Si02
#       6
#     8   8   8   8   8   8
#     4  10  22  40  66  97 132 174 215 269 321 395
#     4  10  21  40  62  92 124 175 210 269 322 388
#     4  12  27  44  69  98 130 175 223 276 338 401
#     4  10  20  37  61  92 131 170 219 265 320 380
#     4  10  24  43  64  94 127 168 216 275 329 391
#     4  10  26  42  70  95 137 172 221 274 332 391
#
# _framework density 22.137239999999998
#
# number of rings (size 3 to 8) (size 9 to 14) (size 15 to 20)
#    1.000    0.667    0.000    4.000    4.667    1.333 
#    3.000    0.000    0.000    0.000    0.000    0.000 
#    0.000    0.000    0.000    0.000    0.000    0.000 
#
# Total GULP energy -133729.661826 kJ/mol
# GULP energy per Si atom -5572.069243 kJ/mol
# Density = 2.208686 g / cm^3
# Si number density = 22.137240 Si / 1000 Ang^3
#
#
#
# Elastic Constant Matrix: (Units=GPa)
#
#
# Indices 1 2 3 4 5 6 
#
# 1 61.6907 4.2785 28.0516 0.0000 0.0000 0.0000
# 2 4.2785 69.7375 1.5646 0.0000 0.0000 0.0000
# 3 28.0516 1.5646 48.4768 0.0000 0.0000 0.0000
# 4 0.0000 0.0000 0.0000 25.5205 0.0000 0.0000
# 5 0.0000 0.0000 0.0000 0.0000 31.2167 0.0000
# 6 0.0000 0.0000 0.0000 0.0000 0.0000 28.2265
#
#
#
# Elastic Compliance Matrix: (Units=1/GPa)
#
#
# Indices 1 2 3 4 5 6 
#
# 1 0.022077 -0.001069 -0.012741 0.000000 0.000000 0.000000
# 2 -0.001069 0.014402 0.000154 0.000000 0.000000 0.000000
# 3 -0.012741 0.000154 0.027996 0.000000 0.000000 0.000000
# 4 0.000000 0.000000 0.000000 0.039184 0.000000 0.000000
# 5 0.000000 0.000000 0.000000 0.000000 0.032034 0.000000
# 6 0.000000 0.000000 0.000000 0.000000 0.000000 0.035428
#
#
# Mechanical properties :
#
#
# Convention : Reuss Voigt Hill
#
# Bulk Modulus (GPa) = 26.90828 27.52161 27.21495
# Shear Modulus (GPa) = 23.71682 26.72675 25.22179
#
# Velocity S-wave (km/s) = 3.27671 3.47842 3.37907
# Velocity P-wave (km/s) = 5.14756 5.34713 5.24829
#
# Compressibility (1/GPa) = 0.03716328
#
# Stress axis : x y z
#
# Youngs Moduli (GPa) = 45.29507 69.43672 35.71927
#
# Poissons Ratio (x) = 0.07420 0.45509
# Poissons Ratio (y) = 0.04840 -0.00549
# Poissons Ratio (z) = 0.57710 -0.01066
#
# Static dielectric constant tensor:
#      x y z
#    x 1.842820 0.000000 0.000000 
#    y 0.000000 1.796720 0.000000 
#    z 0.000000 0.000000 1.867540 
# 
# From -- ./inp_files/7113.got.cif
#   From: 2010.05.17/outbox.cif.g08.bks.cpg/sg45_4_cif.got.tgz:7113.got - 2010.06.03 19:51:22.
