data_PCOD9376000
_publ_section_title
;
Structure prediction by ZEFSAII (Michael W. Deem and Ramdas Pophale) SiO2 
 PCOD9376000
Probable space group: I M M 2
;
_chemical_formula_sum "Si O2"
_cell_formula_units_Z 24
_cell_length_a 9.000000
_cell_length_b 30.000000
_cell_length_c 9.000000
_cell_angle_alpha 90.000000
_cell_angle_beta 90.000000
_cell_angle_gamma 90.000000
_cell_volume 2430.000000
_symmetry_space_group_name_H-M "I M M 2"
_symmetry_group_IT_number 44
_symmetry_cell_setting 'orthorhombic'
loop_
_space_group_symop_operation_xyz
x,y,z
-x,-y,z
-x,y,z
x,-y,z
1/2+x,1/2+y,1/2+z
1/2-x,1/2-y,1/2+z
1/2-x,1/2+y,1/2+z
1/2+x,1/2-y,1/2+z
loop_
_atom_site_type_symbol
_atom_site_label
_atom_site_fract_x
_atom_site_fract_y
_atom_site_fract_z
Si Si1 0.664270 0.114059 0.511840
Si Si2 0.177727 0.550182 0.531355
Si Si3 0.670596 0.723213 0.282279
Si Si4 0.336475 0.447700 0.833336
Si Si5 0.330104 0.697932 0.933796
Si Si6 0.670490 0.863370 0.858473
O O1 0.500000 0.099763 0.467672
O O2 0.781497 0.076040 0.479958
O O3 0.719691 0.156535 0.420140
O O4 0.662354 0.126895 0.683273
O O5 0.234429 0.500000 0.495113
O O6 0.223666 0.560385 0.699441
O O7 0.229496 0.591780 0.434092
O O8 0.000000 0.548717 0.515917
O O9 0.500000 0.733644 0.319793
O O10 0.678851 0.713877 0.105845
O O11 0.778088 0.762929 0.327620
O O12 0.726205 0.679599 0.370823
O O13 0.500000 0.432187 0.788897
O O14 0.340286 0.500000 0.857645
O O15 0.500000 0.684582 0.906146
O O16 0.500000 0.854187 0.909753
#
# Coordination Sequence:
#
# PCOD9376000 Si02
#       6
#     8   8   8   8   8   8
#     4  10  20  35  56  80 106 137 174 215 260 311
#     4   9  18  34  55  78 105 137 174 217 263 311
#     4  10  21  36  55  79 106 138 176 215 258 310
#     4  10  21  36  53  76 107 141 177 216 258 306
#     4  10  21  37  56  78 106 138 173 215 261 309
#     4   9  19  35  55  79 106 136 172 216 264 312
#
# _framework density 9.8765429999999999
#
# number of rings (size 3 to 8) (size 9 to 14) (size 15 to 20)
#    0.000    2.333    0.000    2.000    0.000    6.333 
#    0.000    3.333    0.000    2.000    0.000    0.000 
#    0.000    0.000    0.000    0.000    0.000    0.000 
#
# Total GULP energy -133751.009941 kJ/mol
# GULP energy per Si atom -5572.958748 kJ/mol
# Density = 0.985406 g / cm^3
# Si number density = 9.876543 Si / 1000 Ang^3
#
#
#
# Elastic Constant Matrix: (Units=GPa)
#
#
# Indices 1 2 3 4 5 6 
#
# 1 -7.7121 10.0662 5.7734 0.0000 0.0000 0.0004
# 2 10.0662 0.3043 9.9149 0.0001 0.0001 0.0002
# 3 5.7734 9.9149 -12.3230 -0.0001 0.0002 0.0011
# 4 0.0000 0.0001 -0.0001 24.7520 -0.0001 0.0003
# 5 0.0000 0.0001 0.0002 -0.0001 16.7145 0.0001
# 6 0.0004 0.0002 0.0011 0.0003 0.0001 39.8304
#
#
#
# Elastic Compliance Matrix: (Units=1/GPa)
#
#
# Indices 1 2 3 4 5 6 
#
# 1 -0.032113 0.057044 0.030852 0.000000 -0.000001 -0.000001
# 2 0.057044 0.019416 0.042348 0.000000 -0.000001 -0.000002
# 3 0.030852 0.042348 -0.032623 0.000000 0.000000 0.000000
# 4 0.000000 0.000000 0.000000 0.040401 0.000000 0.000000
# 5 -0.000001 -0.000001 0.000000 0.000000 0.059828 0.000000
# 6 -0.000001 -0.000002 0.000000 0.000000 0.000000 0.025106
#
#
# Mechanical properties :
#
#
# Convention : Reuss Voigt Hill
#
# Bulk Modulus (GPa) = 4.64752 3.53090 4.08921
# Shear Modulus (GPa) = -45.97727 13.22704 -16.37511
#
# Velocity S-wave (km/s) = -4.82975 2.59051 -2.88234
# Velocity P-wave (km/s) = 5.36135 3.27705 3.00042
#
# Compressibility (1/GPa) = 0.21516847
#
# Stress axis : x y z
#
# Youngs Moduli (GPa) = -31.14000 51.50370 -30.65357
#
# Poissons Ratio (x) = -2.93800 0.94572
# Poissons Ratio (y) = 1.77636 1.29810
# Poissons Ratio (z) = 0.96073 -2.18106
#
# Static dielectric constant tensor:
#      x y z
#    x 1.693000 0.000000 0.000000 
#    y 0.000000 1.728370 0.000000 
#    z 0.000000 0.000000 1.664720 
# 
# From -- ./inp_files/4858.got.cif
#   From: 2010.05.17/outbox.ucp.g08.bks.cvg/sg44_3_cif.got.tgz:4858.got - 2010.06.11 16:32:36.
