data_PCOD9376373
_publ_section_title
;
Structure prediction by ZEFSAII (Michael W. Deem and Ramdas Pophale) SiO2 
 PCOD9376373
Probable space group: I B A 2
;
_chemical_formula_sum "Si O2"
_cell_formula_units_Z 48
_cell_length_a 20.435922
_cell_length_b 8.224557
_cell_length_c 11.431802
_cell_angle_alpha 90.000000
_cell_angle_beta 90.000000
_cell_angle_gamma 90.000000
_cell_volume 1921.416187
_symmetry_space_group_name_H-M "I B A 2"
_symmetry_group_IT_number 45
_symmetry_cell_setting 'orthorhombic'
loop_
_space_group_symop_operation_xyz
x,y,z
-x,-y,z
-x,y,1/2+z
x,-y,1/2+z
1/2+x,1/2+y,1/2+z
1/2-x,1/2-y,1/2+z
1/2-x,1/2+y,z
1/2+x,1/2-y,z
loop_
_atom_site_type_symbol
_atom_site_label
_atom_site_fract_x
_atom_site_fract_y
_atom_site_fract_z
Si Si1 0.025397 0.812406 0.747060
Si Si2 0.722494 0.293589 0.975421
Si Si3 0.340921 0.567831 0.191635
Si Si4 0.296814 0.967108 0.806504
Si Si5 0.480725 0.695846 0.498766
Si Si6 0.849307 0.269914 0.116923
O O1 0.103832 0.822865 0.748109
O O2 0.009535 0.738188 0.620750
O O3 0.000474 0.741884 0.869887
O O4 0.000000 0.000000 0.742950
O O5 0.682943 0.156337 0.908328
O O6 0.769391 0.383400 0.882065
O O7 0.671731 0.394143 0.054592
O O8 0.777603 0.229294 0.064811
O O9 0.272431 0.589219 0.253037
O O10 0.362522 0.380814 0.203885
O O11 0.343671 0.935513 0.693963
O O12 0.500000 0.500000 0.497545
O O13 0.404673 0.744881 0.519790
#
# Coordination Sequence:
#
# PCOD9376373 Si02
#       6
#     8   8   8   8   8   8
#     4  10  20  33  58  92 135 161 213 284 342 369
#     4  11  23  37  58  89 131 178 214 275 332 408
#     4  11  21  35  59  92 131 169 222 273 334 396
#     4  11  23  37  59  88 134 174 218 270 338 400
#     4  10  20  35  58  93 133 160 211 283 344 385
#     4  11  21  37  58  92 130 164 225 279 336 400
#
# _framework density 24.981573999999998
#
# number of rings (size 3 to 8) (size 9 to 14) (size 15 to 20)
#    0.000    1.333    6.667    1.000    0.000    1.333 
#    0.000    0.000    0.000    0.000    0.000   19.833 
#    0.000    0.000    0.000    0.000    0.000    0.000 
#
# Total GULP energy -133639.015115 kJ/mol
# GULP energy per Si atom -5568.292296 kJ/mol
# Density = 2.492471 g / cm^3
# Si number density = 24.981574 Si / 1000 Ang^3
#
#
#
# Elastic Constant Matrix: (Units=GPa)
#
#
# Indices 1 2 3 4 5 6 
#
# 1 67.0790 -15.4514 10.5564 0.0000 0.0000 0.0000
# 2 -15.4514 27.4760 22.5268 0.0000 0.0000 0.0000
# 3 10.5564 22.5268 157.6889 0.0000 0.0000 0.0000
# 4 0.0000 0.0000 0.0000 -0.0124 0.0000 0.0000
# 5 0.0000 0.0000 0.0000 0.0000 24.1076 0.0000
# 6 0.0000 0.0000 0.0000 0.0000 0.0000 15.4678
#
#
#
# Elastic Compliance Matrix: (Units=1/GPa)
#
#
# Indices 1 2 3 4 5 6 
#
# 1 0.018343 0.012824 -0.003060 0.000000 0.000000 0.000000
# 2 0.012824 0.050190 -0.008028 0.000000 0.000000 0.000000
# 3 -0.003060 -0.008028 0.007693 0.000000 0.000000 0.000000
# 4 0.000000 0.000000 0.000000-80.922051 0.000000 0.000000
# 5 0.000000 0.000000 0.000000 0.000000 0.041481 0.000000
# 6 0.000000 0.000000 0.000000 0.000000 0.000000 0.064650
#
#
# Mechanical properties :
#
#
# Convention : Reuss Voigt Hill
#
# Bulk Modulus (GPa) = 12.54732 31.94528 22.24630
# Shear Modulus (GPa) = -0.06195 23.55341 11.74573
#
# Velocity S-wave (km/s) = -0.15764 3.07389 2.17071
# Velocity P-wave (km/s) = 2.23616 5.04120 3.89962
#
# Compressibility (1/GPa) = 0.07969830
#
# Stress axis : x y z
#
# Youngs Moduli (GPa) = 54.51546 19.92446 129.98220
#
# Poissons Ratio (x) = -0.25552 0.39775
# Poissons Ratio (y) = -0.69913 1.04355
# Poissons Ratio (z) = 0.16682 0.15996
#
# Static dielectric constant tensor:
#      x y z
#    x 2.000700 0.000000 0.000000 
#    y 0.000000 2.056210 0.000000 
#    z 0.000000 0.000000 2.089770 
# 
# From -- ./inp_files/3265.got.cif
#   From: 2010.05.17/outbox.cif.g08.bks.cpg/sg45_2_cif.got.tgz:3265.got - 2010.06.03 19:51:22.
