data_PCOD9376165
_publ_section_title
;
Structure prediction by ZEFSAII (Michael W. Deem and Ramdas Pophale) SiO2 
 PCOD9376165
Probable space group: I B A 2
;
_chemical_formula_sum "Si O2"
_cell_formula_units_Z 64
_cell_length_a 17.765348
_cell_length_b 10.938880
_cell_length_c 16.815057
_cell_angle_alpha 90.000000
_cell_angle_beta 90.000000
_cell_angle_gamma 90.000000
_cell_volume 3267.720639
_symmetry_space_group_name_H-M "I B A 2"
_symmetry_group_IT_number 45
_symmetry_cell_setting 'orthorhombic'
loop_
_space_group_symop_operation_xyz
x,y,z
-x,-y,z
-x,y,1/2+z
x,-y,1/2+z
1/2+x,1/2+y,1/2+z
1/2-x,1/2-y,1/2+z
1/2-x,1/2+y,z
1/2+x,1/2-y,z
loop_
_atom_site_type_symbol
_atom_site_label
_atom_site_fract_x
_atom_site_fract_y
_atom_site_fract_z
Si Si1 0.798503 0.175158 0.301150
Si Si2 0.131715 0.373707 0.278527
Si Si3 0.035896 0.167966 0.193828
Si Si4 0.905728 0.766981 0.574110
Si Si5 0.810311 0.604502 0.691643
Si Si6 0.030142 0.368436 0.428503
Si Si7 0.338140 0.515670 0.646094
Si Si8 0.455415 0.625884 0.862282
O O1 0.711463 0.154346 0.321061
O O2 0.802884 0.315765 0.272549
O O3 0.814402 0.100787 0.219995
O O4 0.864263 0.126118 0.358881
O O5 0.096861 0.264784 0.226542
O O6 0.148604 0.482208 0.218305
O O7 0.072485 0.402161 0.347084
O O8 0.984941 0.208550 0.119533
O O9 0.983853 0.144248 0.271115
O O10 0.085565 0.053602 0.167597
O O11 0.861757 0.678308 0.632498
O O12 0.916475 0.696952 0.492364
O O13 0.858750 0.894142 0.573630
O O14 0.731815 0.577093 0.646403
O O15 0.000000 0.500000 0.459246
O O16 0.976153 0.252546 0.407084
O O17 0.500000 0.500000 0.889111
#
# Coordination Sequence:
#
# PCOD9376165 Si02
#       8
#     8   8   8   8   8   8   8   8
#     4  10  18  36  63  96 121 157 205 273 314 368
#     4  10  23  36  63  92 119 161 208 262 316 379
#     4  11  19  35  65  94 121 158 213 264 316 372
#     4  11  24  40  62  86 130 170 206 265 328 384
#     4  10  20  37  64  93 123 161 218 262 317 379
#     4  11  27  44  57  90 136 170 210 260 329 396
#     4  10  19  36  62  95 122 152 216 268 310 376
#     4  11  20  38  67  95 124 165 216 267 311 380
#
# _framework density 19.585518
#
# number of rings (size 3 to 8) (size 9 to 14) (size 15 to 20)
#    0.000    1.500    5.000    1.125    3.500    1.000 
#    0.000    5.000    0.000    0.000    0.000    0.000 
#    0.000    0.000    0.000    0.000    0.000    0.000 
#
# Total GULP energy -178251.878626 kJ/mol
# GULP energy per Si atom -5570.371207 kJ/mol
# Density = 1.954094 g / cm^3
# Si number density = 19.585518 Si / 1000 Ang^3
#
#
#
# Elastic Constant Matrix: (Units=GPa)
#
#
# Indices 1 2 3 4 5 6 
#
# 1 88.2931 33.8312 -6.7739 0.0000 0.0000 0.0000
# 2 33.8312 93.8245 4.6610 0.0000 0.0000 0.0000
# 3 -6.7739 4.6610 21.9691 0.0000 0.0000 0.0000
# 4 0.0000 0.0000 0.0000 14.0766 0.0000 0.0000
# 5 0.0000 0.0000 0.0000 0.0000 11.4253 0.0000
# 6 0.0000 0.0000 0.0000 0.0000 0.0000 32.1241
#
#
#
# Elastic Compliance Matrix: (Units=1/GPa)
#
#
# Indices 1 2 3 4 5 6 
#
# 1 0.013735 -0.005218 0.005342 0.000000 0.000000 0.000000
# 2 -0.005218 0.012754 -0.004315 0.000000 0.000000 0.000000
# 3 0.005342 -0.004315 0.048081 0.000000 0.000000 0.000000
# 4 0.000000 0.000000 0.000000 0.071040 0.000000 0.000000
# 5 0.000000 0.000000 0.000000 0.000000 0.087525 0.000000
# 6 0.000000 0.000000 0.000000 0.000000 0.000000 0.031129
#
#
# Mechanical properties :
#
#
# Convention : Reuss Voigt Hill
#
# Bulk Modulus (GPa) = 15.10831 29.72484 22.41657
# Shear Modulus (GPa) = 16.96590 23.01643 19.99117
#
# Velocity S-wave (km/s) = 2.94640 3.43180 3.19832
# Velocity P-wave (km/s) = 4.39384 5.55994 5.01092
#
# Compressibility (1/GPa) = 0.06618875
#
# Stress axis : x y z
#
# Youngs Moduli (GPa) = 72.80596 78.40648 20.79824
#
# Poissons Ratio (x) = 0.40912 -0.11111
# Poissons Ratio (y) = 0.37990 0.08974
# Poissons Ratio (z) = -0.38894 0.33831
#
# Static dielectric constant tensor:
#      x y z
#    x 1.796480 0.000000 0.000000 
#    y 0.000000 1.764070 0.000000 
#    z 0.000000 0.000000 1.653800 
# 
# From -- ./inp_files/8387.got.cif
#   From: 2010.05.17/outbox.cif.g08.bks.cpg/sg45_5_cif.got.tgz:8387.got - 2010.06.03 19:51:22.
