data_PCOD9376839
_publ_section_title
;
Structure prediction by ZEFSAII (Michael W. Deem and Ramdas Pophale) SiO2 
 PCOD9376839
Probable space group: I B A 2
;
_chemical_formula_sum "Si O2"
_cell_formula_units_Z 64
_cell_length_a 18.610691
_cell_length_b 9.676299
_cell_length_c 14.580449
_cell_angle_alpha 90.000000
_cell_angle_beta 90.000000
_cell_angle_gamma 90.000000
_cell_volume 2625.685321
_symmetry_space_group_name_H-M "I B A 2"
_symmetry_group_IT_number 45
_symmetry_cell_setting 'orthorhombic'
loop_
_space_group_symop_operation_xyz
x,y,z
-x,-y,z
-x,y,1/2+z
x,-y,1/2+z
1/2+x,1/2+y,1/2+z
1/2-x,1/2-y,1/2+z
1/2-x,1/2+y,z
1/2+x,1/2-y,z
loop_
_atom_site_type_symbol
_atom_site_label
_atom_site_fract_x
_atom_site_fract_y
_atom_site_fract_z
Si Si1 0.078148 0.432910 0.069570
Si Si2 0.995969 0.155900 0.807158
Si Si3 0.270819 0.306466 0.375295
Si Si4 0.587792 0.631048 0.480705
Si Si5 0.331110 0.468393 0.638670
Si Si6 0.361939 0.745551 0.727036
Si Si7 0.194097 0.377954 0.543897
Si Si8 0.143256 0.309918 0.244933
O O1 0.130936 0.525328 0.007595
O O2 0.110073 0.418875 0.173181
O O3 0.000000 0.500000 0.071155
O O4 0.082037 0.280320 0.028331
O O5 0.021964 0.134242 0.911098
O O6 0.055410 0.248446 0.755249
O O7 0.920771 0.233113 0.799395
O O8 0.000000 0.000000 0.766294
O O9 0.341106 0.384971 0.416218
O O10 0.311589 0.198660 0.308828
O O11 0.228476 0.276228 0.469313
O O12 0.206728 0.361967 0.310333
O O13 0.602983 0.529172 0.565703
O O14 0.341373 0.583235 0.715140
O O15 0.256959 0.476705 0.583007
O O16 0.326799 0.316367 0.682982
O O17 0.342075 0.801474 0.628591
#
# Coordination Sequence:
#
# PCOD9376839 Si02
#       8
#     8   8   8   8   8   8   8   8
#     4  11  25  47  65  95 137 185 229 279 343 424
#     4  11  23  43  65 101 132 171 222 278 347 409
#     4  10  23  42  66 101 130 175 223 282 337 403
#     4   9  24  45  65  97 136 169 225 283 341 413
#     4  10  21  41  69  93 128 173 219 281 336 399
#     4  11  22  44  66  97 135 173 227 279 339 408
#     4  11  24  41  68 100 130 181 226 277 342 404
#     4  11  22  44  68  96 132 174 224 277 346 405
#
# _framework density 24.374587999999999
#
# number of rings (size 3 to 8) (size 9 to 14) (size 15 to 20)
#    0.000    1.500    2.500    1.500    5.250    2.000 
#   11.250    0.000    0.000    0.000    0.000    0.000 
#    0.000    0.000    0.000    0.000    0.000    0.000 
#
# Total GULP energy -178621.181461 kJ/mol
# GULP energy per Si atom -5581.911921 kJ/mol
# Density = 2.431911 g / cm^3
# Si number density = 24.374588 Si / 1000 Ang^3
#
#
#
# Elastic Constant Matrix: (Units=GPa)
#
#
# Indices 1 2 3 4 5 6 
#
# 1 130.0250 22.7196 32.8986 0.0000 0.0000 0.0000
# 2 22.7196 59.0747 15.2385 0.0000 0.0000 0.0000
# 3 32.8986 15.2385 108.0007 0.0000 0.0000 0.0000
# 4 0.0000 0.0000 0.0000 19.3038 0.0000 0.0000
# 5 0.0000 0.0000 0.0000 0.0000 33.3926 0.0000
# 6 0.0000 0.0000 0.0000 0.0000 0.0000 9.8350
#
#
#
# Elastic Compliance Matrix: (Units=1/GPa)
#
#
# Indices 1 2 3 4 5 6 
#
# 1 0.008752 -0.002779 -0.002274 0.000000 0.000000 0.000000
# 2 -0.002779 0.018450 -0.001757 0.000000 0.000000 0.000000
# 3 -0.002274 -0.001757 0.010200 0.000000 0.000000 0.000000
# 4 0.000000 0.000000 0.000000 0.051803 0.000000 0.000000
# 5 0.000000 0.000000 0.000000 0.000000 0.029947 0.000000
# 6 0.000000 0.000000 0.000000 0.000000 0.000000 0.101677
#
#
# Mechanical properties :
#
#
# Convention : Reuss Voigt Hill
#
# Bulk Modulus (GPa) = 42.04888 48.75710 45.40299
# Shear Modulus (GPa) = 20.62918 27.58920 24.10919
#
# Velocity S-wave (km/s) = 2.91235 3.36800 3.14843
# Velocity P-wave (km/s) = 5.34767 5.93053 5.64663
#
# Compressibility (1/GPa) = 0.02378185
#
# Stress axis : x y z
#
# Youngs Moduli (GPa) = 114.26256 54.20135 98.04238
#
# Poissons Ratio (x) = 0.15064 0.22293
# Poissons Ratio (y) = 0.31757 0.17222
# Poissons Ratio (z) = 0.25981 0.09521
#
# Static dielectric constant tensor:
#      x y z
#    x 1.947070 0.000000 0.000000 
#    y 0.000000 2.007300 0.000000 
#    z 0.000000 0.000000 1.975950 
# 
# From -- ./inp_files/6280.got.cif
#   From: 2010.05.17/outbox.cif.g08.bks.cpg/sg45_4_cif.got.tgz:6280.got - 2010.06.03 19:51:22.
