data_PCOD9376468
_publ_section_title
;
Structure prediction by ZEFSAII (Michael W. Deem and Ramdas Pophale) SiO2 
 PCOD9376468
Probable space group: I B A 2
;
_chemical_formula_sum "Si O2"
_cell_formula_units_Z 56
_cell_length_a 19.647122
_cell_length_b 9.037603
_cell_length_c 13.505599
_cell_angle_alpha 90.000000
_cell_angle_beta 90.000000
_cell_angle_gamma 90.000000
_cell_volume 2398.093172
_symmetry_space_group_name_H-M "I B A 2"
_symmetry_group_IT_number 45
_symmetry_cell_setting 'orthorhombic'
loop_
_space_group_symop_operation_xyz
x,y,z
-x,-y,z
-x,y,1/2+z
x,-y,1/2+z
1/2+x,1/2+y,1/2+z
1/2-x,1/2-y,1/2+z
1/2-x,1/2+y,z
1/2+x,1/2-y,z
loop_
_atom_site_type_symbol
_atom_site_label
_atom_site_fract_x
_atom_site_fract_y
_atom_site_fract_z
Si Si1 0.910308 0.836137 0.255530
Si Si2 0.568930 0.476933 0.952970
Si Si3 0.161266 0.795758 0.047555
Si Si4 0.699629 0.581851 0.238175
Si Si5 0.027778 0.660392 0.157624
Si Si6 0.325014 0.906734 0.370504
Si Si7 0.106033 0.692611 0.358705
O O1 0.938388 0.930479 0.349414
O O2 0.874117 0.693334 0.302845
O O3 0.967053 0.778386 0.179312
O O4 0.851801 0.946884 0.216568
O O5 0.500000 0.500000 0.012664
O O6 0.572020 0.303743 0.934267
O O7 0.634705 0.551644 0.999767
O O8 0.212139 0.834186 0.135764
O O9 0.091648 0.720444 0.092157
O O10 0.193993 0.695180 0.963103
O O11 0.764996 0.536621 0.299902
O O12 0.661473 0.701129 0.306989
O O13 0.058197 0.641759 0.268852
O O14 0.000000 0.500000 0.123463
O O15 0.363375 0.050112 0.409224
#
# Coordination Sequence:
#
# PCOD9376468 Si02
#       7
#     8   8   8   8   8   8   8
#     4  10  21  39  70  95 136 192 228 291 363 424
#     4  10  20  37  63 102 136 174 228 288 356 431
#     4  10  26  41  68 105 144 184 241 304 355 428
#     4  10  23  44  68  98 139 192 244 291 348 430
#     4  11  21  41  67 107 146 178 240 300 370 424
#     4  11  22  46  68  99 142 193 240 288 358 430
#     4  10  21  39  70  97 133 190 229 294 358 415
#
# _framework density 23.351887000000001
#
# number of rings (size 3 to 8) (size 9 to 14) (size 15 to 20)
#    0.000    1.714    2.857    0.857    2.000    1.143 
#    0.000   17.143    0.000    0.000    0.000    0.000 
#    0.000    0.000    0.000    0.000    0.000    0.000 
#
# Total GULP energy -156488.680635 kJ/mol
# GULP energy per Si atom -5588.881451 kJ/mol
# Density = 2.329874 g / cm^3
# Si number density = 23.351887 Si / 1000 Ang^3
#
#
#
# Elastic Constant Matrix: (Units=GPa)
#
#
# Indices 1 2 3 4 5 6 
#
# 1 54.0432 21.4893 17.3433 0.0000 0.0000 0.0000
# 2 21.4893 111.7840 16.2004 0.0000 0.0000 0.0000
# 3 17.3433 16.2004 76.4072 0.0000 0.0000 0.0000
# 4 0.0000 0.0000 0.0000 9.3616 0.0000 0.0000
# 5 0.0000 0.0000 0.0000 0.0000 21.2227 0.0000
# 6 0.0000 0.0000 0.0000 0.0000 0.0000 23.7006
#
#
#
# Elastic Compliance Matrix: (Units=1/GPa)
#
#
# Indices 1 2 3 4 5 6 
#
# 1 0.021196 -0.003485 -0.004072 0.000000 0.000000 0.000000
# 2 -0.003485 0.009802 -0.001287 0.000000 0.000000 0.000000
# 3 -0.004072 -0.001287 0.014285 0.000000 0.000000 0.000000
# 4 0.000000 0.000000 0.000000 0.106819 0.000000 0.000000
# 5 0.000000 0.000000 0.000000 0.000000 0.047119 0.000000
# 6 0.000000 0.000000 0.000000 0.000000 0.000000 0.042193
#
#
# Mechanical properties :
#
#
# Convention : Reuss Voigt Hill
#
# Bulk Modulus (GPa) = 36.23863 39.14447 37.69155
# Shear Modulus (GPa) = 18.63571 23.33709 20.98640
#
# Velocity S-wave (km/s) = 2.82802 3.16471 3.00109
# Velocity P-wave (km/s) = 5.12014 5.49118 5.30890
#
# Compressibility (1/GPa) = 0.02759487
#
# Stress axis : x y z
#
# Youngs Moduli (GPa) = 47.17836 102.01722 70.00297
#
# Poissons Ratio (x) = 0.35548 0.28508
# Poissons Ratio (y) = 0.16439 0.09012
# Poissons Ratio (z) = 0.19213 0.13134
#
# Static dielectric constant tensor:
#      x y z
#    x 1.907240 0.000000 0.000000 
#    y 0.000000 1.865410 0.000000 
#    z 0.000000 0.000000 1.882420 
# 
# From -- ./inp_files/6956.got.cif
#   From: 2010.05.17/outbox.cif.g08.bks.cpg/sg45_4_cif.got.tgz:6956.got - 2010.06.03 19:51:22.
