data_PCOD9376150
_publ_section_title
;
Structure prediction by ZEFSAII (Michael W. Deem and Ramdas Pophale) SiO2 
 PCOD9376150
Probable space group: I B A 2
;
_chemical_formula_sum "Si O2"
_cell_formula_units_Z 44
_cell_length_a 14.350192
_cell_length_b 9.061656
_cell_length_c 16.624004
_cell_angle_alpha 90.000000
_cell_angle_beta 90.000000
_cell_angle_gamma 90.000000
_cell_volume 2161.727353
_symmetry_space_group_name_H-M "I B A 2"
_symmetry_group_IT_number 45
_symmetry_cell_setting 'orthorhombic'
loop_
_space_group_symop_operation_xyz
x,y,z
-x,-y,z
-x,y,1/2+z
x,-y,1/2+z
1/2+x,1/2+y,1/2+z
1/2-x,1/2-y,1/2+z
1/2-x,1/2+y,z
1/2+x,1/2-y,z
loop_
_atom_site_type_symbol
_atom_site_label
_atom_site_fract_x
_atom_site_fract_y
_atom_site_fract_z
Si Si1 0.678294 0.030936 0.046890
Si Si2 0.551852 0.256739 0.262040
Si Si3 0.794670 0.183109 0.643615
Si Si4 0.656952 0.272238 0.779763
Si Si5 0.500000 0.000000 0.138219
Si Si6 0.319853 0.951709 0.360540
O O1 0.762111 0.959122 0.096233
O O2 0.673827 0.200274 0.075451
O O3 0.585209 0.956805 0.081915
O O4 0.684062 0.995891 0.953455
O O5 0.628250 0.349768 0.212306
O O6 0.450711 0.321851 0.280877
O O7 0.530120 0.129564 0.196960
O O8 0.602792 0.171616 0.335666
O O9 0.708775 0.254274 0.693999
O O10 0.723003 0.379316 0.831461
O O11 0.659018 0.104014 0.813849
#
# Coordination Sequence:
#
# PCOD9376150 Si02
#       6
#     8   8   8   8   4   8
#     4  11  22  38  59  94 124 157 200 261 308 348
#     4  10  19  37  63  86 113 165 210 241 290 379
#     4  10  21  39  63  85 122 162 206 246 298 364
#     4  11  20  40  61  87 119 162 209 244 301 375
#     4  10  18  34  62  82 116 158 214 234 286 368
#     4  11  23  36  63  91 125 155 203 263 309 355
#
# _framework density 20.354092999999999
#
# number of rings (size 3 to 8) (size 9 to 14) (size 15 to 20)
#    0.000    1.455    3.636    3.273    2.545    0.000 
#    0.000    8.182    0.000    4.364    0.000    0.000 
#    0.000    0.000    0.000    0.000    0.000    0.000 
#
# Total GULP energy -122790.768605 kJ/mol
# GULP energy per Si atom -5581.398573 kJ/mol
# Density = 2.030777 g / cm^3
# Si number density = 20.354093 Si / 1000 Ang^3
#
#
#
# Elastic Constant Matrix: (Units=GPa)
#
#
# Indices 1 2 3 4 5 6 
#
# 1 142.3436 19.6672 38.4915 0.0000 0.0000 0.0000
# 2 19.6672 23.9106 19.7329 0.0000 0.0000 0.0000
# 3 38.4915 19.7329 118.5357 0.0000 0.0000 0.0000
# 4 0.0000 0.0000 0.0000 27.8780 0.0000 0.0000
# 5 0.0000 0.0000 0.0000 0.0000 -1.5354 0.0000
# 6 0.0000 0.0000 0.0000 0.0000 0.0000 25.7585
#
#
#
# Elastic Compliance Matrix: (Units=1/GPa)
#
#
# Indices 1 2 3 4 5 6 
#
# 1 0.008243 -0.005299 -0.001794 0.000000 0.000000 0.000000
# 2 -0.005299 0.051890 -0.006918 0.000000 0.000000 0.000000
# 3 -0.001794 -0.006918 0.010171 0.000000 0.000000 0.000000
# 4 0.000000 0.000000 0.000000 0.035871 0.000000 0.000000
# 5 0.000000 0.000000 0.000000 0.000000 -0.651289 0.000000
# 6 0.000000 0.000000 0.000000 0.000000 0.000000 0.038822
#
#
# Mechanical properties :
#
#
# Convention : Reuss Voigt Hill
#
# Bulk Modulus (GPa) = 23.65110 48.95254 36.30182
# Shear Modulus (GPa) = -10.77175 24.21344 6.72084
#
# Velocity S-wave (km/s) = -2.30297 3.45281 1.81910
# Velocity P-wave (km/s) = 2.13857 6.32444 4.72081
#
# Compressibility (1/GPa) = 0.04228133
#
# Stress axis : x y z
#
# Youngs Moduli (GPa) = 121.32053 19.27156 98.32292
#
# Poissons Ratio (x) = 0.10212 0.17644
# Poissons Ratio (y) = 0.64286 0.68015
# Poissons Ratio (z) = 0.21771 0.13331
#
# Static dielectric constant tensor:
#      x y z
#    x 1.846020 0.000000 0.000000 
#    y 0.000000 1.745110 0.000000 
#    z 0.000000 0.000000 1.686330 
# 
# From -- ./inp_files/6065.got.cif
#   From: 2010.05.17/outbox.cif.g08.bks.cpg/sg45_4_cif.got.tgz:6065.got - 2010.06.03 19:51:22.
