data_PCOD9376040
_publ_section_title
;
Structure prediction by ZEFSAII (Michael W. Deem and Ramdas Pophale) SiO2 
 PCOD9376040
Probable space group: I B A 2
;
_chemical_formula_sum "Si O2"
_cell_formula_units_Z 52
_cell_length_a 30.192905
_cell_length_b 5.483540
_cell_length_c 13.198432
_cell_angle_alpha 90.000000
_cell_angle_beta 90.000000
_cell_angle_gamma 90.000000
_cell_volume 2185.185226
_symmetry_space_group_name_H-M "I B A 2"
_symmetry_group_IT_number 45
_symmetry_cell_setting 'orthorhombic'
loop_
_space_group_symop_operation_xyz
x,y,z
-x,-y,z
-x,y,1/2+z
x,-y,1/2+z
1/2+x,1/2+y,1/2+z
1/2-x,1/2-y,1/2+z
1/2-x,1/2+y,z
1/2+x,1/2-y,z
loop_
_atom_site_type_symbol
_atom_site_label
_atom_site_fract_x
_atom_site_fract_y
_atom_site_fract_z
Si Si1 0.135445 0.994225 0.857830
Si Si2 0.764989 0.599487 0.043148
Si Si3 0.541113 0.344340 0.807335
Si Si4 0.731408 0.611597 0.806359
Si Si5 0.138436 0.501568 0.487492
Si Si6 0.546666 0.119158 0.008088
Si Si7 0.500000 0.500000 0.617866
O O1 0.180727 0.972979 0.795301
O O2 0.136059 0.746621 0.923362
O O3 0.087819 0.014745 0.803330
O O4 0.139572 0.244375 0.923126
O O5 0.737135 0.372979 0.085448
O O6 0.745723 0.630017 0.927064
O O7 0.815336 0.507202 0.044896
O O8 0.500000 0.500000 0.853689
O O9 0.549241 0.126265 0.885322
O O10 0.521796 0.306169 0.696035
O O11 0.761403 0.386963 0.769326
O O12 0.092319 0.512955 0.548100
O O13 0.500000 0.000000 0.030132
O O14 0.539439 0.388967 0.052256
#
# Coordination Sequence:
#
# PCOD9376040 Si02
#       7
#     8   8   8   8   8   8   4
#     4  11  18  32  51  84 117 155 197 249 303 367
#     4  10  15  27  43  76 116 149 185 246 297 355
#     4   9  21  39  62  84 122 155 205 256 318 369
#     4  10  15  25  44  74 116 149 186 243 296 354
#     4  11  20  29  56  81 119 154 201 246 306 366
#     4  11  23  39  64  88 122 162 210 262 320 379
#     4  10  22  46  58  86 122 164 208 264 322 374
#
# _framework density 23.796609
#
# number of rings (size 3 to 8) (size 9 to 14) (size 15 to 20)
#    0.462    1.231    6.923    0.923    2.154    0.615 
#    2.769    0.000    0.000    0.000    0.000    2.154 
#    0.000    0.000    0.000    0.000    0.000    0.154 
#
# Total GULP energy -144939.132961 kJ/mol
# GULP energy per Si atom -5574.582037 kJ/mol
# Density = 2.374245 g / cm^3
# Si number density = 23.796609 Si / 1000 Ang^3
#
#
#
# Elastic Constant Matrix: (Units=GPa)
#
#
# Indices 1 2 3 4 5 6 
#
# 1 180.4951 1.5511 -0.9052 0.0000 0.0000 0.0000
# 2 1.5511 126.1851 15.3457 0.0000 0.0000 0.0000
# 3 -0.9052 15.3457 50.6874 0.0000 0.0000 0.0000
# 4 0.0000 0.0000 0.0000 21.4208 0.0000 0.0000
# 5 0.0000 0.0000 0.0000 0.0000 13.5775 0.0000
# 6 0.0000 0.0000 0.0000 0.0000 0.0000 44.6431
#
#
#
# Elastic Compliance Matrix: (Units=1/GPa)
#
#
# Indices 1 2 3 4 5 6 
#
# 1 0.005542 -0.000083 0.000124 0.000000 0.000000 0.000000
# 2 -0.000083 0.008229 -0.002493 0.000000 0.000000 0.000000
# 3 0.000124 -0.002493 0.020486 0.000000 0.000000 0.000000
# 4 0.000000 0.000000 0.000000 0.046684 0.000000 0.000000
# 5 0.000000 0.000000 0.000000 0.000000 0.073651 0.000000
# 6 0.000000 0.000000 0.000000 0.000000 0.000000 0.022400
#
#
# Mechanical properties :
#
#
# Convention : Reuss Voigt Hill
#
# Bulk Modulus (GPa) = 34.06852 43.26119 38.66486
# Shear Modulus (GPa) = 26.08527 38.68669 32.38598
#
# Velocity S-wave (km/s) = 3.31445 4.03640 3.69311
# Velocity P-wave (km/s) = 5.38470 6.32000 5.87101
#
# Compressibility (1/GPa) = 0.02935261
#
# Stress axis : x y z
#
# Youngs Moduli (GPa) = 180.45150 121.52071 48.81454
#
# Poissons Ratio (x) = 0.01011 -0.00606
# Poissons Ratio (y) = 0.01502 0.12169
# Poissons Ratio (z) = -0.02241 0.30293
#
# Static dielectric constant tensor:
#      x y z
#    x 1.934870 0.000000 0.000000 
#    y 0.000000 2.004310 0.000000 
#    z 0.000000 0.000000 2.074950 
# 
# From -- ./inp_files/8554.got.cif
#   From: 2010.05.17/outbox.cif.g08.bks.cpg/sg45_5_cif.got.tgz:8554.got - 2010.06.03 19:51:22.
