data_PCOD9376383
_publ_section_title
;
Structure prediction by ZEFSAII (Michael W. Deem and Ramdas Pophale) SiO2 
 PCOD9376383
Probable space group: I B A 2
;
_chemical_formula_sum "Si O2"
_cell_formula_units_Z 64
_cell_length_a 18.248250
_cell_length_b 19.607742
_cell_length_c 9.995526
_cell_angle_alpha 90.000000
_cell_angle_beta 90.000000
_cell_angle_gamma 90.000000
_cell_volume 3576.468951
_symmetry_space_group_name_H-M "I B A 2"
_symmetry_group_IT_number 45
_symmetry_cell_setting 'orthorhombic'
loop_
_space_group_symop_operation_xyz
x,y,z
-x,-y,z
-x,y,1/2+z
x,-y,1/2+z
1/2+x,1/2+y,1/2+z
1/2-x,1/2-y,1/2+z
1/2-x,1/2+y,z
1/2+x,1/2-y,z
loop_
_atom_site_type_symbol
_atom_site_label
_atom_site_fract_x
_atom_site_fract_y
_atom_site_fract_z
Si Si1 0.442424 0.581330 0.557350
Si Si2 0.331462 0.562298 0.334009
Si Si3 0.221506 0.209253 0.419017
Si Si4 0.552286 0.763859 0.691972
Si Si5 0.708202 0.807460 0.685014
Si Si6 0.397104 0.382463 0.571454
Si Si7 0.937114 0.241469 0.992260
Si Si8 0.825024 0.084628 0.293094
O O1 0.405584 0.552933 0.422183
O O2 0.529148 0.570912 0.572252
O O3 0.441658 0.663241 0.536989
O O4 0.389655 0.569982 0.684599
O O5 0.295138 0.629273 0.398143
O O6 0.345666 0.583229 0.181601
O O7 0.293760 0.488992 0.337008
O O8 0.281773 0.212980 0.531537
O O9 0.234936 0.245453 0.279057
O O10 0.150000 0.249485 0.476257
O O11 0.620863 0.815204 0.702521
O O12 0.584333 0.692907 0.629475
O O13 0.484071 0.783399 0.598994
O O14 0.529405 0.748365 0.844109
O O15 0.762013 0.869106 0.726402
O O16 0.361571 0.381309 0.424550
#
# Coordination Sequence:
#
# PCOD9376383 Si02
#       8
#     8   8   8   8   8   8   8   8
#     4  10  20  35  49  73 109 148 190 225 255 315
#     4  11  21  39  47  76 110 148 183 238 259 327
#     4  10  21  38  55  76 114 142 188 226 276 329
#     4  10  20  34  56  79 110 139 185 227 275 324
#     4  11  21  38  55  81 106 153 181 235 273 338
#     4  11  21  33  53  77 103 156 193 225 262 316
#     4   9  18  33  53  76 105 144 174 228 262 320
#     4  12  24  32  56  74 110 154 189 224 280 315
#
# _framework density 17.894743999999999
#
# number of rings (size 3 to 8) (size 9 to 14) (size 15 to 20)
#    0.000    1.500    6.250    2.250    5.250    4.000 
#    0.000    0.000    0.000    0.000    0.000    0.000 
#    0.000   21.000    0.000    0.000    0.000    0.000 
#
# Total GULP energy -178305.316765 kJ/mol
# GULP energy per Si atom -5572.041149 kJ/mol
# Density = 1.785402 g / cm^3
# Si number density = 17.894744 Si / 1000 Ang^3
#
#
#
# Elastic Constant Matrix: (Units=GPa)
#
#
# Indices 1 2 3 4 5 6 
#
# 1 28.5064 19.8872 6.5973 0.0000 0.0000 0.0000
# 2 19.8872 44.0492 -2.9003 0.0000 0.0000 0.0000
# 3 6.5973 -2.9003 69.4400 0.0000 0.0000 0.0000
# 4 0.0000 0.0000 0.0000 16.2459 0.0000 0.0000
# 5 0.0000 0.0000 0.0000 0.0000 26.5268 0.0000
# 6 0.0000 0.0000 0.0000 0.0000 0.0000 20.6125
#
#
#
# Elastic Compliance Matrix: (Units=1/GPa)
#
#
# Indices 1 2 3 4 5 6 
#
# 1 0.053691 -0.024644 -0.006130 0.000000 0.000000 0.000000
# 2 -0.024644 0.034076 0.003765 0.000000 0.000000 0.000000
# 3 -0.006130 0.003765 0.015141 0.000000 0.000000 0.000000
# 4 0.000000 0.000000 0.000000 0.061554 0.000000 0.000000
# 5 0.000000 0.000000 0.000000 0.000000 0.037698 0.000000
# 6 0.000000 0.000000 0.000000 0.000000 0.000000 0.048514
#
#
# Mechanical properties :
#
#
# Convention : Reuss Voigt Hill
#
# Bulk Modulus (GPa) = 20.45478 21.01820 20.73649
# Shear Modulus (GPa) = 15.57685 20.57112 18.07399
#
# Velocity S-wave (km/s) = 2.95357 3.39420 3.18152
# Velocity P-wave (km/s) = 4.80488 5.20881 5.01092
#
# Compressibility (1/GPa) = 0.04888834
#
# Stress axis : x y z
#
# Youngs Moduli (GPa) = 18.62503 29.34623 66.04766
#
# Poissons Ratio (x) = 0.72321 0.40489
# Poissons Ratio (y) = 0.45899 -0.24864
# Poissons Ratio (z) = 0.11418 -0.11048
#
# Static dielectric constant tensor:
#      x y z
#    x 1.685240 0.000000 0.000000 
#    y 0.000000 1.646040 0.000000 
#    z 0.000000 0.000000 1.637860 
# 
# From -- ./inp_files/2373.got.cif
#   From: 2010.05.17/outbox.cif.g08.bks.cpg/sg45_2_cif.got.tgz:2373.got - 2010.06.03 19:51:22.
