data_PCOD9376262
_publ_section_title
;
Structure prediction by ZEFSAII (Michael W. Deem and Ramdas Pophale) SiO2 
 PCOD9376262
Probable space group: I B A 2
;
_chemical_formula_sum "Si O2"
_cell_formula_units_Z 64
_cell_length_a 24.232225
_cell_length_b 5.109974
_cell_length_c 27.504951
_cell_angle_alpha 90.000000
_cell_angle_beta 90.000000
_cell_angle_gamma 90.000000
_cell_volume 3405.829155
_symmetry_space_group_name_H-M "I B A 2"
_symmetry_group_IT_number 45
_symmetry_cell_setting 'orthorhombic'
loop_
_space_group_symop_operation_xyz
x,y,z
-x,-y,z
-x,y,1/2+z
x,-y,1/2+z
1/2+x,1/2+y,1/2+z
1/2-x,1/2-y,1/2+z
1/2-x,1/2+y,z
1/2+x,1/2-y,z
loop_
_atom_site_type_symbol
_atom_site_label
_atom_site_fract_x
_atom_site_fract_y
_atom_site_fract_z
Si Si1 0.058825 0.601996 0.661980
Si Si2 0.933052 0.992022 0.504556
Si Si3 0.224368 0.651743 0.090169
Si Si4 0.538588 0.250758 0.908062
Si Si5 0.892067 0.883876 0.706895
Si Si6 0.729109 0.623420 0.700613
Si Si7 0.460507 0.248432 0.300084
Si Si8 0.396765 0.980680 0.059415
O O1 0.104012 0.400601 0.682634
O O2 0.062021 0.546635 0.604780
O O3 0.000000 0.500000 0.680091
O O4 0.070250 0.898485 0.678907
O O5 0.924931 0.129058 0.451549
O O6 0.899491 0.190059 0.538318
O O7 0.914704 0.699325 0.519748
O O8 0.000000 0.000000 0.512098
O O9 0.264722 0.434417 0.068161
O O10 0.245089 0.675247 0.146482
O O11 0.162597 0.557411 0.081481
O O12 0.500000 0.500000 0.899170
O O13 0.437297 0.807299 0.854594
O O14 0.500000 0.000000 0.922609
O O15 0.914269 0.823764 0.760795
O O16 0.831770 0.007217 0.701699
O O17 0.767623 0.405789 0.724774
O O18 0.500000 0.500000 0.299824
O O19 0.500000 0.000000 0.288363
#
# Coordination Sequence:
#
# PCOD9376262 Si02
#       8
#     8   8   8   8   8   8   8   8
#     4  12  23  34  48  75 114 150 177 209 263 336
#     4  11  21  36  54  80 113 144 180 220 270 338
#     4  10  19  35  52  70  96 131 180 234 270 308
#     4   9  18  34  56  80 111 147 179 224 273 324
#     4  12  22  36  55  77 107 147 183 224 273 327
#     4  10  20  35  52  71  96 132 182 234 269 307
#     4  10  20  35  56  84 115 144 180 222 274 338
#     4  12  23  35  53  77 106 147 185 225 273 326
#
# _framework density 18.791312000000001
#
# number of rings (size 3 to 8) (size 9 to 14) (size 15 to 20)
#    0.000    1.250    0.000   10.125    0.000    0.000 
#    0.000    0.000    0.000    0.000    0.000    5.250 
#    0.000    0.000    0.000    0.000    0.000    0.000 
#
# Total GULP energy -178156.533251 kJ/mol
# GULP energy per Si atom -5567.391664 kJ/mol
# Density = 1.874854 g / cm^3
# Si number density = 18.791312 Si / 1000 Ang^3
#
#
#
# Elastic Constant Matrix: (Units=GPa)
#
#
# Indices 1 2 3 4 5 6 
#
# 1 62.1151 -5.3931 14.8196 0.0000 0.0000 0.0000
# 2 -5.3931 114.8208 5.3500 0.0000 0.0000 0.0000
# 3 14.8196 5.3500 90.5315 0.0000 0.0000 0.0000
# 4 0.0000 0.0000 0.0000 24.5676 0.0000 0.0000
# 5 0.0000 0.0000 0.0000 0.0000 -16.7177 0.0000
# 6 0.0000 0.0000 0.0000 0.0000 0.0000 33.5050
#
#
#
# Elastic Compliance Matrix: (Units=1/GPa)
#
#
# Indices 1 2 3 4 5 6 
#
# 1 0.016850 0.000923 -0.002813 0.000000 0.000000 0.000000
# 2 0.000923 0.008784 -0.000670 0.000000 0.000000 0.000000
# 3 -0.002813 -0.000670 0.011546 0.000000 0.000000 0.000000
# 4 0.000000 0.000000 0.000000 0.040704 0.000000 0.000000
# 5 0.000000 0.000000 0.000000 0.000000 -0.059817 0.000000
# 6 0.000000 0.000000 0.000000 0.000000 0.000000 0.029846
#
#
# Mechanical properties :
#
#
# Convention : Reuss Voigt Hill
#
# Bulk Modulus (GPa) = 31.19230 33.00228 32.09729
# Shear Modulus (GPa) = 78.46756 25.11705 51.79231
#
# Velocity S-wave (km/s) = 6.46900 3.65996 5.25563
# Velocity P-wave (km/s) = 8.51074 5.95492 7.34485
#
# Compressibility (1/GPa) = 0.03205919
#
# Stress axis : x y z
#
# Youngs Moduli (GPa) = 59.34601 113.84621 86.61060
#
# Poissons Ratio (x) = -0.10502 0.24362
# Poissons Ratio (y) = -0.05475 0.05804
# Poissons Ratio (z) = 0.16693 0.07629
#
# Static dielectric constant tensor:
#      x y z
#    x 1.813020 0.000000 0.000000 
#    y 0.000000 1.656630 0.000000 
#    z 0.000000 0.000000 1.804490 
# 
# From -- ./inp_files/10097.got.cif
#   From: 2010.05.17/outbox.cif.g08.bks.cpg/sg45_6_cif.got.tgz:10097.got - 2010.06.03 19:51:22.
