data_PCOD9376701
_publ_section_title
;
Structure prediction by ZEFSAII (Michael W. Deem and Ramdas Pophale) SiO2 
 PCOD9376701
Probable space group: I B A 2
;
_chemical_formula_sum "Si O2"
_cell_formula_units_Z 56
_cell_length_a 20.345236
_cell_length_b 4.996632
_cell_length_c 25.510203
_cell_angle_alpha 90.000000
_cell_angle_beta 90.000000
_cell_angle_gamma 90.000000
_cell_volume 2593.307473
_symmetry_space_group_name_H-M "I B A 2"
_symmetry_group_IT_number 45
_symmetry_cell_setting 'orthorhombic'
loop_
_space_group_symop_operation_xyz
x,y,z
-x,-y,z
-x,y,1/2+z
x,-y,1/2+z
1/2+x,1/2+y,1/2+z
1/2-x,1/2-y,1/2+z
1/2-x,1/2+y,z
1/2+x,1/2-y,z
loop_
_atom_site_type_symbol
_atom_site_label
_atom_site_fract_x
_atom_site_fract_y
_atom_site_fract_z
Si Si1 0.548065 0.252792 0.233770
Si Si2 0.079230 0.435303 0.125402
Si Si3 0.612030 0.126588 0.908650
Si Si4 0.211931 0.269219 0.469694
Si Si5 0.547699 0.747698 0.518228
Si Si6 0.202814 0.280901 0.591531
Si Si7 0.926792 0.879164 0.346809
O O1 0.500000 0.500000 0.222682
O O2 0.589312 0.200759 0.181437
O O3 0.588335 0.315379 0.286246
O O4 0.500000 0.000000 0.244380
O O5 0.089235 0.265695 0.071878
O O6 0.133435 0.668743 0.120149
O O7 0.000000 0.500000 0.125954
O O8 0.669341 0.925992 0.927662
O O9 0.618510 0.385861 0.871362
O O10 0.570831 0.899405 0.878059
O O11 0.583259 0.244130 0.962710
O O12 0.222481 0.952639 0.465322
O O13 0.186985 0.304237 0.529090
O O14 0.500000 0.500000 0.521935
O O15 0.500000 0.000000 0.517282
O O16 0.242981 0.011388 0.602215
O O17 0.000000 0.000000 0.348326
#
# Coordination Sequence:
#
# PCOD9376701 Si02
#       7
#     8   8   8   8   8   8   8
#     4  10  21  38  59  85 119 160 200 245 301 371
#     4  10  22  41  63  94 125 162 205 260 311 363
#     4  12  21  36  58  83 115 154 197 246 302 362
#     4  10  21  38  57  81 114 157 203 247 299 372
#     4  11  22  33  51  85 121 147 179 239 307 357
#     4  10  22  40  63  87 124 166 206 245 304 378
#     4  11  22  36  57  85 120 158 198 238 300 371
#
# _framework density 21.594047
#
# number of rings (size 3 to 8) (size 9 to 14) (size 15 to 20)
#    0.000    1.429    1.429    5.571    0.000    4.571 
#    0.000    0.000    0.000    5.143    0.000    0.000 
#    0.000    0.000    0.000    0.000    0.000    0.000 
#
# Total GULP energy -156270.639555 kJ/mol
# GULP energy per Si atom -5581.094270 kJ/mol
# Density = 2.154490 g / cm^3
# Si number density = 21.594047 Si / 1000 Ang^3
#
#
#
# Elastic Constant Matrix: (Units=GPa)
#
#
# Indices 1 2 3 4 5 6 
#
# 1 45.5764 -11.1181 3.7817 0.0000 0.0000 0.0000
# 2 -11.1181 96.2155 -2.9532 0.0000 0.0000 0.0000
# 3 3.7817 -2.9532 126.7864 0.0000 0.0000 0.0000
# 4 0.0000 0.0000 0.0000 7.7792 0.0000 0.0000
# 5 0.0000 0.0000 0.0000 0.0000 8.2317 0.0000
# 6 0.0000 0.0000 0.0000 0.0000 0.0000 17.9868
#
#
#
# Elastic Compliance Matrix: (Units=1/GPa)
#
#
# Indices 1 2 3 4 5 6 
#
# 1 0.022625 0.002596 -0.000614 0.000000 0.000000 0.000000
# 2 0.002596 0.010699 0.000172 0.000000 0.000000 0.000000
# 3 -0.000614 0.000172 0.007910 0.000000 0.000000 0.000000
# 4 0.000000 0.000000 0.000000 0.128547 0.000000 0.000000
# 5 0.000000 0.000000 0.000000 0.000000 0.121481 0.000000
# 6 0.000000 0.000000 0.000000 0.000000 0.000000 0.055596
#
#
# Mechanical properties :
#
#
# Convention : Reuss Voigt Hill
#
# Bulk Modulus (GPa) = 21.95899 27.55546 24.75722
# Shear Modulus (GPa) = 13.97695 25.39075 19.68385
#
# Velocity S-wave (km/s) = 2.54689 3.43275 3.02245
# Velocity P-wave (km/s) = 4.34050 5.33854 4.86518
#
# Compressibility (1/GPa) = 0.04553944
#
# Stress axis : x y z
#
# Youngs Moduli (GPa) = 44.19822 93.47075 126.42856
#
# Poissons Ratio (x) = -0.24261 0.07768
# Poissons Ratio (y) = -0.11472 -0.02172
# Poissons Ratio (z) = 0.02716 -0.01606
#
# Static dielectric constant tensor:
#      x y z
#    x 1.869430 0.000000 0.000000 
#    y 0.000000 1.788150 0.000000 
#    z 0.000000 0.000000 1.824150 
# 
# From -- ./inp_files/9444.got.cif
#   From: 2010.05.17/outbox.cif.g08.bks.cpg/sg45_5_cif.got.tgz:9444.got - 2010.06.03 19:51:22.
