data_PCOD9376948
_publ_section_title
;
Structure prediction by ZEFSAII (Michael W. Deem and Ramdas Pophale) SiO2 
 PCOD9376948
Probable space group: I B A 2
;
_chemical_formula_sum "Si O2"
_cell_formula_units_Z 56
_cell_length_a 5.556437
_cell_length_b 30.583684
_cell_length_c 13.309089
_cell_angle_alpha 90.000000
_cell_angle_beta 90.000000
_cell_angle_gamma 90.000000
_cell_volume 2261.697519
_symmetry_space_group_name_H-M "I B A 2"
_symmetry_group_IT_number 45
_symmetry_cell_setting 'orthorhombic'
loop_
_space_group_symop_operation_xyz
x,y,z
-x,-y,z
-x,y,1/2+z
x,-y,1/2+z
1/2+x,1/2+y,1/2+z
1/2-x,1/2-y,1/2+z
1/2-x,1/2+y,z
1/2+x,1/2-y,z
loop_
_atom_site_type_symbol
_atom_site_label
_atom_site_fract_x
_atom_site_fract_y
_atom_site_fract_z
Si Si1 0.933471 0.146946 0.232450
Si Si2 0.745419 0.975413 0.167794
Si Si3 0.625353 0.740275 0.726932
Si Si4 0.108377 0.646309 0.910955
Si Si5 0.039494 0.900433 0.547141
Si Si6 0.362523 0.227185 0.501347
Si Si7 0.759078 0.923100 0.361204
O O1 0.089713 0.189077 0.204619
O O2 0.716385 0.161332 0.304447
O O3 0.868671 0.120635 0.131998
O O4 0.090491 0.113627 0.299443
O O5 0.770856 0.930757 0.105082
O O6 0.733427 0.963134 0.286003
O O7 0.500000 0.000000 0.140195
O O8 0.000000 0.000000 0.151926
O O9 0.879736 0.745578 0.779720
O O10 0.638024 0.768441 0.623743
O O11 0.917635 0.679269 0.958845
O O12 0.992061 0.599350 0.888398
O O13 0.322176 0.638384 0.989788
O O14 0.900463 0.928908 0.464785
O O15 0.599025 0.255568 0.473051
#
# Coordination Sequence:
#
# PCOD9376948 Si02
#       7
#     8   8   8   8   8   8   8
#     4  10  24  43  68 101 146 194 246 309 367 435
#     4  11  28  52  79 113 156 185 237 307 373 451
#     4  10  22  38  62  95 136 187 244 300 359 415
#     4  11  25  43  74 103 150 197 253 313 362 446
#     4  10  24  47  75 109 138 200 246 294 371 454
#     4  10  23  41  64  99 141 189 245 307 361 415
#     4  10  26  46  75 107 148 191 248 299 374 443
#
# _framework density 24.760162999999999
#
# number of rings (size 3 to 8) (size 9 to 14) (size 15 to 20)
#    0.000    1.714    0.000    1.714   18.000    2.857 
#    0.000    0.000    0.000    0.000    0.000    0.000 
#    0.000    0.000    0.000    0.000    0.000    0.000 
#
# Total GULP energy -156773.843143 kJ/mol
# GULP energy per Si atom -5599.065827 kJ/mol
# Density = 2.470381 g / cm^3
# Si number density = 24.760163 Si / 1000 Ang^3
#
#
#
# Elastic Constant Matrix: (Units=GPa)
#
#
# Indices 1 2 3 4 5 6 
#
# 1 144.0320 26.7054 47.8286 0.0000 0.0000 0.0000
# 2 26.7054 58.3660 27.6558 0.0000 0.0000 0.0000
# 3 47.8286 27.6558 148.2223 0.0000 0.0000 0.0000
# 4 0.0000 0.0000 0.0000 26.0273 0.0000 0.0000
# 5 0.0000 0.0000 0.0000 0.0000 30.1979 0.0000
# 6 0.0000 0.0000 0.0000 0.0000 0.0000 42.0479
#
#
#
# Elastic Compliance Matrix: (Units=1/GPa)
#
#
# Indices 1 2 3 4 5 6 
#
# 1 0.008153 -0.002725 -0.002122 0.000000 0.000000 0.000000
# 2 -0.002725 0.019706 -0.002798 0.000000 0.000000 0.000000
# 3 -0.002122 -0.002798 0.007953 0.000000 0.000000 0.000000
# 4 0.000000 0.000000 0.000000 0.038421 0.000000 0.000000
# 5 0.000000 0.000000 0.000000 0.000000 0.033115 0.000000
# 6 0.000000 0.000000 0.000000 0.000000 0.000000 0.023782
#
#
# Mechanical properties :
#
#
# Convention : Reuss Voigt Hill
#
# Bulk Modulus (GPa) = 48.72668 61.66664 55.19666
# Shear Modulus (GPa) = 32.62420 36.21665 34.42042
#
# Velocity S-wave (km/s) = 3.63383 3.82867 3.73252
# Velocity P-wave (km/s) = 6.10970 6.67118 6.39660
#
# Compressibility (1/GPa) = 0.02052264
#
# Stress axis : x y z
#
# Youngs Moduli (GPa) = 122.65605 50.74724 125.73162
#
# Poissons Ratio (x) = 0.13827 0.26685
# Poissons Ratio (y) = 0.33420 0.35174
# Poissons Ratio (z) = 0.26033 0.14197
#
# Static dielectric constant tensor:
#      x y z
#    x 1.956120 0.000000 0.000000 
#    y 0.000000 1.938710 0.000000 
#    z 0.000000 0.000000 1.968740 
# 
# From -- ./inp_files/5272.got.cif
#   From: 2010.05.17/outbox.cif.g08.bks.cpg/sg45_3_cif.got.tgz:5272.got - 2010.06.03 19:51:22.
