data_PCOD9376074
_publ_section_title
;
Structure prediction by ZEFSAII (Michael W. Deem and Ramdas Pophale) SiO2 
 PCOD9376074
Probable space group: I B A 2
;
_chemical_formula_sum "Si O2"
_cell_formula_units_Z 64
_cell_length_a 27.282189
_cell_length_b 17.125764
_cell_length_c 5.560739
_cell_angle_alpha 90.000000
_cell_angle_beta 90.000000
_cell_angle_gamma 90.000000
_cell_volume 2598.134798
_symmetry_space_group_name_H-M "I B A 2"
_symmetry_group_IT_number 45
_symmetry_cell_setting 'orthorhombic'
loop_
_space_group_symop_operation_xyz
x,y,z
-x,-y,z
-x,y,1/2+z
x,-y,1/2+z
1/2+x,1/2+y,1/2+z
1/2-x,1/2-y,1/2+z
1/2-x,1/2+y,z
1/2+x,1/2-y,z
loop_
_atom_site_type_symbol
_atom_site_label
_atom_site_fract_x
_atom_site_fract_y
_atom_site_fract_z
Si Si1 0.640743 0.336676 0.508950
Si Si2 0.678450 0.351202 0.008949
Si Si3 0.527538 0.093323 0.509105
Si Si4 0.729058 0.022749 0.008944
Si Si5 0.729690 0.779116 0.008946
Si Si6 0.029466 0.220236 0.509026
Si Si7 0.631736 0.084942 0.508937
Si Si8 0.659906 0.837523 0.508943
O O1 0.656110 0.378821 0.756825
O O2 0.675505 0.258067 0.508938
O O3 0.583300 0.317889 0.508987
O O4 0.656105 0.378819 0.261065
O O5 0.737967 0.358674 0.008953
O O6 0.662876 0.256573 0.008945
O O7 0.499980 0.079960 0.259157
O O8 0.538098 0.186413 0.509051
O O9 0.578600 0.047668 0.508989
O O10 0.753585 0.000002 0.758942
O O11 0.677046 0.974597 0.008928
O O12 0.711488 0.113767 0.008956
O O13 0.749999 0.749999 0.258947
O O14 0.999998 0.202093 0.259032
O O15 0.635791 0.132188 0.256647
O O16 0.635799 0.132190 0.761220
#
# Coordination Sequence:
#
# PCOD9376074 Si02
#       8
#     8   8   8   8   8   8   8   8
#     4  10  18  29  41  55  76  97 112 140 181 213
#     4  10  17  26  42  61  74  91 116 139 175 222
#     4  10  19  28  38  51  65  81 107 145 180 210
#     4   8  16  27  39  51  65  83 105 134 167 200
#     4   8  16  27  39  56  77  94 111 134 168 219
#     4  10  19  28  38  54  72  91 120 151 178 212
#     4  10  18  29  41  52  66  87 110 137 177 214
#     4  10  17  26  42  56  67  83 107 138 166 201
#
# _framework density 24.633058999999999
#
# number of rings (size 3 to 8) (size 9 to 14) (size 15 to 20)
#    0.000    2.500    0.000    3.750    0.000    2.000 
#    0.000    0.000    0.000   20.250    0.000    0.000 
#    0.000    0.000    0.000    0.000    0.000    0.000 
#
# Total GULP energy -178470.994798 kJ/mol
# GULP energy per Si atom -5577.218587 kJ/mol
# Density = 2.457699 g / cm^3
# Si number density = 24.633059 Si / 1000 Ang^3
#
#
#
# Elastic Constant Matrix: (Units=GPa)
#
#
# Indices 1 2 3 4 5 6 
#
# 1 131.7399 16.0979 54.0800 0.0000 0.0000 0.0000
# 2 16.0979 44.8237 32.2098 0.0000 0.0000 0.0000
# 3 54.0800 32.2098 276.6589 0.0000 0.0000 0.0000
# 4 0.0000 0.0000 0.0000 29.4530 0.0000 0.0000
# 5 0.0000 0.0000 0.0000 0.0000 43.6699 0.0000
# 6 0.0000 0.0000 0.0000 0.0000 0.0000 10.4366
#
#
#
# Elastic Compliance Matrix: (Units=1/GPa)
#
#
# Indices 1 2 3 4 5 6 
#
# 1 0.008415 -0.002008 -0.001411 0.000000 0.000000 0.000000
# 2 -0.002008 0.024826 -0.002498 0.000000 0.000000 0.000000
# 3 -0.001411 -0.002498 0.004181 0.000000 0.000000 0.000000
# 4 0.000000 0.000000 0.000000 0.033952 0.000000 0.000000
# 5 0.000000 0.000000 0.000000 0.000000 0.022899 0.000000
# 6 0.000000 0.000000 0.000000 0.000000 0.000000 0.095817
#
#
# Mechanical properties :
#
#
# Convention : Reuss Voigt Hill
#
# Bulk Modulus (GPa) = 39.08086 73.11087 56.09587
# Shear Modulus (GPa) = 23.75817 40.10090 31.92954
#
# Velocity S-wave (km/s) = 3.10898 4.03914 3.60419
# Velocity P-wave (km/s) = 5.36538 7.17616 6.33580
#
# Compressibility (1/GPa) = 0.02558797
#
# Stress axis : x y z
#
# Youngs Moduli (GPa) = 118.82957 40.28086 239.16502
#
# Poissons Ratio (x) = 0.08089 0.33751
# Poissons Ratio (y) = 0.23864 0.59738
# Poissons Ratio (z) = 0.16769 0.10061
#
# Static dielectric constant tensor:
#      x y z
#    x 2.052680 0.000000 0.000000 
#    y 0.000000 2.066290 0.000000 
#    z 0.000000 0.000000 2.029060 
# 
# From -- ./inp_files/653.got.cif
#   From: 2010.05.17/outbox.cif.g08.bks.cpg/sg45_1_cif.got.tgz:653.got - 2010.06.03 19:51:22.
