data_PCOD9376552
_publ_section_title
;
Structure prediction by ZEFSAII (Michael W. Deem and Ramdas Pophale) SiO2 
 PCOD9376552
Probable space group: I B A 2
;
_chemical_formula_sum "Si O2"
_cell_formula_units_Z 64
_cell_length_a 12.514708
_cell_length_b 15.544083
_cell_length_c 16.202978
_cell_angle_alpha 90.000000
_cell_angle_beta 90.000000
_cell_angle_gamma 90.000000
_cell_volume 3151.959799
_symmetry_space_group_name_H-M "I B A 2"
_symmetry_group_IT_number 45
_symmetry_cell_setting 'orthorhombic'
loop_
_space_group_symop_operation_xyz
x,y,z
-x,-y,z
-x,y,1/2+z
x,-y,1/2+z
1/2+x,1/2+y,1/2+z
1/2-x,1/2-y,1/2+z
1/2-x,1/2+y,z
1/2+x,1/2-y,z
loop_
_atom_site_type_symbol
_atom_site_label
_atom_site_fract_x
_atom_site_fract_y
_atom_site_fract_z
Si Si1 0.165933 0.960462 0.726380
Si Si2 0.671198 0.371253 0.823950
Si Si3 0.127122 0.491831 0.134227
Si Si4 0.396812 0.655498 0.100084
Si Si5 0.949787 0.904434 0.386480
Si Si6 0.277692 0.805136 0.175499
Si Si7 0.887495 0.784360 0.525534
Si Si8 0.703332 0.104066 0.484268
O O1 0.288782 0.955170 0.693188
O O2 0.091479 0.931466 0.651245
O O3 0.126908 0.911889 0.807878
O O4 0.146924 0.057811 0.754068
O O5 0.557324 0.350522 0.864827
O O6 0.728720 0.301748 0.767225
O O7 0.754136 0.410379 0.891201
O O8 0.159609 0.393335 0.153867
O O9 0.000000 0.500000 0.149056
O O10 0.153679 0.528187 0.041416
O O11 0.350716 0.722532 0.165264
O O12 0.495866 0.701279 0.060753
O O13 0.310509 0.633749 0.031011
O O14 0.881754 0.860185 0.458144
O O15 0.000000 0.000000 0.406359
O O16 0.191077 0.796602 0.102518
O O17 0.870258 0.689457 0.487976
#
# Coordination Sequence:
#
# PCOD9376552 Si02
#       8
#     8   8   8   8   8   8   8   8
#     4   9  21  36  63  89 123 160 213 263 326 383
#     4  10  20  40  57  93 130 163 205 270 326 384
#     4  10  21  42  65  84 125 171 215 261 318 402
#     4  10  20  40  60  91 122 168 211 269 325 380
#     4  10  21  35  63  95 127 160 211 269 330 380
#     4  10  23  36  63  89 120 164 220 256 318 394
#     4  11  22  37  63  92 126 170 214 264 335 381
#     4  10  22  38  61  89 129 169 215 269 318 395
#
# _framework density 20.304828000000001
#
# number of rings (size 3 to 8) (size 9 to 14) (size 15 to 20)
#    0.000    2.000    1.250    1.500    5.250    2.000 
#    0.000    2.500   11.000    0.000    0.000    0.000 
#    0.000    0.000    0.000    0.000    0.000    0.000 
#
# Total GULP energy -178261.375531 kJ/mol
# GULP energy per Si atom -5570.667985 kJ/mol
# Density = 2.025861 g / cm^3
# Si number density = 20.304828 Si / 1000 Ang^3
#
#
#
# Elastic Constant Matrix: (Units=GPa)
#
#
# Indices 1 2 3 4 5 6 
#
# 1 78.9687 13.6053 5.7287 0.0000 0.0000 0.0000
# 2 13.6053 51.3347 11.7584 0.0000 0.0000 0.0000
# 3 5.7287 11.7584 60.0138 0.0000 0.0000 0.0000
# 4 0.0000 0.0000 0.0000 24.5972 0.0000 0.0000
# 5 0.0000 0.0000 0.0000 0.0000 27.5625 0.0000
# 6 0.0000 0.0000 0.0000 0.0000 0.0000 23.2936
#
#
#
# Elastic Compliance Matrix: (Units=1/GPa)
#
#
# Indices 1 2 3 4 5 6 
#
# 1 0.013290 -0.003384 -0.000606 0.000000 0.000000 0.000000
# 2 -0.003384 0.021257 -0.003842 0.000000 0.000000 0.000000
# 3 -0.000606 -0.003842 0.017473 0.000000 0.000000 0.000000
# 4 0.000000 0.000000 0.000000 0.040655 0.000000 0.000000
# 5 0.000000 0.000000 0.000000 0.000000 0.036281 0.000000
# 6 0.000000 0.000000 0.000000 0.000000 0.000000 0.042930
#
#
# Mechanical properties :
#
#
# Convention : Reuss Voigt Hill
#
# Bulk Modulus (GPa) = 27.50418 28.05577 27.77998
# Shear Modulus (GPa) = 25.04154 25.70565 25.37359
#
# Velocity S-wave (km/s) = 3.51562 3.56193 3.53885
# Velocity P-wave (km/s) = 5.48220 5.54651 5.51445
#
# Compressibility (1/GPa) = 0.03635810
#
# Stress axis : x y z
#
# Youngs Moduli (GPa) = 75.24380 47.04390 57.22997
#
# Poissons Ratio (x) = 0.15918 0.03466
# Poissons Ratio (y) = 0.25459 0.21987
# Poissons Ratio (z) = 0.04557 0.18073
#
# Static dielectric constant tensor:
#      x y z
#    x 1.679980 0.000000 0.000000 
#    y 0.000000 1.771700 0.000000 
#    z 0.000000 0.000000 1.776380 
# 
# From -- ./inp_files/6276.got.cif
#   From: 2010.05.17/outbox.cif.g08.bks.cpg/sg45_4_cif.got.tgz:6276.got - 2010.06.03 19:51:22.
