data_PCOD9376382
_publ_section_title
;
Structure prediction by ZEFSAII (Michael W. Deem and Ramdas Pophale) SiO2 
 PCOD9376382
Probable space group: I B A 2
;
_chemical_formula_sum "Si O2"
_cell_formula_units_Z 60
_cell_length_a 23.318839
_cell_length_b 15.042399
_cell_length_c 8.721989
_cell_angle_alpha 90.000000
_cell_angle_beta 90.000000
_cell_angle_gamma 90.000000
_cell_volume 3059.423250
_symmetry_space_group_name_H-M "I B A 2"
_symmetry_group_IT_number 45
_symmetry_cell_setting 'orthorhombic'
loop_
_space_group_symop_operation_xyz
x,y,z
-x,-y,z
-x,y,1/2+z
x,-y,1/2+z
1/2+x,1/2+y,1/2+z
1/2-x,1/2-y,1/2+z
1/2-x,1/2+y,z
1/2+x,1/2-y,z
loop_
_atom_site_type_symbol
_atom_site_label
_atom_site_fract_x
_atom_site_fract_y
_atom_site_fract_z
Si Si1 0.207303 0.076786 0.537760
Si Si2 0.025017 0.870831 0.532112
Si Si3 0.785649 0.887054 0.899245
Si Si4 0.500000 0.500000 0.290702
Si Si5 0.113427 0.249347 0.908718
Si Si6 0.661067 0.114728 0.505403
Si Si7 0.899631 0.208487 0.049318
Si Si8 0.828828 0.424435 0.367845
O O1 0.218632 0.086657 0.719758
O O2 0.153368 0.142318 0.510925
O O3 0.265437 0.094081 0.439140
O O4 0.195166 0.974478 0.493287
O O5 0.065344 0.787167 0.520728
O O6 0.959556 0.838613 0.509390
O O7 0.040160 0.940818 0.397913
O O8 0.030884 0.929242 0.683270
O O9 0.829963 0.809121 0.927852
O O10 0.723695 0.854106 0.952367
O O11 0.096408 0.228664 0.732196
O O12 0.128261 0.351114 0.933643
O O13 0.616007 0.194333 0.481912
O O14 0.668573 0.090126 0.685093
O O15 0.652180 0.023207 0.414104
#
# Coordination Sequence:
#
# PCOD9376382 Si02
#       8
#     8   8   8   4   8   8   8   8
#     4  10  20  34  55  84 115 148 184 226 280 337
#     4  11  22  42  57  88 114 150 187 224 281 326
#     4  10  20  34  55  84 115 148 184 226 280 337
#     4  10  24  38  64  78 122 150 184 226 272 336
#     4  10  22  38  58  82 115 149 189 233 278 332
#     4  10  20  39  58  81 112 148 187 236 283 329
#     4  10  22  38  58  82 115 149 189 233 278 332
#     4  10  20  39  58  81 112 148 187 236 283 329
#
# _framework density 19.611539
#
# number of rings (size 3 to 8) (size 9 to 14) (size 15 to 20)
#    0.000    1.867    1.333    4.000    3.733    0.000 
#    7.200    0.667    0.000    3.200    0.000    0.000 
#    0.000    0.000    0.000    0.000    0.000    0.000 
#
# Total GULP energy -167429.858668 kJ/mol
# GULP energy per Si atom -5580.995289 kJ/mol
# Density = 1.956690 g / cm^3
# Si number density = 19.611539 Si / 1000 Ang^3
#
#
#
# Elastic Constant Matrix: (Units=GPa)
#
#
# Indices 1 2 3 4 5 6 
#
# 1 59.1660 52.6949 18.1690 0.0000 0.0000 0.0000
# 2 52.6949 73.5688 12.0443 0.0000 0.0000 0.0000
# 3 18.1690 12.0443 48.7491 0.0000 0.0000 0.0000
# 4 0.0000 0.0000 0.0000 15.8545 0.0000 0.0000
# 5 0.0000 0.0000 0.0000 0.0000 14.0954 0.0000
# 6 0.0000 0.0000 0.0000 0.0000 0.0000 7.9452
#
#
#
# Elastic Compliance Matrix: (Units=1/GPa)
#
#
# Indices 1 2 3 4 5 6 
#
# 1 0.051346 -0.035062 -0.010474 0.000000 0.000000 0.000000
# 2 -0.035062 0.038109 0.003652 0.000000 0.000000 0.000000
# 3 -0.010474 0.003652 0.023514 0.000000 0.000000 0.000000
# 4 0.000000 0.000000 0.000000 0.063074 0.000000 0.000000
# 5 0.000000 0.000000 0.000000 0.000000 0.070945 0.000000
# 6 0.000000 0.000000 0.000000 0.000000 0.000000 0.125863
#
#
# Mechanical properties :
#
#
# Convention : Reuss Voigt Hill
#
# Bulk Modulus (GPa) = 34.24528 38.58891 36.41710
# Shear Modulus (GPa) = 10.72152 14.15072 12.43612
#
# Velocity S-wave (km/s) = 2.34069 2.68908 2.52091
# Velocity P-wave (km/s) = 4.98044 5.41857 5.20412
#
# Compressibility (1/GPa) = 0.02920111
#
# Stress axis : x y z
#
# Youngs Moduli (GPa) = 19.47588 26.24064 42.52703
#
# Poissons Ratio (x) = 0.92006 0.44543
# Poissons Ratio (y) = 0.68287 -0.15533
# Poissons Ratio (z) = 0.20399 -0.09584
#
# Static dielectric constant tensor:
#      x y z
#    x 1.680360 0.000000 0.000000 
#    y 0.000000 1.687830 0.000000 
#    z 0.000000 0.000000 1.718650 
# 
# From -- ./inp_files/2532.got.cif
#   From: 2010.05.17/outbox.cif.g08.bks.cpg/sg45_2_cif.got.tgz:2532.got - 2010.06.03 19:51:22.
