data_PCOD9376716
_publ_section_title
;
Structure prediction by ZEFSAII (Michael W. Deem and Ramdas Pophale) SiO2 
 PCOD9376716
Probable space group: I B A 2
;
_chemical_formula_sum "Si O2"
_cell_formula_units_Z 64
_cell_length_a 11.110537
_cell_length_b 23.718030
_cell_length_c 10.970589
_cell_angle_alpha 90.000000
_cell_angle_beta 90.000000
_cell_angle_gamma 90.000000
_cell_volume 2890.970161
_symmetry_space_group_name_H-M "I B A 2"
_symmetry_group_IT_number 45
_symmetry_cell_setting 'orthorhombic'
loop_
_space_group_symop_operation_xyz
x,y,z
-x,-y,z
-x,y,1/2+z
x,-y,1/2+z
1/2+x,1/2+y,1/2+z
1/2-x,1/2-y,1/2+z
1/2-x,1/2+y,z
1/2+x,1/2-y,z
loop_
_atom_site_type_symbol
_atom_site_label
_atom_site_fract_x
_atom_site_fract_y
_atom_site_fract_z
Si Si1 0.636021 0.524983 0.794870
Si Si2 0.559602 0.712158 0.762162
Si Si3 0.129307 0.033003 0.564643
Si Si4 0.667630 0.350943 0.683581
Si Si5 0.057599 0.323871 0.822006
Si Si6 0.772922 0.130525 0.661547
Si Si7 0.820825 0.361113 0.915320
Si Si8 0.764291 0.769213 0.475069
O O1 0.500000 0.500000 0.804284
O O2 0.695626 0.490484 0.684568
O O3 0.648175 0.587802 0.742377
O O4 0.685264 0.524050 0.931680
O O5 0.441329 0.675021 0.759262
O O6 0.520364 0.777079 0.749267
O O7 0.646698 0.687380 0.658451
O O8 0.633087 0.704802 0.886223
O O9 0.121878 0.099438 0.594621
O O10 0.000000 0.000000 0.562084
O O11 0.760001 0.372163 0.785599
O O12 0.718905 0.299257 0.604109
O O13 0.149647 0.355330 0.732806
O O14 0.138111 0.288002 0.916633
O O15 0.963869 0.363192 0.893932
O O16 0.739151 0.106682 0.528795
O O17 0.792582 0.296506 0.956449
#
# Coordination Sequence:
#
# PCOD9376716 Si02
#       8
#     8   8   8   8   8   8   8   8
#     4  10  22  44  69 102 137 173 225 299 373 433
#     4  10  21  38  61  92 138 183 233 287 352 424
#     4  10  22  40  68  99 140 174 224 291 367 430
#     4  12  24  40  67 102 139 188 239 298 372 429
#     4  10  22  43  62  93 136 192 237 288 348 425
#     4  11  24  42  68 100 140 185 233 299 369 422
#     4  11  26  38  66  99 139 191 245 288 350 444
#     4  10  23  41  61  93 140 192 239 293 352 419
#
# _framework density 22.137896000000001
#
# number of rings (size 3 to 8) (size 9 to 14) (size 15 to 20)
#    0.000    1.500    1.250    3.750    8.750    1.000 
#    2.250    0.000    0.000    0.750    0.000    0.000 
#    0.000    0.000    0.000    0.000    0.000    0.000 
#
# Total GULP energy -178617.918892 kJ/mol
# GULP energy per Si atom -5581.809965 kJ/mol
# Density = 2.208751 g / cm^3
# Si number density = 22.137896 Si / 1000 Ang^3
#
#
#
# Elastic Constant Matrix: (Units=GPa)
#
#
# Indices 1 2 3 4 5 6 
#
# 1 89.2537 11.3962 24.4345 0.0000 0.0000 0.0000
# 2 11.3962 84.4887 20.6641 0.0000 0.0000 0.0000
# 3 24.4345 20.6641 108.3012 0.0001 -0.0001 0.0000
# 4 0.0000 0.0000 0.0001 27.2353 0.0000 0.0000
# 5 0.0000 0.0000 -0.0001 0.0000 19.4809 0.0000
# 6 0.0000 0.0000 0.0000 0.0000 0.0000 21.7840
#
#
#
# Elastic Compliance Matrix: (Units=1/GPa)
#
#
# Indices 1 2 3 4 5 6 
#
# 1 0.012022 -0.001005 -0.002521 0.000000 0.000000 0.000000
# 2 -0.001005 0.012499 -0.002158 0.000000 0.000000 0.000000
# 3 -0.002521 -0.002158 0.010214 0.000000 0.000000 0.000000
# 4 0.000000 0.000000 0.000000 0.036717 0.000000 0.000000
# 5 0.000000 0.000000 0.000000 0.000000 0.051332 0.000000
# 6 0.000000 0.000000 0.000000 0.000000 0.000000 0.045905
#
#
# Mechanical properties :
#
#
# Convention : Reuss Voigt Hill
#
# Bulk Modulus (GPa) = 42.79380 43.89257 43.34319
# Shear Modulus (GPa) = 26.61734 28.73664 27.67699
#
# Velocity S-wave (km/s) = 3.47124 3.60679 3.53966
# Velocity P-wave (km/s) = 5.95303 6.10042 6.02718
#
# Compressibility (1/GPa) = 0.02336787
#
# Stress axis : x y z
#
# Youngs Moduli (GPa) = 83.17790 80.00444 97.90497
#
# Poissons Ratio (x) = 0.08041 0.24679
# Poissons Ratio (y) = 0.08360 0.21129
# Poissons Ratio (z) = 0.20966 0.17266
#
# Static dielectric constant tensor:
#      x y z
#    x 1.792170 0.000000 0.000000 
#    y 0.000000 1.911420 0.000000 
#    z 0.000000 0.000000 1.891480 
# 
# From -- ./inp_files/3893.got.cif
#   From: 2010.05.17/outbox.cif.g08.bks.cpg/sg45_2_cif.got.tgz:3893.got - 2010.06.03 19:51:22.
