data_PCOD9376508
_publ_section_title
;
Structure prediction by ZEFSAII (Michael W. Deem and Ramdas Pophale) SiO2 
 PCOD9376508
Probable space group: I B A 2
;
_chemical_formula_sum "Si O2"
_cell_formula_units_Z 52
_cell_length_a 5.192897
_cell_length_b 27.803914
_cell_length_c 16.836139
_cell_angle_alpha 90.000000
_cell_angle_beta 90.000000
_cell_angle_gamma 90.000000
_cell_volume 2430.849927
_symmetry_space_group_name_H-M "I B A 2"
_symmetry_group_IT_number 45
_symmetry_cell_setting 'orthorhombic'
loop_
_space_group_symop_operation_xyz
x,y,z
-x,-y,z
-x,y,1/2+z
x,-y,1/2+z
1/2+x,1/2+y,1/2+z
1/2-x,1/2-y,1/2+z
1/2-x,1/2+y,z
1/2+x,1/2-y,z
loop_
_atom_site_type_symbol
_atom_site_label
_atom_site_fract_x
_atom_site_fract_y
_atom_site_fract_z
Si Si1 0.500000 0.500000 0.151240
Si Si2 0.671814 0.084090 0.116558
Si Si3 0.810056 0.579937 0.743800
Si Si4 0.667036 0.867947 0.999195
Si Si5 0.064440 0.834580 0.639864
Si Si6 0.531635 0.278259 0.791635
Si Si7 0.834944 0.132031 0.895696
O O1 0.661038 0.537549 0.099050
O O2 0.323745 0.533308 0.207281
O O3 0.598949 0.078101 0.209845
O O4 0.819513 0.134609 0.111173
O O5 0.433475 0.089160 0.056828
O O6 0.707439 0.627133 0.697147
O O7 0.754756 0.590465 0.834757
O O8 0.422215 0.855058 0.945149
O O9 0.919394 0.881944 0.949220
O O10 0.761777 0.827126 0.061999
O O11 0.993995 0.791727 0.698285
O O12 0.825115 0.263754 0.807801
O O13 0.439817 0.322830 0.844921
#
# Coordination Sequence:
#
# PCOD9376508 Si02
#       7
#     4   8   8   8   8   8   8
#     4  10  20  38  64 102 126 164 228 284 310 374
#     4  10  20  40  68  98 126 174 226 268 322 385
#     4   9  21  36  67  89 127 168 221 265 319 382
#     4  11  22  41  67  93 129 175 215 265 320 408
#     4   9  21  40  66  93 121 170 222 261 324 385
#     4  11  25  42  66  97 129 166 222 279 319 381
#     4  11  24  41  67  94 135 177 217 257 341 400
#
# _framework density 21.391694999999999
#
# number of rings (size 3 to 8) (size 9 to 14) (size 15 to 20)
#    0.000    1.846    1.538    1.385   12.923    0.000 
#    0.000    5.385    6.769    0.000    0.000    0.000 
#    0.000    0.000    0.000    0.000    0.000    0.000 
#
# Total GULP energy -144978.628780 kJ/mol
# GULP energy per Si atom -5576.101107 kJ/mol
# Density = 2.134301 g / cm^3
# Si number density = 21.391695 Si / 1000 Ang^3
#
#
#
# Elastic Constant Matrix: (Units=GPa)
#
#
# Indices 1 2 3 4 5 6 
#
# 1 104.8731 10.3762 48.8900 0.0000 0.0000 0.0000
# 2 10.3762 41.9963 17.1693 0.0000 0.0000 0.0000
# 3 48.8900 17.1693 114.2933 0.0000 0.0000 0.0000
# 4 0.0000 0.0000 0.0000 12.1164 0.0000 0.0000
# 5 0.0000 0.0000 0.0000 0.0000 29.2332 0.0000
# 6 0.0000 0.0000 0.0000 0.0000 0.0000 20.7338
#
#
#
# Elastic Compliance Matrix: (Units=1/GPa)
#
#
# Indices 1 2 3 4 5 6 
#
# 1 0.011944 -0.000919 -0.004971 0.000000 0.000000 0.000000
# 2 -0.000919 0.025440 -0.003429 0.000000 0.000000 0.000000
# 3 -0.004971 -0.003429 0.011391 0.000000 0.000000 0.000000
# 4 0.000000 0.000000 0.000000 0.082533 0.000000 0.000000
# 5 0.000000 0.000000 0.000000 0.000000 0.034208 0.000000
# 6 0.000000 0.000000 0.000000 0.000000 0.000000 0.048230
#
#
# Mechanical properties :
#
#
# Convention : Reuss Voigt Hill
#
# Bulk Modulus (GPa) = 33.18061 46.00374 39.59217
# Shear Modulus (GPa) = 20.62461 24.73181 22.67821
#
# Velocity S-wave (km/s) = 3.10843 3.40390 3.25951
# Velocity P-wave (km/s) = 5.33177 6.08283 5.71964
#
# Compressibility (1/GPa) = 0.03013809
#
# Stress axis : x y z
#
# Youngs Moduli (GPa) = 83.72669 39.30766 87.78955
#
# Poissons Ratio (x) = 0.03611 0.43640
# Poissons Ratio (y) = 0.07692 0.30101
# Poissons Ratio (z) = 0.41620 0.13477
#
# Static dielectric constant tensor:
#      x y z
#    x 1.885120 0.000000 0.000000 
#    y 0.000000 1.765150 0.000000 
#    z 0.000000 0.000000 1.834420 
# 
# From -- ./inp_files/7322.got.cif
#   From: 2010.05.17/outbox.cif.g08.bks.cpg/sg45_4_cif.got.tgz:7322.got - 2010.06.03 19:51:22.
