data_PCOD9376117
_publ_section_title
;
Structure prediction by ZEFSAII (Michael W. Deem and Ramdas Pophale) SiO2 
 PCOD9376117
Probable space group: I B A 2
;
_chemical_formula_sum "Si O2"
_cell_formula_units_Z 64
_cell_length_a 12.015558
_cell_length_b 31.366325
_cell_length_c 8.746452
_cell_angle_alpha 90.000000
_cell_angle_beta 90.000000
_cell_angle_gamma 90.000000
_cell_volume 3296.396917
_symmetry_space_group_name_H-M "I B A 2"
_symmetry_group_IT_number 45
_symmetry_cell_setting 'orthorhombic'
loop_
_space_group_symop_operation_xyz
x,y,z
-x,-y,z
-x,y,1/2+z
x,-y,1/2+z
1/2+x,1/2+y,1/2+z
1/2-x,1/2-y,1/2+z
1/2-x,1/2+y,z
1/2+x,1/2-y,z
loop_
_atom_site_type_symbol
_atom_site_label
_atom_site_fract_x
_atom_site_fract_y
_atom_site_fract_z
Si Si1 0.156202 0.280245 0.633370
Si Si2 0.961626 0.705110 0.320232
Si Si3 0.393177 0.700658 0.211571
Si Si4 0.202537 0.440903 0.452675
Si Si5 0.123336 0.182554 0.563035
Si Si6 0.678298 0.985808 0.228702
Si Si7 0.185198 0.372303 0.204165
Si Si8 0.063311 0.444154 0.010099
O O1 0.074819 0.293350 0.495940
O O2 0.277181 0.300728 0.621931
O O3 0.166027 0.229163 0.620086
O O4 0.093539 0.294099 0.788410
O O5 0.920303 0.749351 0.243774
O O6 0.900337 0.664869 0.248808
O O7 0.497050 0.680594 0.124093
O O8 0.378112 0.681633 0.380101
O O9 0.248408 0.454859 0.618154
O O10 0.234908 0.480048 0.340922
O O11 0.221380 0.398471 0.355994
O O12 0.068837 0.439388 0.488895
O O13 0.205727 0.147765 0.629588
O O14 0.606470 0.956416 0.341722
O O15 0.606489 0.017531 0.119804
O O16 0.120968 0.403357 0.086350
#
# Coordination Sequence:
#
# PCOD9376117 Si02
#       8
#     8   8   8   8   8   8   8   8
#     4  10  22  39  63  81 111 161 207 256 316 377
#     4  10  23  37  57  86 118 151 208 255 315 373
#     4  10  22  41  65  78 107 166 214 258 312 369
#     4  10  18  30  52  79 116 162 190 234 294 358
#     4  10  23  40  59  84 112 151 217 262 310 369
#     4   9  16  32  52  76 113 163 205 218 271 396
#     4  11  23  35  49  84 127 150 194 267 305 352
#     4  10  18  30  52  78 118 161 195 232 300 356
#
# _framework density 19.415137999999999
#
# number of rings (size 3 to 8) (size 9 to 14) (size 15 to 20)
#    0.000    2.000    1.250    3.750    5.250    2.000 
#    2.250    0.000    0.000    0.000    0.000    0.000 
#    0.000   48.000    0.000   16.000    0.000    0.000 
#
# Total GULP energy -178504.544298 kJ/mol
# GULP energy per Si atom -5578.267009 kJ/mol
# Density = 1.937095 g / cm^3
# Si number density = 19.415138 Si / 1000 Ang^3
#
#
#
# Elastic Constant Matrix: (Units=GPa)
#
#
# Indices 1 2 3 4 5 6 
#
# 1 58.4244 12.3854 14.5635 -0.0002 0.0001 0.0001
# 2 12.3854 72.1386 31.0553 -0.0001 0.0003 -0.0001
# 3 14.5635 31.0553 94.9319 0.0006 -0.0001 -0.0006
# 4 -0.0002 -0.0001 0.0006 34.9599 0.0000 -0.0003
# 5 0.0001 0.0003 -0.0001 0.0000 13.5579 0.0002
# 6 0.0001 -0.0001 -0.0006 -0.0003 0.0002 15.9851
#
#
#
# Elastic Compliance Matrix: (Units=1/GPa)
#
#
# Indices 1 2 3 4 5 6 
#
# 1 0.018099 -0.002225 -0.002048 0.000000 0.000000 0.000000
# 2 -0.002225 0.016408 -0.005026 0.000000 0.000000 0.000000
# 3 -0.002048 -0.005026 0.012492 0.000000 0.000000 0.000000
# 4 0.000000 0.000000 0.000000 0.028604 0.000000 0.000001
# 5 0.000000 0.000000 0.000000 0.000000 0.073758 -0.000001
# 6 0.000000 0.000000 0.000000 0.000001 -0.000001 0.062558
#
#
# Mechanical properties :
#
#
# Convention : Reuss Voigt Hill
#
# Bulk Modulus (GPa) = 35.21290 37.94480 36.57885
# Shear Modulus (GPa) = 20.83459 24.06663 22.45061
#
# Velocity S-wave (km/s) = 3.27939 3.52459 3.40420
# Velocity P-wave (km/s) = 5.70223 6.01248 5.85941
#
# Compressibility (1/GPa) = 0.02839868
#
# Stress axis : x y z
#
# Youngs Moduli (GPa) = 55.25304 60.94568 80.04893
#
# Poissons Ratio (x) = 0.13563 0.16398
# Poissons Ratio (y) = 0.12296 0.40234
# Poissons Ratio (z) = 0.11318 0.30633
#
# Static dielectric constant tensor:
#      x y z
#    x 1.669000 0.000000 0.000000 
#    y 0.000000 1.707380 0.000000 
#    z 0.000000 0.000000 1.753500 
# 
# From -- ./inp_files/1516.got.cif
#   From: 2010.05.17/outbox.cif.g08.bks.cpg/sg45_1_cif.got.tgz:1516.got - 2010.06.03 19:51:22.
