data_PCOD9376103
_publ_section_title
;
Structure prediction by ZEFSAII (Michael W. Deem and Ramdas Pophale) SiO2 
 PCOD9376103
Probable space group: I B A 2
;
_chemical_formula_sum "Si O2"
_cell_formula_units_Z 40
_cell_length_a 15.588605
_cell_length_b 8.924528
_cell_length_c 13.977389
_cell_angle_alpha 90.000000
_cell_angle_beta 90.000000
_cell_angle_gamma 90.000000
_cell_volume 1944.547522
_symmetry_space_group_name_H-M "I B A 2"
_symmetry_group_IT_number 45
_symmetry_cell_setting 'orthorhombic'
loop_
_space_group_symop_operation_xyz
x,y,z
-x,-y,z
-x,y,1/2+z
x,-y,1/2+z
1/2+x,1/2+y,1/2+z
1/2-x,1/2-y,1/2+z
1/2-x,1/2+y,z
1/2+x,1/2-y,z
loop_
_atom_site_type_symbol
_atom_site_label
_atom_site_fract_x
_atom_site_fract_y
_atom_site_fract_z
Si Si1 0.053629 0.704578 0.501100
Si Si2 0.806884 0.143040 0.386704
Si Si3 0.373231 0.146143 0.694900
Si Si4 0.245675 0.392078 0.745815
Si Si5 0.387773 0.117545 0.918875
O O1 0.116476 0.832999 0.460672
O O2 0.057932 0.672422 0.613768
O O3 0.089843 0.549573 0.454450
O O4 0.956065 0.724437 0.469192
O O5 0.810162 0.278254 0.309722
O O6 0.712271 0.152836 0.434621
O O7 0.798725 0.994367 0.321667
O O8 0.310482 0.288591 0.688896
O O9 0.402952 0.131620 0.804603
O O10 0.313996 0.999079 0.682798
#
# Coordination Sequence:
#
# PCOD9376103 Si02
#       5
#     8   8   8   8   8
#     4  11  21  35  65  88 120 164 206 247 298 371
#     4  10  17  39  60  82 121 163 190 249 306 353
#     4  10  20  37  59  94 119 157 208 248 303 364
#     4   8  18  35  59  83 121 156 193 247 304 351
#     4   9  22  39  54  93 121 157 200 253 299 360
#
# _framework density 20.570336999999999
#
# number of rings (size 3 to 8) (size 9 to 14) (size 15 to 20)
#    0.000    2.800    4.000    0.000    2.800    3.200 
#    0.000    4.000    0.000    4.800    0.000    0.000 
#    0.000    0.000    0.000    0.000    0.000    0.000 
#
# Total GULP energy -111500.173448 kJ/mol
# GULP energy per Si atom -5575.008672 kJ/mol
# Density = 2.052352 g / cm^3
# Si number density = 20.570337 Si / 1000 Ang^3
#
#
#
# Elastic Constant Matrix: (Units=GPa)
#
#
# Indices 1 2 3 4 5 6 
#
# 1 66.7810 -13.9570 -7.2140 0.0000 0.0000 0.0000
# 2 -13.9570 53.2416 -13.9131 0.0000 0.0000 0.0000
# 3 -7.2140 -13.9131 48.2221 0.0000 0.0000 0.0000
# 4 0.0000 0.0000 0.0000 8.4267 0.0000 0.0000
# 5 0.0000 0.0000 0.0000 0.0000 24.2177 0.0000
# 6 0.0000 0.0000 0.0000 0.0000 0.0000 19.8529
#
#
#
# Elastic Compliance Matrix: (Units=1/GPa)
#
#
# Indices 1 2 3 4 5 6 
#
# 1 0.016535 0.005387 0.004028 0.000000 0.000000 0.000000
# 2 0.005387 0.022069 0.007173 0.000000 0.000000 0.000000
# 3 0.004028 0.007173 0.023410 0.000000 0.000000 0.000000
# 4 0.000000 0.000000 0.000000 0.118670 0.000000 0.000000
# 5 0.000000 0.000000 0.000000 0.000000 0.041292 0.000000
# 6 0.000000 0.000000 0.000000 0.000000 0.000000 0.050371
#
#
# Mechanical properties :
#
#
# Convention : Reuss Voigt Hill
#
# Bulk Modulus (GPa) = 10.50514 10.89737 10.70126
# Shear Modulus (GPa) = 18.45698 24.05470 21.25584
#
# Velocity S-wave (km/s) = 2.99868 3.42334 3.21802
# Velocity P-wave (km/s) = 4.13612 4.57546 4.36132
#
# Compressibility (1/GPa) = 0.09519148
#
# Stress axis : x y z
#
# Youngs Moduli (GPa) = 60.47641 45.31221 42.71740
#
# Poissons Ratio (x) = -0.24411 -0.17207
# Poissons Ratio (y) = -0.32580 -0.30643
# Poissons Ratio (z) = -0.24360 -0.32504
#
# Static dielectric constant tensor:
#      x y z
#    x 1.747230 0.000000 0.000000 
#    y 0.000000 1.772570 0.000000 
#    z 0.000000 0.000000 1.744040 
# 
# From -- ./inp_files/5525.got.cif
#   From: 2010.05.17/outbox.cif.g08.bks.cpg/sg45_3_cif.got.tgz:5525.got - 2010.06.03 19:51:22.
