data_PCOD9376845
_publ_section_title
;
Structure prediction by ZEFSAII (Michael W. Deem and Ramdas Pophale) SiO2 
 PCOD9376845
Probable space group: I B A 2
;
_chemical_formula_sum "Si O2"
_cell_formula_units_Z 64
_cell_length_a 30.675447
_cell_length_b 10.674530
_cell_length_c 9.128166
_cell_angle_alpha 90.000000
_cell_angle_beta 90.000000
_cell_angle_gamma 90.000000
_cell_volume 2988.981255
_symmetry_space_group_name_H-M "I B A 2"
_symmetry_group_IT_number 45
_symmetry_cell_setting 'orthorhombic'
loop_
_space_group_symop_operation_xyz
x,y,z
-x,-y,z
-x,y,1/2+z
x,-y,1/2+z
1/2+x,1/2+y,1/2+z
1/2-x,1/2-y,1/2+z
1/2-x,1/2+y,z
1/2+x,1/2-y,z
loop_
_atom_site_type_symbol
_atom_site_label
_atom_site_fract_x
_atom_site_fract_y
_atom_site_fract_z
Si Si1 0.510379 0.717877 0.595130
Si Si2 0.133019 0.014540 0.827160
Si Si3 0.073801 0.350802 0.647619
Si Si4 0.721478 0.379527 0.952431
Si Si5 0.756160 0.143951 0.118416
Si Si6 0.955250 0.450019 0.412245
Si Si7 0.039744 0.928616 0.837579
Si Si8 0.148374 0.167908 0.550084
O O1 0.469198 0.770121 0.686437
O O2 0.532404 0.828565 0.504507
O O3 0.483851 0.631734 0.477916
O O4 0.547237 0.670402 0.708239
O O5 0.170618 0.096908 0.905989
O O6 0.137083 0.050282 0.657559
O O7 0.081521 0.014610 0.867936
O O8 0.145632 0.876301 0.882881
O O9 0.059431 0.443168 0.521570
O O10 0.082264 0.424323 0.795838
O O11 0.112587 0.267442 0.591623
O O12 0.746787 0.370900 0.794972
O O13 0.725440 0.249054 0.042928
O O14 0.738752 0.504622 0.041487
O O15 0.803410 0.206567 0.089365
O O16 0.000000 0.500000 0.337643
O O17 0.000000 0.000000 0.761879
#
# Coordination Sequence:
#
# PCOD9376845 Si02
#       8
#     8   8   8   8   8   8   8   8
#     4  11  22  37  58  84 122 172 224 273 326 390
#     4  10  23  39  62  93 133 171 217 278 341 395
#     4  11  21  39  56  84 122 167 220 277 327 387
#     4  10  21  42  71 104 137 184 225 291 352 434
#     4  10  21  41  72 103 138 175 231 277 359 431
#     4  10  22  36  59  82 117 171 230 275 327 382
#     4  12  24  36  58  91 128 175 221 271 327 393
#     4  10  22  40  62  94 130 167 213 279 340 411
#
# _framework density 21.411977
#
# number of rings (size 3 to 8) (size 9 to 14) (size 15 to 20)
#    0.000    1.500    2.500    3.000    3.500    1.000 
#    0.000    3.750    0.000    0.000    0.000    0.000 
#    0.000    0.000    0.000    0.000    0.000    0.000 
#
# Total GULP energy -178257.818375 kJ/mol
# GULP energy per Si atom -5570.556824 kJ/mol
# Density = 2.136324 g / cm^3
# Si number density = 21.411977 Si / 1000 Ang^3
#
#
#
# Elastic Constant Matrix: (Units=GPa)
#
#
# Indices 1 2 3 4 5 6 
#
# 1 74.8746 29.5523 17.6459 0.0000 0.0000 0.0000
# 2 29.5523 85.4197 50.3275 0.0000 0.0000 0.0000
# 3 17.6459 50.3275 102.7959 0.0000 0.0000 0.0000
# 4 0.0000 0.0000 0.0000 32.7051 0.0000 0.0000
# 5 0.0000 0.0000 0.0000 0.0000 11.7390 0.0000
# 6 0.0000 0.0000 0.0000 0.0000 0.0000 30.2081
#
#
#
# Elastic Compliance Matrix: (Units=1/GPa)
#
#
# Indices 1 2 3 4 5 6 
#
# 1 0.015468 -0.005322 -0.000050 0.000000 0.000000 0.000000
# 2 -0.005322 0.018284 -0.008038 0.000000 0.000000 0.000000
# 3 -0.000050 -0.008038 0.013672 0.000000 0.000000 0.000000
# 4 0.000000 0.000000 0.000000 0.030576 0.000000 0.000000
# 5 0.000000 0.000000 0.000000 0.000000 0.085186 0.000000
# 6 0.000000 0.000000 0.000000 0.000000 0.000000 0.033104
#
#
# Mechanical properties :
#
#
# Convention : Reuss Voigt Hill
#
# Bulk Modulus (GPa) = 48.53355 50.90463 49.71909
# Shear Modulus (GPa) = 21.74128 25.96808 23.85468
#
# Velocity S-wave (km/s) = 3.18996 3.48628 3.34141
# Velocity P-wave (km/s) = 6.02358 6.32701 6.17716
#
# Compressibility (1/GPa) = 0.02060430
#
# Stress axis : x y z
#
# Youngs Moduli (GPa) = 64.64977 54.69255 73.14310
#
# Poissons Ratio (x) = 0.29108 0.00362
# Poissons Ratio (y) = 0.34408 0.58793
# Poissons Ratio (z) = 0.00320 0.43962
#
# Static dielectric constant tensor:
#      x y z
#    x 1.844130 0.000000 0.000000 
#    y 0.000000 2.011750 0.000000 
#    z 0.000000 0.000000 1.839960 
# 
# From -- ./inp_files/2777.got.cif
#   From: 2010.05.17/outbox.cif.g08.bks.cpg/sg45_2_cif.got.tgz:2777.got - 2010.06.03 19:51:22.
