data_PCOD9376182
_publ_section_title
;
Structure prediction by ZEFSAII (Michael W. Deem and Ramdas Pophale) SiO2 
 PCOD9376182
Probable space group: I B A 2
;
_chemical_formula_sum "Si O2"
_cell_formula_units_Z 36
_cell_length_a 7.810907
_cell_length_b 22.286448
_cell_length_c 8.438007
_cell_angle_alpha 90.000000
_cell_angle_beta 90.000000
_cell_angle_gamma 90.000000
_cell_volume 1468.866089
_symmetry_space_group_name_H-M "I B A 2"
_symmetry_group_IT_number 45
_symmetry_cell_setting 'orthorhombic'
loop_
_space_group_symop_operation_xyz
x,y,z
-x,-y,z
-x,y,1/2+z
x,-y,1/2+z
1/2+x,1/2+y,1/2+z
1/2-x,1/2-y,1/2+z
1/2-x,1/2+y,z
1/2+x,1/2-y,z
loop_
_atom_site_type_symbol
_atom_site_label
_atom_site_fract_x
_atom_site_fract_y
_atom_site_fract_z
Si Si1 0.000000 0.000000 0.738180
Si Si2 0.310855 0.823279 0.039233
Si Si3 0.317438 0.428674 0.483120
Si Si4 0.416695 0.306117 0.524995
Si Si5 0.876279 0.363648 0.217502
O O1 0.049524 0.946421 0.621945
O O2 0.844222 0.978051 0.849274
O O3 0.338294 0.872640 0.901256
O O4 0.383647 0.760699 0.966338
O O5 0.435864 0.838249 0.184195
O O6 0.113001 0.812927 0.072671
O O7 0.373072 0.363783 0.416775
O O8 0.150531 0.417421 0.590206
O O9 0.275606 0.318022 0.662314
#
# Coordination Sequence:
#
# PCOD9376182 Si02
#       5
#     4   8   8   8   8
#     4  10  18  38  72  86 124 166 216 282 312 380
#     4  12  23  40  65  93 141 167 213 254 321 391
#     4   9  21  39  62  99 119 168 221 258 333 365
#     4  10  23  38  61  96 129 170 209 256 317 388
#     4  10  26  39  62  97 127 173 211 258 320 384
#
# _framework density 24.508700999999999
#
# number of rings (size 3 to 8) (size 9 to 14) (size 15 to 20)
#    1.333    0.444    2.222    1.333    3.111    3.556 
#    0.000    0.000    0.000   22.667    0.000    0.000 
#    0.000    0.000    0.000    0.000    0.000    0.000 
#
# Total GULP energy -100309.506736 kJ/mol
# GULP energy per Si atom -5572.750374 kJ/mol
# Density = 2.445292 g / cm^3
# Si number density = 24.508701 Si / 1000 Ang^3
#
#
#
# Elastic Constant Matrix: (Units=GPa)
#
#
# Indices 1 2 3 4 5 6 
#
# 1 166.5217 4.2102 32.1452 -0.0001 0.0000 0.0000
# 2 4.2102 57.7590 6.2883 -0.0005 -0.0003 -0.0001
# 3 32.1452 6.2883 81.6247 -0.0024 -0.0019 -0.0008
# 4 -0.0001 -0.0005 -0.0024 18.8123 -0.0005 -0.0002
# 5 0.0000 -0.0003 -0.0019 -0.0005 25.6917 -0.0002
# 6 0.0000 -0.0001 -0.0008 -0.0002 -0.0002 20.4915
#
#
#
# Elastic Compliance Matrix: (Units=1/GPa)
#
#
# Indices 1 2 3 4 5 6 
#
# 1 0.006502 -0.000197 -0.002545 0.000000 0.000000 0.000000
# 2 -0.000197 0.017466 -0.001268 0.000000 0.000000 0.000000
# 3 -0.002545 -0.001268 0.013351 0.000002 0.000001 0.000001
# 4 0.000000 0.000000 0.000002 0.053157 0.000001 0.000001
# 5 0.000000 0.000000 0.000001 0.000001 0.038923 0.000000
# 6 0.000000 0.000000 0.000001 0.000001 0.000000 0.048801
#
#
# Mechanical properties :
#
#
# Convention : Reuss Voigt Hill
#
# Bulk Modulus (GPa) = 34.13165 43.46585 38.79875
# Shear Modulus (GPa) = 25.51212 30.54989 28.03101
#
# Velocity S-wave (km/s) = 3.22986 3.53440 3.38556
# Velocity P-wave (km/s) = 5.27882 5.86765 5.58101
#
# Compressibility (1/GPa) = 0.02929832
#
# Stress axis : x y z
#
# Youngs Moduli (GPa) = 153.80993 57.25501 74.89942
#
# Poissons Ratio (x) = 0.01127 0.19064
# Poissons Ratio (y) = 0.03027 0.09497
# Poissons Ratio (z) = 0.39148 0.07260
#
# Static dielectric constant tensor:
#      x y z
#    x 1.914590 0.000000 0.000000 
#    y 0.000000 1.989420 0.000000 
#    z 0.000000 0.000000 1.922940 
# 
# From -- ./inp_files/959.got.cif
#   From: 2010.05.17/outbox.cif.g08.bks.cpg/sg45_1_cif.got.tgz:959.got - 2010.06.03 19:51:22.
