data_PCOD9376436
_publ_section_title
;
Structure prediction by ZEFSAII (Michael W. Deem and Ramdas Pophale) SiO2 
 PCOD9376436
Probable space group: I B A 2
;
_chemical_formula_sum "Si O2"
_cell_formula_units_Z 56
_cell_length_a 19.152476
_cell_length_b 9.130892
_cell_length_c 16.898752
_cell_angle_alpha 90.000000
_cell_angle_beta 90.000000
_cell_angle_gamma 90.000000
_cell_volume 2955.240060
_symmetry_space_group_name_H-M "I B A 2"
_symmetry_group_IT_number 45
_symmetry_cell_setting 'orthorhombic'
loop_
_space_group_symop_operation_xyz
x,y,z
-x,-y,z
-x,y,1/2+z
x,-y,1/2+z
1/2+x,1/2+y,1/2+z
1/2-x,1/2-y,1/2+z
1/2-x,1/2+y,z
1/2+x,1/2-y,z
loop_
_atom_site_type_symbol
_atom_site_label
_atom_site_fract_x
_atom_site_fract_y
_atom_site_fract_z
Si Si1 0.792128 0.508321 0.267480
Si Si2 0.471486 0.661263 0.404512
Si Si3 0.709483 0.004720 0.083128
Si Si4 0.100790 0.345554 0.873394
Si Si5 0.283875 0.283846 0.482910
Si Si6 0.681895 0.686972 0.847833
Si Si7 0.567278 0.080911 0.510656
O O1 0.776838 0.490741 0.175364
O O2 0.856681 0.409491 0.299378
O O3 0.726441 0.450181 0.317666
O O4 0.807480 0.676186 0.288998
O O5 0.500000 0.500000 0.421207
O O6 0.529907 0.757547 0.358751
O O7 0.398792 0.652266 0.358386
O O8 0.454878 0.758570 0.482228
O O9 0.767448 0.935416 0.025160
O O10 0.635888 0.926550 0.063549
O O11 0.703720 0.170695 0.054087
O O12 0.151445 0.237800 0.923625
O O13 0.085334 0.483889 0.931668
O O14 0.216682 0.240442 0.430136
O O15 0.500000 0.000000 0.547256
#
# Coordination Sequence:
#
# PCOD9376436 Si02
#       7
#     8   8   8   8   8   8   8
#     4  11  23  38  61  90 123 159 201 253 309 363
#     4  11  22  35  63  92 115 152 209 257 294 350
#     4  11  21  37  60  90 119 157 194 257 306 361
#     4   9  20  37  60  83 118 157 199 246 299 363
#     4  10  20  36  63  85 113 156 204 245 300 358
#     4  11  22  40  61  89 120 158 207 249 297 363
#     4   9  18  39  57  83 117 154 201 248 295 366
#
# _framework density 18.949393000000001
#
# number of rings (size 3 to 8) (size 9 to 14) (size 15 to 20)
#    0.000    1.714    2.857    2.571    6.000    0.000 
#    2.571    0.000    0.000    0.857    0.000    0.000 
#    0.000    0.000    0.000    0.000    0.000    0.000 
#
# Total GULP energy -156325.755751 kJ/mol
# GULP energy per Si atom -5583.062705 kJ/mol
# Density = 1.890626 g / cm^3
# Si number density = 18.949393 Si / 1000 Ang^3
#
#
#
# Elastic Constant Matrix: (Units=GPa)
#
#
# Indices 1 2 3 4 5 6 
#
# 1 96.5919 22.9988 1.9017 0.0000 0.0000 0.0000
# 2 22.9988 86.0414 2.8081 0.0000 0.0000 0.0000
# 3 1.9017 2.8081 64.8527 0.0000 0.0000 0.0000
# 4 0.0000 0.0000 0.0000 18.3946 0.0000 0.0000
# 5 0.0000 0.0000 0.0000 0.0000 15.0732 0.0000
# 6 0.0000 0.0000 0.0000 0.0000 0.0000 30.0589
#
#
#
# Elastic Compliance Matrix: (Units=1/GPa)
#
#
# Indices 1 2 3 4 5 6 
#
# 1 0.011059 -0.002950 -0.000197 0.000000 0.000000 0.000000
# 2 -0.002950 0.012425 -0.000452 0.000000 0.000000 0.000000
# 3 -0.000197 -0.000452 0.015445 0.000000 0.000000 0.000000
# 4 0.000000 0.000000 0.000000 0.054364 0.000000 0.000000
# 5 0.000000 0.000000 0.000000 0.000000 0.066343 0.000000
# 6 0.000000 0.000000 0.000000 0.000000 0.000000 0.033268
#
#
# Mechanical properties :
#
#
# Convention : Reuss Voigt Hill
#
# Bulk Modulus (GPa) = 31.51206 33.65591 32.58399
# Shear Modulus (GPa) = 23.73294 27.35717 25.54506
#
# Velocity S-wave (km/s) = 3.54282 3.80372 3.67559
# Velocity P-wave (km/s) = 5.77937 6.09020 5.93682
#
# Compressibility (1/GPa) = 0.03173389
#
# Stress axis : x y z
#
# Youngs Moduli (GPa) = 90.42384 80.47969 64.74644
#
# Poissons Ratio (x) = 0.23739 0.01273
# Poissons Ratio (y) = 0.26672 0.02923
# Poissons Ratio (z) = 0.01777 0.03634
#
# Static dielectric constant tensor:
#      x y z
#    x 1.685760 0.000000 0.000000 
#    y 0.000000 1.682980 0.000000 
#    z 0.000000 0.000000 1.618000 
# 
# From -- ./inp_files/6948.got.cif
#   From: 2010.05.17/outbox.cif.g08.bks.cpg/sg45_4_cif.got.tgz:6948.got - 2010.06.03 19:51:22.
