data_PCOD9376505
_publ_section_title
;
Structure prediction by ZEFSAII (Michael W. Deem and Ramdas Pophale) SiO2 
 PCOD9376505
Probable space group: I B A 2
;
_chemical_formula_sum "Si O2"
_cell_formula_units_Z 48
_cell_length_a 9.456443
_cell_length_b 16.171667
_cell_length_c 14.988902
_cell_angle_alpha 90.000000
_cell_angle_beta 90.000000
_cell_angle_gamma 90.000000
_cell_volume 2292.199530
_symmetry_space_group_name_H-M "I B A 2"
_symmetry_group_IT_number 45
_symmetry_cell_setting 'orthorhombic'
loop_
_space_group_symop_operation_xyz
x,y,z
-x,-y,z
-x,y,1/2+z
x,-y,1/2+z
1/2+x,1/2+y,1/2+z
1/2-x,1/2-y,1/2+z
1/2-x,1/2+y,z
1/2+x,1/2-y,z
loop_
_atom_site_type_symbol
_atom_site_label
_atom_site_fract_x
_atom_site_fract_y
_atom_site_fract_z
Si Si1 0.085093 0.585544 0.489050
Si Si2 0.944255 0.908669 0.011651
Si Si3 0.171404 0.153766 0.379804
Si Si4 0.188347 0.309155 0.473946
Si Si5 0.986300 0.828285 0.200832
Si Si6 0.287690 0.190978 0.636929
O O1 0.200868 0.594797 0.410457
O O2 0.164789 0.610004 0.581382
O O3 0.000000 0.500000 0.492133
O O4 0.970594 0.658548 0.475936
O O5 0.952057 0.883837 0.114675
O O6 0.789186 0.888819 0.976133
O O7 0.000000 0.000000 0.998222
O O8 0.050778 0.852514 0.955308
O O9 0.220622 0.248619 0.391547
O O10 0.095861 0.138011 0.286649
O O11 0.230017 0.255678 0.561699
O O12 0.919584 0.737427 0.181977
O O13 0.156133 0.824788 0.202264
#
# Coordination Sequence:
#
# PCOD9376505 Si02
#       6
#     8   8   8   8   8   8
#     4  11  21  39  66  97 140 181 228 291 358 417
#     4  11  23  42  65  95 133 179 225 282 352 415
#     4  11  23  40  67  99 135 180 232 285 342 420
#     4  10  20  38  63  92 129 175 229 278 337 409
#     4  11  23  39  68  97 135 175 238 280 342 415
#     4  10  20  40  63  96 129 178 231 288 336 411
#
# _framework density 20.940584999999999
#
# number of rings (size 3 to 8) (size 9 to 14) (size 15 to 20)
#    0.000    1.333    5.000    3.000    4.667    0.667 
#    0.000    0.000    0.000    9.000    0.000    0.000 
#    0.000    0.000    0.000    0.000    0.000    0.000 
#
# Total GULP energy -134022.496667 kJ/mol
# GULP energy per Si atom -5584.270694 kJ/mol
# Density = 2.089292 g / cm^3
# Si number density = 20.940585 Si / 1000 Ang^3
#
#
#
# Elastic Constant Matrix: (Units=GPa)
#
#
# Indices 1 2 3 4 5 6 
#
# 1 136.9300 35.7080 54.2765 0.0000 0.0000 0.0000
# 2 35.7080 82.6018 38.8420 0.0000 0.0000 0.0000
# 3 54.2765 38.8420 100.4526 0.0000 0.0000 0.0000
# 4 0.0000 0.0000 0.0000 8.1277 0.0000 0.0000
# 5 0.0000 0.0000 0.0000 0.0000 25.0346 0.0000
# 6 0.0000 0.0000 0.0000 0.0000 0.0000 37.4486
#
#
#
# Elastic Compliance Matrix: (Units=1/GPa)
#
#
# Indices 1 2 3 4 5 6 
#
# 1 0.009579 -0.002086 -0.004369 0.000000 0.000000 0.000000
# 2 -0.002086 0.015251 -0.004770 0.000000 0.000000 0.000000
# 3 -0.004369 -0.004770 0.014160 0.000000 0.000000 0.000000
# 4 0.000000 0.000000 0.000000 0.123035 0.000000 0.000000
# 5 0.000000 0.000000 0.000000 0.000000 0.039945 0.000000
# 6 0.000000 0.000000 0.000000 0.000000 0.000000 0.026703
#
#
# Mechanical properties :
#
#
# Convention : Reuss Voigt Hill
#
# Bulk Modulus (GPa) = 60.46100 64.18195 62.32148
# Shear Modulus (GPa) = 19.48280 26.86604 23.17442
#
# Velocity S-wave (km/s) = 3.05353 3.58574 3.33028
# Velocity P-wave (km/s) = 6.43175 6.91805 6.67933
#
# Compressibility (1/GPa) = 0.01653959
#
# Stress axis : x y z
#
# Youngs Moduli (GPa) = 104.39676 65.56888 70.62219
#
# Poissons Ratio (x) = 0.13681 0.30854
# Poissons Ratio (y) = 0.21782 0.33685
# Poissons Ratio (z) = 0.45609 0.31275
#
# Static dielectric constant tensor:
#      x y z
#    x 1.797660 0.000000 0.000000 
#    y 0.000000 1.812430 0.000000 
#    z 0.000000 0.000000 1.750260 
# 
# From -- ./inp_files/5611.got.cif
#   From: 2010.05.17/outbox.cif.g08.bks.cpg/sg45_3_cif.got.tgz:5611.got - 2010.06.03 19:51:22.
