data_PCOD9376460
_publ_section_title
;
Structure prediction by ZEFSAII (Michael W. Deem and Ramdas Pophale) SiO2 
 PCOD9376460
Probable space group: I B A 2
;
_chemical_formula_sum "Si O2"
_cell_formula_units_Z 48
_cell_length_a 10.077280
_cell_length_b 15.913796
_cell_length_c 14.250674
_cell_angle_alpha 90.000000
_cell_angle_beta 90.000000
_cell_angle_gamma 90.000000
_cell_volume 2285.348927
_symmetry_space_group_name_H-M "I B A 2"
_symmetry_group_IT_number 45
_symmetry_cell_setting 'orthorhombic'
loop_
_space_group_symop_operation_xyz
x,y,z
-x,-y,z
-x,y,1/2+z
x,-y,1/2+z
1/2+x,1/2+y,1/2+z
1/2-x,1/2-y,1/2+z
1/2-x,1/2+y,z
1/2+x,1/2-y,z
loop_
_atom_site_type_symbol
_atom_site_label
_atom_site_fract_x
_atom_site_fract_y
_atom_site_fract_z
Si Si1 0.370880 0.036577 0.909860
Si Si2 0.779827 0.103274 0.661120
Si Si3 0.464337 0.372724 0.036313
Si Si4 0.555896 0.179044 0.552366
Si Si5 0.121013 0.045573 0.339273
Si Si6 0.184967 0.431270 0.097272
O O1 0.500000 0.000000 0.857514
O O2 0.232974 0.024969 0.857490
O O3 0.402621 0.124699 0.960046
O O4 0.348795 0.971287 0.995617
O O5 0.683941 0.173406 0.619240
O O6 0.823473 0.114874 0.768032
O O7 0.905860 0.094067 0.590981
O O8 0.698647 0.015290 0.658325
O O9 0.436223 0.415731 0.935582
O O10 0.481182 0.273022 0.025877
O O11 0.328956 0.389153 0.093726
O O12 0.434612 0.134037 0.607695
O O13 0.000000 0.000000 0.288394
#
# Coordination Sequence:
#
# PCOD9376460 Si02
#       6
#     8   8   8   8   8   8
#     4   8  17  34  55  80 111 151 196 236 286 349
#     4  11  22  39  60  86 120 160 204 243 289 356
#     4  11  21  38  61  87 123 158 194 248 304 352
#     4  10  20  37  61  86 117 157 196 246 305 350
#     4  11  22  37  61  89 117 158 205 243 289 355
#     4   9  18  35  58  82 112 156 199 236 288 352
#
# _framework density 21.003356
#
# number of rings (size 3 to 8) (size 9 to 14) (size 15 to 20)
#    0.000    2.000    0.000    7.000    0.000    1.333 
#    0.000   11.667    0.000    0.000    0.000    0.000 
#    0.000    0.000    0.000    0.000    0.000    0.000 
#
# Total GULP energy -133827.677324 kJ/mol
# GULP energy per Si atom -5576.153222 kJ/mol
# Density = 2.095555 g / cm^3
# Si number density = 21.003356 Si / 1000 Ang^3
#
#
#
# Elastic Constant Matrix: (Units=GPa)
#
#
# Indices 1 2 3 4 5 6 
#
# 1 120.1223 28.4703 23.0412 0.0000 0.0000 0.0000
# 2 28.4703 100.5267 8.5664 0.0000 0.0000 0.0000
# 3 23.0412 8.5664 63.3626 0.0000 0.0000 0.0000
# 4 0.0000 0.0000 0.0000 6.8872 0.0000 0.0000
# 5 0.0000 0.0000 0.0000 0.0000 7.2207 0.0000
# 6 0.0000 0.0000 0.0000 0.0000 0.0000 27.4091
#
#
#
# Elastic Compliance Matrix: (Units=1/GPa)
#
#
# Indices 1 2 3 4 5 6 
#
# 1 0.009499 -0.002424 -0.003127 0.000000 0.000000 0.000000
# 2 -0.002424 0.010682 -0.000563 0.000000 0.000000 0.000000
# 3 -0.003127 -0.000563 0.016995 0.000000 0.000000 0.000000
# 4 0.000000 0.000000 0.000000 0.145197 0.000000 0.000000
# 5 0.000000 0.000000 0.000000 0.000000 0.138491 0.000000
# 6 0.000000 0.000000 0.000000 0.000000 0.000000 0.036484
#
#
# Mechanical properties :
#
#
# Convention : Reuss Voigt Hill
#
# Bulk Modulus (GPa) = 40.08014 44.90747 42.49380
# Shear Modulus (GPa) = 13.23130 23.23230 18.23180
#
# Velocity S-wave (km/s) = 2.51263 3.32945 2.94945
# Velocity P-wave (km/s) = 5.24804 6.01729 5.64578
#
# Compressibility (1/GPa) = 0.02495001
#
# Stress axis : x y z
#
# Youngs Moduli (GPa) = 105.27392 93.61531 58.84015
#
# Poissons Ratio (x) = 0.22690 0.18397
# Poissons Ratio (y) = 0.25516 0.03311
# Poissons Ratio (z) = 0.32914 0.05268
#
# Static dielectric constant tensor:
#      x y z
#    x 1.818010 0.000000 0.000000 
#    y 0.000000 1.720230 0.000000 
#    z 0.000000 0.000000 1.796830 
# 
# From -- ./inp_files/5618.got.cif
#   From: 2010.05.17/outbox.cif.g08.bks.cpg/sg45_3_cif.got.tgz:5618.got - 2010.06.03 19:51:22.
