data_PCOD9376343
_publ_section_title
;
Structure prediction by ZEFSAII (Michael W. Deem and Ramdas Pophale) SiO2 
 PCOD9376343
Probable space group: I B A 2
;
_chemical_formula_sum "Si O2"
_cell_formula_units_Z 56
_cell_length_a 16.243212
_cell_length_b 12.864132
_cell_length_c 11.732028
_cell_angle_alpha 90.000000
_cell_angle_beta 90.000000
_cell_angle_gamma 90.000000
_cell_volume 2451.463837
_symmetry_space_group_name_H-M "I B A 2"
_symmetry_group_IT_number 45
_symmetry_cell_setting 'orthorhombic'
loop_
_space_group_symop_operation_xyz
x,y,z
-x,-y,z
-x,y,1/2+z
x,-y,1/2+z
1/2+x,1/2+y,1/2+z
1/2-x,1/2-y,1/2+z
1/2-x,1/2+y,z
1/2+x,1/2-y,z
loop_
_atom_site_type_symbol
_atom_site_label
_atom_site_fract_x
_atom_site_fract_y
_atom_site_fract_z
Si Si1 0.153065 0.118501 0.280310
Si Si2 0.046432 0.356567 0.892615
Si Si3 0.442387 0.659383 0.062458
Si Si4 0.315681 0.226488 0.242195
Si Si5 0.381525 0.070599 0.944571
Si Si6 0.120253 0.795622 0.030247
Si Si7 0.190644 0.917566 0.397040
O O1 0.086184 0.162751 0.193059
O O2 0.242010 0.146424 0.230162
O O3 0.146221 0.170961 0.404853
O O4 0.150467 0.996549 0.306748
O O5 0.100447 0.329585 0.782041
O O6 0.083396 0.455272 0.960338
O O7 0.952145 0.383984 0.858061
O O8 0.054047 0.261662 0.981544
O O9 0.539609 0.637272 0.060553
O O10 0.373726 0.587829 0.001344
O O11 0.317243 0.303266 0.134069
O O12 0.299589 0.302775 0.347706
O O13 0.285160 0.052373 0.921176
O O14 0.387155 0.168112 0.031185
#
# Coordination Sequence:
#
# PCOD9376343 Si02
#       7
#     8   8   8   8   8   8   8
#     4  12  26  45  72 105 139 191 237 298 364 431
#     4   9  21  43  72 102 139 181 232 291 367 426
#     4  10  26  47  70 100 146 186 233 303 353 429
#     4  11  24  44  69 102 142 182 228 304 358 424
#     4  10  19  43  70 103 134 178 236 286 355 431
#     4  11  26  46  70 102 142 185 243 296 359 432
#     4  11  24  44  71 102 138 183 241 286 363 435
#
# _framework density 22.843495000000001
#
# number of rings (size 3 to 8) (size 9 to 14) (size 15 to 20)
#    0.000    1.429    2.857    0.857   10.000    0.571 
#    5.143    1.429    0.000    0.000    0.000    0.000 
#    0.000    0.000    0.000    0.000    0.000    0.000 
#
# Total GULP energy -155902.337097 kJ/mol
# GULP energy per Si atom -5567.940611 kJ/mol
# Density = 2.279150 g / cm^3
# Si number density = 22.843495 Si / 1000 Ang^3
#
#
#
# Elastic Constant Matrix: (Units=GPa)
#
#
# Indices 1 2 3 4 5 6 
#
# 1 90.9154 -3.0098 27.1143 0.0000 0.0000 0.0000
# 2 -3.0098 48.1930 -4.3005 0.0000 0.0000 0.0000
# 3 27.1143 -4.3005 80.7768 0.0000 0.0000 0.0000
# 4 0.0000 0.0000 0.0000 16.9588 0.0000 0.0000
# 5 0.0000 0.0000 0.0000 0.0000 29.9580 0.0000
# 6 0.0000 0.0000 0.0000 0.0000 0.0000 29.3857
#
#
#
# Elastic Compliance Matrix: (Units=1/GPa)
#
#
# Indices 1 2 3 4 5 6 
#
# 1 0.012231 0.000399 -0.004084 0.000000 0.000000 0.000000
# 2 0.000399 0.020862 0.000977 0.000000 0.000000 0.000000
# 3 -0.004084 0.000977 0.013803 0.000000 0.000000 0.000000
# 4 0.000000 0.000000 0.000000 0.058966 0.000000 0.000000
# 5 0.000000 0.000000 0.000000 0.000000 0.033380 0.000000
# 6 0.000000 0.000000 0.000000 0.000000 0.000000 0.034030
#
#
# Mechanical properties :
#
#
# Convention : Reuss Voigt Hill
#
# Bulk Modulus (GPa) = 24.10865 28.83259 26.47062
# Shear Modulus (GPa) = 25.97208 28.59925 27.28567
#
# Velocity S-wave (km/s) = 3.37554 3.54215 3.45985
# Velocity P-wave (km/s) = 5.07633 5.42018 5.25107
#
# Compressibility (1/GPa) = 0.04147889
#
# Stress axis : x y z
#
# Youngs Moduli (GPa) = 81.76277 47.93409 72.44954
#
# Poissons Ratio (x) = -0.01914 0.29589
# Poissons Ratio (y) = -0.03265 -0.07075
# Poissons Ratio (z) = 0.33393 -0.04681
#
# Static dielectric constant tensor:
#      x y z
#    x 1.916820 0.000000 0.000000 
#    y 0.000000 1.889420 0.000000 
#    z 0.000000 0.000000 1.882860 
# 
# From -- ./inp_files/4135.got.cif
#   From: 2010.05.17/outbox.cif.g08.bks.cpg/sg45_3_cif.got.tgz:4135.got - 2010.06.03 19:51:22.
