data_PCOD9376294
_publ_section_title
;
Structure prediction by ZEFSAII (Michael W. Deem and Ramdas Pophale) SiO2 
 PCOD9376294
Probable space group: I B A 2
;
_chemical_formula_sum "Si O2"
_cell_formula_units_Z 60
_cell_length_a 18.041648
_cell_length_b 8.819065
_cell_length_c 15.767352
_cell_angle_alpha 90.000000
_cell_angle_beta 90.000000
_cell_angle_gamma 90.000000
_cell_volume 2508.750731
_symmetry_space_group_name_H-M "I B A 2"
_symmetry_group_IT_number 45
_symmetry_cell_setting 'orthorhombic'
loop_
_space_group_symop_operation_xyz
x,y,z
-x,-y,z
-x,y,1/2+z
x,-y,1/2+z
1/2+x,1/2+y,1/2+z
1/2-x,1/2-y,1/2+z
1/2-x,1/2+y,z
1/2+x,1/2-y,z
loop_
_atom_site_type_symbol
_atom_site_label
_atom_site_fract_x
_atom_site_fract_y
_atom_site_fract_z
Si Si1 0.481250 0.267349 0.213850
Si Si2 0.598705 0.959991 0.745552
Si Si3 0.652211 0.563657 0.268328
Si Si4 0.185461 0.592886 0.587903
Si Si5 0.237797 0.209354 0.355903
Si Si6 0.658791 0.449977 0.076331
Si Si7 0.852393 0.517323 0.428558
Si Si8 0.000000 0.000000 0.564076
O O1 0.561380 0.205094 0.239335
O O2 0.431149 0.367323 0.278387
O O3 0.492747 0.355158 0.126259
O O4 0.439500 0.107353 0.205704
O O5 0.671862 0.949234 0.686826
O O6 0.596136 0.989605 0.846094
O O7 0.712050 0.696799 0.287998
O O8 0.683289 0.419320 0.319303
O O9 0.647297 0.513364 0.171027
O O10 0.264829 0.533988 0.555246
O O11 0.174598 0.771762 0.579386
O O12 0.126421 0.507345 0.525933
O O13 0.192391 0.328555 0.411474
O O14 0.299319 0.124344 0.409564
O O15 0.582594 0.483058 0.024165
#
# Coordination Sequence:
#
# PCOD9376294 Si02
#       8
#     8   8   8   8   8   8   8   4
#     4  10  22  40  65 100 136 184 233 282 357 438
#     4  11  23  43  69  97 138 187 236 289 361 424
#     4  10  19  36  67 102 136 184 232 291 359 432
#     4  12  25  42  69 107 139 184 243 297 352 418
#     4  10  20  37  62  98 139 172 231 296 353 415
#     4  11  23  39  67 105 140 183 238 292 358 423
#     4  11  23  41  65 100 137 178 231 300 345 416
#     4  10  22  42  68 104 142 184 234 294 360 432
#
# _framework density 23.916285999999999
#
# number of rings (size 3 to 8) (size 9 to 14) (size 15 to 20)
#    0.000    1.333    2.667    4.000    5.600    0.000 
#    0.000    2.667    0.000    0.800    0.000    0.000 
#    0.000    0.000    0.000    0.000    0.000    0.000 
#
# Total GULP energy -167256.566524 kJ/mol
# GULP energy per Si atom -5575.218884 kJ/mol
# Density = 2.386185 g / cm^3
# Si number density = 23.916286 Si / 1000 Ang^3
#
#
#
# Elastic Constant Matrix: (Units=GPa)
#
#
# Indices 1 2 3 4 5 6 
#
# 1 94.0657 33.9609 19.2666 0.0000 0.0000 0.0000
# 2 33.9609 109.4510 10.5931 0.0000 0.0000 0.0000
# 3 19.2666 10.5931 66.2746 0.0000 0.0000 0.0000
# 4 0.0000 0.0000 0.0000 15.9029 0.0000 0.0000
# 5 0.0000 0.0000 0.0000 0.0000 7.2918 0.0000
# 6 0.0000 0.0000 0.0000 0.0000 0.0000 36.7081
#
#
#
# Elastic Compliance Matrix: (Units=1/GPa)
#
#
# Indices 1 2 3 4 5 6 
#
# 1 0.012560 -0.003600 -0.003076 0.000000 0.000000 0.000000
# 2 -0.003600 0.010312 -0.000602 0.000000 0.000000 0.000000
# 3 -0.003076 -0.000602 0.016079 0.000000 0.000000 0.000000
# 4 0.000000 0.000000 0.000000 0.062882 0.000000 0.000000
# 5 0.000000 0.000000 0.000000 0.000000 0.137141 0.000000
# 6 0.000000 0.000000 0.000000 0.000000 0.000000 0.027242
#
#
# Mechanical properties :
#
#
# Convention : Reuss Voigt Hill
#
# Bulk Modulus (GPa) = 40.98962 44.15917 42.57439
# Shear Modulus (GPa) = 17.30683 25.71192 21.50938
#
# Velocity S-wave (km/s) = 2.69298 3.28240 3.00219
# Velocity P-wave (km/s) = 5.18126 5.73321 5.46421
#
# Compressibility (1/GPa) = 0.02439642
#
# Stress axis : x y z
#
# Youngs Moduli (GPa) = 79.61477 96.97773 62.19230
#
# Poissons Ratio (x) = 0.34908 0.19131
# Poissons Ratio (y) = 0.28658 0.03742
# Poissons Ratio (z) = 0.24490 0.05836
#
# Static dielectric constant tensor:
#      x y z
#    x 2.087870 0.000000 0.000000 
#    y 0.000000 1.868970 0.000000 
#    z 0.000000 0.000000 1.954010 
# 
# From -- ./inp_files/8361.got.cif
#   From: 2010.05.17/outbox.cif.g08.bks.cpg/sg45_5_cif.got.tgz:8361.got - 2010.06.03 19:51:22.
