data_PCOD9376396
_publ_section_title
;
Structure prediction by ZEFSAII (Michael W. Deem and Ramdas Pophale) SiO2 
 PCOD9376396
Probable space group: I B A 2
;
_chemical_formula_sum "Si O2"
_cell_formula_units_Z 48
_cell_length_a 9.931713
_cell_length_b 12.951047
_cell_length_c 18.183697
_cell_angle_alpha 90.000000
_cell_angle_beta 90.000000
_cell_angle_gamma 90.000000
_cell_volume 2338.897699
_symmetry_space_group_name_H-M "I B A 2"
_symmetry_group_IT_number 45
_symmetry_cell_setting 'orthorhombic'
loop_
_space_group_symop_operation_xyz
x,y,z
-x,-y,z
-x,y,1/2+z
x,-y,1/2+z
1/2+x,1/2+y,1/2+z
1/2-x,1/2-y,1/2+z
1/2-x,1/2+y,z
1/2+x,1/2-y,z
loop_
_atom_site_type_symbol
_atom_site_label
_atom_site_fract_x
_atom_site_fract_y
_atom_site_fract_z
Si Si1 0.500000 0.500000 0.365391
Si Si2 0.653956 0.146560 0.068686
Si Si3 0.112150 0.625877 0.310667
Si Si4 0.500000 0.000000 0.681686
Si Si5 0.884445 0.266985 0.006354
Si Si6 0.391756 0.292928 0.843561
Si Si7 0.217365 0.515684 0.941678
O O1 0.538559 0.399220 0.318430
O O2 0.630162 0.528279 0.413961
O O3 0.590778 0.080028 0.134943
O O4 0.784630 0.220731 0.067992
O O5 0.532073 0.215748 0.037870
O O6 0.694004 0.061287 0.008744
O O7 0.095937 0.567007 0.234397
O O8 0.239432 0.703158 0.315205
O O9 0.140811 0.540018 0.373567
O O10 0.978735 0.693391 0.324169
O O11 0.888084 0.198446 0.932467
O O12 0.834886 0.375596 0.972207
#
# Coordination Sequence:
#
# PCOD9376396 Si02
#       7
#     4   8   8   4   8   8   8
#     4  10  20  34  64 116 132 154 230 310 358 388
#     4  12  25  43  67 100 141 182 233 282 355 420
#     4  11  24  42  72 100 142 180 235 291 359 419
#     4  12  28  46  62 102 148 198 228 282 364 450
#     4  12  21  40  69  99 134 174 238 293 340 411
#     4  11  21  40  69 107 125 179 232 307 343 402
#     4  11  21  40  71 101 135 176 234 299 337 409
#
# _framework density 20.522487000000002
#
# number of rings (size 3 to 8) (size 9 to 14) (size 15 to 20)
#    0.000    0.667    6.667    3.000    0.000    2.667 
#    0.000    0.000    0.000    6.000    0.000    0.000 
#    0.000    0.000    0.000    0.000    0.000    0.000 
#
# Total GULP energy -134018.050428 kJ/mol
# GULP energy per Si atom -5584.085434 kJ/mol
# Density = 2.047578 g / cm^3
# Si number density = 20.522487 Si / 1000 Ang^3
#
#
#
# Elastic Constant Matrix: (Units=GPa)
#
#
# Indices 1 2 3 4 5 6 
#
# 1 103.9986 15.4914 2.5100 0.0000 0.0000 0.0000
# 2 15.4914 80.9893 5.6497 0.0000 0.0000 0.0000
# 3 2.5100 5.6497 55.9333 0.0000 0.0000 0.0000
# 4 0.0000 0.0000 0.0000 47.2985 0.0000 0.0000
# 5 0.0000 0.0000 0.0000 0.0000 -69.6661 0.0000
# 6 0.0000 0.0000 0.0000 0.0000 0.0000 42.3071
#
#
#
# Elastic Compliance Matrix: (Units=1/GPa)
#
#
# Indices 1 2 3 4 5 6 
#
# 1 0.009901 -0.001876 -0.000255 0.000000 0.000000 0.000000
# 2 -0.001876 0.012790 -0.001208 0.000000 0.000000 0.000000
# 3 -0.000255 -0.001208 0.018012 0.000000 0.000000 0.000000
# 4 0.000000 0.000000 0.000000 0.021142 0.000000 0.000000
# 5 0.000000 0.000000 0.000000 0.000000 -0.014354 0.000000
# 6 0.000000 0.000000 0.000000 0.000000 0.000000 0.023637
#
#
# Mechanical properties :
#
#
# Convention : Reuss Voigt Hill
#
# Bulk Modulus (GPa) = 29.38920 32.02483 30.70701
# Shear Modulus (GPa) = 56.08680 18.47257 37.27969
#
# Velocity S-wave (km/s) = 5.23343 3.00344 4.26670
# Velocity P-wave (km/s) = 7.13232 5.25987 6.26642
#
# Compressibility (1/GPa) = 0.03402610
#
# Stress axis : x y z
#
# Youngs Moduli (GPa) = 100.99871 78.18357 55.51901
#
# Poissons Ratio (x) = 0.14668 0.01415
# Poissons Ratio (y) = 0.18948 0.06705
# Poissons Ratio (z) = 0.02574 0.09443
#
# Static dielectric constant tensor:
#      x y z
#    x 1.778580 0.000000 0.000000 
#    y 0.000000 1.800280 0.000000 
#    z 0.000000 0.000000 1.718120 
# 
# From -- ./inp_files/7600.got.cif
#   From: 2010.05.17/outbox.cif.g08.bks.cpg/sg45_4_cif.got.tgz:7600.got - 2010.06.03 19:51:22.
