data_PCOD9376285
_publ_section_title
;
Structure prediction by ZEFSAII (Michael W. Deem and Ramdas Pophale) SiO2 
 PCOD9376285
Probable space group: I B A 2
;
_chemical_formula_sum "Si O2"
_cell_formula_units_Z 64
_cell_length_a 30.331313
_cell_length_b 12.643202
_cell_length_c 8.882700
_cell_angle_alpha 90.000000
_cell_angle_beta 90.000000
_cell_angle_gamma 90.000000
_cell_volume 3406.381474
_symmetry_space_group_name_H-M "I B A 2"
_symmetry_group_IT_number 45
_symmetry_cell_setting 'orthorhombic'
loop_
_space_group_symop_operation_xyz
x,y,z
-x,-y,z
-x,y,1/2+z
x,-y,1/2+z
1/2+x,1/2+y,1/2+z
1/2-x,1/2-y,1/2+z
1/2-x,1/2+y,z
1/2+x,1/2-y,z
loop_
_atom_site_type_symbol
_atom_site_label
_atom_site_fract_x
_atom_site_fract_y
_atom_site_fract_z
Si Si1 0.698567 0.379415 0.843320
Si Si2 0.405065 0.841029 0.835027
Si Si3 0.598711 0.605805 0.410881
Si Si4 0.192797 0.624517 0.346149
Si Si5 0.253685 0.999314 0.594229
Si Si6 0.450788 0.776884 0.544592
Si Si7 0.450940 0.545085 0.613989
Si Si8 0.999604 0.616462 0.788876
O O1 0.648272 0.418768 0.859413
O O2 0.697891 0.251755 0.836465
O O3 0.721340 0.431148 0.698100
O O4 0.725897 0.421823 0.986373
O O5 0.402450 0.731879 0.926345
O O6 0.359417 0.900378 0.855784
O O7 0.411071 0.813521 0.655172
O O8 0.452358 0.889341 0.876289
O O9 0.583211 0.541168 0.554032
O O10 0.563717 0.578345 0.280501
O O11 0.214908 0.569093 0.202373
O O12 0.217765 0.577031 0.489825
O O13 0.447570 0.652535 0.515215
O O14 0.461832 0.846409 0.399113
O O15 0.491626 0.796772 0.659998
O O16 0.500000 0.500000 0.109679
O O17 0.000000 0.500000 0.718408
#
# Coordination Sequence:
#
# PCOD9376285 Si02
#       8
#     8   8   8   8   8   8   8   8
#     4  10  20  38  59  83 115 147 187 232 279 351
#     4   8  20  36  52  78 109 141 183 230 274 324
#     4  10  20  35  55  78 109 151 173 227 280 325
#     4  10  20  38  59  81 120 142 185 239 290 337
#     4  10  21  35  60  89 106 150 189 226 294 351
#     4   9  21  35  53  79 107 142 191 225 272 325
#     4  11  21  33  54  79 114 143 182 225 276 327
#     4  10  19  36  56  75 103 148 189 225 271 321
#
# _framework density 18.788266
#
# number of rings (size 3 to 8) (size 9 to 14) (size 15 to 20)
#    0.750    1.500    0.000    3.000    1.750    1.000 
#    0.000    0.000    0.000    3.000    0.000    0.000 
#    0.000    0.000    0.000    0.000    0.000    0.000 
#
# Total GULP energy -178255.757303 kJ/mol
# GULP energy per Si atom -5570.492416 kJ/mol
# Density = 1.874550 g / cm^3
# Si number density = 18.788266 Si / 1000 Ang^3
#
#
#
# Elastic Constant Matrix: (Units=GPa)
#
#
# Indices 1 2 3 4 5 6 
#
# 1 88.9795 16.4579 2.4048 0.0000 0.0000 0.0000
# 2 16.4579 46.8270 2.6075 0.0000 0.0000 0.0000
# 3 2.4048 2.6075 39.8808 0.0000 0.0000 0.0000
# 4 0.0000 0.0000 0.0000 13.1731 0.0000 0.0000
# 5 0.0000 0.0000 0.0000 0.0000 11.9986 0.0000
# 6 0.0000 0.0000 0.0000 0.0000 0.0000 19.7350
#
#
#
# Elastic Compliance Matrix: (Units=1/GPa)
#
#
# Indices 1 2 3 4 5 6 
#
# 1 0.012028 -0.004202 -0.000451 0.000000 0.000000 0.000000
# 2 -0.004202 0.022901 -0.001244 0.000000 0.000000 0.000000
# 3 -0.000451 -0.001244 0.025183 0.000000 0.000000 0.000000
# 4 0.000000 0.000000 0.000000 0.075912 0.000000 0.000000
# 5 0.000000 0.000000 0.000000 0.000000 0.083343 0.000000
# 6 0.000000 0.000000 0.000000 0.000000 0.000000 0.050671
#
#
# Mechanical properties :
#
#
# Convention : Reuss Voigt Hill
#
# Bulk Modulus (GPa) = 20.69574 24.29195 22.49385
# Shear Modulus (GPa) = 16.78195 19.26248 18.02222
#
# Velocity S-wave (km/s) = 2.99191 3.20541 3.10050
# Velocity P-wave (km/s) = 4.79318 5.16304 4.98154
#
# Compressibility (1/GPa) = 0.04831912
#
# Stress axis : x y z
#
# Youngs Moduli (GPa) = 83.13941 43.66539 39.70897
#
# Poissons Ratio (x) = 0.18349 0.01789
# Poissons Ratio (y) = 0.34938 0.04940
# Poissons Ratio (z) = 0.03746 0.05432
#
# Static dielectric constant tensor:
#      x y z
#    x 1.645400 0.000000 0.000000 
#    y 0.000000 1.677560 0.000000 
#    z 0.000000 0.000000 1.656540 
# 
# From -- ./inp_files/2778.got.cif
#   From: 2010.05.17/outbox.cif.g08.bks.cpg/sg45_2_cif.got.tgz:2778.got - 2010.06.03 19:51:22.
