data_PCOD9376828
_publ_section_title
;
Structure prediction by ZEFSAII (Michael W. Deem and Ramdas Pophale) SiO2 
 PCOD9376828
Probable space group: I B A 2
;
_chemical_formula_sum "Si O2"
_cell_formula_units_Z 56
_cell_length_a 10.323895
_cell_length_b 20.229841
_cell_length_c 10.370475
_cell_angle_alpha 90.000000
_cell_angle_beta 90.000000
_cell_angle_gamma 90.000000
_cell_volume 2165.881527
_symmetry_space_group_name_H-M "I B A 2"
_symmetry_group_IT_number 45
_symmetry_cell_setting 'orthorhombic'
loop_
_space_group_symop_operation_xyz
x,y,z
-x,-y,z
-x,y,1/2+z
x,-y,1/2+z
1/2+x,1/2+y,1/2+z
1/2-x,1/2-y,1/2+z
1/2-x,1/2+y,z
1/2+x,1/2-y,z
loop_
_atom_site_type_symbol
_atom_site_label
_atom_site_fract_x
_atom_site_fract_y
_atom_site_fract_z
Si Si1 0.000000 0.000000 0.082940
Si Si2 0.992610 0.700170 0.422747
Si Si3 0.279413 0.525702 0.887157
Si Si4 0.070362 0.371039 0.669379
Si Si5 0.739685 0.288672 0.504020
Si Si6 0.500000 0.000000 0.330461
Si Si7 0.830391 0.116549 0.787023
Si Si8 0.112000 0.131121 0.720354
O O1 0.062621 0.933022 0.139905
O O2 0.880100 0.972023 0.001341
O O3 0.017832 0.681761 0.274783
O O4 0.116478 0.738307 0.483291
O O5 0.981196 0.640013 0.526202
O O6 0.861769 0.739184 0.443091
O O7 0.130468 0.509839 0.911699
O O8 0.334236 0.463063 0.802564
O O9 0.289544 0.595989 0.817308
O O10 0.027615 0.439019 0.735022
O O11 0.227014 0.366399 0.676411
O O12 0.734769 0.355158 0.416702
O O13 0.685059 0.312537 0.641196
O O14 0.971857 0.149291 0.778731
#
# Coordination Sequence:
#
# PCOD9376828 Si02
#       8
#     4   8   8   8   8   4   8   8
#     4  12  20  36  64  98 134 168 222 288 340 414
#     4  11  27  49  69 101 138 182 238 289 334 414
#     4  11  20  40  59  99 136 166 225 274 342 418
#     4  10  25  47  71 103 142 175 232 284 349 421
#     4  11  26  44  69  94 137 185 230 287 341 404
#     4  10  24  44  70  96 138 188 206 282 364 422
#     4  10  21  41  65  99 135 174 225 287 341 404
#     4  12  21  38  69  96 133 180 224 286 346 408
#
# _framework density 25.855521
#
# number of rings (size 3 to 8) (size 9 to 14) (size 15 to 20)
#    0.000    1.143    4.286    0.857    4.000    2.857 
#    2.571    0.000    0.000    0.000    0.000    0.000 
#    0.000    0.000    0.000    0.000    0.000    0.000 
#
# Total GULP energy -156728.787962 kJ/mol
# GULP energy per Si atom -5597.456713 kJ/mol
# Density = 2.579667 g / cm^3
# Si number density = 25.855521 Si / 1000 Ang^3
#
#
#
# Elastic Constant Matrix: (Units=GPa)
#
#
# Indices 1 2 3 4 5 6 
#
# 1 158.2246 8.6663 6.6996 0.0000 0.0000 0.0000
# 2 8.6663 62.4886 5.3394 0.0001 0.0000 0.0001
# 3 6.6996 5.3394 60.0001 -0.0001 0.0001 0.0001
# 4 0.0000 0.0001 -0.0001 30.2093 0.0000 0.0001
# 5 0.0000 0.0000 0.0001 0.0000 30.8176 0.0000
# 6 0.0000 0.0001 0.0001 0.0001 0.0000 38.4516
#
#
#
# Elastic Compliance Matrix: (Units=1/GPa)
#
#
# Indices 1 2 3 4 5 6 
#
# 1 0.006393 -0.000832 -0.000640 0.000000 0.000000 0.000000
# 2 -0.000832 0.016234 -0.001352 0.000000 0.000000 0.000000
# 3 -0.000640 -0.001352 0.016858 0.000000 0.000000 0.000000
# 4 0.000000 0.000000 0.000000 0.033102 0.000000 0.000000
# 5 0.000000 0.000000 0.000000 0.000000 0.032449 0.000000
# 6 0.000000 0.000000 0.000000 0.000000 0.000000 0.026007
#
#
# Mechanical properties :
#
#
# Convention : Reuss Voigt Hill
#
# Bulk Modulus (GPa) = 29.55251 35.79152 32.67201
# Shear Modulus (GPa) = 33.79080 37.22957 35.51018
#
# Velocity S-wave (km/s) = 3.61904 3.79873 3.70997
# Velocity P-wave (km/s) = 5.37754 5.75442 5.56917
#
# Compressibility (1/GPa) = 0.03383807
#
# Stress axis : x y z
#
# Youngs Moduli (GPa) = 156.42632 61.59984 59.31769
#
# Poissons Ratio (x) = 0.05125 0.03795
# Poissons Ratio (y) = 0.13013 0.08018
# Poissons Ratio (z) = 0.10008 0.08327
#
# Static dielectric constant tensor:
#      x y z
#    x 2.059820 0.000000 0.000000 
#    y 0.000000 4.094320 0.000000 
#    z 0.000000 0.000000 2.080730 
# 
# From -- ./inp_files/3790.got.cif
#   From: 2010.05.17/outbox.cif.g08.bks.cpg/sg45_2_cif.got.tgz:3790.got - 2010.06.03 19:51:22.
