data_PCOD9376010
_publ_section_title
;
Structure prediction by ZEFSAII (Michael W. Deem and Ramdas Pophale) SiO2 
 PCOD9376010
Probable space group: I M M 2
;
_chemical_formula_sum "Si O2"
_cell_formula_units_Z 24
_cell_length_a 30.000000
_cell_length_b 9.000000
_cell_length_c 9.000000
_cell_angle_alpha 90.000000
_cell_angle_beta 90.000000
_cell_angle_gamma 90.000000
_cell_volume 2430.000000
_symmetry_space_group_name_H-M "I M M 2"
_symmetry_group_IT_number 44
_symmetry_cell_setting 'orthorhombic'
loop_
_space_group_symop_operation_xyz
x,y,z
-x,-y,z
-x,y,z
x,-y,z
1/2+x,1/2+y,1/2+z
1/2-x,1/2-y,1/2+z
1/2-x,1/2+y,1/2+z
1/2+x,1/2-y,1/2+z
loop_
_atom_site_type_symbol
_atom_site_label
_atom_site_fract_x
_atom_site_fract_y
_atom_site_fract_z
Si Si1 0.552428 0.667639 0.875000
Si Si2 0.874670 0.829606 0.635866
Si Si3 0.595531 0.174294 0.614603
Si Si4 0.800676 0.678627 0.154294
Si Si5 0.786462 0.322020 0.504618
Si Si6 0.050499 0.820886 0.849169
O O1 0.500000 0.693293 0.911817
O O2 0.554268 0.500000 0.807038
O O3 0.574113 0.794198 0.774470
O O4 0.586932 0.662068 0.010745
O O5 0.830029 0.743909 0.588676
O O6 0.905248 0.761531 0.765543
O O7 0.861200 0.000000 0.671975
O O8 0.648027 0.221509 0.612936
O O9 0.562189 0.269231 0.513274
O O10 0.593907 0.000000 0.577596
O O11 0.797582 0.500000 0.134915
O O12 0.793133 0.711506 0.329339
O O13 0.760326 0.754633 0.063632
O O14 0.785582 0.500000 0.523085
O O15 0.000000 0.772851 0.806014
O O16 0.050967 0.000000 0.833276
#
# Coordination Sequence:
#
# PCOD9376010 Si02
#       6
#     8   8   8   8   8   8
#     4  10  20  36  61  90 118 154 199 243 292 354
#     4  10  21  39  63  89 121 157 197 246 300 353
#     4  11  23  40  60  86 123 159 197 247 300 353
#     4  10  24  44  62  88 123 157 197 246 300 360
#     4  11  24  42  65  91 120 155 198 247 302 359
#     4  10  22  40  61  88 123 162 204 247 292 349
#
# _framework density 9.8765429999999999
#
# number of rings (size 3 to 8) (size 9 to 14) (size 15 to 20)
#    0.000    1.667    1.667    2.000    2.333    8.000 
#    0.000    0.000    0.000    3.000    0.000    0.000 
#    0.000    0.000    0.000    0.000    0.000    0.000 
#
# Total GULP energy -133775.099663 kJ/mol
# GULP energy per Si atom -5573.962486 kJ/mol
# Density = 0.985406 g / cm^3
# Si number density = 9.876543 Si / 1000 Ang^3
#
#
#
# Elastic Constant Matrix: (Units=GPa)
#
#
# Indices 1 2 3 4 5 6 
#
# 1 136.7833 26.9055 -6.1971 0.0000 0.0000 0.0000
# 2 26.9055 25.1503 2.5336 0.0000 0.0000 0.0000
# 3 -6.1971 2.5336 24.2793 0.0000 0.0000 0.0000
# 4 0.0000 0.0000 0.0000 18.2924 0.0000 0.0000
# 5 0.0000 0.0000 0.0000 0.0000 23.8483 0.0000
# 6 0.0000 0.0000 0.0000 0.0000 0.0000 27.0178
#
#
#
# Elastic Compliance Matrix: (Units=1/GPa)
#
#
# Indices 1 2 3 4 5 6 
#
# 1 0.009551 -0.010575 0.003541 0.000000 0.000000 0.000000
# 2 -0.010575 0.051891 -0.008114 0.000000 0.000000 0.000000
# 3 0.003541 -0.008114 0.042938 0.000000 0.000000 0.000000
# 4 0.000000 0.000000 0.000000 0.054668 0.000000 0.000000
# 5 0.000000 0.000000 0.000000 0.000000 0.041932 0.000000
# 6 0.000000 0.000000 0.000000 0.000000 0.000000 0.037013
#
#
# Mechanical properties :
#
#
# Convention : Reuss Voigt Hill
#
# Bulk Modulus (GPa) = 13.49790 25.85522 19.67656
# Shear Modulus (GPa) = 17.06591 24.69644 20.88117
#
# Velocity S-wave (km/s) = 2.94251 3.53973 3.25485
# Velocity P-wave (km/s) = 4.28866 5.46113 4.91002
#
# Compressibility (1/GPa) = 0.07408558
#
# Stress axis : x y z
#
# Youngs Moduli (GPa) = 104.69755 19.27119 23.28944
#
# Poissons Ratio (x) = 0.20379 -0.08248
# Poissons Ratio (y) = 1.10714 0.18897
# Poissons Ratio (z) = -0.37078 0.15637
#
# Static dielectric constant tensor:
#      x y z
#    x 1.648600 0.000000 0.000000 
#    y 0.000000 1.683960 0.000000 
#    z 0.000000 0.000000 1.903930 
# 
# From -- ./inp_files/4887.got.cif
#   From: 2010.05.17/outbox.ucp.g08.bks.cvg/sg44_3_cif.got.tgz:4887.got - 2010.06.11 16:32:36.
