data_PCOD9376458
_publ_section_title
;
Structure prediction by ZEFSAII (Michael W. Deem and Ramdas Pophale) SiO2 
 PCOD9376458
Probable space group: I B A 2
;
_chemical_formula_sum "Si O2"
_cell_formula_units_Z 52
_cell_length_a 16.126377
_cell_length_b 16.791759
_cell_length_c 8.675203
_cell_angle_alpha 90.000000
_cell_angle_beta 90.000000
_cell_angle_gamma 90.000000
_cell_volume 2349.160269
_symmetry_space_group_name_H-M "I B A 2"
_symmetry_group_IT_number 45
_symmetry_cell_setting 'orthorhombic'
loop_
_space_group_symop_operation_xyz
x,y,z
-x,-y,z
-x,y,1/2+z
x,-y,1/2+z
1/2+x,1/2+y,1/2+z
1/2-x,1/2-y,1/2+z
1/2-x,1/2+y,z
1/2+x,1/2-y,z
loop_
_atom_site_type_symbol
_atom_site_label
_atom_site_fract_x
_atom_site_fract_y
_atom_site_fract_z
Si Si1 0.500000 0.000000 0.135680
Si Si2 0.997973 0.800909 0.530060
Si Si3 0.616770 0.933335 0.896181
Si Si4 0.120874 0.854906 0.758818
Si Si5 0.386993 0.225315 0.287958
Si Si6 0.218673 0.410477 0.905354
Si Si7 0.218081 0.308601 0.223288
O O1 0.566602 0.043743 0.241826
O O2 0.452760 0.062732 0.026998
O O3 0.934592 0.839338 0.409805
O O4 0.946307 0.747337 0.647942
O O5 0.054109 0.865463 0.622134
O O6 0.058606 0.743510 0.436555
O O7 0.668275 0.855567 0.855492
O O8 0.681633 0.003241 0.934848
O O9 0.194609 0.913037 0.812614
O O10 0.169602 0.774586 0.708696
O O11 0.347326 0.138337 0.301173
O O12 0.309689 0.285695 0.277907
O O13 0.224517 0.359264 0.064524
#
# Coordination Sequence:
#
# PCOD9376458 Si02
#       7
#     4   8   8   8   8   8   8
#     4  10  24  40  56  94 116 166 192 240 276 372
#     4  10  20  37  60  96 112 159 186 260 298 347
#     4  11  24  40  62  81 130 156 202 231 300 340
#     4  10  22  37  64  87 123 147 206 241 303 347
#     4  10  22  37  64  87 123 147 206 241 303 347
#     4  11  22  41  59  91 117 164 197 246 285 369
#     4  11  22  41  59  91 117 164 197 246 285 369
#
# _framework density 22.135567999999999
#
# number of rings (size 3 to 8) (size 9 to 14) (size 15 to 20)
#    0.000    1.538    4.615    0.000    0.000    9.846 
#    0.000    0.000    0.000    5.538    0.000    0.000 
#    0.000    0.000    0.000    0.000    0.000    0.000 
#
# Total GULP energy -145433.990604 kJ/mol
# GULP energy per Si atom -5593.615023 kJ/mol
# Density = 2.208519 g / cm^3
# Si number density = 22.135568 Si / 1000 Ang^3
#
#
#
# Elastic Constant Matrix: (Units=GPa)
#
#
# Indices 1 2 3 4 5 6 
#
# 1 131.7235 7.7334 39.8706 0.0000 0.0000 0.0000
# 2 7.7334 28.7704 -12.5139 0.0000 0.0000 0.0000
# 3 39.8706 -12.5139 76.2315 0.0000 0.0000 0.0000
# 4 0.0000 0.0000 0.0000 13.6572 0.0000 0.0000
# 5 0.0000 0.0000 0.0000 0.0000 36.7893 0.0000
# 6 0.0000 0.0000 0.0000 0.0000 0.0000 9.3050
#
#
#
# Elastic Compliance Matrix: (Units=1/GPa)
#
#
# Indices 1 2 3 4 5 6 
#
# 1 0.009686 -0.005177 -0.005916 0.000000 0.000000 0.000000
# 2 -0.005177 0.040197 0.009306 0.000000 0.000000 0.000000
# 3 -0.005916 0.009306 0.017740 0.000000 0.000000 0.000000
# 4 0.000000 0.000000 0.000000 0.073221 0.000000 0.000000
# 5 0.000000 0.000000 0.000000 0.000000 0.027182 0.000000
# 6 0.000000 0.000000 0.000000 0.000000 0.000000 0.107469
#
#
# Mechanical properties :
#
#
# Convention : Reuss Voigt Hill
#
# Bulk Modulus (GPa) = 15.61276 34.10063 24.85669
# Shear Modulus (GPa) = 16.64345 25.39264 21.01805
#
# Velocity S-wave (km/s) = 2.74503 3.39062 3.08476
# Velocity P-wave (km/s) = 4.13709 5.54682 4.89299
#
# Compressibility (1/GPa) = 0.06405016
#
# Stress axis : x y z
#
# Youngs Moduli (GPa) = 103.23935 24.87736 56.37066
#
# Poissons Ratio (x) = 0.12878 0.33348
# Poissons Ratio (y) = 0.53445 -0.52459
# Poissons Ratio (z) = 0.61075 -0.23151
#
# Static dielectric constant tensor:
#      x y z
#    x 1.822920 0.000000 0.000000 
#    y 0.000000 1.799120 0.000000 
#    z 0.000000 0.000000 1.853820 
# 
# From -- ./inp_files/1795.got.cif
#   From: 2010.05.17/outbox.cif.g08.bks.cpg/sg45_1_cif.got.tgz:1795.got - 2010.06.03 19:51:22.
