data_PCOD9376045
_publ_section_title
;
Structure prediction by ZEFSAII (Michael W. Deem and Ramdas Pophale) SiO2 
 PCOD9376045
Probable space group: I B A 2
;
_chemical_formula_sum "Si O2"
_cell_formula_units_Z 64
_cell_length_a 18.482216
_cell_length_b 13.187373
_cell_length_c 11.578858
_cell_angle_alpha 90.000000
_cell_angle_beta 90.000000
_cell_angle_gamma 90.000000
_cell_volume 2822.136785
_symmetry_space_group_name_H-M "I B A 2"
_symmetry_group_IT_number 45
_symmetry_cell_setting 'orthorhombic'
loop_
_space_group_symop_operation_xyz
x,y,z
-x,-y,z
-x,y,1/2+z
x,-y,1/2+z
1/2+x,1/2+y,1/2+z
1/2-x,1/2-y,1/2+z
1/2-x,1/2+y,z
1/2+x,1/2-y,z
loop_
_atom_site_type_symbol
_atom_site_label
_atom_site_fract_x
_atom_site_fract_y
_atom_site_fract_z
Si Si1 0.736903 0.142299 0.554310
Si Si2 0.913557 0.699113 0.273845
Si Si3 0.267447 0.105190 0.794031
Si Si4 0.705481 0.833334 0.298025
Si Si5 0.670128 0.658813 0.951532
Si Si6 0.617092 0.559506 0.173275
Si Si7 0.059766 0.769759 0.345091
Si Si8 0.409342 0.352318 0.584212
O O1 0.727502 0.087795 0.432017
O O2 0.701288 0.110054 0.675491
O O3 0.702814 0.252364 0.530961
O O4 0.822533 0.147352 0.570393
O O5 0.852941 0.611419 0.260212
O O6 0.879488 0.786233 0.357472
O O7 0.927113 0.750113 0.151104
O O8 0.993223 0.693079 0.327489
O O9 0.243568 0.223837 0.777749
O O10 0.197875 0.053836 0.731384
O O11 0.761003 0.885642 0.384751
O O12 0.630104 0.802029 0.352568
O O13 0.629240 0.586107 0.038450
O O14 0.575981 0.650236 0.240346
O O15 0.577683 0.451045 0.164023
O O16 0.055265 0.840867 0.458627
#
# Coordination Sequence:
#
# PCOD9376045 Si02
#       8
#     8   8   8   8   8   8   8   8
#     4  10  15  34  57  74  99 139 190 244 272 312
#     4  10  23  35  55  78 111 146 190 224 285 340
#     4   9  18  35  57  75 102 138 194 254 266 313
#     4   9  16  31  59  72 100 135 190 240 278 314
#     4  10  18  34  52  73 100 141 187 246 259 310
#     4  11  23  35  53  79 116 147 189 228 279 344
#     4  11  23  37  50  83 115 152 184 226 283 357
#     4  12  22  35  54  78 116 156 182 222 280 360
#
# _framework density 22.677851
#
# number of rings (size 3 to 8) (size 9 to 14) (size 15 to 20)
#    0.000    2.000    8.750    0.000    3.500    0.500 
#    0.000    0.000    0.000    0.000    0.000    0.875 
#    0.000    0.000    0.000    0.000    0.000    0.000 
#
# Total GULP energy -178311.945313 kJ/mol
# GULP energy per Si atom -5572.248291 kJ/mol
# Density = 2.262624 g / cm^3
# Si number density = 22.677851 Si / 1000 Ang^3
#
#
#
# Elastic Constant Matrix: (Units=GPa)
#
#
# Indices 1 2 3 4 5 6 
#
# 1 88.8511 -3.1406 15.8627 0.0000 0.0000 0.0000
# 2 -3.1406 41.3704 7.0039 0.0000 0.0000 0.0000
# 3 15.8627 7.0039 111.5645 0.0000 0.0000 0.0000
# 4 0.0000 0.0000 0.0000 -7.0689 0.0000 0.0000
# 5 0.0000 0.0000 0.0000 0.0000 54.2358 0.0000
# 6 0.0000 0.0000 0.0000 0.0000 0.0000 12.8434
#
#
#
# Elastic Compliance Matrix: (Units=1/GPa)
#
#
# Indices 1 2 3 4 5 6 
#
# 1 0.011604 0.001173 -0.001724 0.000000 0.000000 0.000000
# 2 0.001173 0.024550 -0.001708 0.000000 0.000000 0.000000
# 3 -0.001724 -0.001708 0.009316 0.000000 0.000000 0.000000
# 4 0.000000 0.000000 0.000000 -0.141465 0.000000 0.000000
# 5 0.000000 0.000000 0.000000 0.000000 0.018438 0.000000
# 6 0.000000 0.000000 0.000000 0.000000 0.000000 0.077861
#
#
# Mechanical properties :
#
#
# Convention : Reuss Voigt Hill
#
# Bulk Modulus (GPa) = 24.41879 31.24867 27.83373
# Shear Modulus (GPa) = 270.68294 26.80607 148.74450
#
# Velocity S-wave (km/s) = 10.93705 3.44181 8.10756
# Velocity P-wave (km/s) = 13.04926 5.44096 9.99718
#
# Compressibility (1/GPa) = 0.04095208
#
# Stress axis : x y z
#
# Youngs Moduli (GPa) = 86.17765 40.73317 107.34564
#
# Poissons Ratio (x) = -0.04777 0.18501
# Poissons Ratio (y) = -0.10106 0.18334
# Poissons Ratio (z) = 0.14853 0.06957
#
# Static dielectric constant tensor:
#      x y z
#    x 1.846590 0.000000 0.000000 
#    y 0.000000 1.920030 0.000000 
#    z 0.000000 0.000000 1.904290 
# 
# From -- ./inp_files/4539.got.cif
#   From: 2010.05.17/outbox.cif.g08.bks.cpg/sg45_3_cif.got.tgz:4539.got - 2010.06.03 19:51:22.
