data_PCOD9376368
_publ_section_title
;
Structure prediction by ZEFSAII (Michael W. Deem and Ramdas Pophale) SiO2 
 PCOD9376368
Probable space group: I B A 2
;
_chemical_formula_sum "Si O2"
_cell_formula_units_Z 52
_cell_length_a 16.970168
_cell_length_b 5.564072
_cell_length_c 23.257770
_cell_angle_alpha 90.000000
_cell_angle_beta 90.000000
_cell_angle_gamma 90.000000
_cell_volume 2196.073920
_symmetry_space_group_name_H-M "I B A 2"
_symmetry_group_IT_number 45
_symmetry_cell_setting 'orthorhombic'
loop_
_space_group_symop_operation_xyz
x,y,z
-x,-y,z
-x,y,1/2+z
x,-y,1/2+z
1/2+x,1/2+y,1/2+z
1/2-x,1/2-y,1/2+z
1/2-x,1/2+y,z
1/2+x,1/2-y,z
loop_
_atom_site_type_symbol
_atom_site_label
_atom_site_fract_x
_atom_site_fract_y
_atom_site_fract_z
Si Si1 0.905229 0.770528 0.556710
Si Si2 0.758474 0.848600 0.876938
Si Si3 0.375297 0.341390 0.275161
Si Si4 0.500000 0.000000 0.908380
Si Si5 0.917257 0.269661 0.513090
Si Si6 0.794041 0.845519 0.656727
Si Si7 0.902083 0.663808 0.307207
O O1 0.874417 0.509333 0.535862
O O2 0.874060 0.817889 0.620303
O O3 0.999668 0.750828 0.548328
O O4 0.880227 0.006644 0.519934
O O5 0.751184 0.598214 0.909647
O O6 0.837432 0.848924 0.839169
O O7 0.689284 0.844903 0.828293
O O8 0.312289 0.335857 0.224345
O O9 0.416611 0.598670 0.270834
O O10 0.418234 0.086247 0.274895
O O11 0.550128 0.833535 0.866441
O O12 0.445297 0.838920 0.949195
O O13 0.742853 0.606881 0.643223
#
# Coordination Sequence:
#
# PCOD9376368 Si02
#       7
#     8   8   8   4   8   8   8
#     4   9  19  37  60  87 110 149 197 241 293 349
#     4   8  14  28  47  66  98 138 171 207 254 306
#     4  10  20  35  53  79 117 155 185 223 274 338
#     4  10  22  38  62  86 106 154 200 236 302 346
#     4   9  20  40  63  79 112 153 195 251 297 347
#     4  12  22  35  62  91 119 158 193 229 293 364
#     4  10  20  33  54  81 113 145 191 236 268 336
#
# _framework density 23.678621
#
# number of rings (size 3 to 8) (size 9 to 14) (size 15 to 20)
#    0.000    2.462    0.000    4.615    0.000    5.538 
#    0.000    4.615    0.000   38.769    0.000    0.000 
#    0.000    0.000    0.000    0.000    0.000    0.000 
#
# Total GULP energy -145057.695935 kJ/mol
# GULP energy per Si atom -5579.142151 kJ/mol
# Density = 2.362473 g / cm^3
# Si number density = 23.678621 Si / 1000 Ang^3
#
#
#
# Elastic Constant Matrix: (Units=GPa)
#
#
# Indices 1 2 3 4 5 6 
#
# 1 41.6835 13.3127 19.3546 0.0000 0.0000 0.0000
# 2 13.3127 276.2089 14.2749 0.0000 0.0000 0.0000
# 3 19.3546 14.2749 54.1195 0.0000 0.0000 0.0000
# 4 0.0000 0.0000 0.0000 24.6563 0.0000 0.0000
# 5 0.0000 0.0000 0.0000 0.0000 15.1771 0.0000
# 6 0.0000 0.0000 0.0000 0.0000 0.0000 19.6836
#
#
#
# Elastic Compliance Matrix: (Units=1/GPa)
#
#
# Indices 1 2 3 4 5 6 
#
# 1 0.028973 -0.000873 -0.010131 0.000000 0.000000 0.000000
# 2 -0.000873 0.003697 -0.000663 0.000000 0.000000 0.000000
# 3 -0.010131 -0.000663 0.022276 0.000000 0.000000 0.000000
# 4 0.000000 0.000000 0.000000 0.040558 0.000000 0.000000
# 5 0.000000 0.000000 0.000000 0.000000 0.065889 0.000000
# 6 0.000000 0.000000 0.000000 0.000000 0.000000 0.050804
#
#
# Mechanical properties :
#
#
# Convention : Reuss Voigt Hill
#
# Bulk Modulus (GPa) = 31.63408 51.76625 41.70016
# Shear Modulus (GPa) = 20.31965 33.57473 26.94719
#
# Velocity S-wave (km/s) = 2.93259 3.76963 3.37714
# Velocity P-wave (km/s) = 4.98553 6.39189 5.73201
#
# Compressibility (1/GPa) = 0.03161148
#
# Stress axis : x y z
#
# Youngs Moduli (GPa) = 34.51448 270.50574 44.89183
#
# Poissons Ratio (x) = 0.23611 0.45482
# Poissons Ratio (y) = 0.03013 0.02976
# Poissons Ratio (z) = 0.34968 0.17933
#
# Static dielectric constant tensor:
#      x y z
#    x 1.986170 0.000000 0.000000 
#    y 0.000000 1.997360 0.000000 
#    z 0.000000 0.000000 1.821400 
# 
# From -- ./inp_files/9296.got.cif
#   From: 2010.05.17/outbox.cif.g08.bks.cpg/sg45_5_cif.got.tgz:9296.got - 2010.06.03 19:51:22.
