data_PCOD9376426
_publ_section_title
;
Structure prediction by ZEFSAII (Michael W. Deem and Ramdas Pophale) SiO2 
 PCOD9376426
Probable space group: I B A 2
;
_chemical_formula_sum "Si O2"
_cell_formula_units_Z 64
_cell_length_a 20.388019
_cell_length_b 9.191933
_cell_length_c 15.926274
_cell_angle_alpha 90.000000
_cell_angle_beta 90.000000
_cell_angle_gamma 90.000000
_cell_volume 2984.668231
_symmetry_space_group_name_H-M "I B A 2"
_symmetry_group_IT_number 45
_symmetry_cell_setting 'orthorhombic'
loop_
_space_group_symop_operation_xyz
x,y,z
-x,-y,z
-x,y,1/2+z
x,-y,1/2+z
1/2+x,1/2+y,1/2+z
1/2-x,1/2-y,1/2+z
1/2-x,1/2+y,z
1/2+x,1/2-y,z
loop_
_atom_site_type_symbol
_atom_site_label
_atom_site_fract_x
_atom_site_fract_y
_atom_site_fract_z
Si Si1 0.563996 0.076062 0.885160
Si Si2 0.467204 0.768490 0.135220
Si Si3 0.589564 0.931889 0.190565
Si Si4 0.834416 0.825003 0.185517
Si Si5 0.193372 0.118162 0.996928
Si Si6 0.704902 0.077192 0.930029
Si Si7 0.551756 0.380349 0.954742
Si Si8 0.724865 0.020389 0.240547
O O1 0.574232 0.031178 0.788548
O O2 0.500000 0.000000 0.919781
O O3 0.628301 0.041387 0.938707
O O4 0.555444 0.248761 0.889556
O O5 0.541563 0.798830 0.166197
O O6 0.413754 0.681388 0.192741
O O7 0.467419 0.692561 0.044512
O O8 0.433810 0.929188 0.136409
O O9 0.668594 0.925014 0.191574
O O10 0.820609 0.810889 0.086429
O O11 0.796926 0.972375 0.210866
O O12 0.799195 0.686417 0.228755
O O13 0.124386 0.054541 0.965627
O O14 0.249691 0.000206 0.997237
O O15 0.212565 0.250386 0.936330
O O16 0.723238 0.022136 0.838001
O O17 0.500000 0.500000 0.931042
#
# Coordination Sequence:
#
# PCOD9376426 Si02
#       8
#     8   8   8   8   8   8   8   8
#     4  10  20  37  63  88 113 150 205 251 288 349
#     4   9  18  37  59  80 116 151 190 243 290 341
#     4   9  18  37  62  86 111 147 201 251 286 336
#     4  10  20  36  58  82 118 150 188 243 287 345
#     4  10  21  40  58  83 123 153 194 244 292 355
#     4  10  21  37  60  84 117 155 191 246 299 348
#     4  10  23  40  55  85 127 158 190 241 303 364
#     4  10  20  36  58  87 114 149 195 241 290 349
#
# _framework density 21.442919
#
# number of rings (size 3 to 8) (size 9 to 14) (size 15 to 20)
#    0.000    2.250    1.250    1.500    1.750    2.000 
#    9.000    0.625    0.000    0.000    0.000    0.000 
#    0.000    0.000    0.000    0.000    0.000    0.000 
#
# Total GULP energy -178507.714065 kJ/mol
# GULP energy per Si atom -5578.366065 kJ/mol
# Density = 2.139411 g / cm^3
# Si number density = 21.442919 Si / 1000 Ang^3
#
#
#
# Elastic Constant Matrix: (Units=GPa)
#
#
# Indices 1 2 3 4 5 6 
#
# 1 97.6487 28.8909 -6.6857 0.0000 0.0000 0.0000
# 2 28.8909 20.1318 -4.8419 0.0000 0.0000 0.0000
# 3 -6.6857 -4.8419 24.1952 0.0000 0.0000 0.0000
# 4 0.0000 0.0000 0.0000 42.2214 0.0000 0.0000
# 5 0.0000 0.0000 0.0000 0.0000 16.4745 0.0000
# 6 0.0000 0.0000 0.0000 0.0000 0.0000 40.2730
#
#
#
# Elastic Compliance Matrix: (Units=1/GPa)
#
#
# Indices 1 2 3 4 5 6 
#
# 1 0.017798 -0.025591 -0.000203 0.000000 0.000000 0.000000
# 2 -0.025591 0.088980 0.010735 0.000000 0.000000 0.000000
# 3 -0.000203 0.010735 0.043423 0.000000 0.000000 0.000000
# 4 0.000000 0.000000 0.000000 0.023685 0.000000 0.000000
# 5 0.000000 0.000000 0.000000 0.000000 0.060700 0.000000
# 6 0.000000 0.000000 0.000000 0.000000 0.000000 0.024831
#
#
# Mechanical properties :
#
#
# Convention : Reuss Voigt Hill
#
# Bulk Modulus (GPa) = 8.32757 19.63359 13.98058
# Shear Modulus (GPa) = 15.17162 28.10128 21.63645
#
# Velocity S-wave (km/s) = 2.66284 3.62403 3.17996
# Velocity P-wave (km/s) = 3.65326 5.16600 4.47403
#
# Compressibility (1/GPa) = 0.12008302
#
# Stress axis : x y z
#
# Youngs Moduli (GPa) = 56.18465 11.23843 23.02943
#
# Poissons Ratio (x) = 0.28761 0.00468
# Poissons Ratio (y) = 1.43784 -0.24722
# Poissons Ratio (z) = 0.01141 -0.12065
#
# Static dielectric constant tensor:
#      x y z
#    x 1.835730 0.000000 0.000000 
#    y 0.000000 1.755210 0.000000 
#    z 0.000000 0.000000 1.783990 
# 
# From -- ./inp_files/8462.got.cif
#   From: 2010.05.17/outbox.cif.g08.bks.cpg/sg45_5_cif.got.tgz:8462.got - 2010.06.03 19:51:22.
