data_PCOD9376433
_publ_section_title
;
Structure prediction by ZEFSAII (Michael W. Deem and Ramdas Pophale) SiO2 
 PCOD9376433
Probable space group: I B A 2
;
_chemical_formula_sum "Si O2"
_cell_formula_units_Z 64
_cell_length_a 32.812737
_cell_length_b 8.435704
_cell_length_c 11.094178
_cell_angle_alpha 90.000000
_cell_angle_beta 90.000000
_cell_angle_gamma 90.000000
_cell_volume 3070.852237
_symmetry_space_group_name_H-M "I B A 2"
_symmetry_group_IT_number 45
_symmetry_cell_setting 'orthorhombic'
loop_
_space_group_symop_operation_xyz
x,y,z
-x,-y,z
-x,y,1/2+z
x,-y,1/2+z
1/2+x,1/2+y,1/2+z
1/2-x,1/2-y,1/2+z
1/2-x,1/2+y,z
1/2+x,1/2-y,z
loop_
_atom_site_type_symbol
_atom_site_label
_atom_site_fract_x
_atom_site_fract_y
_atom_site_fract_z
Si Si1 0.388644 0.346389 0.986900
Si Si2 0.042040 0.906606 0.547032
Si Si3 0.734884 0.989342 0.071682
Si Si4 0.958410 0.413730 0.403612
Si Si5 0.892587 0.761069 0.215435
Si Si6 0.195744 0.795299 0.685444
Si Si7 0.084872 0.434193 0.641534
Si Si8 0.701601 0.317468 0.455722
O O1 0.395100 0.259307 0.858912
O O2 0.341682 0.398059 0.981977
O O3 0.423472 0.477391 0.994736
O O4 0.394655 0.226460 0.097322
O O5 0.034780 0.763713 0.453638
O O6 0.065502 0.831182 0.662154
O O7 0.000000 0.000000 0.572573
O O8 0.771388 0.932599 0.159983
O O9 0.708175 0.139346 0.110893
O O10 0.710010 0.830736 0.043325
O O11 0.761853 0.057418 0.961872
O O12 0.940897 0.508068 0.522472
O O13 0.935349 0.409903 0.274054
O O14 0.000000 0.500000 0.373718
O O15 0.851366 0.848796 0.173787
O O16 0.886716 0.584844 0.164687
O O17 0.199494 0.745834 0.823672
#
# Coordination Sequence:
#
# PCOD9376433 Si02
#       8
#     8   8   8   8   8   8   8   8
#     4  11  23  42  63  98 131 175 218 279 335 391
#     4  11  26  43  67  95 130 171 220 282 336 396
#     4  10  20  36  60  95 122 169 212 256 328 386
#     4  11  24  44  67  96 124 169 218 277 334 403
#     4  10  23  42  64  92 131 174 223 270 333 399
#     4  10  20  37  61  89 129 165 211 267 317 390
#     4  11  22  43  67  91 128 170 223 265 328 401
#     4  10  21  37  62  88 134 165 214 266 320 390
#
# _framework density 20.84112
#
# number of rings (size 3 to 8) (size 9 to 14) (size 15 to 20)
#    0.000    1.500    1.250    3.375    1.750    1.500 
#    0.000    0.000    8.250    0.000    0.000    0.000 
#    0.000    0.000    0.000    0.000    0.000    0.000 
#
# Total GULP energy -178340.024865 kJ/mol
# GULP energy per Si atom -5573.125777 kJ/mol
# Density = 2.079368 g / cm^3
# Si number density = 20.841120 Si / 1000 Ang^3
#
#
#
# Elastic Constant Matrix: (Units=GPa)
#
#
# Indices 1 2 3 4 5 6 
#
# 1 111.3210 17.6076 30.3895 0.0000 0.0000 0.0000
# 2 17.6076 53.5720 3.4864 0.0000 0.0000 0.0000
# 3 30.3895 3.4864 103.0115 0.0000 0.0000 0.0000
# 4 0.0000 0.0000 0.0000 21.0293 0.0000 0.0000
# 5 0.0000 0.0000 0.0000 0.0000 23.3424 0.0000
# 6 0.0000 0.0000 0.0000 0.0000 0.0000 17.7105
#
#
#
# Elastic Compliance Matrix: (Units=1/GPa)
#
#
# Indices 1 2 3 4 5 6 
#
# 1 0.010287 -0.003190 -0.002927 0.000000 0.000000 0.000000
# 2 -0.003190 0.019697 0.000275 0.000000 0.000000 0.000000
# 3 -0.002927 0.000275 0.010562 0.000000 0.000000 0.000000
# 4 0.000000 0.000000 0.000000 0.047553 0.000000 0.000000
# 5 0.000000 0.000000 0.000000 0.000000 0.042840 0.000000
# 6 0.000000 0.000000 0.000000 0.000000 0.000000 0.056464
#
#
# Mechanical properties :
#
#
# Convention : Reuss Voigt Hill
#
# Bulk Modulus (GPa) = 34.64949 41.20795 37.92872
# Shear Modulus (GPa) = 23.95695 26.84452 25.40074
#
# Velocity S-wave (km/s) = 3.39411 3.59284 3.49489
# Velocity P-wave (km/s) = 5.65877 6.08496 5.87573
#
# Compressibility (1/GPa) = 0.02886046
#
# Stress axis : x y z
#
# Youngs Moduli (GPa) = 97.21370 50.76860 94.68121
#
# Poissons Ratio (x) = 0.16198 0.27710
# Poissons Ratio (y) = 0.31016 -0.02600
# Poissons Ratio (z) = 0.28451 -0.01394
#
# Static dielectric constant tensor:
#      x y z
#    x 1.782190 0.000000 0.000000 
#    y 0.000000 1.767230 0.000000 
#    z 0.000000 0.000000 1.763470 
# 
# From -- ./inp_files/3423.got.cif
#   From: 2010.05.17/outbox.cif.g08.bks.cpg/sg45_2_cif.got.tgz:3423.got - 2010.06.03 19:51:22.
