data_PCOD9376077
_publ_section_title
;
Structure prediction by ZEFSAII (Michael W. Deem and Ramdas Pophale) SiO2 
 PCOD9376077
Probable space group: I B A 2
;
_chemical_formula_sum "Si O2"
_cell_formula_units_Z 64
_cell_length_a 26.618164
_cell_length_b 17.558347
_cell_length_c 5.279968
_cell_angle_alpha 90.000000
_cell_angle_beta 90.000000
_cell_angle_gamma 90.000000
_cell_volume 2467.703713
_symmetry_space_group_name_H-M "I B A 2"
_symmetry_group_IT_number 45
_symmetry_cell_setting 'orthorhombic'
loop_
_space_group_symop_operation_xyz
x,y,z
-x,-y,z
-x,y,1/2+z
x,-y,1/2+z
1/2+x,1/2+y,1/2+z
1/2-x,1/2-y,1/2+z
1/2-x,1/2+y,z
1/2+x,1/2-y,z
loop_
_atom_site_type_symbol
_atom_site_label
_atom_site_fract_x
_atom_site_fract_y
_atom_site_fract_z
Si Si1 0.059705 0.452257 0.611370
Si Si2 0.706549 0.677941 0.475464
Si Si3 0.445396 0.796510 0.373220
Si Si4 0.017907 0.852300 0.384280
Si Si5 0.178341 0.456453 0.631850
Si Si6 0.759531 0.874713 0.462861
Si Si7 0.156683 0.012140 0.983281
Si Si8 0.606085 0.750710 0.380468
O O1 0.050247 0.515220 0.392177
O O2 0.035549 0.375248 0.497838
O O3 0.119728 0.437385 0.629072
O O4 0.717557 0.687485 0.772407
O O5 0.679946 0.594954 0.483154
O O6 0.664808 0.738889 0.402969
O O7 0.744080 0.661807 0.240296
O O8 0.487203 0.730059 0.350068
O O9 0.407413 0.769414 0.592241
O O10 0.416803 0.804391 0.103486
O O11 0.992445 0.891317 0.620413
O O12 0.075184 0.827958 0.428397
O O13 0.188048 0.473325 0.333312
O O14 0.212511 0.397904 0.785657
O O15 0.796877 0.949552 0.482918
O O16 0.126055 0.999567 0.733548
#
# Coordination Sequence:
#
# PCOD9376077 Si02
#       8
#     8   8   8   8   8   8   8   8
#     4  10  21  35  55  81 102 128 171 218 267 324
#     4  10  18  27  44  72 101 131 173 214 247 300
#     4  10  19  35  55  74 104 134 165 214 270 319
#     4   8  16  30  51  72  94 126 165 206 257 308
#     4  10  18  30  49  74 101 134 175 214 257 312
#     4  10  17  28  45  69 103 135 165 211 263 299
#     4   8  14  23  37  59  92 125 152 193 249 287
#     4  10  19  32  52  75 101 135 174 213 256 313
#
# _framework density 25.935043
#
# number of rings (size 3 to 8) (size 9 to 14) (size 15 to 20)
#    0.000    2.500    0.000    4.500    0.000    0.000 
#    0.000    0.000    0.000   23.250    0.000    0.000 
#    0.000  243.000    0.000    0.000    0.000    0.000 
#
# Total GULP energy -178445.330781 kJ/mol
# GULP energy per Si atom -5576.416587 kJ/mol
# Density = 2.587601 g / cm^3
# Si number density = 25.935043 Si / 1000 Ang^3
#
#
#
# Elastic Constant Matrix: (Units=GPa)
#
#
# Indices 1 2 3 4 5 6 
#
# 1 55.2524 10.0019 -15.8034 0.0000 0.0000 0.0000
# 2 10.0019 49.9816 -10.1593 0.0000 0.0000 0.0000
# 3 -15.8034 -10.1593 164.9312 0.0000 0.0000 0.0000
# 4 0.0000 0.0000 0.0000 6.0698 0.0000 0.0000
# 5 0.0000 0.0000 0.0000 0.0000 30.8940 0.0000
# 6 0.0000 0.0000 0.0000 0.0000 0.0000 17.5366
#
#
#
# Elastic Compliance Matrix: (Units=1/GPa)
#
#
# Indices 1 2 3 4 5 6 
#
# 1 0.019199 -0.003512 0.001623 0.000000 0.000000 0.000000
# 2 -0.003512 0.020903 0.000951 0.000000 0.000000 0.000000
# 3 0.001623 0.000951 0.006277 0.000000 0.000000 0.000000
# 4 0.000000 0.000000 0.000000 0.164749 0.000000 0.000000
# 5 0.000000 0.000000 0.000000 0.000000 0.032369 0.000000
# 6 0.000000 0.000000 0.000000 0.000000 0.000000 0.057024
#
#
# Mechanical properties :
#
#
# Convention : Reuss Voigt Hill
#
# Bulk Modulus (GPa) = 22.46973 26.47151 24.47062
# Shear Modulus (GPa) = 15.76138 29.97516 22.86827
#
# Velocity S-wave (km/s) = 2.46788 3.40336 2.97265
# Velocity P-wave (km/s) = 4.09918 5.06684 4.60848
#
# Compressibility (1/GPa) = 0.04450431
#
# Stress axis : x y z
#
# Youngs Moduli (GPa) = 52.08664 47.83896 159.30526
#
# Poissons Ratio (x) = 0.16801 -0.25859
# Poissons Ratio (y) = 0.18293 -0.15151
# Poissons Ratio (z) = -0.08455 -0.04550
#
# Static dielectric constant tensor:
#      x y z
#    x 2.053860 0.000000 0.000000 
#    y 0.000000 2.126040 0.000000 
#    z 0.000000 0.000000 2.122370 
# 
# From -- ./inp_files/704.got.cif
#   From: 2010.05.17/outbox.cif.g08.bks.cpg/sg45_1_cif.got.tgz:704.got - 2010.06.03 19:51:22.
