data_PCOD9376307
_publ_section_title
;
Structure prediction by ZEFSAII (Michael W. Deem and Ramdas Pophale) SiO2 
 PCOD9376307
Probable space group: I B A 2
;
_chemical_formula_sum "Si O2"
_cell_formula_units_Z 56
_cell_length_a 15.006245
_cell_length_b 11.554411
_cell_length_c 13.389467
_cell_angle_alpha 90.000000
_cell_angle_beta 90.000000
_cell_angle_gamma 90.000000
_cell_volume 2321.577220
_symmetry_space_group_name_H-M "I B A 2"
_symmetry_group_IT_number 45
_symmetry_cell_setting 'orthorhombic'
loop_
_space_group_symop_operation_xyz
x,y,z
-x,-y,z
-x,y,1/2+z
x,-y,1/2+z
1/2+x,1/2+y,1/2+z
1/2-x,1/2-y,1/2+z
1/2-x,1/2+y,z
1/2+x,1/2-y,z
loop_
_atom_site_type_symbol
_atom_site_label
_atom_site_fract_x
_atom_site_fract_y
_atom_site_fract_z
Si Si1 0.695107 0.338199 0.757330
Si Si2 0.968865 0.367817 0.441869
Si Si3 0.598240 0.528704 0.884990
Si Si4 0.651652 0.980850 0.728432
Si Si5 0.219410 0.635720 0.410582
Si Si6 0.585497 0.806233 0.112808
Si Si7 0.543282 0.251258 0.264646
O O1 0.626464 0.417043 0.820411
O O2 0.752226 0.435156 0.698561
O O3 0.734795 0.253655 0.845666
O O4 0.667752 0.255002 0.665791
O O5 0.867517 0.352983 0.483754
O O6 0.000000 0.500000 0.429590
O O7 0.054037 0.314010 0.500094
O O8 0.967981 0.297509 0.339325
O O9 0.500000 0.500000 0.931819
O O10 0.687033 0.576130 0.943683
O O11 0.583325 0.633593 0.807683
O O12 0.603513 0.861262 0.752159
O O13 0.675384 0.047366 0.830435
O O14 0.596522 0.062396 0.654420
O O15 0.504242 0.734199 0.159955
#
# Coordination Sequence:
#
# PCOD9376307 Si02
#       7
#     8   8   8   8   8   8   8
#     4  10  20  39  67  96 135 188 238 280 361 434
#     4  12  22  39  66 104 139 184 238 301 349 425
#     4  11  21  37  69  99 134 185 229 291 363 434
#     4  10  19  37  66  96 130 178 229 287 350 417
#     4  10  20  37  66  97 136 179 228 288 351 431
#     4  11  23  39  66 102 138 182 239 295 354 418
#     4  12  20  39  66  97 137 180 229 292 357 417
#
# _framework density 24.121531999999998
#
# number of rings (size 3 to 8) (size 9 to 14) (size 15 to 20)
#    0.000    1.143    7.143    1.286    0.000    0.000 
#    0.000    2.857    9.429    0.000    0.000    0.000 
#    0.000    0.000    0.000    0.000    0.000    0.000 
#
# Total GULP energy -155871.940540 kJ/mol
# GULP energy per Si atom -5566.855019 kJ/mol
# Density = 2.406663 g / cm^3
# Si number density = 24.121532 Si / 1000 Ang^3
#
#
#
# Elastic Constant Matrix: (Units=GPa)
#
#
# Indices 1 2 3 4 5 6 
#
# 1 112.4939 10.9773 4.6045 0.0000 0.0000 0.0000
# 2 10.9773 92.3277 7.2631 0.0000 0.0000 0.0000
# 3 4.6045 7.2631 32.3668 0.0000 0.0000 0.0000
# 4 0.0000 0.0000 0.0000 8.2669 0.0000 0.0000
# 5 0.0000 0.0000 0.0000 0.0000 13.5257 0.0000
# 6 0.0000 0.0000 0.0000 0.0000 0.0000 47.1888
#
#
#
# Elastic Compliance Matrix: (Units=1/GPa)
#
#
# Indices 1 2 3 4 5 6 
#
# 1 0.009029 -0.000990 -0.001062 0.000000 0.000000 0.000000
# 2 -0.000990 0.011134 -0.002358 0.000000 0.000000 0.000000
# 3 -0.001062 -0.002358 0.031576 0.000000 0.000000 0.000000
# 4 0.000000 0.000000 0.000000 0.120964 0.000000 0.000000
# 5 0.000000 0.000000 0.000000 0.000000 0.073933 0.000000
# 6 0.000000 0.000000 0.000000 0.000000 0.000000 0.021191
#
#
# Mechanical properties :
#
#
# Convention : Reuss Voigt Hill
#
# Bulk Modulus (GPa) = 23.29940 31.43093 27.36516
# Shear Modulus (GPa) = 17.18480 28.08586 22.63533
#
# Velocity S-wave (km/s) = 2.67203 3.41596 3.06663
# Velocity P-wave (km/s) = 4.38175 5.34947 4.88961
#
# Compressibility (1/GPa) = 0.04291957
#
# Stress axis : x y z
#
# Youngs Moduli (GPa) = 110.74865 89.81375 31.66960
#
# Poissons Ratio (x) = 0.08891 0.03365
# Poissons Ratio (y) = 0.10964 0.07467
# Poissons Ratio (z) = 0.11766 0.21175
#
# Static dielectric constant tensor:
#      x y z
#    x 2.300020 0.000000 0.000000 
#    y 0.000000 1.907610 0.000000 
#    z 0.000000 0.000000 1.909000 
# 
# From -- ./inp_files/6509.got.cif
#   From: 2010.05.17/outbox.cif.g08.bks.cpg/sg45_4_cif.got.tgz:6509.got - 2010.06.03 19:51:22.
