data_PCOD9376156
_publ_section_title
;
Structure prediction by ZEFSAII (Michael W. Deem and Ramdas Pophale) SiO2 
 PCOD9376156
Probable space group: I B A 2
;
_chemical_formula_sum "Si O2"
_cell_formula_units_Z 64
_cell_length_a 16.890274
_cell_length_b 9.727895
_cell_length_c 19.498610
_cell_angle_alpha 90.000000
_cell_angle_beta 90.000000
_cell_angle_gamma 90.000000
_cell_volume 3203.754447
_symmetry_space_group_name_H-M "I B A 2"
_symmetry_group_IT_number 45
_symmetry_cell_setting 'orthorhombic'
loop_
_space_group_symop_operation_xyz
x,y,z
-x,-y,z
-x,y,1/2+z
x,-y,1/2+z
1/2+x,1/2+y,1/2+z
1/2-x,1/2-y,1/2+z
1/2-x,1/2+y,z
1/2+x,1/2-y,z
loop_
_atom_site_type_symbol
_atom_site_label
_atom_site_fract_x
_atom_site_fract_y
_atom_site_fract_z
Si Si1 0.150733 0.303922 0.775330
Si Si2 0.547147 0.862303 0.998658
Si Si3 0.168433 0.204597 0.271089
Si Si4 0.591064 0.455498 0.844658
Si Si5 0.104383 0.115222 0.134650
Si Si6 0.921459 0.793494 0.637945
Si Si7 0.411145 0.059800 0.852240
Si Si8 0.434252 0.385139 0.489386
O O1 0.241110 0.256082 0.782283
O O2 0.096985 0.193808 0.813359
O O3 0.118599 0.298249 0.697265
O O4 0.142730 0.445270 0.816245
O O5 0.584593 0.784675 0.064498
O O6 0.500000 0.000000 0.020906
O O7 0.600227 0.904488 0.932982
O O8 0.483440 0.750819 0.970181
O O9 0.157120 0.190346 0.189971
O O10 0.107053 0.306254 0.307512
O O11 0.146788 0.057587 0.303553
O O12 0.500000 0.500000 0.839930
O O13 0.610680 0.446458 0.924911
O O14 0.015132 0.172660 0.148735
O O15 0.112372 0.949560 0.141251
O O16 0.118305 0.146652 0.055043
O O17 0.500000 0.000000 0.847014
O O18 0.500000 0.500000 0.511009
#
# Coordination Sequence:
#
# PCOD9376156 Si02
#       8
#     8   8   8   8   8   8   8   8
#     4  12  25  41  58  95 134 166 202 252 308 371
#     4  10  20  37  61  96 124 151 197 270 317 352
#     4  12  25  39  61  93 129 166 203 253 310 362
#     4  11  21  39  69  91 117 166 215 254 297 367
#     4  10  19  38  66  94 116 157 218 258 297 360
#     4  10  20  38  67  90 120 161 208 258 301 366
#     4  11  23  41  63  92 128 162 204 257 312 363
#     4  10  18  35  63  97 116 149 213 268 297 353
#
# _framework density 19.976562999999999
#
# number of rings (size 3 to 8) (size 9 to 14) (size 15 to 20)
#    0.000    1.250    3.750    6.000    0.000    2.500 
#    0.000    2.500    0.000    0.000    0.000    0.000 
#    0.000    0.000    0.000    0.000    0.000    0.000 
#
# Total GULP energy -178533.876893 kJ/mol
# GULP energy per Si atom -5579.183653 kJ/mol
# Density = 1.993109 g / cm^3
# Si number density = 19.976563 Si / 1000 Ang^3
#
#
#
# Elastic Constant Matrix: (Units=GPa)
#
#
# Indices 1 2 3 4 5 6 
#
# 1 40.6361 3.7111 28.9395 0.0000 0.0000 0.0000
# 2 3.7111 83.0316 22.3299 0.0000 0.0000 0.0000
# 3 28.9395 22.3299 145.0930 0.0000 0.0000 0.0000
# 4 0.0000 0.0000 0.0000 31.3215 0.0000 0.0000
# 5 0.0000 0.0000 0.0000 0.0000 -17.4736 0.0000
# 6 0.0000 0.0000 0.0000 0.0000 0.0000 14.9754
#
#
#
# Elastic Compliance Matrix: (Units=1/GPa)
#
#
# Indices 1 2 3 4 5 6 
#
# 1 0.028689 0.000268 -0.005763 0.000000 0.000000 0.000000
# 2 0.000268 0.012566 -0.001987 0.000000 0.000000 0.000000
# 3 -0.005763 -0.001987 0.008347 0.000000 0.000000 0.000000
# 4 0.000000 0.000000 0.000000 0.031927 0.000000 0.000000
# 5 0.000000 0.000000 0.000000 0.000000 -0.057229 0.000000
# 6 0.000000 0.000000 0.000000 0.000000 0.000000 0.066776
#
#
# Mechanical properties :
#
#
# Convention : Reuss Voigt Hill
#
# Bulk Modulus (GPa) = 28.87140 42.08020 35.47580
# Shear Modulus (GPa) = 42.52164 20.01668 31.26916
#
# Velocity S-wave (km/s) = 4.61865 3.16889 3.96067
# Velocity P-wave (km/s) = 6.55184 5.87364 6.22199
#
# Compressibility (1/GPa) = 0.03463635
#
# Stress axis : x y z
#
# Youngs Moduli (GPa) = 34.85706 79.57924 119.79648
#
# Poissons Ratio (x) = -0.02130 0.69042
# Poissons Ratio (y) = -0.00933 0.23807
# Poissons Ratio (z) = 0.20089 0.15815
#
# Static dielectric constant tensor:
#      x y z
#    x 1.688990 0.000000 0.000000 
#    y 0.000000 1.650850 0.000000 
#    z 0.000000 0.000000 1.753580 
# 
# From -- ./inp_files/9252.got.cif
#   From: 2010.05.17/outbox.cif.g08.bks.cpg/sg45_5_cif.got.tgz:9252.got - 2010.06.03 19:51:22.
