data_PCOD9376445
_publ_section_title
;
Structure prediction by ZEFSAII (Michael W. Deem and Ramdas Pophale) SiO2 
 PCOD9376445
Probable space group: I B A 2
;
_chemical_formula_sum "Si O2"
_cell_formula_units_Z 56
_cell_length_a 20.921879
_cell_length_b 13.842359
_cell_length_c 8.804676
_cell_angle_alpha 90.000000
_cell_angle_beta 90.000000
_cell_angle_gamma 90.000000
_cell_volume 2549.906016
_symmetry_space_group_name_H-M "I B A 2"
_symmetry_group_IT_number 45
_symmetry_cell_setting 'orthorhombic'
loop_
_space_group_symop_operation_xyz
x,y,z
-x,-y,z
-x,y,1/2+z
x,-y,1/2+z
1/2+x,1/2+y,1/2+z
1/2-x,1/2-y,1/2+z
1/2-x,1/2+y,z
1/2+x,1/2-y,z
loop_
_atom_site_type_symbol
_atom_site_label
_atom_site_fract_x
_atom_site_fract_y
_atom_site_fract_z
Si Si1 0.219468 0.466867 0.314780
Si Si2 0.705810 0.804151 0.260102
Si Si3 0.540729 0.704542 0.741717
Si Si4 0.834701 0.282693 0.907931
Si Si5 0.585471 0.700411 0.395796
Si Si6 0.809953 0.017363 0.076440
Si Si7 0.898724 0.971586 0.335662
O O1 0.204587 0.579014 0.284180
O O2 0.164156 0.396052 0.361023
O O3 0.271068 0.460212 0.450364
O O4 0.256126 0.426059 0.167012
O O5 0.775706 0.767429 0.315389
O O6 0.651951 0.753442 0.363835
O O7 0.685126 0.780449 0.086055
O O8 0.597011 0.745314 0.848706
O O9 0.560419 0.715133 0.567060
O O10 0.470175 0.739036 0.784086
O O11 0.541744 0.590256 0.784482
O O12 0.594198 0.585309 0.365048
O O13 0.846826 0.956648 0.202425
O O14 0.866176 0.070477 0.988123
#
# Coordination Sequence:
#
# PCOD9376445 Si02
#       7
#     8   8   8   8   8   8   8
#     4  11  24  42  64 100 146 177 226 278 348 391
#     4  12  27  43  71 104 138 182 231 285 340 403
#     4  12  28  46  68  99 139 185 231 283 344 410
#     4  12  27  43  71 104 138 182 231 285 340 403
#     4  12  28  46  68  99 139 185 231 283 344 410
#     4  10  20  36  65  98 133 176 216 272 328 410
#     4  11  23  40  67  98 141 181 225 268 345 409
#
# _framework density 21.961593000000001
#
# number of rings (size 3 to 8) (size 9 to 14) (size 15 to 20)
#    0.000    0.571    2.857    5.571   12.000    1.143 
#    0.000    0.714    0.000    3.429    0.000    0.000 
#    0.000    0.000    0.000    0.000    0.000    0.000 
#
# Total GULP energy -156416.094408 kJ/mol
# GULP energy per Si atom -5586.289086 kJ/mol
# Density = 2.191161 g / cm^3
# Si number density = 21.961593 Si / 1000 Ang^3
#
#
#
# Elastic Constant Matrix: (Units=GPa)
#
#
# Indices 1 2 3 4 5 6 
#
# 1 104.6046 25.8142 18.8051 0.0000 0.0000 0.0000
# 2 25.8142 101.6821 14.6313 0.0000 0.0000 0.0000
# 3 18.8051 14.6313 127.1881 0.0000 0.0000 0.0000
# 4 0.0000 0.0000 0.0000 18.4545 0.0000 0.0000
# 5 0.0000 0.0000 0.0000 0.0000 30.2169 0.0000
# 6 0.0000 0.0000 0.0000 0.0000 0.0000 28.7547
#
#
#
# Elastic Compliance Matrix: (Units=1/GPa)
#
#
# Indices 1 2 3 4 5 6 
#
# 1 0.010392 -0.002458 -0.001254 0.000000 0.000000 0.000000
# 2 -0.002458 0.010581 -0.000854 0.000000 0.000000 0.000000
# 3 -0.001254 -0.000854 0.008146 0.000000 0.000000 0.000000
# 4 0.000000 0.000000 0.000000 0.054187 0.000000 0.000000
# 5 0.000000 0.000000 0.000000 0.000000 0.033094 0.000000
# 6 0.000000 0.000000 0.000000 0.000000 0.000000 0.034777
#
#
# Mechanical properties :
#
#
# Convention : Reuss Voigt Hill
#
# Bulk Modulus (GPa) = 50.02900 50.21954 50.12427
# Shear Modulus (GPa) = 29.94536 33.76684 31.85610
#
# Velocity S-wave (km/s) = 3.69661 3.92540 3.81272
# Velocity P-wave (km/s) = 6.40699 6.59255 6.50043
#
# Compressibility (1/GPa) = 0.01998841
#
# Stress axis : x y z
#
# Youngs Moduli (GPa) = 96.23047 94.50550 122.76020
#
# Poissons Ratio (x) = 0.23227 0.15391
# Poissons Ratio (y) = 0.23651 0.10482
# Poissons Ratio (z) = 0.12065 0.08069
#
# Static dielectric constant tensor:
#      x y z
#    x 1.805170 0.000000 0.000000 
#    y 0.000000 1.853720 0.000000 
#    z 0.000000 0.000000 1.863950 
# 
# From -- ./inp_files/2341.got.cif
#   From: 2010.05.17/outbox.cif.g08.bks.cpg/sg45_2_cif.got.tgz:2341.got - 2010.06.03 19:51:22.
