data_PCOD9376553
_publ_section_title
;
Structure prediction by ZEFSAII (Michael W. Deem and Ramdas Pophale) SiO2 
 PCOD9376553
Probable space group: I B A 2
;
_chemical_formula_sum "Si O2"
_cell_formula_units_Z 60
_cell_length_a 19.459935
_cell_length_b 19.382458
_cell_length_c 7.801529
_cell_angle_alpha 90.000000
_cell_angle_beta 90.000000
_cell_angle_gamma 90.000000
_cell_volume 2942.591418
_symmetry_space_group_name_H-M "I B A 2"
_symmetry_group_IT_number 45
_symmetry_cell_setting 'orthorhombic'
loop_
_space_group_symop_operation_xyz
x,y,z
-x,-y,z
-x,y,1/2+z
x,-y,1/2+z
1/2+x,1/2+y,1/2+z
1/2-x,1/2-y,1/2+z
1/2-x,1/2+y,z
1/2+x,1/2-y,z
loop_
_atom_site_type_symbol
_atom_site_label
_atom_site_fract_x
_atom_site_fract_y
_atom_site_fract_z
Si Si1 0.914190 0.415732 0.986490
Si Si2 0.788979 0.400300 0.398320
Si Si3 0.223805 0.447626 0.291671
Si Si4 0.053593 0.280478 0.343561
Si Si5 0.902111 0.708557 0.957913
Si Si6 0.500000 0.000000 0.236500
Si Si7 0.705019 0.315933 0.843789
Si Si8 0.819280 0.787068 0.443924
O O1 0.840260 0.431505 0.913677
O O2 0.924624 0.334593 0.992560
O O3 0.971133 0.438041 0.846976
O O4 0.936364 0.467324 0.135490
O O5 0.773662 0.469740 0.295040
O O6 0.788943 0.421752 0.598567
O O7 0.859519 0.356214 0.378508
O O8 0.727099 0.347520 0.364845
O O9 0.286087 0.398500 0.356705
O O10 0.076514 0.306434 0.154992
O O11 0.102492 0.215664 0.382535
O O12 0.972194 0.272712 0.360006
O O13 0.850069 0.773662 0.955333
O O14 0.686610 0.296737 0.647867
O O15 0.779121 0.282360 0.887529
#
# Coordination Sequence:
#
# PCOD9376553 Si02
#       8
#     8   8   8   8   8   4   8   8
#     4  11  21  36  50  77 112 161 190 243 274 356
#     4  10  23  39  57  86 118 155 197 236 290 345
#     4  11  21  38  57  83 116 152 196 241 282 348
#     4  12  22  39  59  84 118 153 201 242 291 344
#     4  11  24  40  58  88 118 158 198 243 290 352
#     4  10  24  32  48  72 118 156 200 228 292 332
#     4  10  21  39  60  82 115 153 200 242 293 341
#     4  10  20  40  59  83 114 155 196 247 286 349
#
# _framework density 20.390188999999999
#
# number of rings (size 3 to 8) (size 9 to 14) (size 15 to 20)
#    0.000    1.333    2.667    4.000    3.733    3.200 
#    4.800    0.000    0.000    0.800    0.000    5.600 
#    0.000    0.000    0.000    0.000    0.000    0.000 
#
# Total GULP energy -167587.270287 kJ/mol
# GULP energy per Si atom -5586.242343 kJ/mol
# Density = 2.034378 g / cm^3
# Si number density = 20.390189 Si / 1000 Ang^3
#
#
#
# Elastic Constant Matrix: (Units=GPa)
#
#
# Indices 1 2 3 4 5 6 
#
# 1 112.2340 69.1852 12.9768 0.0000 0.0000 0.0000
# 2 69.1852 96.4224 20.1412 0.0000 0.0000 0.0000
# 3 12.9768 20.1412 34.8834 0.0000 0.0000 0.0000
# 4 0.0000 0.0000 0.0000 24.4748 0.0000 0.0000
# 5 0.0000 0.0000 0.0000 0.0000 31.5263 0.0000
# 6 0.0000 0.0000 0.0000 0.0000 0.0000 30.7298
#
#
#
# Elastic Compliance Matrix: (Units=1/GPa)
#
#
# Indices 1 2 3 4 5 6 
#
# 1 0.015995 -0.011637 0.000769 0.000000 0.000000 0.000000
# 2 -0.011637 0.020260 -0.007369 0.000000 0.000000 0.000000
# 3 0.000769 -0.007369 0.032636 0.000000 0.000000 0.000000
# 4 0.000000 0.000000 0.000000 0.040858 0.000000 0.000000
# 5 0.000000 0.000000 0.000000 0.000000 0.031720 0.000000
# 6 0.000000 0.000000 0.000000 0.000000 0.000000 0.032542
#
#
# Mechanical properties :
#
#
# Convention : Reuss Voigt Hill
#
# Bulk Modulus (GPa) = 30.84859 49.79402 40.32130
# Shear Modulus (GPa) = 22.59487 26.76196 24.67841
#
# Velocity S-wave (km/s) = 3.33246 3.62676 3.48272
# Velocity P-wave (km/s) = 5.47440 6.48163 5.99919
#
# Compressibility (1/GPa) = 0.03241640
#
# Stress axis : x y z
#
# Youngs Moduli (GPa) = 62.52131 49.35803 30.64143
#
# Poissons Ratio (x) = 0.57438 -0.02356
# Poissons Ratio (y) = 0.72756 0.22579
# Poissons Ratio (z) = -0.04808 0.36371
#
# Static dielectric constant tensor:
#      x y z
#    x 1.718830 0.000000 0.000000 
#    y 0.000000 1.780210 0.000000 
#    z 0.000000 0.000000 1.822460 
# 
# From -- ./inp_files/2151.got.cif
#   From: 2010.05.17/outbox.cif.g08.bks.cpg/sg45_2_cif.got.tgz:2151.got - 2010.06.03 19:51:22.
