data_PCOD9376851
_publ_section_title
;
Structure prediction by ZEFSAII (Michael W. Deem and Ramdas Pophale) SiO2 
 PCOD9376851
Probable space group: I B A 2
;
_chemical_formula_sum "Si O2"
_cell_formula_units_Z 64
_cell_length_a 16.872020
_cell_length_b 15.448032
_cell_length_c 9.756861
_cell_angle_alpha 90.000000
_cell_angle_beta 90.000000
_cell_angle_gamma 90.000000
_cell_volume 2543.023420
_symmetry_space_group_name_H-M "I B A 2"
_symmetry_group_IT_number 45
_symmetry_cell_setting 'orthorhombic'
loop_
_space_group_symop_operation_xyz
x,y,z
-x,-y,z
-x,y,1/2+z
x,-y,1/2+z
1/2+x,1/2+y,1/2+z
1/2-x,1/2-y,1/2+z
1/2-x,1/2+y,z
1/2+x,1/2-y,z
loop_
_atom_site_type_symbol
_atom_site_label
_atom_site_fract_x
_atom_site_fract_y
_atom_site_fract_z
Si Si1 0.485663 0.406213 0.638640
Si Si2 0.446612 0.919167 0.524356
Si Si3 0.831271 0.073776 0.487922
Si Si4 0.589099 0.813774 0.425799
Si Si5 0.860572 0.205878 0.694407
Si Si6 0.304262 0.954284 0.003908
Si Si7 0.758794 0.345119 0.739802
Si Si8 0.890440 0.764418 0.645835
O O1 0.500000 0.500000 0.698589
O O2 0.424625 0.426438 0.513245
O O3 0.433002 0.350570 0.745384
O O4 0.556968 0.344821 0.594976
O O5 0.512042 0.875598 0.423784
O O6 0.415539 0.831349 0.596655
O O7 0.500000 0.000000 0.588252
O O8 0.366110 0.967815 0.480154
O O9 0.805960 0.135163 0.616630
O O10 0.797494 0.114066 0.350830
O O11 0.785798 0.983655 0.492369
O O12 0.601826 0.765220 0.571199
O O13 0.665127 0.876430 0.410444
O O14 0.589752 0.745201 0.307093
O O15 0.817861 0.271422 0.794350
O O16 0.308158 0.917427 0.158932
O O17 0.701047 0.293074 0.635793
#
# Coordination Sequence:
#
# PCOD9376851 Si02
#       8
#     8   8   8   8   8   8   8   8
#     4  10  22  42  70  97 144 178 234 298 337 425
#     4  10  22  40  65 100 136 171 225 294 344 416
#     4  10  21  43  65  95 139 178 233 292 345 414
#     4  10  21  42  62  97 136 176 226 284 352 419
#     4   9  20  43  62  94 135 174 231 292 334 430
#     4  10  23  40  64  99 142 172 234 291 342 427
#     4  11  23  40  71  94 140 190 227 287 357 416
#     4  12  22  40  73  96 136 189 229 281 366 414
#
# _framework density 25.166896000000001
#
# number of rings (size 3 to 8) (size 9 to 14) (size 15 to 20)
#    0.750    1.000    2.500    1.500    1.750    2.500 
#    0.000    5.000    0.000    0.000    0.000    0.000 
#    0.000    0.000    0.000    0.000    0.000    0.000 
#
# Total GULP energy -178419.758595 kJ/mol
# GULP energy per Si atom -5575.617456 kJ/mol
# Density = 2.510961 g / cm^3
# Si number density = 25.166896 Si / 1000 Ang^3
#
#
#
# Elastic Constant Matrix: (Units=GPa)
#
#
# Indices 1 2 3 4 5 6 
#
# 1 82.0597 43.9669 4.1342 0.0000 0.0000 0.0000
# 2 43.9669 144.1498 12.6488 0.0000 0.0000 0.0000
# 3 4.1342 12.6488 42.0908 0.0000 0.0000 0.0000
# 4 0.0000 0.0000 0.0000 18.7649 0.0000 0.0000
# 5 0.0000 0.0000 0.0000 0.0000 8.3129 0.0000
# 6 0.0000 0.0000 0.0000 0.0000 0.0000 61.3105
#
#
#
# Elastic Compliance Matrix: (Units=1/GPa)
#
#
# Indices 1 2 3 4 5 6 
#
# 1 0.014567 -0.004434 -0.000098 0.000000 0.000000 0.000000
# 2 -0.004434 0.008475 -0.002111 0.000000 0.000000 0.000000
# 3 -0.000098 -0.002111 0.024402 0.000000 0.000000 0.000000
# 4 0.000000 0.000000 0.000000 0.053291 0.000000 0.000000
# 5 0.000000 0.000000 0.000000 0.000000 0.120295 0.000000
# 6 0.000000 0.000000 0.000000 0.000000 0.000000 0.016310
#
#
# Mechanical properties :
#
#
# Convention : Reuss Voigt Hill
#
# Bulk Modulus (GPa) = 29.27694 43.31111 36.29403
# Shear Modulus (GPa) = 19.08291 31.51436 25.29863
#
# Velocity S-wave (km/s) = 2.75663 3.54250 3.17398
# Velocity P-wave (km/s) = 4.66802 5.82918 5.28061
#
# Compressibility (1/GPa) = 0.03415657
#
# Stress axis : x y z
#
# Youngs Moduli (GPa) = 68.64755 117.99349 40.97976
#
# Poissons Ratio (x) = 0.52324 0.00402
# Poissons Ratio (y) = 0.30442 0.08652
# Poissons Ratio (z) = 0.00674 0.24912
#
# Static dielectric constant tensor:
#      x y z
#    x 2.107640 0.000000 0.000000 
#    y 0.000000 2.077970 0.000000 
#    z 0.000000 0.000000 2.008780 
# 
# From -- ./inp_files/4496.got.cif
#   From: 2010.05.17/outbox.cif.g08.bks.cpg/sg45_3_cif.got.tgz:4496.got - 2010.06.03 19:51:22.
