data_PCOD9376069
_publ_section_title
;
Structure prediction by ZEFSAII (Michael W. Deem and Ramdas Pophale) SiO2 
 PCOD9376069
Probable space group: I B A 2
;
_chemical_formula_sum "Si O2"
_cell_formula_units_Z 52
_cell_length_a 5.558814
_cell_length_b 29.139381
_cell_length_c 13.993306
_cell_angle_alpha 90.000000
_cell_angle_beta 90.000000
_cell_angle_gamma 90.000000
_cell_volume 2266.641290
_symmetry_space_group_name_H-M "I B A 2"
_symmetry_group_IT_number 45
_symmetry_cell_setting 'orthorhombic'
loop_
_space_group_symop_operation_xyz
x,y,z
-x,-y,z
-x,y,1/2+z
x,-y,1/2+z
1/2+x,1/2+y,1/2+z
1/2-x,1/2-y,1/2+z
1/2-x,1/2+y,z
1/2+x,1/2-y,z
loop_
_atom_site_type_symbol
_atom_site_label
_atom_site_fract_x
_atom_site_fract_y
_atom_site_fract_z
Si Si1 0.639790 0.235006 0.225810
Si Si2 0.000000 0.000000 0.142832
Si Si3 0.612419 0.729385 0.948963
Si Si4 0.096130 0.551241 0.181609
Si Si5 0.625810 0.043521 0.994741
Si Si6 0.850109 0.868936 0.398259
Si Si7 0.855563 0.365392 0.788643
O O1 0.377799 0.242828 0.182065
O O2 0.615528 0.257802 0.333561
O O3 0.689359 0.180798 0.229918
O O4 0.123124 0.041411 0.201123
O O5 0.811286 0.022639 0.070841
O O6 0.366479 0.751840 0.984579
O O7 0.599292 0.674812 0.965116
O O8 0.000000 0.500000 0.204346
O O9 0.946036 0.589294 0.234854
O O10 0.073609 0.563301 0.068372
O O11 0.763333 0.082273 0.938447
O O12 0.500000 0.000000 0.942688
O O13 0.601085 0.853181 0.346548
O O14 0.104291 0.874385 0.343171
#
# Coordination Sequence:
#
# PCOD9376069 Si02
#       7
#     8   4   8   8   8   8   8
#     4  10  16  33  52  83 120 162 186 238 299 378
#     4   8  18  44  64  72 112 168 208 238 308 386
#     4  10  16  33  52  82 119 161 188 237 299 377
#     4   9  22  42  61  83 116 169 204 247 308 385
#     4   9  22  42  62  82 117 167 207 244 312 382
#     4  12  23  35  62  96 120 153 204 261 307 354
#     4  12  23  35  62  97 122 151 206 259 309 352
#
# _framework density 22.941434999999998
#
# number of rings (size 3 to 8) (size 9 to 14) (size 15 to 20)
#    0.000    2.154    6.154    0.000    8.615    0.615 
#    0.000    0.000    0.000    1.846    0.000    0.000 
#    0.000    0.000    0.000    0.000    0.000    0.000 
#
# Total GULP energy -144746.344704 kJ/mol
# GULP energy per Si atom -5567.167104 kJ/mol
# Density = 2.288922 g / cm^3
# Si number density = 22.941435 Si / 1000 Ang^3
#
#
#
# Elastic Constant Matrix: (Units=GPa)
#
#
# Indices 1 2 3 4 5 6 
#
# 1 200.2534 70.3054 36.6670 0.0000 0.0000 0.0000
# 2 70.3054 192.3272 27.5820 0.0000 0.0000 0.0000
# 3 36.6670 27.5820 32.2406 -0.0001 0.0000 0.0000
# 4 0.0000 0.0000 -0.0001 270.3138 0.0000 0.0000
# 5 0.0000 0.0000 0.0000 0.0000 24.5793 0.0000
# 6 0.0000 0.0000 0.0000 0.0000 0.0000 47.8370
#
#
#
# Elastic Compliance Matrix: (Units=1/GPa)
#
#
# Indices 1 2 3 4 5 6 
#
# 1 0.006686 -0.001543 -0.006284 0.000000 0.000000 0.000000
# 2 -0.001543 0.006283 -0.003620 0.000000 0.000000 0.000000
# 3 -0.006284 -0.003620 0.041261 0.000000 0.000000 0.000000
# 4 0.000000 0.000000 0.000000 0.003699 0.000000 0.000000
# 5 0.000000 0.000000 0.000000 0.000000 0.040685 0.000000
# 6 0.000000 0.000000 0.000000 0.000000 0.000000 0.020904
#
#
# Mechanical properties :
#
#
# Convention : Reuss Voigt Hill
#
# Bulk Modulus (GPa) = 31.91299 77.10334 54.50817
# Shear Modulus (GPa) = 32.71041 87.89713 60.30377
#
# Velocity S-wave (km/s) = 3.78010 6.19652 5.13255
# Velocity P-wave (km/s) = 5.74396 9.21290 7.67693
#
# Compressibility (1/GPa) = 0.03133520
#
# Stress axis : x y z
#
# Youngs Moduli (GPa) = 149.56720 159.16882 24.23623
#
# Poissons Ratio (x) = 0.24558 0.15230
# Poissons Ratio (y) = 0.23076 0.08774
# Poissons Ratio (z) = 0.93988 0.57621
#
# Static dielectric constant tensor:
#      x y z
#    x 2.129330 0.000000 0.000000 
#    y 0.000000 1.798890 0.000000 
#    z 0.000000 0.000000 1.960300 
# 
# From -- ./inp_files/7360.got.cif
#   From: 2010.05.17/outbox.cif.g08.bks.cpg/sg45_4_cif.got.tgz:7360.got - 2010.06.03 19:51:22.
