data_PCOD9376578
_publ_section_title
;
Structure prediction by ZEFSAII (Michael W. Deem and Ramdas Pophale) SiO2 
 PCOD9376578
Probable space group: I B A 2
;
_chemical_formula_sum "Si O2"
_cell_formula_units_Z 52
_cell_length_a 7.178037
_cell_length_b 16.357977
_cell_length_c 19.117500
_cell_angle_alpha 90.000000
_cell_angle_beta 90.000000
_cell_angle_gamma 90.000000
_cell_volume 2244.741753
_symmetry_space_group_name_H-M "I B A 2"
_symmetry_group_IT_number 45
_symmetry_cell_setting 'orthorhombic'
loop_
_space_group_symop_operation_xyz
x,y,z
-x,-y,z
-x,y,1/2+z
x,-y,1/2+z
1/2+x,1/2+y,1/2+z
1/2-x,1/2-y,1/2+z
1/2-x,1/2+y,z
1/2+x,1/2-y,z
loop_
_atom_site_type_symbol
_atom_site_label
_atom_site_fract_x
_atom_site_fract_y
_atom_site_fract_z
Si Si1 0.000000 0.000000 0.390450
Si Si2 0.133902 0.077093 0.636505
Si Si3 0.745247 0.808004 0.997408
Si Si4 0.665241 0.369552 0.488724
Si Si5 0.425004 0.141353 0.727978
Si Si6 0.214667 0.192037 0.157740
Si Si7 0.631403 0.920134 0.874560
O O1 0.152565 0.942434 0.354979
O O2 0.859165 0.943633 0.435676
O O3 0.235645 0.098473 0.563319
O O4 0.291611 0.071606 0.695424
O O5 0.982234 0.146513 0.653801
O O6 0.000000 0.000000 0.625878
O O7 0.754526 0.716245 0.966728
O O8 0.633276 0.870523 0.947947
O O9 0.950679 0.844392 0.999902
O O10 0.697479 0.798005 0.079508
O O11 0.633807 0.140316 0.699533
O O12 0.331177 0.223520 0.696789
O O13 0.432097 0.136920 0.811067
O O14 0.500000 0.000000 0.876163
#
# Coordination Sequence:
#
# PCOD9376578 Si02
#       7
#     4   8   8   8   8   8   8
#     4  10  24  46  64  94 144 180 230 288 344 422
#     4  11  24  41  70 104 142 180 227 299 351 411
#     4  10  22  43  70 101 132 184 236 288 346 413
#     4  10  20  40  69 103 129 178 234 288 350 404
#     4  12  25  44  71 102 140 186 229 290 356 428
#     4  11  23  46  71 104 137 177 247 286 346 421
#     4  11  29  47  65 104 143 187 231 283 366 431
#
# _framework density 23.165248999999999
#
# number of rings (size 3 to 8) (size 9 to 14) (size 15 to 20)
#    0.000    1.231    3.846    0.923    5.385    2.462 
#    0.000    0.000    0.000    0.000    0.000    0.000 
#    0.000    0.000    0.000    0.000    0.000    0.000 
#
# Total GULP energy -145240.899189 kJ/mol
# GULP energy per Si atom -5586.188430 kJ/mol
# Density = 2.311252 g / cm^3
# Si number density = 23.165249 Si / 1000 Ang^3
#
#
#
# Elastic Constant Matrix: (Units=GPa)
#
#
# Indices 1 2 3 4 5 6 
#
# 1 75.8119 -2.1769 21.5488 0.0000 0.0000 0.0000
# 2 -2.1769 85.7472 20.1111 0.0000 0.0000 0.0000
# 3 21.5488 20.1111 94.1250 0.0000 0.0000 0.0000
# 4 0.0000 0.0000 0.0000 24.1600 0.0000 0.0000
# 5 0.0000 0.0000 0.0000 0.0000 23.2395 0.0000
# 6 0.0000 0.0000 0.0000 0.0000 0.0000 22.6522
#
#
#
# Elastic Compliance Matrix: (Units=1/GPa)
#
#
# Indices 1 2 3 4 5 6 
#
# 1 0.014222 0.001184 -0.003509 0.000000 0.000000 0.000000
# 2 0.001184 0.012376 -0.002915 0.000000 0.000000 0.000000
# 3 -0.003509 -0.002915 0.012050 0.000000 0.000000 0.000000
# 4 0.000000 0.000000 0.000000 0.041391 0.000000 0.000000
# 5 0.000000 0.000000 0.000000 0.000000 0.043030 0.000000
# 6 0.000000 0.000000 0.000000 0.000000 0.000000 0.044146
#
#
# Mechanical properties :
#
#
# Convention : Reuss Voigt Hill
#
# Bulk Modulus (GPa) = 35.50150 37.18334 36.34242
# Shear Modulus (GPa) = 26.72583 28.42375 27.57479
#
# Velocity S-wave (km/s) = 3.40031 3.50666 3.45389
# Velocity P-wave (km/s) = 5.54750 5.69927 5.62390
#
# Compressibility (1/GPa) = 0.02816782
#
# Stress axis : x y z
#
# Youngs Moduli (GPa) = 70.31402 80.80139 82.98477
#
# Poissons Ratio (x) = -0.09567 0.29119
# Poissons Ratio (y) = -0.08325 0.24193
# Poissons Ratio (z) = 0.24673 0.23557
#
# Static dielectric constant tensor:
#      x y z
#    x 1.894940 0.000000 0.000000 
#    y 0.000000 1.893290 0.000000 
#    z 0.000000 0.000000 1.853440 
# 
# From -- ./inp_files/7649.got.cif
#   From: 2010.05.17/outbox.cif.g08.bks.cpg/sg45_4_cif.got.tgz:7649.got - 2010.06.03 19:51:22.
