data_PCOD9376965
_publ_section_title
;
Structure prediction by ZEFSAII (Michael W. Deem and Ramdas Pophale) SiO2 
 PCOD9376965
Probable space group: I B A 2
;
_chemical_formula_sum "Si O2"
_cell_formula_units_Z 64
_cell_length_a 13.135798
_cell_length_b 25.803006
_cell_length_c 7.969156
_cell_angle_alpha 90.000000
_cell_angle_beta 90.000000
_cell_angle_gamma 90.000000
_cell_volume 2701.090237
_symmetry_space_group_name_H-M "I B A 2"
_symmetry_group_IT_number 45
_symmetry_cell_setting 'orthorhombic'
loop_
_space_group_symop_operation_xyz
x,y,z
-x,-y,z
-x,y,1/2+z
x,-y,1/2+z
1/2+x,1/2+y,1/2+z
1/2-x,1/2-y,1/2+z
1/2-x,1/2+y,z
1/2+x,1/2-y,z
loop_
_atom_site_type_symbol
_atom_site_label
_atom_site_fract_x
_atom_site_fract_y
_atom_site_fract_z
Si Si1 0.248611 0.524517 0.388400
Si Si2 0.039696 0.179360 0.063520
Si Si3 0.614003 0.483372 0.666873
Si Si4 0.424506 0.950849 0.510472
Si Si5 0.901309 0.390606 0.345768
Si Si6 0.374702 0.735828 0.366416
Si Si7 0.636860 0.627053 0.249296
Si Si8 0.309501 0.190716 0.573907
O O1 0.357488 0.530533 0.478206
O O2 0.291828 0.521745 0.201166
O O3 0.167640 0.478563 0.414704
O O4 0.183797 0.574147 0.434591
O O5 0.109309 0.159151 0.914580
O O6 0.971090 0.227900 0.992727
O O7 0.105335 0.190321 0.229608
O O8 0.955036 0.137958 0.118676
O O9 0.500000 0.500000 0.681915
O O10 0.636651 0.433699 0.781512
O O11 0.390419 0.910407 0.654815
O O12 0.489940 0.914072 0.391144
O O13 0.500000 0.000000 0.565606
O O14 0.880160 0.334857 0.428845
O O15 0.271611 0.728158 0.475096
O O16 0.366134 0.782770 0.232867
O O17 0.737291 0.649056 0.164969
#
# Coordination Sequence:
#
# PCOD9376965 Si02
#       8
#     8   8   8   8   8   8   8   8
#     4  11  23  42  61  91 135 177 214 267 322 382
#     4   9  21  41  64  90 124 172 216 268 336 409
#     4  12  26  38  61  94 133 177 223 267 321 385
#     4  10  22  41  66  91 130 176 212 263 325 377
#     4  11  23  40  65  95 125 170 224 263 321 391
#     4  10  22  42  67  93 127 170 214 275 351 400
#     4  10  22  39  61  89 128 169 216 270 325 392
#     4  11  23  41  67  96 129 163 218 282 333 407
#
# _framework density 23.694134999999999
#
# number of rings (size 3 to 8) (size 9 to 14) (size 15 to 20)
#    0.000    1.500    2.500    2.250    5.250    3.000 
#    0.000    1.250    0.000    0.000    0.000    0.000 
#    0.000    0.000    0.000    0.000    0.000    0.000 
#
# Total GULP energy -178329.011456 kJ/mol
# GULP energy per Si atom -5572.781608 kJ/mol
# Density = 2.364021 g / cm^3
# Si number density = 23.694135 Si / 1000 Ang^3
#
#
#
# Elastic Constant Matrix: (Units=GPa)
#
#
# Indices 1 2 3 4 5 6 
#
# 1 80.4276 9.8709 20.5862 -0.0005 0.0006 0.0014
# 2 9.8709 29.4904 -12.9315 -0.0032 0.0011 0.0031
# 3 20.5862 -12.9315 47.1594 -0.0133 0.0000 0.0073
# 4 -0.0005 -0.0032 -0.0133 5.7769 0.0004 0.0029
# 5 0.0006 0.0011 0.0000 0.0004 12.1048 0.0003
# 6 0.0014 0.0031 0.0073 0.0029 0.0003 11.2992
#
#
#
# Elastic Compliance Matrix: (Units=1/GPa)
#
#
# Indices 1 2 3 4 5 6 
#
# 1 0.016087 -0.009621 -0.009660 -0.000026 0.000000 0.000007
# 2 -0.009621 0.044297 0.016346 0.000062 -0.000004 -0.000022
# 3 -0.009660 0.016346 0.029904 0.000077 -0.000001 -0.000023
# 4 -0.000026 0.000062 0.000077 0.173104 -0.000006 -0.000044
# 5 0.000000 -0.000004 -0.000001 -0.000006 0.082612 -0.000002
# 6 0.000007 -0.000022 -0.000023 -0.000044 -0.000002 0.088502
#
#
# Mechanical properties :
#
#
# Convention : Reuss Voigt Hill
#
# Bulk Modulus (GPa) = 11.84569 21.34764 16.59667
# Shear Modulus (GPa) = 10.67203 15.13965 12.90584
#
# Velocity S-wave (km/s) = 2.12458 2.53051 2.33638
# Velocity P-wave (km/s) = 3.32096 4.19133 3.78127
#
# Compressibility (1/GPa) = 0.08441886
#
# Stress axis : x y z
#
# Youngs Moduli (GPa) = 62.16223 22.57474 33.44038
#
# Poissons Ratio (x) = 0.21718 0.32305
# Poissons Ratio (y) = 0.59804 -0.54663
# Poissons Ratio (z) = 0.60051 -0.36901
#
# Static dielectric constant tensor:
#      x y z
#    x 1.853720 0.000000 0.000000 
#    y 0.000000 2.044800 0.000000 
#    z 0.000000 0.000000 2.081060 
# 
# From -- ./inp_files/1502.got.cif
#   From: 2010.05.17/outbox.cif.g08.bks.cpg/sg45_1_cif.got.tgz:1502.got - 2010.06.03 19:51:22.
