data_PCOD9376734
_publ_section_title
;
Structure prediction by ZEFSAII (Michael W. Deem and Ramdas Pophale) SiO2 
 PCOD9376734
Probable space group: I B A 2
;
_chemical_formula_sum "Si O2"
_cell_formula_units_Z 48
_cell_length_a 26.848124
_cell_length_b 8.605612
_cell_length_c 8.955414
_cell_angle_alpha 90.000000
_cell_angle_beta 90.000000
_cell_angle_gamma 90.000000
_cell_volume 2069.099491
_symmetry_space_group_name_H-M "I B A 2"
_symmetry_group_IT_number 45
_symmetry_cell_setting 'orthorhombic'
loop_
_space_group_symop_operation_xyz
x,y,z
-x,-y,z
-x,y,1/2+z
x,-y,1/2+z
1/2+x,1/2+y,1/2+z
1/2-x,1/2-y,1/2+z
1/2-x,1/2+y,z
1/2+x,1/2-y,z
loop_
_atom_site_type_symbol
_atom_site_label
_atom_site_fract_x
_atom_site_fract_y
_atom_site_fract_z
Si Si1 0.461043 0.141900 0.607830
Si Si2 0.885320 0.276018 0.013951
Si Si3 0.795881 0.089083 0.898126
Si Si4 0.258901 0.865878 0.208363
Si Si5 0.135126 0.493719 0.751550
Si Si6 0.990227 0.179637 0.885622
O O1 0.407074 0.092101 0.663483
O O2 0.465361 0.209016 0.442180
O O3 0.478167 0.280029 0.715971
O O4 0.500000 0.000000 0.624130
O O5 0.851103 0.137332 0.949793
O O6 0.871015 0.430858 0.916397
O O7 0.942011 0.235064 0.979211
O O8 0.875564 0.321624 0.186045
O O9 0.780071 0.201623 0.762324
O O10 0.781507 0.922703 0.831198
O O11 0.763563 0.127781 0.044245
O O12 0.307520 0.975045 0.213313
O O13 0.000000 0.000000 0.906643
#
# Coordination Sequence:
#
# PCOD9376734 Si02
#       6
#     8   8   8   8   8   8
#     4  11  22  41  68  92 122 171 218 264 316 386
#     4  10  22  41  64  95 126 166 215 261 325 389
#     4  11  23  42  65  94 130 170 215 267 328 387
#     4  11  22  42  64  93 131 168 216 272 322 392
#     4  10  21  38  67  92 121 162 224 264 305 379
#     4  11  24  43  60  95 136 162 207 272 333 387
#
# _framework density 23.198498000000001
#
# number of rings (size 3 to 8) (size 9 to 14) (size 15 to 20)
#    0.000    1.333    1.667    5.000    2.333    0.000 
#   15.000    0.000    0.000    0.000    0.000    0.000 
#    0.000    0.000    0.000    0.000    0.000    0.000 
#
# Total GULP energy -134077.914334 kJ/mol
# GULP energy per Si atom -5586.579764 kJ/mol
# Density = 2.314570 g / cm^3
# Si number density = 23.198498 Si / 1000 Ang^3
#
#
#
# Elastic Constant Matrix: (Units=GPa)
#
#
# Indices 1 2 3 4 5 6 
#
# 1 87.0041 12.4101 28.4453 0.0000 0.0000 0.0000
# 2 12.4101 42.8870 -15.7928 0.0000 0.0000 0.0000
# 3 28.4453 -15.7928 58.7013 0.0000 0.0000 0.0000
# 4 0.0000 0.0000 0.0000 38.1423 0.0000 0.0000
# 5 0.0000 0.0000 0.0000 0.0000 8.9572 0.0000
# 6 0.0000 0.0000 0.0000 0.0000 0.0000 12.4321
#
#
#
# Elastic Compliance Matrix: (Units=1/GPa)
#
#
# Indices 1 2 3 4 5 6 
#
# 1 0.015923 -0.008268 -0.009940 0.000000 0.000000 0.000000
# 2 -0.008268 0.030174 0.012124 0.000000 0.000000 0.000000
# 3 -0.009940 0.012124 0.025114 0.000000 0.000000 0.000000
# 4 0.000000 0.000000 0.000000 0.026218 0.000000 0.000000
# 5 0.000000 0.000000 0.000000 0.000000 0.111642 0.000000
# 6 0.000000 0.000000 0.000000 0.000000 0.000000 0.080437
#
#
# Mechanical properties :
#
#
# Convention : Reuss Voigt Hill
#
# Bulk Modulus (GPa) = 16.93660 26.52420 21.73040
# Shear Modulus (GPa) = 15.55902 22.80830 19.18366
#
# Velocity S-wave (km/s) = 2.59258 3.13897 2.87877
# Velocity P-wave (km/s) = 4.03467 4.95943 4.52076
#
# Compressibility (1/GPa) = 0.05904373
#
# Stress axis : x y z
#
# Youngs Moduli (GPa) = 62.80238 33.14076 39.81818
#
# Poissons Ratio (x) = 0.27401 0.39580
# Poissons Ratio (y) = 0.51925 -0.48277
# Poissons Ratio (z) = 0.62427 -0.40181
#
# Static dielectric constant tensor:
#      x y z
#    x 1.844200 0.000000 0.000000 
#    y 0.000000 1.920670 0.000000 
#    z 0.000000 0.000000 1.867210 
# 
# From -- ./inp_files/1056.got.cif
#   From: 2010.05.17/outbox.cif.g08.bks.cpg/sg45_1_cif.got.tgz:1056.got - 2010.06.03 19:51:22.
