data_PCOD9376727
_publ_section_title
;
Structure prediction by ZEFSAII (Michael W. Deem and Ramdas Pophale) SiO2 
 PCOD9376727
Probable space group: I B A 2
;
_chemical_formula_sum "Si O2"
_cell_formula_units_Z 40
_cell_length_a 11.358173
_cell_length_b 4.773139
_cell_length_c 27.798878
_cell_angle_alpha 90.000000
_cell_angle_beta 90.000000
_cell_angle_gamma 90.000000
_cell_volume 1507.092222
_symmetry_space_group_name_H-M "I B A 2"
_symmetry_group_IT_number 45
_symmetry_cell_setting 'orthorhombic'
loop_
_space_group_symop_operation_xyz
x,y,z
-x,-y,z
-x,y,1/2+z
x,-y,1/2+z
1/2+x,1/2+y,1/2+z
1/2-x,1/2-y,1/2+z
1/2-x,1/2+y,z
1/2+x,1/2-y,z
loop_
_atom_site_type_symbol
_atom_site_label
_atom_site_fract_x
_atom_site_fract_y
_atom_site_fract_z
Si Si1 0.834891 0.092573 0.350940
Si Si2 0.325570 0.603000 0.961100
Si Si3 0.330797 0.905593 0.207125
Si Si4 0.500000 0.000000 0.623035
Si Si5 0.000000 0.500000 0.791279
Si Si6 0.337424 0.593950 0.562634
O O1 0.717894 0.284791 0.342310
O O2 0.870304 0.071941 0.407136
O O3 0.934943 0.260040 0.322116
O O4 0.200355 0.433341 0.963625
O O5 0.120004 0.957449 0.007687
O O6 0.213045 0.724483 0.207199
O O7 0.407634 0.858137 0.159880
O O8 0.408556 0.857083 0.254021
O O9 0.436685 0.760168 0.591844
O O10 0.277877 0.291607 0.570866
#
# Coordination Sequence:
#
# PCOD9376727 Si02
#       6
#     8   8   8   4   4   8
#     4  10  21  38  64  97 132 175 227 282 342 411
#     4   8  16  34  60  86 122 164 210 275 336 389
#     4  11  26  45  64  98 144 183 232 297 358 422
#     4  11  24  40  70 101 136 188 238 288 354 420
#     4  11  24  40  70 101 136 188 238 288 354 420
#     4  10  21  38  64  97 132 175 227 282 342 411
#
# _framework density 26.541176
#
# number of rings (size 3 to 8) (size 9 to 14) (size 15 to 20)
#    0.000    2.000    0.000    2.400    0.000    8.000 
#    0.000    0.000    0.000   79.200    0.000    8.400 
#    0.000    0.000    0.000    0.000    0.000    0.000 
#
# Total GULP energy -111775.503737 kJ/mol
# GULP energy per Si atom -5588.775187 kJ/mol
# Density = 2.648077 g / cm^3
# Si number density = 26.541176 Si / 1000 Ang^3
#
#
#
# Elastic Constant Matrix: (Units=GPa)
#
#
# Indices 1 2 3 4 5 6 
#
# 1 106.0396 17.0828 85.8855 0.0000 0.0000 0.0000
# 2 17.0828 128.9208 48.0511 0.0000 0.0000 0.0000
# 3 85.8855 48.0511 252.6976 0.0000 0.0000 0.0000
# 4 0.0000 0.0000 0.0000 26.8248 0.0000 0.0000
# 5 0.0000 0.0000 0.0000 0.0000 -67.9460 0.0000
# 6 0.0000 0.0000 0.0000 0.0000 0.0000 45.1412
#
#
#
# Elastic Compliance Matrix: (Units=1/GPa)
#
#
# Indices 1 2 3 4 5 6 
#
# 1 0.013013 -0.000082 -0.004407 0.000000 0.000000 0.000000
# 2 -0.000082 0.008349 -0.001560 0.000000 0.000000 0.000000
# 3 -0.004407 -0.001560 0.005752 0.000000 0.000000 0.000000
# 4 0.000000 0.000000 0.000000 0.037279 0.000000 0.000000
# 5 0.000000 0.000000 0.000000 0.000000 -0.014718 0.000000
# 6 0.000000 0.000000 0.000000 0.000000 0.000000 0.022153
#
#
# Mechanical properties :
#
#
# Convention : Reuss Voigt Hill
#
# Bulk Modulus (GPa) = 66.59387 87.74408 77.16898
# Shear Modulus (GPa) = 56.22323 23.24657 39.73490
#
# Velocity S-wave (km/s) = 4.60754 2.96272 3.87344
# Velocity P-wave (km/s) = 7.31103 6.69589 7.01021
#
# Compressibility (1/GPa) = 0.01501640
#
# Stress axis : x y z
#
# Youngs Moduli (GPa) = 76.84457 119.77642 173.85699
#
# Poissons Ratio (x) = 0.00978 0.76625
# Poissons Ratio (y) = 0.00627 0.27119
# Poissons Ratio (z) = 0.33868 0.18683
#
# Static dielectric constant tensor:
#      x y z
#    x 2.178490 0.000000 0.000000 
#    y 0.000000 1.973970 0.000000 
#    z 0.000000 0.000000 2.101160 
# 
# From -- ./inp_files/9995.got.cif
#   From: 2010.05.17/outbox.cif.g08.bks.cpg/sg45_5_cif.got.tgz:9995.got - 2010.06.03 19:51:22.
