data_PCOD9376761
_publ_section_title
;
Structure prediction by ZEFSAII (Michael W. Deem and Ramdas Pophale) SiO2 
 PCOD9376761
Probable space group: I B A 2
;
_chemical_formula_sum "Si O2"
_cell_formula_units_Z 52
_cell_length_a 14.376727
_cell_length_b 8.794734
_cell_length_c 16.769360
_cell_angle_alpha 90.000000
_cell_angle_beta 90.000000
_cell_angle_gamma 90.000000
_cell_volume 2120.309322
_symmetry_space_group_name_H-M "I B A 2"
_symmetry_group_IT_number 45
_symmetry_cell_setting 'orthorhombic'
loop_
_space_group_symop_operation_xyz
x,y,z
-x,-y,z
-x,y,1/2+z
x,-y,1/2+z
1/2+x,1/2+y,1/2+z
1/2-x,1/2-y,1/2+z
1/2-x,1/2+y,z
1/2+x,1/2-y,z
loop_
_atom_site_type_symbol
_atom_site_label
_atom_site_fract_x
_atom_site_fract_y
_atom_site_fract_z
Si Si1 0.374214 0.769367 0.512710
Si Si2 0.139133 0.441872 0.659693
Si Si3 0.048483 0.815003 0.848878
Si Si4 0.163185 0.846531 0.342315
Si Si5 0.692197 0.739771 0.710979
Si Si6 0.500000 0.000000 0.794294
Si Si7 0.777762 0.570781 0.950843
O O1 0.432023 0.679849 0.444803
O O2 0.283055 0.661582 0.515868
O O3 0.411119 0.825753 0.597892
O O4 0.340206 0.936736 0.484331
O O5 0.245125 0.381952 0.664424
O O6 0.144671 0.627252 0.657770
O O7 0.079532 0.424490 0.740116
O O8 0.119844 0.836191 0.773733
O O9 0.045209 0.630952 0.843870
O O10 0.945456 0.876196 0.831203
O O11 0.229906 0.820388 0.267250
O O12 0.171055 0.698180 0.398973
O O13 0.208319 0.983556 0.391507
#
# Coordination Sequence:
#
# PCOD9376761 Si02
#       7
#     8   8   8   8   8   4   8
#     4  11  23  40  64  99 127 180 220 279 341 405
#     4  11  24  42  65  95 140 170 227 275 351 404
#     4  11  22  37  69  96 130 170 236 270 339 396
#     4  11  21  40  65 101 130 169 229 285 323 411
#     4  11  22  42  67  97 132 184 217 284 337 410
#     4  10  22  40  62  96 128 176 218 280 326 418
#     4  10  21  39  64  94 133 171 222 277 337 387
#
# _framework density 24.524723000000002
#
# number of rings (size 3 to 8) (size 9 to 14) (size 15 to 20)
#    0.000    1.231    4.615    2.769    0.000    2.462 
#    0.000    1.538    0.000    3.692    0.000    0.000 
#    0.000    0.000    0.000    0.000    0.000    0.000 
#
# Total GULP energy -145037.293132 kJ/mol
# GULP energy per Si atom -5578.357428 kJ/mol
# Density = 2.446890 g / cm^3
# Si number density = 24.524723 Si / 1000 Ang^3
#
#
#
# Elastic Constant Matrix: (Units=GPa)
#
#
# Indices 1 2 3 4 5 6 
#
# 1 107.6294 13.0553 21.4395 0.0000 0.0000 0.0000
# 2 13.0553 67.9600 -8.2723 0.0000 0.0000 0.0000
# 3 21.4395 -8.2723 44.8232 0.0000 0.0000 0.0000
# 4 0.0000 0.0000 0.0000 36.0877 0.0000 0.0000
# 5 0.0000 0.0000 0.0000 0.0000 -208.3418 0.0000
# 6 0.0000 0.0000 0.0000 0.0000 0.0000 37.1359
#
#
#
# Elastic Compliance Matrix: (Units=1/GPa)
#
#
# Indices 1 2 3 4 5 6 
#
# 1 0.010751 -0.002753 -0.005650 0.000000 0.000000 0.000000
# 2 -0.002753 0.015758 0.004225 0.000000 0.000000 0.000000
# 3 -0.005650 0.004225 0.025792 0.000000 0.000000 0.000000
# 4 0.000000 0.000000 0.000000 0.027710 0.000000 0.000000
# 5 0.000000 0.000000 0.000000 0.000000 -0.004800 0.000000
# 6 0.000000 0.000000 0.000000 0.000000 0.000000 0.026928
#
#
# Mechanical properties :
#
#
# Convention : Reuss Voigt Hill
#
# Bulk Modulus (GPa) = 22.75628 30.31749 26.53689
# Shear Modulus (GPa) = 39.95412 -14.07764 12.93824
#
# Velocity S-wave (km/s) = 4.04064 -2.39847 2.29936
# Velocity P-wave (km/s) = 5.57387 2.17225 4.23005
#
# Compressibility (1/GPa) = 0.04394392
#
# Stress axis : x y z
#
# Youngs Moduli (GPa) = 93.01824 63.46115 38.77145
#
# Poissons Ratio (x) = 0.17471 0.21907
# Poissons Ratio (y) = 0.25608 -0.16381
# Poissons Ratio (z) = 0.52557 -0.26812
#
# Static dielectric constant tensor:
#      x y z
#    x 2.115610 0.000000 0.000000 
#    y 0.000000 2.150310 0.000000 
#    z 0.000000 0.000000 2.037080 
# 
# From -- ./inp_files/9169.got.cif
#   From: 2010.05.17/outbox.cif.g08.bks.cpg/sg45_5_cif.got.tgz:9169.got - 2010.06.03 19:51:22.
