data_PCOD9376447
_publ_section_title
;
Structure prediction by ZEFSAII (Michael W. Deem and Ramdas Pophale) SiO2 
 PCOD9376447
Probable space group: I B A 2
;
_chemical_formula_sum "Si O2"
_cell_formula_units_Z 64
_cell_length_a 8.400693
_cell_length_b 30.830606
_cell_length_c 12.687500
_cell_angle_alpha 90.000000
_cell_angle_beta 90.000000
_cell_angle_gamma 90.000000
_cell_volume 3286.042911
_symmetry_space_group_name_H-M "I B A 2"
_symmetry_group_IT_number 45
_symmetry_cell_setting 'orthorhombic'
loop_
_space_group_symop_operation_xyz
x,y,z
-x,-y,z
-x,y,1/2+z
x,-y,1/2+z
1/2+x,1/2+y,1/2+z
1/2-x,1/2-y,1/2+z
1/2-x,1/2+y,z
1/2+x,1/2-y,z
loop_
_atom_site_type_symbol
_atom_site_label
_atom_site_fract_x
_atom_site_fract_y
_atom_site_fract_z
Si Si1 0.315751 0.702559 0.007170
Si Si2 0.752880 0.803589 0.763480
Si Si3 0.127992 0.039438 0.455488
Si Si4 0.706590 0.594723 0.284041
Si Si5 0.532440 0.237010 0.637145
Si Si6 0.325343 0.019580 0.652215
Si Si7 0.639784 0.396604 0.022238
Si Si8 0.349921 0.438269 0.732701
O O1 0.437305 0.739633 0.042777
O O2 0.168165 0.707340 0.086672
O O3 0.388602 0.654645 0.019038
O O4 0.259939 0.707477 0.887195
O O5 0.780297 0.854973 0.753789
O O6 0.588406 0.789472 0.709732
O O7 0.886934 0.775331 0.704779
O O8 0.265773 0.024826 0.533245
O O9 0.207716 0.061045 0.353153
O O10 0.021285 0.075442 0.514030
O O11 0.000000 0.000000 0.431923
O O12 0.821781 0.563780 0.218716
O O13 0.727135 0.591876 0.411465
O O14 0.530969 0.577233 0.252992
O O15 0.500000 0.000000 0.658516
O O16 0.191196 0.987137 0.698774
O O17 0.715139 0.410172 0.134403
#
# Coordination Sequence:
#
# PCOD9376447 Si02
#       8
#     8   8   8   8   8   8   8   8
#     4  10  21  38  63  93 125 163 201 254 305 369
#     4  10  21  39  64  93 127 160 206 254 306 373
#     4  11  21  38  62  87 113 159 205 249 298 358
#     4  10  21  40  63  89 118 163 207 253 299 359
#     4  10  21  37  63  93 128 162 201 246 318 368
#     4  12  25  39  60  87 127 158 201 257 312 364
#     4  10  20  36  66  88 115 155 210 252 297 351
#     4  11  21  39  64  86 115 155 210 246 292 363
#
# _framework density 19.476313000000001
#
# number of rings (size 3 to 8) (size 9 to 14) (size 15 to 20)
#    0.000    1.500    2.500    3.375    0.000    1.500 
#    0.000    0.000    2.750    0.000    0.000    0.000 
#    0.000    0.000    0.000    0.000    0.000    0.000 
#
# Total GULP energy -178462.989990 kJ/mol
# GULP energy per Si atom -5576.968437 kJ/mol
# Density = 1.943198 g / cm^3
# Si number density = 19.476313 Si / 1000 Ang^3
#
#
#
# Elastic Constant Matrix: (Units=GPa)
#
#
# Indices 1 2 3 4 5 6 
#
# 1 77.8879 46.1337 27.7639 0.0000 0.0000 0.0000
# 2 46.1337 100.4350 41.0996 -0.0001 0.0000 0.0000
# 3 27.7639 41.0996 119.1323 -0.0004 0.0001 0.0000
# 4 0.0000 -0.0001 -0.0004 36.7275 0.0000 0.0000
# 5 0.0000 0.0000 0.0001 0.0000 5.4759 0.0000
# 6 0.0000 0.0000 0.0000 0.0000 0.0000 17.3124
#
#
#
# Elastic Compliance Matrix: (Units=1/GPa)
#
#
# Indices 1 2 3 4 5 6 
#
# 1 0.017881 -0.007578 -0.001553 0.000000 0.000000 0.000000
# 2 -0.007578 0.014805 -0.003342 0.000000 0.000000 0.000000
# 3 -0.001553 -0.003342 0.009909 0.000000 0.000000 0.000000
# 4 0.000000 0.000000 0.000000 0.027228 0.000000 0.000000
# 5 0.000000 0.000000 0.000000 0.000000 0.182619 0.000000
# 6 0.000000 0.000000 0.000000 0.000000 0.000000 0.057762
#
#
# Mechanical properties :
#
#
# Convention : Reuss Voigt Hill
#
# Bulk Modulus (GPa) = 56.65734 58.60551 57.63143
# Shear Modulus (GPa) = 14.66141 24.06701 19.36421
#
# Velocity S-wave (km/s) = 2.74666 3.51908 3.15658
# Velocity P-wave (km/s) = 6.26198 6.83139 6.55287
#
# Compressibility (1/GPa) = 0.01764996
#
# Stress axis : x y z
#
# Youngs Moduli (GPa) = 55.92520 67.54490 100.92128
#
# Poissons Ratio (x) = 0.51186 0.15672
# Poissons Ratio (y) = 0.42380 0.33723
# Poissons Ratio (z) = 0.08684 0.22570
#
# Static dielectric constant tensor:
#      x y z
#    x 1.678160 0.000000 0.000000 
#    y 0.000000 1.668580 0.000000 
#    z 0.000000 0.000000 1.721900 
# 
# From -- ./inp_files/3402.got.cif
#   From: 2010.05.17/outbox.cif.g08.bks.cpg/sg45_2_cif.got.tgz:3402.got - 2010.06.03 19:51:22.
