data_PCOD9376918
_publ_section_title
;
Structure prediction by ZEFSAII (Michael W. Deem and Ramdas Pophale) SiO2 
 PCOD9376918
Probable space group: I B A 2
;
_chemical_formula_sum "Si O2"
_cell_formula_units_Z 52
_cell_length_a 19.515737
_cell_length_b 14.106493
_cell_length_c 9.642280
_cell_angle_alpha 90.000000
_cell_angle_beta 90.000000
_cell_angle_gamma 90.000000
_cell_volume 2654.506256
_symmetry_space_group_name_H-M "I B A 2"
_symmetry_group_IT_number 45
_symmetry_cell_setting 'orthorhombic'
loop_
_space_group_symop_operation_xyz
x,y,z
-x,-y,z
-x,y,1/2+z
x,-y,1/2+z
1/2+x,1/2+y,1/2+z
1/2-x,1/2-y,1/2+z
1/2-x,1/2+y,z
1/2+x,1/2-y,z
loop_
_atom_site_type_symbol
_atom_site_label
_atom_site_fract_x
_atom_site_fract_y
_atom_site_fract_z
Si Si1 0.500000 0.500000 0.439721
Si Si2 0.774885 0.450947 0.270940
Si Si3 0.048754 0.806921 0.586714
Si Si4 0.120752 0.901800 0.833664
Si Si5 0.394694 0.730877 0.583303
Si Si6 0.294431 0.120538 0.964984
Si Si7 0.833321 0.254158 0.380704
O O1 0.475762 0.409400 0.527802
O O2 0.563958 0.481928 0.340044
O O3 0.694028 0.439942 0.294972
O O4 0.799642 0.549186 0.336558
O O5 0.809527 0.362108 0.351773
O O6 0.784599 0.438937 0.106607
O O7 0.091281 0.824572 0.726870
O O8 0.101242 0.757978 0.480435
O O9 0.975871 0.755455 0.606244
O O10 0.120417 0.859308 0.987523
O O11 0.360727 0.816498 0.497579
O O12 0.356516 0.719360 0.728860
O O13 0.229946 0.191466 0.939032
#
# Coordination Sequence:
#
# PCOD9376918 Si02
#       7
#     4   8   8   8   8   8   8
#     4  10  22  34  56  96 130 156 204 256 326 396
#     4  11  25  39  65  94 126 172 219 267 329 387
#     4  11  22  40  65  90 130 168 215 267 333 398
#     4  11  21  37  59  92 124 169 200 263 327 390
#     4  10  23  40  63  91 127 171 211 265 328 390
#     4  11  24  42  64  93 131 169 223 269 325 393
#     4  11  23  44  63  95 127 170 217 271 327 396
#
# _framework density 19.589331000000001
#
# number of rings (size 3 to 8) (size 9 to 14) (size 15 to 20)
#    0.000    1.231    3.077    3.231    2.154    3.692 
#    0.000    0.769    0.000    3.692    0.000    0.000 
#    0.000    0.000    0.000    0.000    0.000    0.000 
#
# Total GULP energy -145205.850799 kJ/mol
# GULP energy per Si atom -5584.840415 kJ/mol
# Density = 1.954474 g / cm^3
# Si number density = 19.589331 Si / 1000 Ang^3
#
#
#
# Elastic Constant Matrix: (Units=GPa)
#
#
# Indices 1 2 3 4 5 6 
#
# 1 95.9499 20.9129 27.2219 0.0000 0.0000 0.0000
# 2 20.9129 26.9026 10.4518 0.0000 0.0000 0.0000
# 3 27.2219 10.4518 59.6178 0.0000 0.0000 0.0000
# 4 0.0000 0.0000 0.0000 37.7338 0.0000 0.0000
# 5 0.0000 0.0000 0.0000 0.0000 12.0960 0.0000
# 6 0.0000 0.0000 0.0000 0.0000 0.0000 31.0379
#
#
#
# Elastic Compliance Matrix: (Units=1/GPa)
#
#
# Indices 1 2 3 4 5 6 
#
# 1 0.013675 -0.008804 -0.004700 0.000000 0.000000 0.000000
# 2 -0.008804 0.045556 -0.003967 0.000000 0.000000 0.000000
# 3 -0.004700 -0.003967 0.019615 0.000000 0.000000 0.000000
# 4 0.000000 0.000000 0.000000 0.026501 0.000000 0.000000
# 5 0.000000 0.000000 0.000000 0.000000 0.082672 0.000000
# 6 0.000000 0.000000 0.000000 0.000000 0.000000 0.032219
#
#
# Mechanical properties :
#
#
# Convention : Reuss Voigt Hill
#
# Bulk Modulus (GPa) = 22.77714 33.29374 28.03544
# Shear Modulus (GPa) = 18.53128 24.43246 21.48187
#
# Velocity S-wave (km/s) = 3.07903 3.53545 3.31510
# Velocity P-wave (km/s) = 4.92881 5.80505 5.38478
#
# Compressibility (1/GPa) = 0.04390367
#
# Stress axis : x y z
#
# Youngs Moduli (GPa) = 73.12871 21.95107 50.98093
#
# Poissons Ratio (x) = 0.19325 0.23963
# Poissons Ratio (y) = 0.64381 0.20222
# Poissons Ratio (z) = 0.34374 0.08707
#
# Static dielectric constant tensor:
#      x y z
#    x 1.740300 0.000000 0.000000 
#    y 0.000000 1.719650 0.000000 
#    z 0.000000 0.000000 1.710120 
# 
# From -- ./inp_files/1783.got.cif
#   From: 2010.05.17/outbox.cif.g08.bks.cpg/sg45_1_cif.got.tgz:1783.got - 2010.06.03 19:51:22.
