data_PCOD9376722
_publ_section_title
;
Structure prediction by ZEFSAII (Michael W. Deem and Ramdas Pophale) SiO2 
 PCOD9376722
Probable space group: I B A 2
;
_chemical_formula_sum "Si O2"
_cell_formula_units_Z 48
_cell_length_a 15.569066
_cell_length_b 10.894903
_cell_length_c 12.953093
_cell_angle_alpha 90.000000
_cell_angle_beta 90.000000
_cell_angle_gamma 90.000000
_cell_volume 2197.148502
_symmetry_space_group_name_H-M "I B A 2"
_symmetry_group_IT_number 45
_symmetry_cell_setting 'orthorhombic'
loop_
_space_group_symop_operation_xyz
x,y,z
-x,-y,z
-x,y,1/2+z
x,-y,1/2+z
1/2+x,1/2+y,1/2+z
1/2-x,1/2-y,1/2+z
1/2-x,1/2+y,z
1/2+x,1/2-y,z
loop_
_atom_site_type_symbol
_atom_site_label
_atom_site_fract_x
_atom_site_fract_y
_atom_site_fract_z
Si Si1 0.330070 0.362575 0.478970
Si Si2 0.978288 0.356038 0.225545
Si Si3 0.836058 0.442060 0.099633
Si Si4 0.732292 0.497222 0.783586
Si Si5 0.114913 0.602048 0.425195
Si Si6 0.429351 0.602886 0.173190
O O1 0.240238 0.383111 0.535273
O O2 0.316229 0.403185 0.360166
O O3 0.354742 0.222500 0.481629
O O4 0.400887 0.423501 0.554189
O O5 0.888395 0.342848 0.165115
O O6 0.961324 0.361082 0.348236
O O7 0.000000 0.500000 0.202997
O O8 0.036271 0.241374 0.192702
O O9 0.789388 0.534858 0.181594
O O10 0.897010 0.503000 0.014250
O O11 0.804614 0.558094 0.855798
O O12 0.656783 0.583795 0.740786
O O13 0.500000 0.500000 0.202290
#
# Coordination Sequence:
#
# PCOD9376722 Si02
#       6
#     8   8   8   8   8   8
#     4  10  21  38  63  88 116 160 207 251 302 362
#     4  11  24  40  61  91 127 161 197 250 310 367
#     4   9  21  40  60  85 117 158 206 252 299 360
#     4   9  21  40  60  85 117 158 206 252 299 360
#     4  10  21  38  63  88 116 160 207 251 302 362
#     4  11  24  40  61  91 127 161 197 250 310 367
#
# _framework density 21.846496999999999
#
# number of rings (size 3 to 8) (size 9 to 14) (size 15 to 20)
#    0.000    2.000    0.000    2.000    0.000   16.000 
#    0.000    0.000    0.000    0.000    0.000    0.000 
#    0.000    0.000    0.000    0.000    0.000    0.000 
#
# Total GULP energy -133709.443570 kJ/mol
# GULP energy per Si atom -5571.226815 kJ/mol
# Density = 2.179677 g / cm^3
# Si number density = 21.846497 Si / 1000 Ang^3
#
#
#
# Elastic Constant Matrix: (Units=GPa)
#
#
# Indices 1 2 3 4 5 6 
#
# 1 65.4738 22.6574 44.1950 0.0000 0.0000 0.0000
# 2 22.6574 45.9395 10.2014 0.0000 0.0000 0.0000
# 3 44.1950 10.2014 117.9098 0.0000 0.0000 0.0000
# 4 0.0000 0.0000 0.0000 -123.3567 0.0000 0.0000
# 5 0.0000 0.0000 0.0000 0.0000 25.7054 0.0000
# 6 0.0000 0.0000 0.0000 0.0000 0.0000 19.4764
#
#
#
# Elastic Compliance Matrix: (Units=1/GPa)
#
#
# Indices 1 2 3 4 5 6 
#
# 1 0.024369 -0.010186 -0.008253 0.000000 0.000000 0.000000
# 2 -0.010186 0.026452 0.001529 0.000000 0.000000 0.000000
# 3 -0.008253 0.001529 0.011442 0.000000 0.000000 0.000000
# 4 0.000000 0.000000 0.000000 -0.008107 0.000000 0.000000
# 5 0.000000 0.000000 0.000000 0.000000 0.038902 0.000000
# 6 0.000000 0.000000 0.000000 0.000000 0.000000 0.051344
#
#
# Mechanical properties :
#
#
# Convention : Reuss Voigt Hill
#
# Bulk Modulus (GPa) = 35.15681 42.60340 38.88010
# Shear Modulus (GPa) = 26.63791 -5.48367 10.57712
#
# Velocity S-wave (km/s) = 3.49567 -1.58605 2.20274
# Velocity P-wave (km/s) = 5.69390 4.02362 4.93001
#
# Compressibility (1/GPa) = 0.02844399
#
# Stress axis : x y z
#
# Youngs Moduli (GPa) = 41.03621 37.80446 87.39746
#
# Poissons Ratio (x) = 0.38508 0.72126
# Poissons Ratio (y) = 0.41800 -0.13366
# Poissons Ratio (z) = 0.33866 -0.05782
#
# Static dielectric constant tensor:
#      x y z
#    x 1.852900 0.000000 0.000000 
#    y 0.000000 1.806910 0.000000 
#    z 0.000000 0.000000 1.858600 
# 
# From -- ./inp_files/3672.got.cif
#   From: 2010.05.17/outbox.cif.g08.bks.cpg/sg45_2_cif.got.tgz:3672.got - 2010.06.03 19:51:22.
