data_PCOD9376372
_publ_section_title
;
Structure prediction by ZEFSAII (Michael W. Deem and Ramdas Pophale) SiO2 
 PCOD9376372
Probable space group: I B A 2
;
_chemical_formula_sum "Si O2"
_cell_formula_units_Z 56
_cell_length_a 4.995026
_cell_length_b 32.094903
_cell_length_c 16.545105
_cell_angle_alpha 90.000000
_cell_angle_beta 90.000000
_cell_angle_gamma 90.000000
_cell_volume 2652.426439
_symmetry_space_group_name_H-M "I B A 2"
_symmetry_group_IT_number 45
_symmetry_cell_setting 'orthorhombic'
loop_
_space_group_symop_operation_xyz
x,y,z
-x,-y,z
-x,y,1/2+z
x,-y,1/2+z
1/2+x,1/2+y,1/2+z
1/2-x,1/2-y,1/2+z
1/2-x,1/2+y,z
1/2+x,1/2-y,z
loop_
_atom_site_type_symbol
_atom_site_label
_atom_site_fract_x
_atom_site_fract_y
_atom_site_fract_z
Si Si1 0.391368 0.770983 0.371180
Si Si2 0.163640 0.275269 0.566345
Si Si3 0.385375 0.102842 0.672301
Si Si4 0.141370 0.357322 0.825494
Si Si5 0.359194 0.370507 0.579274
Si Si6 0.643633 0.602977 0.398894
Si Si7 0.243718 0.971702 0.292138
O O1 0.588039 0.733908 0.343020
O O2 0.362912 0.772332 0.468553
O O3 0.555030 0.811058 0.345824
O O4 0.377131 0.240882 0.596170
O O5 0.259449 0.322330 0.582818
O O6 0.535836 0.132174 0.736859
O O7 0.609479 0.100132 0.603300
O O8 0.323822 0.061022 0.722163
O O9 0.113647 0.121612 0.636313
O O10 0.445557 0.370743 0.840375
O O11 0.951748 0.384366 0.884817
O O12 0.436996 0.383513 0.488330
O O13 0.635633 0.555595 0.367923
O O14 0.500000 0.000000 0.312191
O O15 0.000000 0.000000 0.263383
#
# Coordination Sequence:
#
# PCOD9376372 Si02
#       7
#     8   8   8   8   8   8   8
#     4  10  20  33  57  89 120 163 223 277 315 351
#     4  10  21  36  58  90 127 174 218 267 319 359
#     4  11  25  41  66  93 131 172 208 252 338 394
#     4  11  21  41  60  91 123 171 217 267 308 391
#     4  12  23  42  63  99 132 170 219 269 310 387
#     4  11  23  39  70  93 122 163 216 265 316 375
#     4  11  23  46  70  95 125 165 211 261 326 409
#
# _framework density 21.112743999999999
#
# number of rings (size 3 to 8) (size 9 to 14) (size 15 to 20)
#    0.000    1.143    1.429    6.857    4.000    0.000 
#    0.000    8.571    0.000    0.000    0.000    0.000 
#    0.000    0.000    0.000    0.000    0.000    0.000 
#
# Total GULP energy -156330.694514 kJ/mol
# GULP energy per Si atom -5583.239090 kJ/mol
# Density = 2.106469 g / cm^3
# Si number density = 21.112744 Si / 1000 Ang^3
#
#
#
# Elastic Constant Matrix: (Units=GPa)
#
#
# Indices 1 2 3 4 5 6 
#
# 1 92.7404 54.0723 27.8476 0.0000 0.0000 0.0000
# 2 54.0723 97.5870 31.3575 0.0000 0.0000 0.0000
# 3 27.8476 31.3575 59.2670 0.0000 0.0000 0.0000
# 4 0.0000 0.0000 0.0000 8.4433 0.0000 0.0000
# 5 0.0000 0.0000 0.0000 0.0000 35.7556 0.0000
# 6 0.0000 0.0000 0.0000 0.0000 0.0000 30.9788
#
#
#
# Elastic Compliance Matrix: (Units=1/GPa)
#
#
# Indices 1 2 3 4 5 6 
#
# 1 0.016515 -0.008021 -0.003516 0.000000 0.000000 0.000000
# 2 -0.008021 0.016242 -0.004825 0.000000 0.000000 0.000000
# 3 -0.003516 -0.004825 0.021077 0.000000 0.000000 0.000000
# 4 0.000000 0.000000 0.000000 0.118438 0.000000 0.000000
# 5 0.000000 0.000000 0.000000 0.000000 0.027968 0.000000
# 6 0.000000 0.000000 0.000000 0.000000 0.000000 0.032280
#
#
# Mechanical properties :
#
#
# Convention : Reuss Voigt Hill
#
# Bulk Modulus (GPa) = 47.36834 52.90547 50.13690
# Shear Modulus (GPa) = 18.36337 24.12332 21.24335
#
# Velocity S-wave (km/s) = 2.95240 3.38390 3.17548
# Velocity P-wave (km/s) = 5.84010 6.35458 6.10276
#
# Compressibility (1/GPa) = 0.02111115
#
# Stress axis : x y z
#
# Youngs Moduli (GPa) = 60.54969 61.56863 47.44396
#
# Poissons Ratio (x) = 0.49386 0.16682
# Poissons Ratio (y) = 0.48568 0.22890
# Poissons Ratio (z) = 0.21290 0.29704
#
# Static dielectric constant tensor:
#      x y z
#    x 1.751320 0.000000 0.000000 
#    y 0.000000 1.806140 0.000000 
#    z 0.000000 0.000000 1.800480 
# 
# From -- ./inp_files/5257.got.cif
#   From: 2010.05.17/outbox.cif.g08.bks.cpg/sg45_3_cif.got.tgz:5257.got - 2010.06.03 19:51:22.
