data_PCOD9376256
_publ_section_title
;
Structure prediction by ZEFSAII (Michael W. Deem and Ramdas Pophale) SiO2 
 PCOD9376256
Probable space group: I B A 2
;
_chemical_formula_sum "Si O2"
_cell_formula_units_Z 32
_cell_length_a 16.656401
_cell_length_b 7.863233
_cell_length_c 8.620090
_cell_angle_alpha 90.000000
_cell_angle_beta 90.000000
_cell_angle_gamma 90.000000
_cell_volume 1129.000444
_symmetry_space_group_name_H-M "I B A 2"
_symmetry_group_IT_number 45
_symmetry_cell_setting 'orthorhombic'
loop_
_space_group_symop_operation_xyz
x,y,z
-x,-y,z
-x,y,1/2+z
x,-y,1/2+z
1/2+x,1/2+y,1/2+z
1/2-x,1/2-y,1/2+z
1/2-x,1/2+y,z
1/2+x,1/2-y,z
loop_
_atom_site_type_symbol
_atom_site_label
_atom_site_fract_x
_atom_site_fract_y
_atom_site_fract_z
Si Si1 0.972166 0.730856 0.828480
Si Si2 0.595158 0.900531 0.645115
Si Si3 0.167856 0.074708 0.709851
Si Si4 0.231513 0.372579 0.517188
O O1 0.930065 0.578828 0.729064
O O2 0.919554 0.892901 0.780354
O O3 0.065812 0.721606 0.786012
O O4 0.956757 0.679539 0.004891
O O5 0.674869 0.965461 0.556782
O O6 0.182961 0.207465 0.569044
O O7 0.192566 0.896803 0.633381
O O8 0.232080 0.117664 0.846160
#
# Coordination Sequence:
#
# PCOD9376256 Si02
#       4
#     8   8   8   8
#     4  10  20  35  59  90 123 165 215 278 329 394
#     4  10  19  34  58  89 124 161 213 264 327 397
#     4  11  23  39  65  95 130 169 222 281 341 403
#     4  11  22  40  64  97 131 173 220 280 339 407
#
# _framework density 28.343657
#
# number of rings (size 3 to 8) (size 9 to 14) (size 15 to 20)
#    0.000    1.500    0.000    9.000    0.000    2.000 
#    0.000    2.500    0.000   12.000    0.000    3.500 
#    0.000    0.000    0.000    0.000    0.000    0.000 
#
# Total GULP energy -89427.600333 kJ/mol
# GULP energy per Si atom -5589.225021 kJ/mol
# Density = 2.827915 g / cm^3
# Si number density = 28.343657 Si / 1000 Ang^3
#
#
#
# Elastic Constant Matrix: (Units=GPa)
#
#
# Indices 1 2 3 4 5 6 
#
# 1 101.8809 8.5013 37.3767 0.0000 0.0000 0.0000
# 2 8.5013 90.0649 -0.0887 0.0000 0.0000 0.0000
# 3 37.3767 -0.0887 165.1623 0.0000 0.0000 0.0000
# 4 0.0000 0.0000 0.0000 26.9399 0.0000 0.0000
# 5 0.0000 0.0000 0.0000 0.0000 52.7515 0.0000
# 6 0.0000 0.0000 0.0000 0.0000 0.0000 49.1389
#
#
#
# Elastic Compliance Matrix: (Units=1/GPa)
#
#
# Indices 1 2 3 4 5 6 
#
# 1 0.010797 -0.001022 -0.002444 0.000000 0.000000 0.000000
# 2 -0.001022 0.011200 0.000237 0.000000 0.000000 0.000000
# 3 -0.002444 0.000237 0.006608 0.000000 0.000000 0.000000
# 4 0.000000 0.000000 0.000000 0.037120 0.000000 0.000000
# 5 0.000000 0.000000 0.000000 0.000000 0.018957 0.000000
# 6 0.000000 0.000000 0.000000 0.000000 0.000000 0.020350
#
#
# Mechanical properties :
#
#
# Convention : Reuss Voigt Hill
#
# Bulk Modulus (GPa) = 45.15053 49.85409 47.50231
# Shear Modulus (GPa) = 42.06230 46.52065 44.29147
#
# Velocity S-wave (km/s) = 3.85647 4.05570 3.95734
# Velocity P-wave (km/s) = 5.98281 6.28959 6.13812
#
# Compressibility (1/GPa) = 0.02214813
#
# Stress axis : x y z
#
# Youngs Moduli (GPa) = 92.61626 89.28763 151.33496
#
# Poissons Ratio (x) = 0.09121 0.36986
# Poissons Ratio (y) = 0.09461 -0.03590
# Poissons Ratio (z) = 0.22635 -0.02118
#
# Static dielectric constant tensor:
#      x y z
#    x 2.499470 0.000000 0.000000 
#    y 0.000000 2.322950 0.000000 
#    z 0.000000 0.000000 2.044220 
# 
# From -- ./inp_files/890.got.cif
#   From: 2010.05.17/outbox.cif.g08.bks.cpg/sg45_1_cif.got.tgz:890.got - 2010.06.03 19:51:22.
