data_PCOD9376179
_publ_section_title
;
Structure prediction by ZEFSAII (Michael W. Deem and Ramdas Pophale) SiO2 
 PCOD9376179
Probable space group: I B A 2
;
_chemical_formula_sum "Si O2"
_cell_formula_units_Z 48
_cell_length_a 14.162158
_cell_length_b 11.901734
_cell_length_c 12.305396
_cell_angle_alpha 90.000000
_cell_angle_beta 90.000000
_cell_angle_gamma 90.000000
_cell_volume 2074.126638
_symmetry_space_group_name_H-M "I B A 2"
_symmetry_group_IT_number 45
_symmetry_cell_setting 'orthorhombic'
loop_
_space_group_symop_operation_xyz
x,y,z
-x,-y,z
-x,y,1/2+z
x,-y,1/2+z
1/2+x,1/2+y,1/2+z
1/2-x,1/2-y,1/2+z
1/2-x,1/2+y,z
1/2+x,1/2-y,z
loop_
_atom_site_type_symbol
_atom_site_label
_atom_site_fract_x
_atom_site_fract_y
_atom_site_fract_z
Si Si1 0.139118 0.317454 0.968300
Si Si2 0.500000 0.000000 0.444955
Si Si3 0.500000 0.500000 0.802827
Si Si4 0.239727 0.774576 0.659314
Si Si5 0.383693 0.151062 0.801447
Si Si6 0.323959 0.619508 0.371328
Si Si7 0.066525 0.235531 0.733521
O O1 0.051599 0.396306 0.002581
O O2 0.234183 0.390993 0.947747
O O3 0.111032 0.261371 0.853442
O O4 0.175485 0.225417 0.053507
O O5 0.583769 0.044330 0.366752
O O6 0.590103 0.534843 0.874918
O O7 0.468836 0.607762 0.732917
O O8 0.206505 0.659758 0.723645
O O9 0.212177 0.871385 0.745476
O O10 0.351657 0.767030 0.649661
O O11 0.365868 0.254387 0.884524
O O12 0.473971 0.188378 0.731291
#
# Coordination Sequence:
#
# PCOD9376179 Si02
#       7
#     8   4   4   8   8   8   8
#     4  10  20  37  60  87 117 151 191 232 289 343
#     4  10  20  34  60  84 114 154 190 236 288 340
#     4  10  18  38  64  80 114 150 192 236 300 324
#     4   9  19  38  56  82 116 148 193 230 284 338
#     4   8  18  37  55  79 109 153 187 232 288 326
#     4   8  19  36  59  80 113 155 181 241 283 334
#     4   9  19  38  59  81 115 151 185 243 281 341
#
# _framework density 23.142272999999999
#
# number of rings (size 3 to 8) (size 9 to 14) (size 15 to 20)
#    1.000    2.000    0.000    0.000    2.333    0.667 
#    9.000    5.000    0.000    0.000    0.000    0.000 
#    0.000    0.000    0.000    0.000    0.000    0.000 
#
# Total GULP energy -133679.127724 kJ/mol
# GULP energy per Si atom -5569.963655 kJ/mol
# Density = 2.308960 g / cm^3
# Si number density = 23.142273 Si / 1000 Ang^3
#
#
#
# Elastic Constant Matrix: (Units=GPa)
#
#
# Indices 1 2 3 4 5 6 
#
# 1 120.0071 8.6651 11.4729 0.0000 0.0000 0.0000
# 2 8.6651 44.3296 2.2586 0.0000 0.0000 0.0000
# 3 11.4729 2.2586 61.9161 0.0000 0.0000 0.0000
# 4 0.0000 0.0000 0.0000 -3.1597 0.0000 0.0000
# 5 0.0000 0.0000 0.0000 0.0000 8.0751 0.0000
# 6 0.0000 0.0000 0.0000 0.0000 0.0000 27.2827
#
#
#
# Elastic Compliance Matrix: (Units=1/GPa)
#
#
# Indices 1 2 3 4 5 6 
#
# 1 0.008595 -0.001602 -0.001534 0.000000 0.000000 0.000000
# 2 -0.001602 0.022899 -0.000538 0.000000 0.000000 0.000000
# 3 -0.001534 -0.000538 0.016455 0.000000 0.000000 0.000000
# 4 0.000000 0.000000 0.000000 -0.316487 0.000000 0.000000
# 5 0.000000 0.000000 0.000000 0.000000 0.123837 0.000000
# 6 0.000000 0.000000 0.000000 0.000000 0.000000 0.036653
#
#
# Mechanical properties :
#
#
# Convention : Reuss Voigt Hill
#
# Bulk Modulus (GPa) = 24.63080 30.11622 27.37351
# Shear Modulus (GPa) = -57.36208 20.03003 -18.66602
#
# Velocity S-wave (km/s) = -4.98403 2.94516 -2.84311
# Velocity P-wave (km/s) = 4.73861 4.96055 1.03746
#
# Compressibility (1/GPa) = 0.04059958
#
# Stress axis : x y z
#
# Youngs Moduli (GPa) = 116.34425 43.67029 60.77249
#
# Poissons Ratio (x) = 0.06996 0.09324
# Poissons Ratio (y) = 0.18637 0.03273
# Poissons Ratio (z) = 0.17850 0.02352
#
# Static dielectric constant tensor:
#      x y z
#    x 1.907350 0.000000 0.000000 
#    y 0.000000 1.894270 0.000000 
#    z 0.000000 0.000000 1.919880 
# 
# From -- ./inp_files/4122.got.cif
#   From: 2010.05.17/outbox.cif.g08.bks.cpg/sg45_3_cif.got.tgz:4122.got - 2010.06.03 19:51:22.
