data_PCOD9376638
_publ_section_title
;
Structure prediction by ZEFSAII (Michael W. Deem and Ramdas Pophale) SiO2 
 PCOD9376638
Probable space group: I B A 2
;
_chemical_formula_sum "Si O2"
_cell_formula_units_Z 52
_cell_length_a 12.924016
_cell_length_b 21.101051
_cell_length_c 9.561378
_cell_angle_alpha 90.000000
_cell_angle_beta 90.000000
_cell_angle_gamma 90.000000
_cell_volume 2607.486461
_symmetry_space_group_name_H-M "I B A 2"
_symmetry_group_IT_number 45
_symmetry_cell_setting 'orthorhombic'
loop_
_space_group_symop_operation_xyz
x,y,z
-x,-y,z
-x,y,1/2+z
x,-y,1/2+z
1/2+x,1/2+y,1/2+z
1/2-x,1/2-y,1/2+z
1/2-x,1/2+y,z
1/2+x,1/2-y,z
loop_
_atom_site_type_symbol
_atom_site_label
_atom_site_fract_x
_atom_site_fract_y
_atom_site_fract_z
Si Si1 0.382211 0.147829 0.477370
Si Si2 0.395644 0.319123 0.722209
Si Si3 0.819547 0.907636 0.470663
Si Si4 0.409849 0.380208 0.242277
Si Si5 0.079148 0.678463 0.795129
Si Si6 0.705967 0.290637 0.949448
Si Si7 0.500000 0.500000 0.398453
O O1 0.302573 0.091439 0.436325
O O2 0.487091 0.149609 0.387292
O O3 0.407647 0.146227 0.643217
O O4 0.323286 0.215810 0.446866
O O5 0.489668 0.357973 0.655985
O O6 0.443414 0.251422 0.756920
O O7 0.304378 0.310034 0.611837
O O8 0.364865 0.358099 0.858672
O O9 0.820582 0.882900 0.628832
O O10 0.902039 0.965396 0.472524
O O11 0.377476 0.330683 0.360946
O O12 0.442285 0.446412 0.308698
O O13 0.184693 0.688258 0.884574
#
# Coordination Sequence:
#
# PCOD9376638 Si02
#       7
#     8   8   8   8   8   8   4
#     4  11  24  37  62  93 136 176 218 264 324 402
#     4  10  21  33  58  88 132 173 204 259 320 389
#     4  11  22  40  62  93 126 167 217 273 323 385
#     4  11  21  40  61  93 125 164 219 266 326 385
#     4  11  23  36  57  93 132 176 215 253 325 394
#     4  11  22  37  58  94 136 172 209 267 323 395
#     4  10  24  40  68  96 124 162 220 282 330 370
#
# _framework density 19.942578000000001
#
# number of rings (size 3 to 8) (size 9 to 14) (size 15 to 20)
#    0.000    1.231    4.615    2.308    4.308    1.231 
#    0.000    0.000    0.000    0.923    0.000    0.000 
#    0.000    0.000    0.000    0.000    0.000    0.000 
#
# Total GULP energy -144847.476013 kJ/mol
# GULP energy per Si atom -5571.056770 kJ/mol
# Density = 1.989719 g / cm^3
# Si number density = 19.942578 Si / 1000 Ang^3
#
#
#
# Elastic Constant Matrix: (Units=GPa)
#
#
# Indices 1 2 3 4 5 6 
#
# 1 122.7874 24.1182 45.2637 0.0000 -0.0001 0.0000
# 2 24.1182 43.5223 20.9211 -0.0001 0.0000 0.0000
# 3 45.2637 20.9211 93.5562 -0.0004 0.0000 0.0000
# 4 0.0000 -0.0001 -0.0004 -0.4748 0.0000 0.0000
# 5 -0.0001 0.0000 0.0000 0.0000 29.7055 0.0000
# 6 0.0000 0.0000 0.0000 0.0000 0.0000 32.2397
#
#
#
# Elastic Compliance Matrix: (Units=1/GPa)
#
#
# Indices 1 2 3 4 5 6 
#
# 1 0.010434 -0.003759 -0.004207 0.000004 0.000000 0.000000
# 2 -0.003759 0.027099 -0.004241 -0.000002 0.000000 0.000000
# 3 -0.004207 -0.004241 0.013673 -0.000011 0.000000 0.000000
# 4 0.000004 -0.000002 -0.000011 -2.106325 -0.000001 0.000001
# 5 0.000000 0.000000 0.000000 -0.000001 0.033664 0.000000
# 6 0.000000 0.000000 0.000000 0.000001 0.000000 0.031018
#
#
# Mechanical properties :
#
#
# Convention : Reuss Voigt Hill
#
# Bulk Modulus (GPa) = 37.32783 48.94131 43.13457
# Shear Modulus (GPa) = -2.55481 23.59829 10.52174
#
# Velocity S-wave (km/s) = -1.13308 3.44366 2.29945
# Velocity P-wave (km/s) = 4.12874 6.35658 5.35969
#
# Compressibility (1/GPa) = 0.02678966
#
# Stress axis : x y z
#
# Youngs Moduli (GPa) = 95.84507 36.90217 73.13888
#
# Poissons Ratio (x) = 0.13873 0.30771
# Poissons Ratio (y) = 0.36032 0.31018
# Poissons Ratio (z) = 0.40324 0.15650
#
# Static dielectric constant tensor:
#      x y z
#    x 1.757580 0.000000 0.000000 
#    y 0.000000 1.716280 0.000000 
#    z 0.000000 0.000000 1.707190 
# 
# From -- ./inp_files/1800.got.cif
#   From: 2010.05.17/outbox.cif.g08.bks.cpg/sg45_1_cif.got.tgz:1800.got - 2010.06.03 19:51:22.
