data_PCOD9376958
_publ_section_title
;
Structure prediction by ZEFSAII (Michael W. Deem and Ramdas Pophale) SiO2 
 PCOD9376958
Probable space group: I B A 2
;
_chemical_formula_sum "Si O2"
_cell_formula_units_Z 44
_cell_length_a 9.254674
_cell_length_b 11.040666
_cell_length_c 19.598060
_cell_angle_alpha 90.000000
_cell_angle_beta 90.000000
_cell_angle_gamma 90.000000
_cell_volume 2002.485961
_symmetry_space_group_name_H-M "I B A 2"
_symmetry_group_IT_number 45
_symmetry_cell_setting 'orthorhombic'
loop_
_space_group_symop_operation_xyz
x,y,z
-x,-y,z
-x,y,1/2+z
x,-y,1/2+z
1/2+x,1/2+y,1/2+z
1/2-x,1/2-y,1/2+z
1/2-x,1/2+y,z
1/2+x,1/2-y,z
loop_
_atom_site_type_symbol
_atom_site_label
_atom_site_fract_x
_atom_site_fract_y
_atom_site_fract_z
Si Si1 0.000000 0.000000 0.445820
Si Si2 0.569705 0.621142 0.175536
Si Si3 0.043138 0.362502 0.362959
Si Si4 0.341479 0.212124 0.600315
Si Si5 0.654124 0.353725 0.828118
Si Si6 0.913355 0.738088 0.506512
O O1 0.884292 0.055248 0.390729
O O2 0.053743 0.116707 0.491151
O O3 0.500000 0.500000 0.147913
O O4 0.457073 0.722361 0.149316
O O5 0.730868 0.633784 0.144975
O O6 0.577525 0.616670 0.256909
O O7 0.176557 0.348852 0.312025
O O8 0.111423 0.316387 0.433145
O O9 0.000000 0.500000 0.366573
O O10 0.908097 0.277018 0.348471
O O11 0.222077 0.284836 0.555761
O O12 0.448933 0.170916 0.540039
#
# Coordination Sequence:
#
# PCOD9376958 Si02
#       6
#     4   8   8   8   8   8
#     4  10  22  38  76  94 140 188 228 298 358 404
#     4  11  24  46  70  95 139 188 229 285 342 411
#     4  11  26  41  70 103 142 181 233 297 353 413
#     4  10  24  40  67 101 132 181 234 274 335 425
#     4  11  24  44  68 104 136 187 239 286 355 422
#     4  10  22  42  65 105 138 178 236 286 351 415
#
# _framework density 21.972688000000002
#
# number of rings (size 3 to 8) (size 9 to 14) (size 15 to 20)
#    0.000    1.455    0.909    3.273   12.727    2.909 
#    0.000    2.727    0.000    0.000    0.000    0.000 
#    0.000    0.000    0.000    0.000    0.000    0.000 
#
# Total GULP energy -122609.172814 kJ/mol
# GULP energy per Si atom -5573.144219 kJ/mol
# Density = 2.192268 g / cm^3
# Si number density = 21.972688 Si / 1000 Ang^3
#
#
#
# Elastic Constant Matrix: (Units=GPa)
#
#
# Indices 1 2 3 4 5 6 
#
# 1 87.3159 25.4008 1.5168 0.0000 0.0000 0.0000
# 2 25.4008 85.9633 12.8281 0.0000 0.0000 0.0000
# 3 1.5168 12.8281 85.2258 0.0000 0.0000 0.0000
# 4 0.0000 0.0000 0.0000 -3.5775 0.0000 0.0000
# 5 0.0000 0.0000 0.0000 0.0000 38.6297 0.0000
# 6 0.0000 0.0000 0.0000 0.0000 0.0000 6.1305
#
#
#
# Elastic Compliance Matrix: (Units=1/GPa)
#
#
# Indices 1 2 3 4 5 6 
#
# 1 0.012539 -0.003756 0.000342 0.000000 0.000000 0.000000
# 2 -0.003756 0.013025 -0.001894 0.000000 0.000000 0.000000
# 3 0.000342 -0.001894 0.012012 0.000000 0.000000 0.000000
# 4 0.000000 0.000000 0.000000 -0.279527 0.000000 0.000000
# 5 0.000000 0.000000 0.000000 0.000000 0.025887 0.000000
# 6 0.000000 0.000000 0.000000 0.000000 0.000000 0.163120
#
#
# Mechanical properties :
#
#
# Convention : Reuss Voigt Hill
#
# Bulk Modulus (GPa) = 37.08956 37.55517 37.32237
# Shear Modulus (GPa) = -149.96738 22.82049 -63.57344
#
# Velocity S-wave (km/s) = -8.27042 3.22620 -5.38477
# Velocity P-wave (km/s) = 8.61878 5.56837 4.65170
#
# Compressibility (1/GPa) = 0.02696177
#
# Stress axis : x y z
#
# Youngs Moduli (GPa) = 79.74825 76.77311 83.24676
#
# Poissons Ratio (x) = 0.28838 -0.02849
# Poissons Ratio (y) = 0.29956 0.15765
# Poissons Ratio (z) = -0.02729 0.14539
#
# Static dielectric constant tensor:
#      x y z
#    x 1.959140 0.000000 0.000000 
#    y 0.000000 1.815980 0.000000 
#    z 0.000000 0.000000 1.826200 
# 
# From -- ./inp_files/9518.got.cif
#   From: 2010.05.17/outbox.cif.g08.bks.cpg/sg45_5_cif.got.tgz:9518.got - 2010.06.03 19:51:22.
