data_PCOD9376015
_publ_section_title
;
Structure prediction by ZEFSAII (Michael W. Deem and Ramdas Pophale) SiO2 
 PCOD9376015
Probable space group: I M M 2
;
_chemical_formula_sum "Si O2"
_cell_formula_units_Z 24
_cell_length_a 9.000000
_cell_length_b 18.000000
_cell_length_c 15.000000
_cell_angle_alpha 90.000000
_cell_angle_beta 90.000000
_cell_angle_gamma 90.000000
_cell_volume 2430.000000
_symmetry_space_group_name_H-M "I M M 2"
_symmetry_group_IT_number 44
_symmetry_cell_setting 'orthorhombic'
loop_
_space_group_symop_operation_xyz
x,y,z
-x,-y,z
-x,y,z
x,-y,z
1/2+x,1/2+y,1/2+z
1/2-x,1/2-y,1/2+z
1/2-x,1/2+y,1/2+z
1/2+x,1/2-y,1/2+z
loop_
_atom_site_type_symbol
_atom_site_label
_atom_site_fract_x
_atom_site_fract_y
_atom_site_fract_z
Si Si1 0.672213 0.107803 0.307320
Si Si2 0.172424 0.246958 0.252339
Si Si3 0.324120 0.500000 0.470423
Si Si4 0.172938 0.354740 0.405469
Si Si5 0.327581 0.579237 0.988801
Si Si6 0.677242 0.500000 0.673089
Si Si7 0.175831 0.239996 0.565793
O O1 0.500000 0.094662 0.293970
O O2 0.717317 0.192908 0.304102
O O3 0.726190 0.079015 0.402044
O O4 0.762176 0.069564 0.227935
O O5 0.187864 0.323835 0.305377
O O6 0.222278 0.243916 0.150441
O O7 0.000000 0.223792 0.262664
O O8 0.500000 0.500000 0.475093
O O9 0.269344 0.426326 0.422846
O O10 0.266563 0.500000 0.572328
O O11 0.207719 0.291421 0.479877
O O12 0.000000 0.373502 0.419389
O O13 0.500000 0.583661 0.958550
O O14 0.309146 0.500000 0.036895
O O15 0.299908 0.653719 0.042624
O O16 0.500000 0.500000 0.674154
O O17 0.000000 0.250353 0.587645
#
# Coordination Sequence:
#
# PCOD9376015 Si02
#       7
#     8   8   4   8   8   4   8
#     4  12  23  35  58  92 124 157 200 252 303 364
#     4  11  23  41  63  89 120 164 207 251 308 366
#     4  11  25  41  61  90 119 154 205 259 308 358
#     4  10  22  42  65  86 122 166 203 247 306 368
#     4  10  20  38  63  88 124 166 198 242 307 368
#     4  11  23  39  59  88 125 162 197 249 316 374
#     4  10  21  40  64  93 123 160 208 253 303 366
#
# _framework density 9.8765429999999999
#
# number of rings (size 3 to 8) (size 9 to 14) (size 15 to 20)
#    0.000    1.333    2.500    3.500    0.000    6.667 
#    1.500    0.000    0.000    0.000    0.000    0.000 
#    0.000    0.000    0.000    0.000    0.000    0.000 
#
# Total GULP energy -133937.586845 kJ/mol
# GULP energy per Si atom -5580.732785 kJ/mol
# Density = 0.985406 g / cm^3
# Si number density = 9.876543 Si / 1000 Ang^3
#
#
#
# Elastic Constant Matrix: (Units=GPa)
#
#
# Indices 1 2 3 4 5 6 
#
# 1 37.6446 31.6189 16.6393 0.0000 0.0000 0.0000
# 2 31.6189 73.4010 -9.1767 0.0000 0.0000 0.0000
# 3 16.6393 -9.1767 33.1990 0.0000 0.0000 0.0000
# 4 0.0000 0.0000 0.0000 -27.7344 0.0000 0.0000
# 5 0.0000 0.0000 0.0000 0.0000 28.8988 0.0000
# 6 0.0000 0.0000 0.0000 0.0000 0.0000 23.5365
#
#
#
# Elastic Compliance Matrix: (Units=1/GPa)
#
#
# Indices 1 2 3 4 5 6 
#
# 1 0.092643 -0.047349 -0.059520 0.000000 0.000000 0.000000
# 2 -0.047349 0.038311 0.034321 0.000000 0.000000 0.000000
# 3 -0.059520 0.034321 0.069440 0.000000 0.000000 0.000000
# 4 0.000000 0.000000 0.000000 -0.036056 0.000000 0.000000
# 5 0.000000 0.000000 0.000000 0.000000 0.034604 0.000000
# 6 0.000000 0.000000 0.000000 0.000000 0.000000 0.042487
#
#
# Mechanical properties :
#
#
# Convention : Reuss Voigt Hill
#
# Bulk Modulus (GPa) = 18.08419 24.71195 21.39807
# Shear Modulus (GPa) = 12.34697 11.95105 12.14901
#
# Velocity S-wave (km/s) = 2.50284 2.46239 2.48270
# Velocity P-wave (km/s) = 4.18656 4.54115 4.36746
#
# Compressibility (1/GPa) = 0.05529692
#
# Stress axis : x y z
#
# Youngs Moduli (GPa) = 10.79413 26.10204 14.40098
#
# Poissons Ratio (x) = 1.23591 0.85715
# Poissons Ratio (y) = 0.51109 -0.49426
# Poissons Ratio (z) = 0.64247 -0.89585
#
# Static dielectric constant tensor:
#      x y z
#    x 1.664420 0.000000 0.000000 
#    y 0.000000 1.846340 0.000000 
#    z 0.000000 0.000000 1.671230 
# 
# From -- ./inp_files/16106.got.cif
#   From: 2010.05.17/outbox.ucp.g08.bks.cvg/sg44_9_cif.got.tgz:16106.got - 2010.06.11 16:32:36.
