data_PCOD9376337
_publ_section_title
;
Structure prediction by ZEFSAII (Michael W. Deem and Ramdas Pophale) SiO2 
 PCOD9376337
Probable space group: I B A 2
;
_chemical_formula_sum "Si O2"
_cell_formula_units_Z 44
_cell_length_a 14.157056
_cell_length_b 9.012683
_cell_length_c 14.344725
_cell_angle_alpha 90.000000
_cell_angle_beta 90.000000
_cell_angle_gamma 90.000000
_cell_volume 1830.287328
_symmetry_space_group_name_H-M "I B A 2"
_symmetry_group_IT_number 45
_symmetry_cell_setting 'orthorhombic'
loop_
_space_group_symop_operation_xyz
x,y,z
-x,-y,z
-x,y,1/2+z
x,-y,1/2+z
1/2+x,1/2+y,1/2+z
1/2-x,1/2-y,1/2+z
1/2-x,1/2+y,z
1/2+x,1/2-y,z
loop_
_atom_site_type_symbol
_atom_site_label
_atom_site_fract_x
_atom_site_fract_y
_atom_site_fract_z
Si Si1 0.632644 0.378809 0.226750
Si Si2 0.294456 0.067481 0.754394
Si Si3 0.973666 0.772943 0.392833
Si Si4 0.132025 0.777450 0.531848
Si Si5 0.000000 0.500000 0.756110
Si Si6 0.319749 0.057010 0.971815
O O1 0.698312 0.517203 0.208539
O O2 0.573660 0.386869 0.321096
O O3 0.586336 0.323655 0.131080
O O4 0.703380 0.243854 0.250059
O O5 0.395182 0.011980 0.712115
O O6 0.294529 0.022505 0.863240
O O7 0.005681 0.643787 0.321553
O O8 0.901346 0.682937 0.460645
O O9 0.060318 0.827526 0.452348
O O10 0.230486 0.864593 0.519839
O O11 0.149920 0.600530 0.516707
#
# Coordination Sequence:
#
# PCOD9376337 Si02
#       6
#     8   8   8   8   4   8
#     4  10  23  38  66  98 126 170 210 266 321 375
#     4  10  19  41  62  95 125 169 214 255 329 374
#     4  10  20  40  60  94 127 169 214 254 319 383
#     4  12  21  42  63  97 130 161 220 266 320 384
#     4   8  16  34  66  80 124 164 212 250 298 380
#     4  10  21  38  68  89 125 173 207 268 323 379
#
# _framework density 24.039940999999999
#
# number of rings (size 3 to 8) (size 9 to 14) (size 15 to 20)
#    0.000    2.182    3.636    3.273    0.000    0.000 
#   19.636    3.636    0.000    4.364    0.000    0.000 
#    0.000    0.000    0.000    0.000    0.000    0.000 
#
# Total GULP energy -122821.891332 kJ/mol
# GULP energy per Si atom -5582.813242 kJ/mol
# Density = 2.398522 g / cm^3
# Si number density = 24.039941 Si / 1000 Ang^3
#
#
#
# Elastic Constant Matrix: (Units=GPa)
#
#
# Indices 1 2 3 4 5 6 
#
# 1 45.8375 37.0071 22.8319 0.0000 0.0000 0.0000
# 2 37.0071 58.5209 29.6169 0.0000 0.0000 0.0000
# 3 22.8319 29.6169 107.9152 0.0000 0.0000 0.0000
# 4 0.0000 0.0000 0.0000 13.5406 0.0000 0.0000
# 5 0.0000 0.0000 0.0000 0.0000 13.4554 0.0000
# 6 0.0000 0.0000 0.0000 0.0000 0.0000 35.5387
#
#
#
# Elastic Compliance Matrix: (Units=1/GPa)
#
#
# Indices 1 2 3 4 5 6 
#
# 1 0.044936 -0.027412 -0.001984 0.000000 0.000000 0.000000
# 2 -0.027412 0.036566 -0.004236 0.000000 0.000000 0.000000
# 3 -0.001984 -0.004236 0.010849 0.000000 0.000000 0.000000
# 4 0.000000 0.000000 0.000000 0.073852 0.000000 0.000000
# 5 0.000000 0.000000 0.000000 0.000000 0.074320 0.000000
# 6 0.000000 0.000000 0.000000 0.000000 0.000000 0.028138
#
#
# Mechanical properties :
#
#
# Convention : Reuss Voigt Hill
#
# Bulk Modulus (GPa) = 39.86138 43.46506 41.66322
# Shear Modulus (GPa) = 14.52278 20.69478 17.60878
#
# Velocity S-wave (km/s) = 2.46053 2.93721 2.70937
# Velocity P-wave (km/s) = 4.96886 5.44266 5.21115
#
# Compressibility (1/GPa) = 0.02508694
#
# Stress axis : x y z
#
# Youngs Moduli (GPa) = 22.25405 27.34758 92.17595
#
# Poissons Ratio (x) = 0.74965 0.18288
# Poissons Ratio (y) = 0.61003 0.39044
# Poissons Ratio (z) = 0.04415 0.11584
#
# Static dielectric constant tensor:
#      x y z
#    x 1.962840 0.000000 0.000000 
#    y 0.000000 1.914970 0.000000 
#    z 0.000000 0.000000 1.963970 
# 
# From -- ./inp_files/6459.got.cif
#   From: 2010.05.17/outbox.cif.g08.bks.cpg/sg45_4_cif.got.tgz:6459.got - 2010.06.03 19:51:22.
