data_PCOD9376018
_publ_section_title
;
Structure prediction by ZEFSAII (Michael W. Deem and Ramdas Pophale) SiO2 
 PCOD9376018
Probable space group: I M M 2
;
_chemical_formula_sum "Si O2"
_cell_formula_units_Z 32
_cell_length_a 15.000000
_cell_length_b 9.000000
_cell_length_c 24.000000
_cell_angle_alpha 90.000000
_cell_angle_beta 90.000000
_cell_angle_gamma 90.000000
_cell_volume 3240.000000
_symmetry_space_group_name_H-M "I M M 2"
_symmetry_group_IT_number 44
_symmetry_cell_setting 'orthorhombic'
loop_
_space_group_symop_operation_xyz
x,y,z
-x,-y,z
-x,y,z
x,-y,z
1/2+x,1/2+y,1/2+z
1/2-x,1/2-y,1/2+z
1/2-x,1/2+y,1/2+z
1/2+x,1/2-y,1/2+z
loop_
_atom_site_type_symbol
_atom_site_label
_atom_site_fract_x
_atom_site_fract_y
_atom_site_fract_z
Si Si1 0.286854 0.322005 0.591200
Si Si2 0.891619 0.830199 0.880144
Si Si3 0.225966 0.820976 0.212030
Si Si4 0.899836 0.319129 0.548987
Si Si5 0.891691 0.330966 0.425376
Si Si6 0.105030 0.323830 0.992136
Si Si7 0.397310 0.320326 0.255376
Si Si8 0.603538 0.678415 0.813386
O O1 0.292135 0.500000 0.583694
O O2 0.318325 0.283873 0.653022
O O3 0.182479 0.279014 0.587434
O O4 0.341737 0.246513 0.542715
O O5 0.870979 0.773124 0.818469
O O6 0.000000 0.832660 0.881235
O O7 0.860930 0.000000 0.885577
O O8 0.861024 0.737298 0.932866
O O9 0.323437 0.750511 0.216616
O O10 0.164697 0.769554 0.262869
O O11 0.234823 0.000000 0.214488
O O12 0.904349 0.500000 0.546803
O O13 0.872682 0.269498 0.486633
O O14 0.000000 0.267011 0.562921
O O15 0.858976 0.500000 0.421424
O O16 0.862243 0.239137 0.372270
O O17 0.000000 0.335585 0.423819
O O18 0.112405 0.500000 0.992945
O O19 0.000000 0.284224 0.996899
O O20 0.500000 0.276168 0.244227
O O21 0.394465 0.500000 0.254033
O O22 0.500000 0.724492 0.806033
O O23 0.604774 0.500000 0.814466
#
# Coordination Sequence:
#
# PCOD9376018 Si02
#       8
#     8   8   8   8   8   8   8   8
#     4  10  21  36  54  76 102 137 181 219 253 305
#     4   8  15  31  55  80 104 133 172 213 257 317
#     4  10  22  36  51  76 105 136 178 221 260 304
#     4   8  15  30  52  76 101 127 159 205 254 298
#     4   8  14  27  49  75  98 122 158 202 249 303
#     4  10  21  36  54  78 108 139 171 215 271 320
#     4   9  19  36  57  80 107 140 175 213 261 315
#     4   9  18  33  50  69  99 134 164 202 253 304
#
# _framework density 9.8765429999999999
#
# number of rings (size 3 to 8) (size 9 to 14) (size 15 to 20)
#    0.000    3.000    0.000    1.875    0.000    4.500 
#    0.000    8.125    0.000    2.625    0.000    0.000 
#    0.000    0.000    0.000    0.000    0.000    0.000 
#
# Total GULP energy -178402.133074 kJ/mol
# GULP energy per Si atom -5575.066659 kJ/mol
# Density = 0.985406 g / cm^3
# Si number density = 9.876543 Si / 1000 Ang^3
#
#
#
# Elastic Constant Matrix: (Units=GPa)
#
#
# Indices 1 2 3 4 5 6 
#
# 1 41.2071 16.6645 25.8472 0.0000 0.0000 0.0000
# 2 16.6645 2.3629 22.7418 0.0000 0.0000 0.0000
# 3 25.8472 22.7418 93.4110 0.0000 0.0000 0.0000
# 4 0.0000 0.0000 0.0000 17.9390 0.0000 0.0000
# 5 0.0000 0.0000 0.0000 0.0000 53.3845 0.0000
# 6 0.0000 0.0000 0.0000 0.0000 0.0000 20.0600
#
#
#
# Elastic Compliance Matrix: (Units=1/GPa)
#
#
# Indices 1 2 3 4 5 6 
#
# 1 0.014717 0.048094 -0.015781 0.000000 0.000000 0.000000
# 2 0.048094 -0.157913 0.025138 0.000000 0.000000 0.000000
# 3 -0.015781 0.025138 0.008952 0.000000 0.000000 0.000000
# 4 0.000000 0.000000 0.000000 0.055745 0.000000 0.000000
# 5 0.000000 0.000000 0.000000 0.000000 0.018732 0.000000
# 6 0.000000 0.000000 0.000000 0.000000 0.000000 0.049851
#
#
# Mechanical properties :
#
#
# Convention : Reuss Voigt Hill
#
# Bulk Modulus (GPa) = -51.69710 29.72089 -10.98811
# Shear Modulus (GPa) = -38.09038 23.05852 -7.51593
#
# Velocity S-wave (km/s) = -4.39603 3.42034 -1.95274
# Velocity P-wave (km/s) = 7.21078 5.53870 3.26482
#
# Compressibility (1/GPa) = -0.01934344
#
# Stress axis : x y z
#
# Youngs Moduli (GPa) = 67.95010 -6.33258 111.70618
#
# Poissons Ratio (x) = 0.30456 1.76285
# Poissons Ratio (y) = -3.26799 -2.80804
# Poissons Ratio (z) = 1.07233 0.15919
#
# Static dielectric constant tensor:
#      x y z
#    x 1.705250 0.000000 0.000000 
#    y 0.000000 1.662350 0.000000 
#    z 0.000000 0.000000 1.703720 
# 
# From -- ./inp_files/25079.got.cif
#   From: 2010.05.17/outbox.ucp.g08.bks.cvg/sg44_13_cif.got.tgz:25079.got - 2010.06.11 16:32:36.
