data_PCOD9376624
_publ_section_title
;
Structure prediction by ZEFSAII (Michael W. Deem and Ramdas Pophale) SiO2 
 PCOD9376624
Probable space group: I B A 2
;
_chemical_formula_sum "Si O2"
_cell_formula_units_Z 40
_cell_length_a 17.236612
_cell_length_b 7.778403
_cell_length_c 13.711504
_cell_angle_alpha 90.000000
_cell_angle_beta 90.000000
_cell_angle_gamma 90.000000
_cell_volume 1838.346788
_symmetry_space_group_name_H-M "I B A 2"
_symmetry_group_IT_number 45
_symmetry_cell_setting 'orthorhombic'
loop_
_space_group_symop_operation_xyz
x,y,z
-x,-y,z
-x,y,1/2+z
x,-y,1/2+z
1/2+x,1/2+y,1/2+z
1/2-x,1/2-y,1/2+z
1/2-x,1/2+y,z
1/2+x,1/2-y,z
loop_
_atom_site_type_symbol
_atom_site_label
_atom_site_fract_x
_atom_site_fract_y
_atom_site_fract_z
Si Si1 0.299628 0.777859 0.442580
Si Si2 0.417356 0.586787 0.679487
Si Si3 0.644222 0.406125 0.885475
Si Si4 0.587853 0.053341 0.567289
Si Si5 0.337288 0.721711 0.086865
O O1 0.658375 0.394216 0.410288
O O2 0.231558 0.832495 0.369022
O O3 0.361849 0.922391 0.468738
O O4 0.249025 0.757078 0.543140
O O5 0.500000 0.500000 0.658521
O O6 0.408984 0.623545 0.793865
O O7 0.410369 0.762919 0.620379
O O8 0.352440 0.443203 0.653124
O O9 0.615925 0.321001 0.986165
O O10 0.629713 0.899725 0.626582
O O11 0.500000 0.000000 0.550206
#
# Coordination Sequence:
#
# PCOD9376624 Si02
#       5
#     8   8   8   8   8
#     4  10  20  46  68 101 132 189 235 283 352 407
#     4  12  26  44  68 106 145 184 234 295 356 417
#     4  10  23  44  69 102 142 181 239 287 349 419
#     4  12  23  43  75 104 140 184 238 288 355 421
#     4  10  22  47  71  96 142 187 234 287 348 418
#
# _framework density 21.758680999999999
#
# number of rings (size 3 to 8) (size 9 to 14) (size 15 to 20)
#    1.200    0.000    6.000    0.000    0.000    4.000 
#    7.200    1.000    0.000    0.000    0.000    0.000 
#    0.000    0.000    0.000    0.000    0.000    0.000 
#
# Total GULP energy -111583.943798 kJ/mol
# GULP energy per Si atom -5579.197190 kJ/mol
# Density = 2.170916 g / cm^3
# Si number density = 21.758681 Si / 1000 Ang^3
#
#
#
# Elastic Constant Matrix: (Units=GPa)
#
#
# Indices 1 2 3 4 5 6 
#
# 1 78.5233 17.8692 -1.1864 0.0000 0.0000 0.0000
# 2 17.8692 121.4895 -0.2588 0.0000 0.0000 0.0000
# 3 -1.1864 -0.2588 42.5575 0.0000 0.0000 0.0000
# 4 0.0000 0.0000 0.0000 11.3860 0.0000 0.0000
# 5 0.0000 0.0000 0.0000 0.0000 21.8089 0.0000
# 6 0.0000 0.0000 0.0000 0.0000 0.0000 29.4912
#
#
#
# Elastic Compliance Matrix: (Units=1/GPa)
#
#
# Indices 1 2 3 4 5 6 
#
# 1 0.013181 -0.001938 0.000356 0.000000 0.000000 0.000000
# 2 -0.001938 0.008516 -0.000002 0.000000 0.000000 0.000000
# 3 0.000356 -0.000002 0.023507 0.000000 0.000000 0.000000
# 4 0.000000 0.000000 0.000000 0.087827 0.000000 0.000000
# 5 0.000000 0.000000 0.000000 0.000000 0.045853 0.000000
# 6 0.000000 0.000000 0.000000 0.000000 0.000000 0.033908
#
#
# Mechanical properties :
#
#
# Convention : Reuss Voigt Hill
#
# Bulk Modulus (GPa) = 23.78913 30.60204 27.19559
# Shear Modulus (GPa) = 21.74155 27.61366 24.67760
#
# Velocity S-wave (km/s) = 3.16446 3.56629 3.37137
# Velocity P-wave (km/s) = 4.93038 5.57250 5.26124
#
# Compressibility (1/GPa) = 0.04203601
#
# Stress axis : x y z
#
# Youngs Moduli (GPa) = 75.86398 117.42313 42.53962
#
# Poissons Ratio (x) = 0.22757 -0.01513
# Poissons Ratio (y) = 0.14703 0.00010
# Poissons Ratio (z) = -0.02698 0.00026
#
# Static dielectric constant tensor:
#      x y z
#    x 1.814040 0.000000 0.000000 
#    y 0.000000 1.842190 0.000000 
#    z 0.000000 0.000000 1.804760 
# 
# From -- ./inp_files/6394.got.cif
#   From: 2010.05.17/outbox.cif.g08.bks.cpg/sg45_4_cif.got.tgz:6394.got - 2010.06.03 19:51:22.
