data_PCOD9376311
_publ_section_title
;
Structure prediction by ZEFSAII (Michael W. Deem and Ramdas Pophale) SiO2 
 PCOD9376311
Probable space group: I B A 2
;
_chemical_formula_sum "Si O2"
_cell_formula_units_Z 40
_cell_length_a 9.080505
_cell_length_b 11.369714
_cell_length_c 16.620819
_cell_angle_alpha 90.000000
_cell_angle_beta 90.000000
_cell_angle_gamma 90.000000
_cell_volume 1715.978975
_symmetry_space_group_name_H-M "I B A 2"
_symmetry_group_IT_number 45
_symmetry_cell_setting 'orthorhombic'
loop_
_space_group_symop_operation_xyz
x,y,z
-x,-y,z
-x,y,1/2+z
x,-y,1/2+z
1/2+x,1/2+y,1/2+z
1/2-x,1/2-y,1/2+z
1/2-x,1/2+y,z
1/2+x,1/2-y,z
loop_
_atom_site_type_symbol
_atom_site_label
_atom_site_fract_x
_atom_site_fract_y
_atom_site_fract_z
Si Si1 0.548286 0.363032 0.945460
Si Si2 0.043916 0.239078 0.616589
Si Si3 0.822631 0.387035 0.673903
Si Si4 0.188283 0.274958 0.345167
Si Si5 0.366549 0.580010 0.238736
O O1 0.500000 0.500000 0.944396
O O2 0.711221 0.338181 0.911390
O O3 0.454777 0.276715 0.887770
O O4 0.513328 0.315727 0.034175
O O5 0.213838 0.208049 0.630484
O O6 0.978207 0.368966 0.630281
O O7 0.964498 0.172688 0.690327
O O8 0.832968 0.361909 0.769940
O O9 0.729053 0.506200 0.675626
O O10 0.236810 0.152361 0.300081
O O11 0.500000 0.500000 0.275201
#
# Coordination Sequence:
#
# PCOD9376311 Si02
#       5
#     8   8   8   8   8
#     4  12  24  41  62  92 131 164 200 259 316 366
#     4  10  21  37  62  87 115 159 203 246 308 365
#     4  10  19  38  60  84 115 154 204 251 293 361
#     4  11  22  37  62  90 122 163 205 247 309 373
#     4   9  18  37  63  87 114 158 208 255 304 361
#
# _framework density 23.310309
#
# number of rings (size 3 to 8) (size 9 to 14) (size 15 to 20)
#    0.000    1.600    0.000    8.400    0.000    0.000 
#    0.000   14.000    0.000   12.000    0.000    0.000 
#    0.000    0.000    0.000    0.000    0.000    0.000 
#
# Total GULP energy -111504.230476 kJ/mol
# GULP energy per Si atom -5575.211524 kJ/mol
# Density = 2.325725 g / cm^3
# Si number density = 23.310309 Si / 1000 Ang^3
#
#
#
# Elastic Constant Matrix: (Units=GPa)
#
#
# Indices 1 2 3 4 5 6 
#
# 1 64.1867 13.1823 -5.3425 0.0000 0.0000 0.0000
# 2 13.1823 82.8323 -8.8001 0.0000 0.0000 0.0000
# 3 -5.3425 -8.8001 93.1606 0.0000 0.0000 0.0000
# 4 0.0000 0.0000 0.0000 19.1814 0.0000 0.0000
# 5 0.0000 0.0000 0.0000 0.0000 -0.5270 0.0000
# 6 0.0000 0.0000 0.0000 0.0000 0.0000 44.8391
#
#
#
# Elastic Compliance Matrix: (Units=1/GPa)
#
#
# Indices 1 2 3 4 5 6 
#
# 1 0.016150 -0.002497 0.000690 0.000000 0.000000 0.000000
# 2 -0.002497 0.012581 0.001045 0.000000 0.000000 0.000000
# 3 0.000690 0.001045 0.010872 0.000000 0.000000 0.000000
# 4 0.000000 0.000000 0.000000 0.052134 0.000000 0.000000
# 5 0.000000 0.000000 0.000000 0.000000 -1.897416 0.000000
# 6 0.000000 0.000000 0.000000 0.000000 0.000000 0.022302
#
#
# Mechanical properties :
#
#
# Convention : Reuss Voigt Hill
#
# Bulk Modulus (GPa) = 26.26003 26.47321 26.36662
# Shear Modulus (GPa) = -2.82620 28.77468 12.97424
#
# Velocity S-wave (km/s) = -1.10230 3.51724 2.36177
# Velocity P-wave (km/s) = 3.10963 5.27979 4.33278
#
# Compressibility (1/GPa) = 0.03808069
#
# Stress axis : x y z
#
# Youngs Moduli (GPa) = 61.92029 79.48504 91.97544
#
# Poissons Ratio (x) = 0.19846 -0.06349
# Poissons Ratio (y) = 0.15460 -0.09614
# Poissons Ratio (z) = -0.04274 -0.08308
#
# Static dielectric constant tensor:
#      x y z
#    x 1.994680 0.000000 0.000000 
#    y 0.000000 2.060980 0.000000 
#    z 0.000000 0.000000 1.879560 
# 
# From -- ./inp_files/7424.got.cif
#   From: 2010.05.17/outbox.cif.g08.bks.cpg/sg45_4_cif.got.tgz:7424.got - 2010.06.03 19:51:22.
