data_PCOD9376047
_publ_section_title
;
Structure prediction by ZEFSAII (Michael W. Deem and Ramdas Pophale) SiO2 
 PCOD9376047
Probable space group: I B A 2
;
_chemical_formula_sum "Si O2"
_cell_formula_units_Z 48
_cell_length_a 32.993614
_cell_length_b 6.959320
_cell_length_c 8.092967
_cell_angle_alpha 90.000000
_cell_angle_beta 90.000000
_cell_angle_gamma 90.000000
_cell_volume 1858.251385
_symmetry_space_group_name_H-M "I B A 2"
_symmetry_group_IT_number 45
_symmetry_cell_setting 'orthorhombic'
loop_
_space_group_symop_operation_xyz
x,y,z
-x,-y,z
-x,y,1/2+z
x,-y,1/2+z
1/2+x,1/2+y,1/2+z
1/2-x,1/2-y,1/2+z
1/2-x,1/2+y,z
1/2+x,1/2-y,z
loop_
_atom_site_type_symbol
_atom_site_label
_atom_site_fract_x
_atom_site_fract_y
_atom_site_fract_z
Si Si1 0.368763 0.353081 0.672400
Si Si2 0.295878 0.206730 0.224600
Si Si3 0.288767 0.600886 0.364137
Si Si4 0.620480 0.780869 0.297826
Si Si5 0.964416 0.249615 0.216848
Si Si6 0.048524 0.188703 0.334379
O O1 0.324804 0.316916 0.751068
O O2 0.375173 0.280704 0.487865
O O3 0.375129 0.586209 0.685027
O O4 0.405904 0.272890 0.778933
O O5 0.298402 0.374897 0.363193
O O6 0.255096 0.101170 0.276898
O O7 0.339508 0.104393 0.239507
O O8 0.289852 0.298009 0.042243
O O9 0.575208 0.862540 0.279283
O O10 0.011537 0.296245 0.243811
O O11 0.958213 0.039603 0.301415
O O12 0.958007 0.227776 0.024203
#
# Coordination Sequence:
#
# PCOD9376047 Si02
#       6
#     8   8   8   8   8   8
#     4  10  17  27  41  60  85 117 152 190 233 282
#     4  11  21  35  52  73  98 129 164 203 245 291
#     4  11  21  35  52  73  98 129 164 203 245 291
#     4  10  17  27  41  60  85 117 152 190 233 282
#     4  10  16  23  34  52  78 111 147 185 226 276
#     4  10  16  23  34  52  78 111 147 185 226 276
#
# _framework density 25.830734
#
# number of rings (size 3 to 8) (size 9 to 14) (size 15 to 20)
#    0.000    1.667    0.000   14.000    0.000    0.000 
#    0.000    0.000    0.000    0.000    0.000    0.000 
#    0.000    1.333    0.000   13.333    0.000   13.000 
#
# Total GULP energy -134289.780495 kJ/mol
# GULP energy per Si atom -5595.407521 kJ/mol
# Density = 2.577194 g / cm^3
# Si number density = 25.830734 Si / 1000 Ang^3
#
#
#
# Elastic Constant Matrix: (Units=GPa)
#
#
# Indices 1 2 3 4 5 6 
#
# 1 283.9602 -0.8619 54.3937 0.0000 0.0000 0.0000
# 2 -0.8619 55.1906 -24.6993 0.0000 0.0000 0.0000
# 3 54.3937 -24.6993 143.9274 0.0000 0.0000 0.0000
# 4 0.0000 0.0000 0.0000 0.1442 0.0000 0.0000
# 5 0.0000 0.0000 0.0000 0.0000 51.9155 0.0000
# 6 0.0000 0.0000 0.0000 0.0000 0.0000 27.2500
#
#
#
# Elastic Compliance Matrix: (Units=1/GPa)
#
#
# Indices 1 2 3 4 5 6 
#
# 1 0.003817 -0.000635 -0.001551 0.000000 0.000000 0.000000
# 2 -0.000635 0.019732 0.003626 0.000000 0.000000 0.000000
# 3 -0.001551 0.003626 0.008157 0.000000 0.000000 0.000000
# 4 0.000000 0.000000 0.000000 6.935594 0.000000 0.000000
# 5 0.000000 0.000000 0.000000 0.000000 0.019262 0.000000
# 6 0.000000 0.000000 0.000000 0.000000 0.000000 0.036697
#
#
# Mechanical properties :
#
#
# Convention : Reuss Voigt Hill
#
# Bulk Modulus (GPa) = 28.91414 60.08258 44.49836
# Shear Modulus (GPa) = 0.71104 46.14498 23.42801
#
# Velocity S-wave (km/s) = 0.52523 4.23121 3.01488
# Velocity P-wave (km/s) = 3.40380 6.86888 5.42067
#
# Compressibility (1/GPa) = 0.03458515
#
# Stress axis : x y z
#
# Youngs Moduli (GPa) = 261.99459 50.67941 122.60125
#
# Poissons Ratio (x) = 0.03217 0.19020
# Poissons Ratio (y) = 0.16629 -0.44456
# Poissons Ratio (z) = 0.40646 -0.18377
#
# Static dielectric constant tensor:
#      x y z
#    x 2.346580 0.000000 0.000000 
#    y 0.000000 2.158820 0.000000 
#    z 0.000000 0.000000 1.925050 
# 
# From -- ./inp_files/1466.got.cif
#   From: 2010.05.17/outbox.cif.g08.bks.cpg/sg45_1_cif.got.tgz:1466.got - 2010.06.03 19:51:22.
