data_PCOD9376921
_publ_section_title
;
Structure prediction by ZEFSAII (Michael W. Deem and Ramdas Pophale) SiO2 
 PCOD9376921
Probable space group: I B A 2
;
_chemical_formula_sum "Si O2"
_cell_formula_units_Z 40
_cell_length_a 5.309194
_cell_length_b 18.659099
_cell_length_c 17.945058
_cell_angle_alpha 90.000000
_cell_angle_beta 90.000000
_cell_angle_gamma 90.000000
_cell_volume 1777.723159
_symmetry_space_group_name_H-M "I B A 2"
_symmetry_group_IT_number 45
_symmetry_cell_setting 'orthorhombic'
loop_
_space_group_symop_operation_xyz
x,y,z
-x,-y,z
-x,y,1/2+z
x,-y,1/2+z
1/2+x,1/2+y,1/2+z
1/2-x,1/2-y,1/2+z
1/2-x,1/2+y,z
1/2+x,1/2-y,z
loop_
_atom_site_type_symbol
_atom_site_label
_atom_site_fract_x
_atom_site_fract_y
_atom_site_fract_z
Si Si1 0.500000 0.000000 0.702230
Si Si2 0.692862 0.438224 0.317700
Si Si3 0.974209 0.792731 0.871458
Si Si4 0.000000 0.500000 0.452454
Si Si5 0.815175 0.055611 0.570572
Si Si6 0.494545 0.706902 0.550417
O O1 0.570598 0.063012 0.760639
O O2 0.720890 0.012483 0.642513
O O3 0.500000 0.500000 0.291616
O O4 0.548426 0.364641 0.328752
O O5 0.802018 0.464464 0.396519
O O6 0.194481 0.735179 0.854580
O O7 0.992553 0.805085 0.960855
O O8 0.904457 0.561922 0.508971
O O9 0.940435 0.130950 0.587262
O O10 0.000000 0.000000 0.531578
O O11 0.221004 0.738251 0.569145
#
# Coordination Sequence:
#
# PCOD9376921 Si02
#       6
#     4   8   8   4   8   8
#     4  10  26  42  68  88 132 174 240 272 354 404
#     4  11  23  42  66  96 131 177 228 290 341 426
#     4  10  23  39  65 100 138 174 218 283 353 412
#     4  10  22  34  68 100 120 166 232 278 346 406
#     4  11  23  42  66  96 131 177 228 290 341 426
#     4  10  23  39  65 100 138 174 218 283 353 412
#
# _framework density 22.500692999999998
#
# number of rings (size 3 to 8) (size 9 to 14) (size 15 to 20)
#    0.000    1.600    0.000    3.600   19.600    0.000 
#    0.000    2.000    0.000    0.000    0.000    0.000 
#    0.000    0.000    0.000    0.000    0.000    0.000 
#
# Total GULP energy -111589.268969 kJ/mol
# GULP energy per Si atom -5579.463448 kJ/mol
# Density = 2.244948 g / cm^3
# Si number density = 22.500693 Si / 1000 Ang^3
#
#
#
# Elastic Constant Matrix: (Units=GPa)
#
#
# Indices 1 2 3 4 5 6 
#
# 1 87.4175 31.3180 37.2071 0.0000 0.0000 0.0000
# 2 31.3180 88.5459 8.9970 0.0000 0.0000 0.0000
# 3 37.2071 8.9970 86.0678 0.0000 0.0000 0.0000
# 4 0.0000 0.0000 0.0000 12.1415 0.0000 0.0000
# 5 0.0000 0.0000 0.0000 0.0000 73.0441 0.0000
# 6 0.0000 0.0000 0.0000 0.0000 0.0000 43.1907
#
#
#
# Elastic Compliance Matrix: (Units=1/GPa)
#
#
# Indices 1 2 3 4 5 6 
#
# 1 0.015937 -0.004990 -0.006368 0.000000 0.000000 0.000000
# 2 -0.004990 0.012977 0.000801 0.000000 0.000000 0.000000
# 3 -0.006368 0.000801 0.014288 0.000000 0.000000 0.000000
# 4 0.000000 0.000000 0.000000 0.082362 0.000000 0.000000
# 5 0.000000 0.000000 0.000000 0.000000 0.013690 0.000000
# 6 0.000000 0.000000 0.000000 0.000000 0.000000 0.023153
#
#
# Mechanical properties :
#
#
# Convention : Reuss Voigt Hill
#
# Bulk Modulus (GPa) = 45.27414 46.34171 45.80793
# Shear Modulus (GPa) = 26.19364 37.97586 32.08475
#
# Velocity S-wave (km/s) = 3.41563 4.11270 3.78027
# Velocity P-wave (km/s) = 5.97664 6.57212 6.28144
#
# Compressibility (1/GPa) = 0.02208766
#
# Stress axis : x y z
#
# Youngs Moduli (GPa) = 62.74523 77.05876 69.98874
#
# Poissons Ratio (x) = 0.38452 0.44570
# Poissons Ratio (y) = 0.31309 -0.05603
# Poissons Ratio (z) = 0.39957 -0.06169
#
# Static dielectric constant tensor:
#      x y z
#    x 1.901520 0.000000 0.000000 
#    y 0.000000 1.813220 0.000000 
#    z 0.000000 0.000000 1.839770 
# 
# From -- ./inp_files/7262.got.cif
#   From: 2010.05.17/outbox.cif.g08.bks.cpg/sg45_4_cif.got.tgz:7262.got - 2010.06.03 19:51:22.
