data_PCOD9376292
_publ_section_title
;
Structure prediction by ZEFSAII (Michael W. Deem and Ramdas Pophale) SiO2 
 PCOD9376292
Probable space group: I B A 2
;
_chemical_formula_sum "Si O2"
_cell_formula_units_Z 48
_cell_length_a 4.901651
_cell_length_b 13.122501
_cell_length_c 32.929715
_cell_angle_alpha 90.000000
_cell_angle_beta 90.000000
_cell_angle_gamma 90.000000
_cell_volume 2118.102499
_symmetry_space_group_name_H-M "I B A 2"
_symmetry_group_IT_number 45
_symmetry_cell_setting 'orthorhombic'
loop_
_space_group_symop_operation_xyz
x,y,z
-x,-y,z
-x,y,1/2+z
x,-y,1/2+z
1/2+x,1/2+y,1/2+z
1/2-x,1/2-y,1/2+z
1/2-x,1/2+y,z
1/2+x,1/2-y,z
loop_
_atom_site_type_symbol
_atom_site_label
_atom_site_fract_x
_atom_site_fract_y
_atom_site_fract_z
Si Si1 0.535988 0.680382 0.910090
Si Si2 0.292552 0.185473 0.170071
Si Si3 0.869990 0.176536 0.496077
Si Si4 0.051849 0.180108 0.820955
Si Si5 0.766877 0.933814 0.247847
Si Si6 0.000000 0.500000 0.115735
Si Si7 0.000000 0.000000 0.558905
O O1 0.348378 0.783304 0.910645
O O2 0.483561 0.633724 0.865976
O O3 0.440810 0.628843 0.951691
O O4 0.984558 0.218044 0.161842
O O5 0.323034 0.154543 0.217239
O O6 0.391725 0.091325 0.143538
O O7 0.073600 0.273214 0.498858
O O8 0.914654 0.094135 0.530581
O O9 0.861920 0.281796 0.817756
O O10 0.932420 0.109437 0.786101
O O11 0.500000 0.000000 0.258023
O O12 0.000000 0.000000 0.224921
O O13 0.751704 0.532419 0.086940
#
# Coordination Sequence:
#
# PCOD9376292 Si02
#       7
#     8   8   8   8   8   4   4
#     4   8  16  32  58  85 120 164 208 259 306 365
#     4  12  26  46  72  96 128 178 216 264 339 396
#     4  10  21  40  65  93 129 170 212 260 318 387
#     4  10  19  36  60  89 123 168 220 260 313 381
#     4  12  24  40  63  93 136 168 216 277 322 383
#     4  12  28  46  66 100 134 158 218 284 318 402
#     4  12  26  42  68  98 130 168 210 270 336 388
#
# _framework density 22.661795000000001
#
# number of rings (size 3 to 8) (size 9 to 14) (size 15 to 20)
#    0.000    1.333    0.833    5.000    1.167    4.000 
#    1.500    0.000    1.833    0.000    0.000    0.000 
#    0.000    0.000    0.000    0.000    0.000    0.000 
#
# Total GULP energy -134219.610118 kJ/mol
# GULP energy per Si atom -5592.483755 kJ/mol
# Density = 2.261022 g / cm^3
# Si number density = 22.661795 Si / 1000 Ang^3
#
#
#
# Elastic Constant Matrix: (Units=GPa)
#
#
# Indices 1 2 3 4 5 6 
#
# 1 78.4152 -7.8776 -4.1746 0.0000 0.0000 0.0000
# 2 -7.8776 51.1934 23.5305 0.0000 0.0000 0.0000
# 3 -4.1746 23.5305 109.4380 0.0000 0.0000 0.0000
# 4 0.0000 0.0000 0.0000 19.6140 0.0000 0.0000
# 5 0.0000 0.0000 0.0000 0.0000 97.8320 0.0000
# 6 0.0000 0.0000 0.0000 0.0000 0.0000 30.4921
#
#
#
# Elastic Compliance Matrix: (Units=1/GPa)
#
#
# Indices 1 2 3 4 5 6 
#
# 1 0.012953 0.001960 0.000073 0.000000 0.000000 0.000000
# 2 0.001960 0.021972 -0.004650 0.000000 0.000000 0.000000
# 3 0.000073 -0.004650 0.010140 0.000000 0.000000 0.000000
# 4 0.000000 0.000000 0.000000 0.050984 0.000000 0.000000
# 5 0.000000 0.000000 0.000000 0.000000 0.010222 0.000000
# 6 0.000000 0.000000 0.000000 0.000000 0.000000 0.032795
#
#
# Mechanical properties :
#
#
# Convention : Reuss Voigt Hill
#
# Bulk Modulus (GPa) = 25.10551 29.11146 27.10849
# Shear Modulus (GPa) = 31.73024 44.75884 38.24454
#
# Velocity S-wave (km/s) = 3.74594 4.44901 4.11252
# Velocity P-wave (km/s) = 5.46002 6.26622 5.87696
#
# Compressibility (1/GPa) = 0.03983189
#
# Stress axis : x y z
#
# Youngs Moduli (GPa) = 77.19994 45.51148 98.61856
#
# Poissons Ratio (x) = -0.08919 -0.00717
# Poissons Ratio (y) = -0.15130 0.45853
# Poissons Ratio (z) = -0.00561 0.21161
#
# Static dielectric constant tensor:
#      x y z
#    x 1.733330 0.000000 0.000000 
#    y 0.000000 1.829340 0.000000 
#    z 0.000000 0.000000 1.868840 
# 
# From -- ./inp_files/9898.got.cif
#   From: 2010.05.17/outbox.cif.g08.bks.cpg/sg45_5_cif.got.tgz:9898.got - 2010.06.03 19:51:22.
