data_PCOD9376499
_publ_section_title
;
Structure prediction by ZEFSAII (Michael W. Deem and Ramdas Pophale) SiO2 
 PCOD9376499
Probable space group: I B A 2
;
_chemical_formula_sum "Si O2"
_cell_formula_units_Z 64
_cell_length_a 8.677049
_cell_length_b 19.353993
_cell_length_c 16.627351
_cell_angle_alpha 90.000000
_cell_angle_beta 90.000000
_cell_angle_gamma 90.000000
_cell_volume 2792.323262
_symmetry_space_group_name_H-M "I B A 2"
_symmetry_group_IT_number 45
_symmetry_cell_setting 'orthorhombic'
loop_
_space_group_symop_operation_xyz
x,y,z
-x,-y,z
-x,y,1/2+z
x,-y,1/2+z
1/2+x,1/2+y,1/2+z
1/2-x,1/2-y,1/2+z
1/2-x,1/2+y,z
1/2+x,1/2-y,z
loop_
_atom_site_type_symbol
_atom_site_label
_atom_site_fract_x
_atom_site_fract_y
_atom_site_fract_z
Si Si1 0.534352 0.178769 0.847110
Si Si2 0.909751 0.344365 0.537857
Si Si3 0.313733 0.681212 0.879661
Si Si4 0.243048 0.286561 0.565305
Si Si5 0.651104 0.478773 0.872992
Si Si6 0.140520 0.455811 0.754180
Si Si7 0.700553 0.465256 0.543615
Si Si8 0.388665 0.586814 0.127229
O O1 0.591117 0.257723 0.837820
O O2 0.352131 0.180066 0.839303
O O3 0.596454 0.119544 0.788379
O O4 0.575489 0.159928 0.940441
O O5 0.774889 0.294553 0.572338
O O6 0.852865 0.421195 0.556079
O O7 0.069707 0.315120 0.573031
O O8 0.369118 0.602854 0.882453
O O9 0.292677 0.700928 0.972956
O O10 0.356128 0.332406 0.619737
O O11 0.500000 0.500000 0.824514
O O12 0.807932 0.495244 0.827682
O O13 0.651479 0.530196 0.950394
O O14 0.295855 0.442908 0.703050
O O15 0.000000 0.500000 0.715434
O O16 0.713560 0.546714 0.560012
O O17 0.562617 0.434457 0.600540
#
# Coordination Sequence:
#
# PCOD9376499 Si02
#       8
#     8   8   8   8   8   8   8   8
#     4  10  22  41  65 101 138 180 229 298 353 418
#     4  10  21  36  70  96 129 171 234 294 345 400
#     4  10  21  40  66 103 137 173 238 294 351 404
#     4  10  20  38  62  98 131 176 225 291 347 410
#     4  12  23  41  73 103 134 176 234 301 347 415
#     4  12  27  46  67  99 148 190 233 287 362 432
#     4  11  22  43  67 101 131 175 238 290 344 406
#     4  11  25  43  61  96 144 180 220 285 350 426
#
# _framework density 22.919983999999999
#
# number of rings (size 3 to 8) (size 9 to 14) (size 15 to 20)
#    0.000    1.250    5.000    0.750    5.250    2.000 
#    0.000    3.750    0.000    0.000    0.000    0.000 
#    0.000    0.000    0.000    0.000    0.000    0.000 
#
# Total GULP energy -178365.681842 kJ/mol
# GULP energy per Si atom -5573.927558 kJ/mol
# Density = 2.286782 g / cm^3
# Si number density = 22.919984 Si / 1000 Ang^3
#
#
#
# Elastic Constant Matrix: (Units=GPa)
#
#
# Indices 1 2 3 4 5 6 
#
# 1 90.3295 36.2846 26.8354 0.0000 0.0000 0.0000
# 2 36.2846 119.8168 6.0769 0.0000 0.0000 0.0000
# 3 26.8354 6.0769 36.9434 0.0000 0.0000 0.0000
# 4 0.0000 0.0000 0.0000 14.3166 0.0000 0.0000
# 5 0.0000 0.0000 0.0000 0.0000 15.1621 0.0000
# 6 0.0000 0.0000 0.0000 0.0000 0.0000 41.6353
#
#
#
# Elastic Compliance Matrix: (Units=1/GPa)
#
#
# Indices 1 2 3 4 5 6 
#
# 1 0.016054 -0.004306 -0.010953 0.000000 0.000000 0.000000
# 2 -0.004306 0.009571 0.001554 0.000000 0.000000 0.000000
# 3 -0.010953 0.001554 0.034769 0.000000 0.000000 0.000000
# 4 0.000000 0.000000 0.000000 0.069849 0.000000 0.000000
# 5 0.000000 0.000000 0.000000 0.000000 0.065954 0.000000
# 6 0.000000 0.000000 0.000000 0.000000 0.000000 0.024018
#
#
# Mechanical properties :
#
#
# Convention : Reuss Voigt Hill
#
# Bulk Modulus (GPa) = 30.31872 42.83152 36.57512
# Shear Modulus (GPa) = 19.33317 26.08232 22.70775
#
# Velocity S-wave (km/s) = 2.90747 3.37704 3.15102
# Velocity P-wave (km/s) = 4.95257 5.82528 5.40656
#
# Compressibility (1/GPa) = 0.03298292
#
# Stress axis : x y z
#
# Youngs Moduli (GPa) = 62.28788 104.47822 28.76097
#
# Poissons Ratio (x) = 0.44992 0.31503
# Poissons Ratio (y) = 0.26823 -0.04468
# Poissons Ratio (z) = 0.68227 -0.16232
#
# Static dielectric constant tensor:
#      x y z
#    x 1.938820 0.000000 0.000000 
#    y 0.000000 1.878130 0.000000 
#    z 0.000000 0.000000 1.953180 
# 
# From -- ./inp_files/7795.got.cif
#   From: 2010.05.17/outbox.cif.g08.bks.cpg/sg45_4_cif.got.tgz:7795.got - 2010.06.03 19:51:22.
