data_PCOD9376764
_publ_section_title
;
Structure prediction by ZEFSAII (Michael W. Deem and Ramdas Pophale) SiO2 
 PCOD9376764
Probable space group: I B A 2
;
_chemical_formula_sum "Si O2"
_cell_formula_units_Z 64
_cell_length_a 8.828198
_cell_length_b 30.018338
_cell_length_c 11.778076
_cell_angle_alpha 90.000000
_cell_angle_beta 90.000000
_cell_angle_gamma 90.000000
_cell_volume 3121.282380
_symmetry_space_group_name_H-M "I B A 2"
_symmetry_group_IT_number 45
_symmetry_cell_setting 'orthorhombic'
loop_
_space_group_symop_operation_xyz
x,y,z
-x,-y,z
-x,y,1/2+z
x,-y,1/2+z
1/2+x,1/2+y,1/2+z
1/2-x,1/2-y,1/2+z
1/2-x,1/2+y,z
1/2+x,1/2-y,z
loop_
_atom_site_type_symbol
_atom_site_label
_atom_site_fract_x
_atom_site_fract_y
_atom_site_fract_z
Si Si1 0.165730 0.015542 0.681820
Si Si2 0.415506 0.043102 0.863538
Si Si3 0.778409 0.076178 0.554195
Si Si4 0.190400 0.198169 0.566116
Si Si5 0.925640 0.753094 0.193710
Si Si6 0.384308 0.403459 0.009743
Si Si7 0.169141 0.295272 0.826741
Si Si8 0.676534 0.895574 0.291844
O O1 0.280109 0.025542 0.783838
O O2 0.157471 0.059057 0.602247
O O3 0.212075 0.974368 0.601605
O O4 0.000000 0.000000 0.725638
O O5 0.538706 0.069973 0.791370
O O6 0.500000 0.000000 0.913673
O O7 0.352778 0.075110 0.961338
O O8 0.749486 0.104461 0.667318
O O9 0.935262 0.090862 0.496467
O O10 0.328535 0.211166 0.649254
O O11 0.155578 0.145767 0.555960
O O12 0.251371 0.214490 0.445216
O O13 0.040908 0.224654 0.605010
O O14 0.799952 0.788034 0.233356
O O15 0.031557 0.736767 0.296231
O O16 0.295580 0.409261 0.890705
O O17 0.120524 0.346463 0.823514
#
# Coordination Sequence:
#
# PCOD9376764 Si02
#       8
#     8   8   8   8   8   8   8   8
#     4  10  24  42  67  89 128 171 219 261 313 380
#     4  12  26  40  66  93 131 169 214 262 328 364
#     4  11  25  43  65  90 130 171 214 263 318 381
#     4  10  21  40  65  93 128 165 209 261 311 377
#     4  10  21  39  65  91 127 166 208 252 324 373
#     4  10  24  43  66  93 128 170 220 264 315 376
#     4  10  22  40  62  94 126 164 208 260 311 381
#     4  11  25  41  64  97 132 164 217 267 321 376
#
# _framework density 20.504393
#
# number of rings (size 3 to 8) (size 9 to 14) (size 15 to 20)
#    0.000    1.500    1.250    2.250    8.750    1.500 
#    0.000    1.250    0.000    0.000    0.000    0.000 
#    0.000    0.000    0.000    0.000    0.000    0.000 
#
# Total GULP energy -178764.518065 kJ/mol
# GULP energy per Si atom -5586.391190 kJ/mol
# Density = 2.045772 g / cm^3
# Si number density = 20.504393 Si / 1000 Ang^3
#
#
#
# Elastic Constant Matrix: (Units=GPa)
#
#
# Indices 1 2 3 4 5 6 
#
# 1 84.3034 20.1292 32.4607 -0.0001 0.0000 0.0001
# 2 20.1292 60.9135 11.4120 -0.0001 0.0000 0.0000
# 3 32.4607 11.4120 64.0020 -0.0004 -0.0002 0.0005
# 4 -0.0001 -0.0001 -0.0004 26.2244 -0.0001 0.0000
# 5 0.0000 0.0000 -0.0002 -0.0001 26.4219 0.0000
# 6 0.0001 0.0000 0.0005 0.0000 0.0000 4.2815
#
#
#
# Elastic Compliance Matrix: (Units=1/GPa)
#
#
# Indices 1 2 3 4 5 6 
#
# 1 0.015541 -0.003785 -0.007207 0.000000 0.000000 0.000001
# 2 -0.003785 0.017906 -0.001273 0.000000 0.000000 0.000000
# 3 -0.007207 -0.001273 0.019507 0.000000 0.000000 -0.000002
# 4 0.000000 0.000000 0.000000 0.038132 0.000000 0.000000
# 5 0.000000 0.000000 0.000000 0.000000 0.037847 0.000000
# 6 0.000001 0.000000 -0.000002 0.000000 0.000000 0.233563
#
#
# Mechanical properties :
#
#
# Convention : Reuss Voigt Hill
#
# Bulk Modulus (GPa) = 35.18275 37.46919 36.32597
# Shear Modulus (GPa) = 12.61030 21.06670 16.83850
#
# Velocity S-wave (km/s) = 2.48262 3.20882 2.86879
# Velocity P-wave (km/s) = 5.04121 5.66058 5.35985
#
# Compressibility (1/GPa) = 0.02842302
#
# Stress axis : x y z
#
# Youngs Moduli (GPa) = 64.34685 55.84690 51.26428
#
# Poissons Ratio (x) = 0.21140 0.36946
# Poissons Ratio (y) = 0.24357 0.06526
# Poissons Ratio (z) = 0.46375 0.07109
#
# Static dielectric constant tensor:
#      x y z
#    x 1.723310 0.000000 0.000000 
#    y 0.000000 1.708170 0.000000 
#    z 0.000000 0.000000 1.717700 
# 
# From -- ./inp_files/3397.got.cif
#   From: 2010.05.17/outbox.cif.g08.bks.cpg/sg45_2_cif.got.tgz:3397.got - 2010.06.03 19:51:22.
