data_PCOD9376771
_publ_section_title
;
Structure prediction by ZEFSAII (Michael W. Deem and Ramdas Pophale) SiO2 
 PCOD9376771
Probable space group: I B A 2
;
_chemical_formula_sum "Si O2"
_cell_formula_units_Z 64
_cell_length_a 6.993091
_cell_length_b 15.550744
_cell_length_c 22.781159
_cell_angle_alpha 90.000000
_cell_angle_beta 90.000000
_cell_angle_gamma 90.000000
_cell_volume 2477.400192
_symmetry_space_group_name_H-M "I B A 2"
_symmetry_group_IT_number 45
_symmetry_cell_setting 'orthorhombic'
loop_
_space_group_symop_operation_xyz
x,y,z
-x,-y,z
-x,y,1/2+z
x,-y,1/2+z
1/2+x,1/2+y,1/2+z
1/2-x,1/2-y,1/2+z
1/2-x,1/2+y,z
1/2+x,1/2-y,z
loop_
_atom_site_type_symbol
_atom_site_label
_atom_site_fract_x
_atom_site_fract_y
_atom_site_fract_z
Si Si1 0.816053 0.399541 0.116950
Si Si2 0.155976 0.844124 0.223614
Si Si3 0.030710 0.753424 0.440872
Si Si4 0.394606 0.860617 0.741112
Si Si5 0.273468 0.418214 0.099964
Si Si6 0.003010 0.593060 0.364404
Si Si7 0.443495 0.598388 0.845771
Si Si8 0.716902 0.255158 0.530244
O O1 0.790377 0.404663 0.186868
O O2 0.704853 0.480240 0.089839
O O3 0.768557 0.310242 0.085308
O O4 0.044315 0.409142 0.109289
O O5 0.377473 0.869795 0.231492
O O6 0.146684 0.740895 0.232764
O O7 0.120487 0.878598 0.157447
O O8 0.024583 0.879193 0.276698
O O9 0.994366 0.832991 0.395616
O O10 0.279802 0.769096 0.457986
O O11 0.067204 0.666530 0.406428
O O12 0.033500 0.743316 0.514935
O O13 0.369998 0.900672 0.805524
O O14 0.311116 0.355581 0.046189
O O15 0.784828 0.608411 0.348188
O O16 0.000000 0.500000 0.392584
O O17 0.500000 0.500000 0.858885
#
# Coordination Sequence:
#
# PCOD9376771 Si02
#       8
#     8   8   8   8   8   8   8   8
#     4  10  22  41  67 100 135 173 222 283 340 408
#     4  10  21  41  67  98 130 170 213 275 346 399
#     4  12  26  45  67  96 135 184 238 279 334 404
#     4  10  21  39  69  95 131 167 218 273 342 406
#     4  10  22  42  68  99 133 174 224 279 343 407
#     4  11  26  43  69 103 135 179 227 281 350 410
#     4  11  26  45  67 103 140 175 224 289 344 408
#     4  12  24  43  69  95 132 186 234 279 333 401
#
# _framework density 25.833532999999999
#
# number of rings (size 3 to 8) (size 9 to 14) (size 15 to 20)
#    0.000    1.250    5.000    0.000    7.000    3.000 
#    0.000    0.000    0.000    0.000    0.000    0.000 
#    0.000    0.000    0.000    0.000    0.000    0.000 
#
# Total GULP energy -178806.002232 kJ/mol
# GULP energy per Si atom -5587.687570 kJ/mol
# Density = 2.577474 g / cm^3
# Si number density = 25.833533 Si / 1000 Ang^3
#
#
#
# Elastic Constant Matrix: (Units=GPa)
#
#
# Indices 1 2 3 4 5 6 
#
# 1 135.7588 -4.5655 23.5593 0.0000 0.0000 0.0000
# 2 -4.5655 162.3031 66.2375 0.0000 0.0000 0.0000
# 3 23.5593 66.2375 116.4442 0.0000 0.0000 0.0000
# 4 0.0000 0.0000 0.0000 5.5351 0.0000 0.0000
# 5 0.0000 0.0000 0.0000 0.0000 46.0123 0.0000
# 6 0.0000 0.0000 0.0000 0.0000 0.0000 46.7745
#
#
#
# Elastic Compliance Matrix: (Units=1/GPa)
#
#
# Indices 1 2 3 4 5 6 
#
# 1 0.007788 0.001123 -0.002214 0.000000 0.000000 0.000000
# 2 0.001123 0.008186 -0.004884 0.000000 0.000000 0.000000
# 3 -0.002214 -0.004884 0.011814 0.000000 0.000000 0.000000
# 4 0.000000 0.000000 0.000000 0.180667 0.000000 0.000000
# 5 0.000000 0.000000 0.000000 0.000000 0.021733 0.000000
# 6 0.000000 0.000000 0.000000 0.000000 0.000000 0.021379
#
#
# Mechanical properties :
#
#
# Convention : Reuss Voigt Hill
#
# Bulk Modulus (GPa) = 63.14180 64.99650 64.06915
# Shear Modulus (GPa) = 18.60143 41.61602 30.10873
#
# Velocity S-wave (km/s) = 2.68629 4.01799 3.41763
# Velocity P-wave (km/s) = 5.84092 6.83667 6.35832
#
# Compressibility (1/GPa) = 0.01583737
#
# Stress axis : x y z
#
# Youngs Moduli (GPa) = 128.40199 122.16057 84.64681
#
# Poissons Ratio (x) = -0.13716 0.18744
# Poissons Ratio (y) = -0.14417 0.41338
# Poissons Ratio (z) = 0.28433 0.59659
#
# Static dielectric constant tensor:
#      x y z
#    x 1.912930 0.000000 0.000000 
#    y 0.000000 1.905880 0.000000 
#    z 0.000000 0.000000 1.979360 
# 
# From -- ./inp_files/9623.got.cif
#   From: 2010.05.17/outbox.cif.g08.bks.cpg/sg45_5_cif.got.tgz:9623.got - 2010.06.03 19:51:22.
