data_PCOD9376670
_publ_section_title
;
Structure prediction by ZEFSAII (Michael W. Deem and Ramdas Pophale) SiO2 
 PCOD9376670
Probable space group: I B A 2
;
_chemical_formula_sum "Si O2"
_cell_formula_units_Z 56
_cell_length_a 5.051500
_cell_length_b 30.836967
_cell_length_c 16.712593
_cell_angle_alpha 90.000000
_cell_angle_beta 90.000000
_cell_angle_gamma 90.000000
_cell_volume 2603.369727
_symmetry_space_group_name_H-M "I B A 2"
_symmetry_group_IT_number 45
_symmetry_cell_setting 'orthorhombic'
loop_
_space_group_symop_operation_xyz
x,y,z
-x,-y,z
-x,y,1/2+z
x,-y,1/2+z
1/2+x,1/2+y,1/2+z
1/2-x,1/2-y,1/2+z
1/2-x,1/2+y,z
1/2+x,1/2-y,z
loop_
_atom_site_type_symbol
_atom_site_label
_atom_site_fract_x
_atom_site_fract_y
_atom_site_fract_z
Si Si1 0.500000 0.500000 0.879730
Si Si2 0.229427 0.224551 0.918862
Si Si3 0.079088 0.592189 0.573051
Si Si4 0.876389 0.092580 0.832016
Si Si5 0.593180 0.626304 0.661161
Si Si6 0.500000 0.000000 0.992867
Si Si7 0.767101 0.776646 0.112880
Si Si8 0.364871 0.871603 0.409698
O O1 0.583583 0.541256 0.827914
O O2 0.250476 0.510744 0.936625
O O3 0.434824 0.262079 0.894948
O O4 0.333880 0.178715 0.888895
O O5 0.227922 0.220924 0.015853
O O6 0.358500 0.609015 0.604937
O O7 0.858652 0.599829 0.640362
O O8 0.076848 0.542472 0.543651
O O9 0.980088 0.621088 0.498173
O O10 0.971464 0.116530 0.752755
O O11 0.576458 0.104817 0.852927
O O12 0.072665 0.108406 0.902313
O O13 0.651062 0.676807 0.646090
O O14 0.478129 0.760143 0.136905
#
# Coordination Sequence:
#
# PCOD9376670 Si02
#       8
#     4   8   8   8   8   4   8   8
#     4  12  22  44  66  98 132 174 224 260 336 408
#     4  10  21  36  63  98 128 164 221 281 319 374
#     4  12  24  42  71  96 132 166 229 281 314 387
#     4  12  26  43  68  95 140 180 212 270 340 404
#     4  12  26  44  65 104 135 174 219 275 338 389
#     4  12  24  42  70 104 126 168 230 276 322 378
#     4  10  21  38  64  94 129 172 218 270 326 390
#     4  12  23  44  67  98 127 179 224 269 328 395
#
# _framework density 21.510584000000001
#
# number of rings (size 3 to 8) (size 9 to 14) (size 15 to 20)
#    0.000    0.571    4.286    4.286    4.000    1.143 
#    0.000    4.286    0.000    0.000    0.000    0.000 
#    0.000    0.000    0.000    0.000    0.000    0.000 
#
# Total GULP energy -156697.690132 kJ/mol
# GULP energy per Si atom -5596.346076 kJ/mol
# Density = 2.146162 g / cm^3
# Si number density = 21.510584 Si / 1000 Ang^3
#
#
#
# Elastic Constant Matrix: (Units=GPa)
#
#
# Indices 1 2 3 4 5 6 
#
# 1 98.2899 36.3400 14.3655 0.0000 0.0000 0.0000
# 2 36.3400 130.4307 5.0995 0.0000 0.0000 0.0000
# 3 14.3655 5.0995 35.0262 0.0000 0.0000 0.0000
# 4 0.0000 0.0000 0.0000 15.5379 0.0000 0.0000
# 5 0.0000 0.0000 0.0000 0.0000 20.0175 0.0000
# 6 0.0000 0.0000 0.0000 0.0000 0.0000 37.0142
#
#
#
# Elastic Compliance Matrix: (Units=1/GPa)
#
#
# Indices 1 2 3 4 5 6 
#
# 1 0.011997 -0.003168 -0.004459 0.000000 0.000000 0.000000
# 2 -0.003168 0.008547 0.000055 0.000000 0.000000 0.000000
# 3 -0.004459 0.000055 0.030371 0.000000 0.000000 0.000000
# 4 0.000000 0.000000 0.000000 0.064359 0.000000 0.000000
# 5 0.000000 0.000000 0.000000 0.000000 0.049956 0.000000
# 6 0.000000 0.000000 0.000000 0.000000 0.000000 0.027017
#
#
# Mechanical properties :
#
#
# Convention : Reuss Voigt Hill
#
# Bulk Modulus (GPa) = 27.95589 41.70630 34.83109
# Shear Modulus (GPa) = 22.79820 28.37671 25.58746
#
# Velocity S-wave (km/s) = 3.25908 3.63602 3.45270
# Velocity P-wave (km/s) = 5.21409 6.08755 5.66767
#
# Compressibility (1/GPa) = 0.03577064
#
# Stress axis : x y z
#
# Youngs Moduli (GPa) = 83.35363 116.99361 32.92620
#
# Poissons Ratio (x) = 0.37066 0.14682
# Poissons Ratio (y) = 0.26408 -0.00181
# Poissons Ratio (z) = 0.37169 -0.00643
#
# Static dielectric constant tensor:
#      x y z
#    x 1.755940 0.000000 0.000000 
#    y 0.000000 1.771600 0.000000 
#    z 0.000000 0.000000 1.790980 
# 
# From -- ./inp_files/5312.got.cif
#   From: 2010.05.17/outbox.cif.g08.bks.cpg/sg45_3_cif.got.tgz:5312.got - 2010.06.03 19:51:22.
