data_PCOD9376225
_publ_section_title
;
Structure prediction by ZEFSAII (Michael W. Deem and Ramdas Pophale) SiO2 
 PCOD9376225
Probable space group: I B A 2
;
_chemical_formula_sum "Si O2"
_cell_formula_units_Z 40
_cell_length_a 7.999490
_cell_length_b 20.847475
_cell_length_c 9.459489
_cell_angle_alpha 90.000000
_cell_angle_beta 90.000000
_cell_angle_gamma 90.000000
_cell_volume 1577.551108
_symmetry_space_group_name_H-M "I B A 2"
_symmetry_group_IT_number 45
_symmetry_cell_setting 'orthorhombic'
loop_
_space_group_symop_operation_xyz
x,y,z
-x,-y,z
-x,y,1/2+z
x,-y,1/2+z
1/2+x,1/2+y,1/2+z
1/2-x,1/2-y,1/2+z
1/2-x,1/2+y,z
1/2+x,1/2-y,z
loop_
_atom_site_type_symbol
_atom_site_label
_atom_site_fract_x
_atom_site_fract_y
_atom_site_fract_z
Si Si1 0.359240 0.727305 0.504560
Si Si2 0.733807 0.068783 0.789859
Si Si3 0.981575 0.651233 0.955823
Si Si4 0.795258 0.559887 0.115964
Si Si5 0.462427 0.655103 0.756772
O O1 0.175286 0.697669 0.493602
O O2 0.365241 0.801024 0.457111
O O3 0.428835 0.717744 0.661515
O O4 0.477507 0.683169 0.406162
O O5 0.578080 0.116441 0.815199
O O6 0.879992 0.109878 0.718039
O O7 0.700318 0.004502 0.704910
O O8 0.785482 0.052240 0.956133
O O9 0.968583 0.591415 0.061353
O O10 0.692856 0.609571 0.215066
#
# Coordination Sequence:
#
# PCOD9376225 Si02
#       5
#     8   8   8   8   8
#     4  10  20  35  55  81 125 138 196 214 296 332
#     4   9  19  32  50  83 112 141 187 235 287 321
#     4   8  20  37  55  87 109 154 180 234 276 348
#     4   9  19  32  50  83 112 141 187 235 287 321
#     4  10  19  32  54  86 111 152 172 246 276 346
#
# _framework density 25.355756
#
# number of rings (size 3 to 8) (size 9 to 14) (size 15 to 20)
#    1.200    1.600    2.000    0.600    2.800    8.000 
#    0.000    0.000    4.400    0.000    0.000   35.000 
#    0.000    0.000    0.000    0.000    0.000    0.000 
#
# Total GULP energy -111538.127133 kJ/mol
# GULP energy per Si atom -5576.906357 kJ/mol
# Density = 2.529804 g / cm^3
# Si number density = 25.355756 Si / 1000 Ang^3
#
#
#
# Elastic Constant Matrix: (Units=GPa)
#
#
# Indices 1 2 3 4 5 6 
#
# 1 32.1302 5.9820 5.7611 0.0008 0.0000 0.0000
# 2 5.9820 124.0830 -21.2599 0.0009 0.0001 -0.0001
# 3 5.7611 -21.2599 20.5185 0.0053 -0.0007 0.0003
# 4 0.0008 0.0009 0.0053 52.1585 -0.0001 0.0001
# 5 0.0000 0.0001 -0.0007 -0.0001 18.2853 0.0002
# 6 0.0000 -0.0001 0.0003 0.0001 0.0002 23.5398
#
#
#
# Elastic Compliance Matrix: (Units=1/GPa)
#
#
# Indices 1 2 3 4 5 6 
#
# 1 0.034349 -0.004022 -0.013812 0.000001 0.000000 0.000000
# 2 -0.004022 0.010270 0.011770 -0.000001 0.000000 0.000000
# 3 -0.013812 0.011770 0.064810 -0.000007 0.000002 -0.000001
# 4 0.000001 -0.000001 -0.000007 0.019172 0.000000 0.000000
# 5 0.000000 0.000000 0.000002 0.000000 0.054689 -0.000001
# 6 0.000000 0.000000 -0.000001 0.000000 -0.000001 0.042481
#
#
# Mechanical properties :
#
#
# Convention : Reuss Voigt Hill
#
# Bulk Modulus (GPa) = 10.27751 17.52201 13.89976
# Shear Modulus (GPa) = 18.49567 31.21328 24.85447
#
# Velocity S-wave (km/s) = 2.70376 3.51239 3.13426
# Velocity P-wave (km/s) = 3.71607 4.83473 4.31183
#
# Compressibility (1/GPa) = 0.09729979
#
# Stress axis : x y z
#
# Youngs Moduli (GPa) = 29.11298 97.37383 15.42967
#
# Poissons Ratio (x) = 0.39168 0.21312
# Poissons Ratio (y) = 0.11711 -0.18161
# Poissons Ratio (z) = 0.40212 -1.14611
#
# Static dielectric constant tensor:
#      x y z
#    x 2.096810 0.000000 0.000000 
#    y 0.000000 1.996850 0.000000 
#    z 0.000000 0.000000 2.002380 
# 
# From -- ./inp_files/3217.got.cif
#   From: 2010.05.17/outbox.cif.g08.bks.cpg/sg45_2_cif.got.tgz:3217.got - 2010.06.03 19:51:22.
