data_PCOD9376671
_publ_section_title
;
Structure prediction by ZEFSAII (Michael W. Deem and Ramdas Pophale) SiO2 
 PCOD9376671
Probable space group: I B A 2
;
_chemical_formula_sum "Si O2"
_cell_formula_units_Z 52
_cell_length_a 8.582466
_cell_length_b 15.650856
_cell_length_c 16.153898
_cell_angle_alpha 90.000000
_cell_angle_beta 90.000000
_cell_angle_gamma 90.000000
_cell_volume 2169.839064
_symmetry_space_group_name_H-M "I B A 2"
_symmetry_group_IT_number 45
_symmetry_cell_setting 'orthorhombic'
loop_
_space_group_symop_operation_xyz
x,y,z
-x,-y,z
-x,y,1/2+z
x,-y,1/2+z
1/2+x,1/2+y,1/2+z
1/2-x,1/2-y,1/2+z
1/2-x,1/2+y,z
1/2+x,1/2-y,z
loop_
_atom_site_type_symbol
_atom_site_label
_atom_site_fract_x
_atom_site_fract_y
_atom_site_fract_z
Si Si1 0.100615 0.677560 0.370600
Si Si2 0.500000 0.000000 0.397136
Si Si3 0.730469 0.211959 0.593580
Si Si4 0.941568 0.662381 0.192019
Si Si5 0.574751 0.616292 0.826607
Si Si6 0.770662 0.048523 0.270295
Si Si7 0.494073 0.330908 0.987830
O O1 0.279518 0.679306 0.340320
O O2 0.051900 0.757319 0.424488
O O3 0.063900 0.592564 0.426345
O O4 0.003586 0.674732 0.285255
O O5 0.351370 0.968590 0.343853
O O6 0.835234 0.259589 0.661885
O O7 0.590270 0.159543 0.633217
O O8 0.646735 0.287089 0.538999
O O9 0.854549 0.155210 0.543880
O O10 0.832841 0.579097 0.194131
O O11 0.399775 0.621315 0.789892
O O12 0.645402 0.542301 0.768346
O O13 0.547657 0.594159 0.924173
#
# Coordination Sequence:
#
# PCOD9376671 Si02
#       7
#     8   4   8   8   8   8   8
#     4  10  21  36  67  97 132 174 240 284 337 408
#     4   8  18  36  58  98 128 162 218 288 328 388
#     4  10  24  39  58  97 148 177 221 280 377 429
#     4  10  23  40  62  96 135 184 226 293 351 426
#     4  10  21  37  66 100 131 167 236 296 337 409
#     4   9  20  39  64  95 130 173 227 294 335 398
#     4  11  22  39  62 102 134 184 227 294 351 426
#
# _framework density 23.96491
#
# number of rings (size 3 to 8) (size 9 to 14) (size 15 to 20)
#    0.000    2.154    1.538    0.000    8.615    1.231 
#    0.000    0.000    0.000   48.000    0.000    0.000 
#    0.000    0.000    0.000    0.000    0.000    0.000 
#
# Total GULP energy -144858.460642 kJ/mol
# GULP energy per Si atom -5571.479255 kJ/mol
# Density = 2.391036 g / cm^3
# Si number density = 23.964910 Si / 1000 Ang^3
#
#
#
# Elastic Constant Matrix: (Units=GPa)
#
#
# Indices 1 2 3 4 5 6 
#
# 1 161.9622 18.9619 29.3154 0.0000 0.0000 0.0000
# 2 18.9619 60.4643 13.0120 0.0000 0.0000 0.0000
# 3 29.3154 13.0120 70.4679 0.0000 0.0000 0.0000
# 4 0.0000 0.0000 0.0000 62.1871 0.0000 0.0000
# 5 0.0000 0.0000 0.0000 0.0000 29.7713 0.0000
# 6 0.0000 0.0000 0.0000 0.0000 0.0000 25.2733
#
#
#
# Elastic Compliance Matrix: (Units=1/GPa)
#
#
# Indices 1 2 3 4 5 6 
#
# 1 0.006821 -0.001592 -0.002544 0.000000 0.000000 0.000000
# 2 -0.001592 0.017595 -0.002587 0.000000 0.000000 0.000000
# 3 -0.002544 -0.002587 0.015727 0.000000 0.000000 0.000000
# 4 0.000000 0.000000 0.000000 0.016081 0.000000 0.000000
# 5 0.000000 0.000000 0.000000 0.000000 0.033589 0.000000
# 6 0.000000 0.000000 0.000000 0.000000 0.000000 0.039567
#
#
# Mechanical properties :
#
#
# Convention : Reuss Voigt Hill
#
# Bulk Modulus (GPa) = 37.45594 46.16368 41.80981
# Shear Modulus (GPa) = 32.95475 38.88667 35.92071
#
# Velocity S-wave (km/s) = 3.71229 4.03258 3.87575
# Velocity P-wave (km/s) = 5.83423 6.40212 6.12476
#
# Compressibility (1/GPa) = 0.02669804
#
# Stress axis : x y z
#
# Youngs Moduli (GPa) = 146.60498 56.83592 63.58605
#
# Poissons Ratio (x) = 0.09047 0.16175
# Poissons Ratio (y) = 0.23335 0.16448
# Poissons Ratio (z) = 0.37292 0.14702
#
# Static dielectric constant tensor:
#      x y z
#    x 1.971260 0.000000 0.000000 
#    y 0.000000 2.061860 0.000000 
#    z 0.000000 0.000000 1.954170 
# 
# From -- ./inp_files/7645.got.cif
#   From: 2010.05.17/outbox.cif.g08.bks.cpg/sg45_4_cif.got.tgz:7645.got - 2010.06.03 19:51:22.
