data_PCOD9376760
_publ_section_title
;
Structure prediction by ZEFSAII (Michael W. Deem and Ramdas Pophale) SiO2 
 PCOD9376760
Probable space group: I B A 2
;
_chemical_formula_sum "Si O2"
_cell_formula_units_Z 64
_cell_length_a 31.659466
_cell_length_b 7.767059
_cell_length_c 13.188630
_cell_angle_alpha 90.000000
_cell_angle_beta 90.000000
_cell_angle_gamma 90.000000
_cell_volume 3243.096519
_symmetry_space_group_name_H-M "I B A 2"
_symmetry_group_IT_number 45
_symmetry_cell_setting 'orthorhombic'
loop_
_space_group_symop_operation_xyz
x,y,z
-x,-y,z
-x,y,1/2+z
x,-y,1/2+z
1/2+x,1/2+y,1/2+z
1/2-x,1/2-y,1/2+z
1/2-x,1/2+y,z
1/2+x,1/2-y,z
loop_
_atom_site_type_symbol
_atom_site_label
_atom_site_fract_x
_atom_site_fract_y
_atom_site_fract_z
Si Si1 0.704270 0.687842 0.115480
Si Si2 0.722439 0.991702 0.743905
Si Si3 0.996287 0.192232 0.870194
Si Si4 0.794908 0.172151 0.873161
Si Si5 0.502197 0.798634 0.086892
Si Si6 0.574804 0.200457 0.242668
Si Si7 0.927822 0.310476 0.243286
Si Si8 0.862411 0.990592 0.747314
O O1 0.746808 0.607167 0.164460
O O2 0.666732 0.563892 0.152724
O O3 0.698222 0.868277 0.175624
O O4 0.706995 0.700870 0.993901
O O5 0.698036 0.848620 0.809554
O O6 0.751791 0.093071 0.825746
O O7 0.949721 0.263822 0.847879
O O8 0.033210 0.307269 0.822168
O O9 0.000000 0.000000 0.825954
O O10 0.003836 0.188196 0.988485
O O11 0.831375 0.038905 0.839993
O O12 0.463856 0.772936 0.164517
O O13 0.547174 0.765790 0.139882
O O14 0.500000 0.000000 0.058438
O O15 0.610164 0.340974 0.225229
O O16 0.589414 0.003734 0.236981
O O17 0.893692 0.167409 0.269639
#
# Coordination Sequence:
#
# PCOD9376760 Si02
#       8
#     8   8   8   8   8   8   8   8
#     4  10  21  39  64  94 125 160 205 250 304 374
#     4   9  20  40  68  91 123 159 203 260 297 363
#     4  11  20  34  60  85 108 153 208 254 303 356
#     4  10  21  39  64  95 124 162 205 248 308 371
#     4   9  20  36  58  83 105 153 211 251 301 355
#     4  10  22  40  58  79 120 157 197 257 298 352
#     4  10  22  40  58  79 120 157 197 257 299 349
#     4  11  24  37  58  89 126 160 198 244 311 369
#
# _framework density 19.734224999999999
#
# number of rings (size 3 to 8) (size 9 to 14) (size 15 to 20)
#    0.000    2.000    1.250    2.625    3.500    2.000 
#    0.000    1.250    0.000    0.000    0.000    0.000 
#    0.000    0.000    0.000    0.000    0.000    0.000 
#
# Total GULP energy -178543.409803 kJ/mol
# GULP energy per Si atom -5579.481556 kJ/mol
# Density = 1.968931 g / cm^3
# Si number density = 19.734225 Si / 1000 Ang^3
#
#
#
# Elastic Constant Matrix: (Units=GPa)
#
#
# Indices 1 2 3 4 5 6 
#
# 1 67.5708 47.5977 26.9575 0.0000 0.0000 0.0000
# 2 47.5977 94.7611 52.6644 0.0000 0.0000 0.0000
# 3 26.9575 52.6644 117.0791 0.0000 0.0000 0.0000
# 4 0.0000 0.0000 0.0000 25.3146 0.0000 0.0000
# 5 0.0000 0.0000 0.0000 0.0000 5.4822 0.0000
# 6 0.0000 0.0000 0.0000 0.0000 0.0000 40.4140
#
#
#
# Elastic Compliance Matrix: (Units=1/GPa)
#
#
# Indices 1 2 3 4 5 6 
#
# 1 0.022904 -0.011431 -0.000132 0.000000 0.000000 0.000000
# 2 -0.011431 0.019776 -0.006263 0.000000 0.000000 0.000000
# 3 -0.000132 -0.006263 0.011389 0.000000 0.000000 0.000000
# 4 0.000000 0.000000 0.000000 0.039503 0.000000 0.000000
# 5 0.000000 0.000000 0.000000 0.000000 0.182409 0.000000
# 6 0.000000 0.000000 0.000000 0.000000 0.000000 0.024744
#
#
# Mechanical properties :
#
#
# Convention : Reuss Voigt Hill
#
# Bulk Modulus (GPa) = 54.30076 59.31669 56.80873
# Shear Modulus (GPa) = 14.59783 24.38826 19.49304
#
# Velocity S-wave (km/s) = 2.72273 3.51926 3.14630
# Velocity P-wave (km/s) = 6.12047 6.82910 6.48447
#
# Compressibility (1/GPa) = 0.01841595
#
# Stress axis : x y z
#
# Youngs Moduli (GPa) = 43.66000 50.56699 87.80445
#
# Poissons Ratio (x) = 0.57806 0.01156
# Poissons Ratio (y) = 0.49910 0.54996
# Poissons Ratio (z) = 0.00575 0.31672
#
# Static dielectric constant tensor:
#      x y z
#    x 1.696640 0.000000 0.000000 
#    y 0.000000 1.711280 0.000000 
#    z 0.000000 0.000000 1.697270 
# 
# From -- ./inp_files/4975.got.cif
#   From: 2010.05.17/outbox.cif.g08.bks.cpg/sg45_3_cif.got.tgz:4975.got - 2010.06.03 19:51:22.
