data_PCOD9376178
_publ_section_title
;
Structure prediction by ZEFSAII (Michael W. Deem and Ramdas Pophale) SiO2 
 PCOD9376178
Probable space group: I B A 2
;
_chemical_formula_sum "Si O2"
_cell_formula_units_Z 60
_cell_length_a 15.468913
_cell_length_b 13.374740
_cell_length_c 13.556647
_cell_angle_alpha 90.000000
_cell_angle_beta 90.000000
_cell_angle_gamma 90.000000
_cell_volume 2804.771158
_symmetry_space_group_name_H-M "I B A 2"
_symmetry_group_IT_number 45
_symmetry_cell_setting 'orthorhombic'
loop_
_space_group_symop_operation_xyz
x,y,z
-x,-y,z
-x,y,1/2+z
x,-y,1/2+z
1/2+x,1/2+y,1/2+z
1/2-x,1/2-y,1/2+z
1/2-x,1/2+y,z
1/2+x,1/2-y,z
loop_
_atom_site_type_symbol
_atom_site_label
_atom_site_fract_x
_atom_site_fract_y
_atom_site_fract_z
Si Si1 0.187602 0.525077 0.392960
Si Si2 0.196979 0.647772 0.596242
Si Si3 0.000000 0.000000 0.786269
Si Si4 0.553956 0.283523 0.017432
Si Si5 0.555578 0.101143 0.495754
Si Si6 0.625663 0.520175 0.432175
Si Si7 0.107609 0.111280 0.622647
Si Si8 0.097765 0.465985 0.700423
O O1 0.194320 0.599791 0.485863
O O2 0.131135 0.428097 0.422409
O O3 0.283219 0.485196 0.379903
O O4 0.145393 0.573299 0.296994
O O5 0.132098 0.741847 0.586361
O O6 0.297216 0.662401 0.628336
O O7 0.151592 0.562999 0.663485
O O8 0.935417 0.049939 0.865264
O O9 0.935185 0.935724 0.720025
O O10 0.508096 0.188867 0.966116
O O11 0.472900 0.327568 0.078065
O O12 0.592724 0.367095 0.945898
O O13 0.591828 0.109079 0.607478
O O14 0.500000 0.000000 0.501325
O O15 0.625269 0.476905 0.542846
O O16 0.000000 0.500000 0.724984
#
# Coordination Sequence:
#
# PCOD9376178 Si02
#       8
#     8   8   4   8   8   8   8   8
#     4  10  21  39  65  89 129 174 220 274 342 393
#     4  10  23  41  64  96 132 169 228 277 330 416
#     4  12  20  48  68  90 128 176 226 282 346 384
#     4  12  21  44  64  96 138 176 229 280 336 403
#     4  10  20  40  60  94 131 175 212 273 341 401
#     4  11  24  43  65  96 128 177 230 284 329 414
#     4  11  24  45  69  91 132 182 224 282 346 401
#     4  10  18  38  63  93 128 169 214 266 344 395
#
# _framework density 21.392119999999998
#
# number of rings (size 3 to 8) (size 9 to 14) (size 15 to 20)
#    0.000    1.333    6.667    1.200    1.867    0.000 
#    4.800    0.000    2.933    0.000    0.000    0.000 
#    0.000    0.000    0.000    0.000    0.000    0.000 
#
# Total GULP energy -167240.005477 kJ/mol
# GULP energy per Si atom -5574.666849 kJ/mol
# Density = 2.134343 g / cm^3
# Si number density = 21.392120 Si / 1000 Ang^3
#
#
#
# Elastic Constant Matrix: (Units=GPa)
#
#
# Indices 1 2 3 4 5 6 
#
# 1 184.3688 24.1701 31.8489 0.0000 0.0000 0.0000
# 2 24.1701 51.0082 2.2951 0.0000 0.0000 0.0000
# 3 31.8489 2.2951 71.4645 0.0000 0.0000 0.0000
# 4 0.0000 0.0000 0.0000 -7.9472 0.0000 0.0000
# 5 0.0000 0.0000 0.0000 0.0000 99.6750 0.0000
# 6 0.0000 0.0000 0.0000 0.0000 0.0000 31.2774
#
#
#
# Elastic Compliance Matrix: (Units=1/GPa)
#
#
# Indices 1 2 3 4 5 6 
#
# 1 0.006263 -0.002846 -0.002700 0.000000 0.000000 0.000000
# 2 -0.002846 0.020927 0.000596 0.000000 0.000000 0.000000
# 3 -0.002700 0.000596 0.015177 0.000000 0.000000 0.000000
# 4 0.000000 0.000000 0.000000 -0.125831 0.000000 0.000000
# 5 0.000000 0.000000 0.000000 0.000000 0.010033 0.000000
# 6 0.000000 0.000000 0.000000 0.000000 0.000000 0.031972
#
#
# Mechanical properties :
#
#
# Convention : Reuss Voigt Hill
#
# Bulk Modulus (GPa) = 30.80021 47.05220 38.92620
# Shear Modulus (GPa) = -241.12142 41.16953 -99.97594
#
# Velocity S-wave (km/s) = -10.62825 4.39169 -6.84371
# Velocity P-wave (km/s) = 11.66978 6.91077 6.64925
#
# Compressibility (1/GPa) = 0.03246731
#
# Stress axis : x y z
#
# Youngs Moduli (GPa) = 159.65569 47.78596 65.88882
#
# Poissons Ratio (x) = 0.13602 0.17790
# Poissons Ratio (y) = 0.45445 -0.03930
# Poissons Ratio (z) = 0.43107 -0.02850
#
# Static dielectric constant tensor:
#      x y z
#    x 1.617030 0.000000 0.000000 
#    y 0.000000 1.811240 0.000000 
#    z 0.000000 0.000000 1.819110 
# 
# From -- ./inp_files/6608.got.cif
#   From: 2010.05.17/outbox.cif.g08.bks.cpg/sg45_4_cif.got.tgz:6608.got - 2010.06.03 19:51:22.
