data_PCOD9376517
_publ_section_title
;
Structure prediction by ZEFSAII (Michael W. Deem and Ramdas Pophale) SiO2 
 PCOD9376517
Probable space group: I B A 2
;
_chemical_formula_sum "Si O2"
_cell_formula_units_Z 56
_cell_length_a 5.753891
_cell_length_b 32.435191
_cell_length_c 10.866210
_cell_angle_alpha 90.000000
_cell_angle_beta 90.000000
_cell_angle_gamma 90.000000
_cell_volume 2027.945055
_symmetry_space_group_name_H-M "I B A 2"
_symmetry_group_IT_number 45
_symmetry_cell_setting 'orthorhombic'
loop_
_space_group_symop_operation_xyz
x,y,z
-x,-y,z
-x,y,1/2+z
x,-y,1/2+z
1/2+x,1/2+y,1/2+z
1/2-x,1/2-y,1/2+z
1/2-x,1/2+y,z
1/2+x,1/2-y,z
loop_
_atom_site_type_symbol
_atom_site_label
_atom_site_fract_x
_atom_site_fract_y
_atom_site_fract_z
Si Si1 0.228073 0.604024 0.028740
Si Si2 0.113932 0.311721 0.666723
Si Si3 0.891228 0.816345 0.679527
Si Si4 0.602535 0.460895 0.631713
Si Si5 0.123362 0.242455 0.452754
Si Si6 0.042374 0.099012 0.788851
Si Si7 0.875150 0.542106 0.895014
O O1 0.126908 0.641970 0.108009
O O2 0.397672 0.569765 0.088795
O O3 0.376673 0.620628 0.913534
O O4 0.031277 0.576185 0.965291
O O5 0.358648 0.302782 0.735701
O O6 0.114397 0.278154 0.559194
O O7 0.865630 0.308902 0.732633
O O8 0.879821 0.798538 0.540249
O O9 0.936149 0.864783 0.689612
O O10 0.500000 0.500000 0.698672
O O11 0.729876 0.433736 0.734415
O O12 0.733920 0.476082 0.512765
O O13 0.372639 0.250949 0.391410
O O14 0.813004 0.071654 0.822925
O O15 0.000000 0.500000 0.843189
#
# Coordination Sequence:
#
# PCOD9376517 Si02
#       7
#     8   8   8   8   8   8   8
#     4  11  24  41  63  93 136 175 228 294 348 422
#     4  10  20  38  67  96 130 180 227 276 351 422
#     4  10  20  39  66  98 131 173 234 276 351 423
#     4  11  23  43  63  89 128 180 230 285 357 430
#     4   8  16  32  61  95 123 170 221 274 333 419
#     4  11  26  39  66  99 132 181 238 299 356 429
#     4  11  25  44  63  92 134 178 232 300 356 421
#
# _framework density 27.614162
#
# number of rings (size 3 to 8) (size 9 to 14) (size 15 to 20)
#    0.000    1.714    2.857    0.857    6.000    1.143 
#    0.000    0.000    0.000   15.429    0.000    0.000 
#    0.000    0.000    0.000    0.000    0.000    0.000 
#
# Total GULP energy -156139.573557 kJ/mol
# GULP energy per Si atom -5576.413341 kJ/mol
# Density = 2.755131 g / cm^3
# Si number density = 27.614162 Si / 1000 Ang^3
#
#
#
# Elastic Constant Matrix: (Units=GPa)
#
#
# Indices 1 2 3 4 5 6 
#
# 1 216.5689 70.7854 35.4439 0.0000 0.0000 0.0000
# 2 70.7854 177.1542 35.7020 0.0000 0.0000 0.0000
# 3 35.4439 35.7020 48.4375 0.0001 0.0000 0.0000
# 4 0.0000 0.0000 0.0001 43.4821 0.0000 0.0000
# 5 0.0000 0.0000 0.0000 0.0000 52.2431 0.0000
# 6 0.0000 0.0000 0.0000 0.0000 0.0000 41.6621
#
#
#
# Elastic Compliance Matrix: (Units=1/GPa)
#
#
# Indices 1 2 3 4 5 6 
#
# 1 0.005637 -0.001669 -0.002894 0.000000 0.000000 0.000000
# 2 -0.001669 0.007124 -0.004029 0.000000 0.000000 0.000000
# 3 -0.002894 -0.004029 0.025733 0.000000 0.000000 0.000000
# 4 0.000000 0.000000 0.000000 0.022998 0.000000 0.000000
# 5 0.000000 0.000000 0.000000 0.000000 0.019141 0.000000
# 6 0.000000 0.000000 0.000000 0.000000 0.000000 0.024003
#
#
# Mechanical properties :
#
#
# Convention : Reuss Voigt Hill
#
# Bulk Modulus (GPa) = 46.93113 80.66926 63.80020
# Shear Modulus (GPa) = 38.78256 47.49273 43.13765
#
# Velocity S-wave (km/s) = 3.75166 4.15163 3.95670
# Velocity P-wave (km/s) = 5.98321 7.22895 6.63538
#
# Compressibility (1/GPa) = 0.02130782
#
# Stress axis : x y z
#
# Youngs Moduli (GPa) = 177.40985 140.37623 38.86027
#
# Poissons Ratio (x) = 0.23428 0.11248
# Poissons Ratio (y) = 0.29608 0.15659
# Poissons Ratio (z) = 0.51351 0.56564
#
# Static dielectric constant tensor:
#      x y z
#    x 2.347540 0.000000 0.000000 
#    y 0.000000 2.077830 0.000000 
#    z 0.000000 0.000000 2.441240 
# 
# From -- ./inp_files/5248.got.cif
#   From: 2010.05.17/outbox.cif.g08.bks.cpg/sg45_3_cif.got.tgz:5248.got - 2010.06.03 19:51:22.
