data_PCOD9376929
_publ_section_title
;
Structure prediction by ZEFSAII (Michael W. Deem and Ramdas Pophale) SiO2 
 PCOD9376929
Probable space group: I B A 2
;
_chemical_formula_sum "Si O2"
_cell_formula_units_Z 60
_cell_length_a 10.217406
_cell_length_b 21.366240
_cell_length_c 14.330347
_cell_angle_alpha 90.000000
_cell_angle_beta 90.000000
_cell_angle_gamma 90.000000
_cell_volume 3128.422927
_symmetry_space_group_name_H-M "I B A 2"
_symmetry_group_IT_number 45
_symmetry_cell_setting 'orthorhombic'
loop_
_space_group_symop_operation_xyz
x,y,z
-x,-y,z
-x,y,1/2+z
x,-y,1/2+z
1/2+x,1/2+y,1/2+z
1/2-x,1/2-y,1/2+z
1/2-x,1/2+y,z
1/2+x,1/2-y,z
loop_
_atom_site_type_symbol
_atom_site_label
_atom_site_fract_x
_atom_site_fract_y
_atom_site_fract_z
Si Si1 0.688659 0.717578 0.593470
Si Si2 0.859718 0.350855 0.942780
Si Si3 0.500000 0.500000 0.617919
Si Si4 0.851075 0.322077 0.441784
Si Si5 0.123235 0.091180 0.382217
Si Si6 0.210704 0.775832 0.284705
Si Si7 0.654074 0.543949 0.445951
Si Si8 0.507158 0.632063 0.700877
O O1 0.804799 0.684564 0.535075
O O2 0.646876 0.775176 0.528949
O O3 0.728674 0.744381 0.693495
O O4 0.572421 0.668292 0.614132
O O5 0.813909 0.310259 0.852967
O O6 0.781486 0.415189 0.939599
O O7 0.014048 0.359428 0.943345
O O8 0.618278 0.519226 0.549044
O O9 0.462604 0.562164 0.673927
O O10 0.722611 0.365949 0.440528
O O11 0.850509 0.277597 0.350598
O O12 0.116677 0.120125 0.279671
O O13 0.972730 0.085874 0.417624
O O14 0.163731 0.018465 0.383859
O O15 0.104453 0.825473 0.247074
#
# Coordination Sequence:
#
# PCOD9376929 Si02
#       8
#     8   8   4   8   8   8   8   8
#     4  11  24  39  62  96 133 170 218 269 328 395
#     4  11  23  42  60  96 134 169 212 269 335 394
#     4  10  22  36  66  98 118 162 224 284 312 366
#     4  11  25  40  66  94 138 173 208 268 342 400
#     4  10  22  41  64  92 121 170 221 266 322 379
#     4  11  24  39  65  93 132 171 220 266 330 392
#     4  10  22  41  66  92 125 166 227 270 316 387
#     4  12  21  39  66  95 123 169 227 274 312 387
#
# _framework density 19.178992999999998
#
# number of rings (size 3 to 8) (size 9 to 14) (size 15 to 20)
#    0.000    1.333    4.000    2.400    5.600    0.533 
#    0.000    0.000    0.000    0.000    0.000    0.000 
#    0.000    0.000    0.000    0.000    0.000    0.000 
#
# Total GULP energy -167518.804846 kJ/mol
# GULP energy per Si atom -5583.960162 kJ/mol
# Density = 1.913534 g / cm^3
# Si number density = 19.178993 Si / 1000 Ang^3
#
#
#
# Elastic Constant Matrix: (Units=GPa)
#
#
# Indices 1 2 3 4 5 6 
#
# 1 79.9372 58.6482 21.9157 0.0000 0.0000 0.0000
# 2 58.6482 122.2983 39.8985 0.0000 0.0000 0.0000
# 3 21.9157 39.8985 100.0337 0.0000 0.0000 0.0000
# 4 0.0000 0.0000 0.0000 42.1044 0.0000 0.0000
# 5 0.0000 0.0000 0.0000 0.0000 13.7009 0.0000
# 6 0.0000 0.0000 0.0000 0.0000 0.0000 29.0003
#
#
#
# Elastic Compliance Matrix: (Units=1/GPa)
#
#
# Indices 1 2 3 4 5 6 
#
# 1 0.019334 -0.009070 -0.000618 0.000000 0.000000 0.000000
# 2 -0.009070 0.013655 -0.003459 0.000000 0.000000 0.000000
# 3 -0.000618 -0.003459 0.011512 0.000000 0.000000 0.000000
# 4 0.000000 0.000000 0.000000 0.023750 0.000000 0.000000
# 5 0.000000 0.000000 0.000000 0.000000 0.072988 0.000000
# 6 0.000000 0.000000 0.000000 0.000000 0.000000 0.034482
#
#
# Mechanical properties :
#
#
# Convention : Reuss Voigt Hill
#
# Bulk Modulus (GPa) = 54.92746 60.35488 57.64117
# Shear Modulus (GPa) = 24.02880 29.08157 26.55518
#
# Velocity S-wave (km/s) = 3.54343 3.89823 3.72505
# Velocity P-wave (km/s) = 6.74113 7.19716 6.97287
#
# Compressibility (1/GPa) = 0.01820583
#
# Stress axis : x y z
#
# Youngs Moduli (GPa) = 51.72348 73.23529 86.86783
#
# Poissons Ratio (x) = 0.66422 0.05370
# Poissons Ratio (y) = 0.46912 0.30049
# Poissons Ratio (z) = 0.03197 0.25333
#
# Static dielectric constant tensor:
#      x y z
#    x 1.654050 0.000000 0.000000 
#    y 0.000000 1.694160 0.000000 
#    z 0.000000 0.000000 1.703620 
# 
# From -- ./inp_files/5836.got.cif
#   From: 2010.05.17/outbox.cif.g08.bks.cpg/sg45_3_cif.got.tgz:5836.got - 2010.06.03 19:51:22.
