data_PCOD9376809
_publ_section_title
;
Structure prediction by ZEFSAII (Michael W. Deem and Ramdas Pophale) SiO2 
 PCOD9376809
Probable space group: I B A 2
;
_chemical_formula_sum "Si O2"
_cell_formula_units_Z 40
_cell_length_a 4.980670
_cell_length_b 20.564982
_cell_length_c 14.637017
_cell_angle_alpha 90.000000
_cell_angle_beta 90.000000
_cell_angle_gamma 90.000000
_cell_volume 1499.231433
_symmetry_space_group_name_H-M "I B A 2"
_symmetry_group_IT_number 45
_symmetry_cell_setting 'orthorhombic'
loop_
_space_group_symop_operation_xyz
x,y,z
-x,-y,z
-x,y,1/2+z
x,-y,1/2+z
1/2+x,1/2+y,1/2+z
1/2-x,1/2-y,1/2+z
1/2-x,1/2+y,z
1/2+x,1/2-y,z
loop_
_atom_site_type_symbol
_atom_site_label
_atom_site_fract_x
_atom_site_fract_y
_atom_site_fract_z
Si Si1 0.383359 0.107009 0.189640
Si Si2 0.746097 0.796997 0.496250
Si Si3 0.376979 0.571214 0.808616
Si Si4 0.221024 0.213422 0.285056
Si Si5 0.920823 0.076638 0.514909
O O1 0.623021 0.072868 0.242165
O O2 0.392191 0.183843 0.200116
O O3 0.119243 0.104090 0.254333
O O4 0.307733 0.083227 0.090890
O O5 0.474014 0.757341 0.515520
O O6 0.715932 0.811988 0.387695
O O7 0.855248 0.866751 0.536066
O O8 0.500000 0.500000 0.818744
O O9 0.318998 0.591707 0.912431
O O10 0.398908 0.280209 0.286781
O O11 0.000000 0.000000 0.519282
#
# Coordination Sequence:
#
# PCOD9376809 Si02
#       5
#     8   8   8   8   8
#     4  12  25  46  76 109 153 205 265 321 394 475
#     4  10  23  44  76 112 154 206 261 321 392 469
#     4  11  26  48  73 106 154 204 256 326 394 463
#     4  10  21  40  71 108 150 204 260 320 388 467
#     4  11  27  50  81 119 159 209 269 325 400 485
#
# _framework density 26.680333999999998
#
# number of rings (size 3 to 8) (size 9 to 14) (size 15 to 20)
#    0.000    1.200    2.000    2.400    5.600    4.800 
#    0.000    7.000    0.000    1.200    0.000    0.000 
#    0.000    0.000    0.000    0.000    0.000    0.000 
#
# Total GULP energy -111635.650246 kJ/mol
# GULP energy per Si atom -5581.782512 kJ/mol
# Density = 2.661961 g / cm^3
# Si number density = 26.680334 Si / 1000 Ang^3
#
#
#
# Elastic Constant Matrix: (Units=GPa)
#
#
# Indices 1 2 3 4 5 6 
#
# 1 164.9153 7.6029 83.0017 0.0000 0.0000 0.0000
# 2 7.6029 71.8172 43.5085 0.0000 0.0000 0.0000
# 3 83.0017 43.5085 175.9341 0.0000 0.0000 0.0000
# 4 0.0000 0.0000 0.0000 32.0822 0.0000 0.0000
# 5 0.0000 0.0000 0.0000 0.0000 23.6720 0.0000
# 6 0.0000 0.0000 0.0000 0.0000 0.0000 -30.0387
#
#
#
# Elastic Compliance Matrix: (Units=1/GPa)
#
#
# Indices 1 2 3 4 5 6 
#
# 1 0.008129 0.001721 -0.004260 0.000000 0.000000 0.000000
# 2 0.001721 0.016742 -0.004952 0.000000 0.000000 0.000000
# 3 -0.004260 -0.004952 0.008919 0.000000 0.000000 0.000000
# 4 0.000000 0.000000 0.000000 0.031170 0.000000 0.000000
# 5 0.000000 0.000000 0.000000 0.000000 0.042244 0.000000
# 6 0.000000 0.000000 0.000000 0.000000 0.000000 -0.033290
#
#
# Mechanical properties :
#
#
# Convention : Reuss Voigt Hill
#
# Bulk Modulus (GPa) = 53.17591 75.65475 64.41533
# Shear Modulus (GPa) = 52.54018 23.71332 38.12675
#
# Velocity S-wave (km/s) = 4.44243 2.98450 3.78434
# Velocity P-wave (km/s) = 6.80350 6.34775 6.57957
#
# Compressibility (1/GPa) = 0.01880551
#
# Stress axis : x y z
#
# Youngs Moduli (GPa) = 123.02160 59.72948 112.12598
#
# Poissons Ratio (x) = -0.10276 0.47770
# Poissons Ratio (y) = -0.21166 0.55525
# Poissons Ratio (z) = 0.52412 0.29578
#
# Static dielectric constant tensor:
#      x y z
#    x 2.083100 0.000000 0.000000 
#    y 0.000000 0.926320 0.000000 
#    z 0.000000 0.000000 2.070160 
# 
# From -- ./inp_files/5110.got.cif
#   From: 2010.05.17/outbox.cif.g08.bks.cpg/sg45_3_cif.got.tgz:5110.got - 2010.06.03 19:51:22.
