data_PCOD9376159
_publ_section_title
;
Structure prediction by ZEFSAII (Michael W. Deem and Ramdas Pophale) SiO2 
 PCOD9376159
Probable space group: I B A 2
;
_chemical_formula_sum "Si O2"
_cell_formula_units_Z 40
_cell_length_a 12.600184
_cell_length_b 15.688367
_cell_length_c 8.630801
_cell_angle_alpha 90.000000
_cell_angle_beta 90.000000
_cell_angle_gamma 90.000000
_cell_volume 1706.104901
_symmetry_space_group_name_H-M "I B A 2"
_symmetry_group_IT_number 45
_symmetry_cell_setting 'orthorhombic'
loop_
_space_group_symop_operation_xyz
x,y,z
-x,-y,z
-x,y,1/2+z
x,-y,1/2+z
1/2+x,1/2+y,1/2+z
1/2-x,1/2-y,1/2+z
1/2-x,1/2+y,z
1/2+x,1/2-y,z
loop_
_atom_site_type_symbol
_atom_site_label
_atom_site_fract_x
_atom_site_fract_y
_atom_site_fract_z
Si Si1 0.390603 0.371814 0.851920
Si Si2 0.304780 0.941629 0.356988
Si Si3 0.453777 0.194155 0.722221
Si Si4 0.148954 0.995520 0.099922
Si Si5 0.859772 0.367297 0.395050
O O1 0.447530 0.289293 0.788163
O O2 0.403591 0.445291 0.725649
O O3 0.265115 0.349651 0.871232
O O4 0.415261 0.422149 0.010706
O O5 0.383105 0.863626 0.338794
O O6 0.245050 0.950632 0.192994
O O7 0.208673 0.941646 0.479214
O O8 0.366532 0.029520 0.394213
O O9 0.573880 0.163623 0.746529
O O10 0.408407 0.176575 0.549644
#
# Coordination Sequence:
#
# PCOD9376159 Si02
#       5
#     8   8   8   8   8
#     4  10  22  42  66  94 124 172 211 270 315 380
#     4  10  18  36  60  89 133 163 196 254 324 384
#     4  12  24  38  64  94 131 170 216 258 318 387
#     4   8  18  37  60  91 121 162 212 250 319 363
#     4  10  25  39  55 100 129 167 207 260 329 378
#
# _framework density 23.445215999999999
#
# number of rings (size 3 to 8) (size 9 to 14) (size 15 to 20)
#    0.000    2.400    4.000    0.600    8.400    1.600 
#    0.000    0.000    0.000    3.600    5.200    0.000 
#    0.000    0.000    0.000    0.000    0.000    0.000 
#
# Total GULP energy -111719.059331 kJ/mol
# GULP energy per Si atom -5585.952967 kJ/mol
# Density = 2.339185 g / cm^3
# Si number density = 23.445216 Si / 1000 Ang^3
#
#
#
# Elastic Constant Matrix: (Units=GPa)
#
#
# Indices 1 2 3 4 5 6 
#
# 1 63.3936 10.8353 30.5805 0.0000 0.0000 0.0000
# 2 10.8353 122.3867 23.8656 0.0000 0.0000 0.0000
# 3 30.5805 23.8656 126.6758 0.0000 0.0000 0.0000
# 4 0.0000 0.0000 0.0000 34.0387 0.0000 0.0000
# 5 0.0000 0.0000 0.0000 0.0000 29.6700 0.0000
# 6 0.0000 0.0000 0.0000 0.0000 0.0000 11.9918
#
#
#
# Elastic Compliance Matrix: (Units=1/GPa)
#
#
# Indices 1 2 3 4 5 6 
#
# 1 0.017923 -0.000771 -0.004182 0.000000 0.000000 0.000000
# 2 -0.000771 0.008516 -0.001418 0.000000 0.000000 0.000000
# 3 -0.004182 -0.001418 0.009171 0.000000 0.000000 0.000000
# 4 0.000000 0.000000 0.000000 0.029378 0.000000 0.000000
# 5 0.000000 0.000000 0.000000 0.000000 0.033704 0.000000
# 6 0.000000 0.000000 0.000000 0.000000 0.000000 0.083390
#
#
# Mechanical properties :
#
#
# Convention : Reuss Voigt Hill
#
# Bulk Modulus (GPa) = 43.72964 49.22432 46.47698
# Shear Modulus (GPa) = 24.69781 31.61840 28.15811
#
# Velocity S-wave (km/s) = 3.24917 3.67632 3.46933
# Velocity P-wave (km/s) = 5.72438 6.24992 5.99291
#
# Compressibility (1/GPa) = 0.02286778
#
# Stress axis : x y z
#
# Youngs Moduli (GPa) = 55.79281 117.43082 109.04179
#
# Poissons Ratio (x) = 0.09059 0.45596
# Poissons Ratio (y) = 0.04304 0.15463
# Poissons Ratio (z) = 0.23330 0.16653
#
# Static dielectric constant tensor:
#      x y z
#    x 1.899160 0.000000 0.000000 
#    y 0.000000 1.865200 0.000000 
#    z 0.000000 0.000000 1.926050 
# 
# From -- ./inp_files/2052.got.cif
#   From: 2010.05.17/outbox.cif.g08.bks.cpg/sg45_2_cif.got.tgz:2052.got - 2010.06.03 19:51:22.
