data_PCOD9376577
_publ_section_title
;
Structure prediction by ZEFSAII (Michael W. Deem and Ramdas Pophale) SiO2 
 PCOD9376577
Probable space group: I B A 2
;
_chemical_formula_sum "Si O2"
_cell_formula_units_Z 48
_cell_length_a 19.044251
_cell_length_b 10.044026
_cell_length_c 9.655354
_cell_angle_alpha 90.000000
_cell_angle_beta 90.000000
_cell_angle_gamma 90.000000
_cell_volume 1846.885307
_symmetry_space_group_name_H-M "I B A 2"
_symmetry_group_IT_number 45
_symmetry_cell_setting 'orthorhombic'
loop_
_space_group_symop_operation_xyz
x,y,z
-x,-y,z
-x,y,1/2+z
x,-y,1/2+z
1/2+x,1/2+y,1/2+z
1/2-x,1/2-y,1/2+z
1/2-x,1/2+y,z
1/2+x,1/2-y,z
loop_
_atom_site_type_symbol
_atom_site_label
_atom_site_fract_x
_atom_site_fract_y
_atom_site_fract_z
Si Si1 0.642622 0.292064 0.935850
Si Si2 0.772235 0.272463 0.776645
Si Si3 0.928984 0.967477 0.739491
Si Si4 0.709557 0.506425 0.601510
Si Si5 0.475809 0.150486 0.611270
Si Si6 0.579497 0.251204 0.393388
O O1 0.702376 0.215427 0.853307
O O2 0.579431 0.345640 0.841867
O O3 0.598066 0.206034 0.045958
O O4 0.693701 0.428351 0.951569
O O5 0.760108 0.397731 0.670895
O O6 0.788546 0.147843 0.678532
O O7 0.837927 0.291205 0.881618
O O8 0.866413 0.948998 0.635014
O O9 0.922786 0.099119 0.834462
O O10 0.000000 0.000000 0.660978
O O11 0.539638 0.230552 0.538018
O O12 0.461503 0.167197 0.774501
O O13 0.500000 0.000000 0.583124
#
# Coordination Sequence:
#
# PCOD9376577 Si02
#       6
#     8   8   8   8   8   8
#     4  11  23  43  70 104 140 194 244 307 378 451
#     4  10  24  43  69 101 139 191 242 310 374 442
#     4  10  20  40  68  98 137 182 236 308 359 444
#     4  10  23  43  67  98 143 183 248 306 367 449
#     4  12  26  47  71 103 153 193 244 303 370 456
#     4  11  25  49  70 108 144 193 247 305 375 450
#
# _framework density 25.989702999999999
#
# number of rings (size 3 to 8) (size 9 to 14) (size 15 to 20)
#    0.000    1.333    5.000    0.500    2.333    7.333 
#    3.000    0.000    0.000    0.000    0.000    0.000 
#    0.000    0.000    0.000    0.000    0.000    0.000 
#
# Total GULP energy -133767.853576 kJ/mol
# GULP energy per Si atom -5573.660566 kJ/mol
# Density = 2.593055 g / cm^3
# Si number density = 25.989703 Si / 1000 Ang^3
#
#
#
# Elastic Constant Matrix: (Units=GPa)
#
#
# Indices 1 2 3 4 5 6 
#
# 1 167.2050 41.4364 12.9070 0.0000 0.0000 0.0000
# 2 41.4364 92.6180 7.8033 0.0000 0.0000 0.0000
# 3 12.9070 7.8033 42.5317 0.0000 0.0000 0.0000
# 4 0.0000 0.0000 0.0000 29.8676 0.0000 0.0000
# 5 0.0000 0.0000 0.0000 0.0000 42.8651 0.0000
# 6 0.0000 0.0000 0.0000 0.0000 0.0000 37.0570
#
#
#
# Elastic Compliance Matrix: (Units=1/GPa)
#
#
# Indices 1 2 3 4 5 6 
#
# 1 0.006824 -0.002924 -0.001534 0.000000 0.000000 0.000000
# 2 -0.002924 0.012219 -0.001355 0.000000 0.000000 0.000000
# 3 -0.001534 -0.001355 0.024226 0.000000 0.000000 0.000000
# 4 0.000000 0.000000 0.000000 0.033481 0.000000 0.000000
# 5 0.000000 0.000000 0.000000 0.000000 0.023329 0.000000
# 6 0.000000 0.000000 0.000000 0.000000 0.000000 0.026985
#
#
# Mechanical properties :
#
#
# Convention : Reuss Voigt Hill
#
# Bulk Modulus (GPa) = 31.60191 47.40535 39.50363
# Shear Modulus (GPa) = 33.50366 37.97180 35.73773
#
# Velocity S-wave (km/s) = 3.59432 3.82649 3.71222
# Velocity P-wave (km/s) = 5.42322 6.14836 5.79714
#
# Compressibility (1/GPa) = 0.03164366
#
# Stress axis : x y z
#
# Youngs Moduli (GPa) = 146.54951 81.83882 41.27792
#
# Poissons Ratio (x) = 0.23926 0.06334
# Poissons Ratio (y) = 0.42844 0.05592
# Poissons Ratio (z) = 0.22486 0.11086
#
# Static dielectric constant tensor:
#      x y z
#    x 2.207460 0.000000 0.000000 
#    y 0.000000 2.213640 0.000000 
#    z 0.000000 0.000000 2.368330 
# 
# From -- ./inp_files/4430.got.cif
#   From: 2010.05.17/outbox.cif.g08.bks.cpg/sg45_3_cif.got.tgz:4430.got - 2010.06.03 19:51:22.
