data_PCOD9376810
_publ_section_title
;
Structure prediction by ZEFSAII (Michael W. Deem and Ramdas Pophale) SiO2 
 PCOD9376810
Probable space group: I B A 2
;
_chemical_formula_sum "Si O2"
_cell_formula_units_Z 48
_cell_length_a 7.710226
_cell_length_b 14.698465
_cell_length_c 17.262473
_cell_angle_alpha 90.000000
_cell_angle_beta 90.000000
_cell_angle_gamma 90.000000
_cell_volume 1956.329947
_symmetry_space_group_name_H-M "I B A 2"
_symmetry_group_IT_number 45
_symmetry_cell_setting 'orthorhombic'
loop_
_space_group_symop_operation_xyz
x,y,z
-x,-y,z
-x,y,1/2+z
x,-y,1/2+z
1/2+x,1/2+y,1/2+z
1/2-x,1/2-y,1/2+z
1/2-x,1/2+y,z
1/2+x,1/2-y,z
loop_
_atom_site_type_symbol
_atom_site_label
_atom_site_fract_x
_atom_site_fract_y
_atom_site_fract_z
Si Si1 0.161391 0.124080 0.213160
Si Si2 0.671762 0.854009 0.519940
Si Si3 0.295267 0.302469 0.265386
Si Si4 0.075761 0.594479 0.892301
Si Si5 0.788371 0.654827 0.544187
Si Si6 0.315886 0.050310 0.658351
O O1 0.297667 0.194435 0.251493
O O2 0.170546 0.139075 0.119332
O O3 0.986670 0.155786 0.255562
O O4 0.206002 0.017609 0.213993
O O5 0.599999 0.870169 0.433949
O O6 0.763688 0.758449 0.518600
O O7 0.489942 0.848516 0.567148
O O8 0.758959 0.933174 0.571284
O O9 0.181903 0.338815 0.337046
O O10 0.196132 0.350378 0.194619
O O11 0.000000 0.500000 0.858257
O O12 0.205149 0.589886 0.968062
O O13 0.500000 0.000000 0.656542
#
# Coordination Sequence:
#
# PCOD9376810 Si02
#       6
#     8   8   8   8   8   8
#     4  12  24  44  69 106 145 194 254 307 376 446
#     4  10  21  40  74 109 137 201 239 313 370 450
#     4  12  27  41  69 104 145 196 246 316 376 459
#     4  10  24  46  72 103 151 203 247 307 394 454
#     4  10  21  41  73 104 146 188 256 294 379 444
#     4  12  22  44  71 102 143 193 247 309 372 446
#
# _framework density 24.535739
#
# number of rings (size 3 to 8) (size 9 to 14) (size 15 to 20)
#    1.000    0.000    3.333    4.500    2.333    0.000 
#    0.000    0.000    3.667    0.000    0.000    0.000 
#    0.000    0.000    0.000    0.000    0.000    0.000 
#
# Total GULP energy -133627.977252 kJ/mol
# GULP energy per Si atom -5567.832385 kJ/mol
# Density = 2.447989 g / cm^3
# Si number density = 24.535739 Si / 1000 Ang^3
#
#
#
# Elastic Constant Matrix: (Units=GPa)
#
#
# Indices 1 2 3 4 5 6 
#
# 1 64.2213 15.5442 6.5402 0.0000 0.0000 0.0000
# 2 15.5442 71.5424 11.8527 0.0000 0.0000 0.0000
# 3 6.5402 11.8527 103.4890 0.0000 0.0000 0.0000
# 4 0.0000 0.0000 0.0000 44.3189 0.0000 0.0000
# 5 0.0000 0.0000 0.0000 0.0000 -11.0276 0.0000
# 6 0.0000 0.0000 0.0000 0.0000 0.0000 26.3029
#
#
#
# Elastic Compliance Matrix: (Units=1/GPa)
#
#
# Indices 1 2 3 4 5 6 
#
# 1 0.016477 -0.003473 -0.000643 0.000000 0.000000 0.000000
# 2 -0.003473 0.014980 -0.001496 0.000000 0.000000 0.000000
# 3 -0.000643 -0.001496 0.009875 0.000000 0.000000 0.000000
# 4 0.000000 0.000000 0.000000 0.022564 0.000000 0.000000
# 5 0.000000 0.000000 0.000000 0.000000 -0.090682 0.000000
# 6 0.000000 0.000000 0.000000 0.000000 0.000000 0.038019
#
#
# Mechanical properties :
#
#
# Convention : Reuss Voigt Hill
#
# Bulk Modulus (GPa) = 33.21569 34.12521 33.67045
# Shear Modulus (GPa) = 153.87022 25.60654 89.73838
#
# Velocity S-wave (km/s) = 7.92773 3.23405 6.05425
# Velocity P-wave (km/s) = 9.86740 5.28053 7.91358
#
# Compressibility (1/GPa) = 0.03010625
#
# Stress axis : x y z
#
# Youngs Moduli (GPa) = 60.68910 66.75432 101.26698
#
# Poissons Ratio (x) = 0.23187 0.06517
# Poissons Ratio (y) = 0.21080 0.15152
# Poissons Ratio (z) = 0.03905 0.09988
#
# Static dielectric constant tensor:
#      x y z
#    x 2.178130 0.000000 0.000000 
#    y 0.000000 1.726980 0.000000 
#    z 0.000000 0.000000 2.102020 
# 
# From -- ./inp_files/7569.got.cif
#   From: 2010.05.17/outbox.cif.g08.bks.cpg/sg45_4_cif.got.tgz:7569.got - 2010.06.03 19:51:22.
