data_PCOD9376291
_publ_section_title
;
Structure prediction by ZEFSAII (Michael W. Deem and Ramdas Pophale) SiO2 
 PCOD9376291
Probable space group: I B A 2
;
_chemical_formula_sum "Si O2"
_cell_formula_units_Z 64
_cell_length_a 10.337569
_cell_length_b 18.823230
_cell_length_c 13.515728
_cell_angle_alpha 90.000000
_cell_angle_beta 90.000000
_cell_angle_gamma 90.000000
_cell_volume 2629.977381
_symmetry_space_group_name_H-M "I B A 2"
_symmetry_group_IT_number 45
_symmetry_cell_setting 'orthorhombic'
loop_
_space_group_symop_operation_xyz
x,y,z
-x,-y,z
-x,y,1/2+z
x,-y,1/2+z
1/2+x,1/2+y,1/2+z
1/2-x,1/2-y,1/2+z
1/2-x,1/2+y,z
1/2+x,1/2-y,z
loop_
_atom_site_type_symbol
_atom_site_label
_atom_site_fract_x
_atom_site_fract_y
_atom_site_fract_z
Si Si1 0.800891 0.962349 0.264450
Si Si2 0.388969 0.767382 0.163990
Si Si3 0.420199 0.204169 0.006981
Si Si4 0.358423 0.876181 0.893636
Si Si5 0.593359 0.393376 0.084700
Si Si6 0.428143 0.404277 0.348865
Si Si7 0.834028 0.146261 0.051083
Si Si8 0.238298 0.220756 0.849443
O O1 0.666181 0.932328 0.307483
O O2 0.818392 0.945551 0.148924
O O3 0.926551 0.922072 0.314068
O O4 0.826875 0.041837 0.298852
O O5 0.375829 0.685576 0.129604
O O6 0.269055 0.808736 0.113367
O O7 0.362216 0.780648 0.278337
O O8 0.522583 0.797655 0.118064
O O9 0.511696 0.148991 0.948254
O O10 0.282131 0.191359 0.956858
O O11 0.418272 0.291381 0.993595
O O12 0.306270 0.800967 0.854388
O O13 0.255322 0.898228 0.978200
O O14 0.439486 0.398441 0.108816
O O15 0.587623 0.411040 0.967834
O O16 0.381467 0.326537 0.316976
#
# Coordination Sequence:
#
# PCOD9376291 Si02
#       8
#     8   8   8   8   8   8   8   8
#     4  11  24  41  61  93 122 172 215 256 321 383
#     4  10  20  33  61  98 123 161 205 262 318 379
#     4   9  20  34  55  91 122 159 198 254 314 366
#     4  10  19  36  60  88 123 159 206 256 309 376
#     4  11  20  38  60  90 127 164 210 257 325 374
#     4  11  25  42  63  90 133 168 211 269 319 376
#     4   9  17  33  58  87 129 151 201 258 316 363
#     4  11  21  38  62  93 129 162 207 264 317 372
#
# _framework density 24.334809
#
# number of rings (size 3 to 8) (size 9 to 14) (size 15 to 20)
#    0.000    1.750    2.500    3.750    1.750    4.000 
#    6.750    0.625    0.000    0.000    0.000    0.000 
#    0.000    0.000    0.000    0.000    0.000    0.000 
#
# Total GULP energy -178412.357709 kJ/mol
# GULP energy per Si atom -5575.386178 kJ/mol
# Density = 2.427942 g / cm^3
# Si number density = 24.334809 Si / 1000 Ang^3
#
#
#
# Elastic Constant Matrix: (Units=GPa)
#
#
# Indices 1 2 3 4 5 6 
#
# 1 19.7869 -2.6212 -6.2723 0.0000 0.0000 0.0000
# 2 -2.6212 30.9619 -3.4702 0.0001 0.0000 0.0000
# 3 -6.2723 -3.4702 90.4944 0.0002 0.0000 0.0000
# 4 0.0000 0.0001 0.0002 19.6432 0.0000 0.0000
# 5 0.0000 0.0000 0.0000 0.0000 35.4537 0.0000
# 6 0.0000 0.0000 0.0000 0.0000 0.0000 27.9306
#
#
#
# Elastic Compliance Matrix: (Units=1/GPa)
#
#
# Indices 1 2 3 4 5 6 
#
# 1 0.052393 0.004863 0.003818 0.000000 0.000000 0.000000
# 2 0.004863 0.032889 0.001598 0.000000 0.000000 0.000000
# 3 0.003818 0.001598 0.011376 0.000000 0.000000 0.000000
# 4 0.000000 0.000000 0.000000 0.050908 0.000000 0.000000
# 5 0.000000 0.000000 0.000000 0.000000 0.028206 0.000000
# 6 0.000000 0.000000 0.000000 0.000000 0.000000 0.035803
#
#
# Mechanical properties :
#
#
# Convention : Reuss Voigt Hill
#
# Bulk Modulus (GPa) = 8.53119 12.94622 10.73871
# Shear Modulus (GPa) = 21.73081 26.84596 24.28839
#
# Velocity S-wave (km/s) = 2.99154 3.32504 3.16269
# Velocity P-wave (km/s) = 3.93011 4.48026 4.21417
#
# Compressibility (1/GPa) = 0.11721692
#
# Stress axis : x y z
#
# Youngs Moduli (GPa) = 19.08656 30.40566 87.90185
#
# Poissons Ratio (x) = -0.14787 -0.33560
# Poissons Ratio (y) = -0.09283 -0.14049
# Poissons Ratio (z) = -0.07287 -0.04860
#
# Static dielectric constant tensor:
#      x y z
#    x 2.005310 0.000000 0.000000 
#    y 0.000000 1.927330 0.000000 
#    z 0.000000 0.000000 2.080610 
# 
# From -- ./inp_files/6303.got.cif
#   From: 2010.05.17/outbox.cif.g08.bks.cpg/sg45_4_cif.got.tgz:6303.got - 2010.06.03 19:51:22.
