data_PCOD9376325
_publ_section_title
;
Structure prediction by ZEFSAII (Michael W. Deem and Ramdas Pophale) SiO2 
 PCOD9376325
Probable space group: I B A 2
;
_chemical_formula_sum "Si O2"
_cell_formula_units_Z 64
_cell_length_a 10.139563
_cell_length_b 14.634313
_cell_length_c 19.232673
_cell_angle_alpha 90.000000
_cell_angle_beta 90.000000
_cell_angle_gamma 90.000000
_cell_volume 2853.850542
_symmetry_space_group_name_H-M "I B A 2"
_symmetry_group_IT_number 45
_symmetry_cell_setting 'orthorhombic'
loop_
_space_group_symop_operation_xyz
x,y,z
-x,-y,z
-x,y,1/2+z
x,-y,1/2+z
1/2+x,1/2+y,1/2+z
1/2-x,1/2-y,1/2+z
1/2-x,1/2+y,z
1/2+x,1/2-y,z
loop_
_atom_site_type_symbol
_atom_site_label
_atom_site_fract_x
_atom_site_fract_y
_atom_site_fract_z
Si Si1 0.042196 0.669111 0.564410
Si Si2 0.796953 0.874604 0.204566
Si Si3 0.638182 0.539234 0.422453
Si Si4 0.172283 0.347611 0.206077
Si Si5 0.071202 0.883507 0.270077
Si Si6 0.767392 0.156670 0.552054
Si Si7 0.108906 0.425442 0.925817
Si Si8 0.941499 0.667578 0.795063
O O1 0.083923 0.630322 0.639350
O O2 0.129589 0.759811 0.553770
O O3 0.084566 0.599137 0.505123
O O4 0.885956 0.687291 0.557369
O O5 0.807101 0.762568 0.202121
O O6 0.788541 0.900671 0.123477
O O7 0.667497 0.888540 0.251375
O O8 0.927431 0.911510 0.242511
O O9 0.500000 0.500000 0.449973
O O10 0.606473 0.582599 0.347212
O O11 0.704247 0.603977 0.480517
O O12 0.744726 0.459958 0.412698
O O13 0.310472 0.398284 0.215211
O O14 0.085671 0.366409 0.274094
O O15 0.064717 0.773213 0.274679
O O16 0.084311 0.340021 0.876242
O O17 0.000000 0.500000 0.905016
#
# Coordination Sequence:
#
# PCOD9376325 Si02
#       8
#     8   8   8   8   8   8   8   8
#     4  11  24  43  69  99 128 169 224 269 328 388
#     4   9  19  37  67  96 126 153 211 277 327 372
#     4  12  27  45  62  94 138 178 219 266 322 386
#     4   9  19  35  66  97 122 153 212 275 322 374
#     4  10  21  41  65  96 126 163 215 269 319 392
#     4  11  24  44  70  98 128 170 220 272 325 392
#     4  12  25  43  62  89 137 176 214 267 320 387
#     4  10  19  39  65  93 119 167 211 265 325 379
#
# _framework density 22.425841999999999
#
# number of rings (size 3 to 8) (size 9 to 14) (size 15 to 20)
#    0.000    1.500    2.500    2.250    7.000    0.000 
#    4.500    7.500    0.000    0.000    0.000    0.000 
#    0.000    0.000    0.000    0.000    0.000    0.000 
#
# Total GULP energy -178895.536393 kJ/mol
# GULP energy per Si atom -5590.485512 kJ/mol
# Density = 2.237480 g / cm^3
# Si number density = 22.425842 Si / 1000 Ang^3
#
#
#
# Elastic Constant Matrix: (Units=GPa)
#
#
# Indices 1 2 3 4 5 6 
#
# 1 138.2580 18.6515 11.0003 0.0000 0.0000 0.0000
# 2 18.6515 26.0583 7.5100 0.0000 0.0000 0.0000
# 3 11.0003 7.5100 79.8896 0.0000 0.0000 0.0000
# 4 0.0000 0.0000 0.0000 167.9060 0.0000 0.0000
# 5 0.0000 0.0000 0.0000 0.0000 33.8798 0.0000
# 6 0.0000 0.0000 0.0000 0.0000 0.0000 30.3849
#
#
#
# Elastic Compliance Matrix: (Units=1/GPa)
#
#
# Indices 1 2 3 4 5 6 
#
# 1 0.008032 -0.005581 -0.000581 0.000000 0.000000 0.000000
# 2 -0.005581 0.043323 -0.003304 0.000000 0.000000 0.000000
# 3 -0.000581 -0.003304 0.012908 0.000000 0.000000 0.000000
# 4 0.000000 0.000000 0.000000 0.005956 0.000000 0.000000
# 5 0.000000 0.000000 0.000000 0.000000 0.029516 0.000000
# 6 0.000000 0.000000 0.000000 0.000000 0.000000 0.032911
#
#
# Mechanical properties :
#
#
# Convention : Reuss Voigt Hill
#
# Bulk Modulus (GPa) = 22.06088 35.39217 28.72652
# Shear Modulus (GPa) = 29.99601 60.23709 45.11655
#
# Velocity S-wave (km/s) = 3.66124 5.18834 4.49019
# Velocity P-wave (km/s) = 5.26607 7.19083 6.30236
#
# Compressibility (1/GPa) = 0.04532911
#
# Stress axis : x y z
#
# Youngs Moduli (GPa) = 124.50101 23.08258 77.47187
#
# Poissons Ratio (x) = 0.12884 0.04503
# Poissons Ratio (y) = 0.69490 0.25597
# Poissons Ratio (z) = 0.07237 0.07627
#
# Static dielectric constant tensor:
#      x y z
#    x 1.815570 0.000000 0.000000 
#    y 0.000000 1.856280 0.000000 
#    z 0.000000 0.000000 1.808740 
# 
# From -- ./inp_files/7774.got.cif
#   From: 2010.05.17/outbox.cif.g08.bks.cpg/sg45_4_cif.got.tgz:7774.got - 2010.06.03 19:51:22.
