data_PCOD9376026
_publ_section_title
;
Structure prediction by ZEFSAII (Michael W. Deem and Ramdas Pophale) SiO2 
 PCOD9376026
Probable space group: I M M 2
;
_chemical_formula_sum "Si O2"
_cell_formula_units_Z 24
_cell_length_a 18.000000
_cell_length_b 9.000000
_cell_length_c 15.000000
_cell_angle_alpha 90.000000
_cell_angle_beta 90.000000
_cell_angle_gamma 90.000000
_cell_volume 2430.000000
_symmetry_space_group_name_H-M "I M M 2"
_symmetry_group_IT_number 44
_symmetry_cell_setting 'orthorhombic'
loop_
_space_group_symop_operation_xyz
x,y,z
-x,-y,z
-x,y,z
x,-y,z
1/2+x,1/2+y,1/2+z
1/2-x,1/2-y,1/2+z
1/2-x,1/2+y,1/2+z
1/2+x,1/2-y,1/2+z
loop_
_atom_site_type_symbol
_atom_site_label
_atom_site_fract_x
_atom_site_fract_y
_atom_site_fract_z
Si Si1 0.342105 0.320224 0.110370
Si Si2 0.738395 0.823215 0.262967
Si Si3 0.500000 0.680033 0.827228
Si Si4 0.381383 0.824214 0.700748
Si Si5 0.000000 0.820913 0.534163
Si Si6 0.920290 0.170465 0.026219
Si Si7 0.757619 0.175933 0.954012
O O1 0.334173 0.500000 0.111438
O O2 0.327651 0.254303 0.208487
O O3 0.424392 0.274467 0.080520
O O4 0.287348 0.253434 0.034356
O O5 0.806983 0.771428 0.202262
O O6 0.755444 0.755323 0.359716
O O7 0.731020 0.000000 0.267172
O O8 0.500000 0.500000 0.816606
O O9 0.430651 0.755327 0.778863
O O10 0.500000 0.719532 0.930606
O O11 0.418385 0.786210 0.606789
O O12 0.369085 0.000000 0.711450
O O13 0.000000 0.000000 0.536169
O O14 0.000000 0.184448 0.978601
O O15 0.917293 0.000000 0.062313
O O16 0.845949 0.190520 0.970541
O O17 0.739335 0.000000 0.950488
#
# Coordination Sequence:
#
# PCOD9376026 Si02
#       7
#     8   8   4   8   4   8   8
#     4  11  22  42  68  94 127 166 211 262 317 381
#     4  12  25  42  63  90 125 170 215 262 320 377
#     4  11  21  37  61  92 129 166 203 253 324 391
#     4  12  23  36  59  92 126 162 208 260 314 375
#     4   9  22  41  63  90 121 164 207 253 314 379
#     4  10  21  39  63  90 126 166 202 250 318 384
#     4  11  23  41  66  96 127 164 213 263 318 382
#
# _framework density 9.8765429999999999
#
# number of rings (size 3 to 8) (size 9 to 14) (size 15 to 20)
#    0.000    1.000    2.500    5.250    0.000    2.000 
#    1.500    4.167    0.000    0.000    0.000    0.000 
#    0.000    0.000    0.000    0.000    0.000    0.000 
#
# Total GULP energy -133983.890799 kJ/mol
# GULP energy per Si atom -5582.662117 kJ/mol
# Density = 0.985406 g / cm^3
# Si number density = 9.876543 Si / 1000 Ang^3
#
#
#
# Elastic Constant Matrix: (Units=GPa)
#
#
# Indices 1 2 3 4 5 6 
#
# 1 92.9189 19.4898 11.3116 0.0000 0.0000 0.0000
# 2 19.4898 115.4702 29.7805 0.0000 0.0000 0.0000
# 3 11.3116 29.7805 66.1931 0.0000 0.0000 0.0000
# 4 0.0000 0.0000 0.0000 31.4306 0.0000 0.0000
# 5 0.0000 0.0000 0.0000 0.0000 24.3324 0.0000
# 6 0.0000 0.0000 0.0000 0.0000 0.0000 23.8726
#
#
#
# Elastic Compliance Matrix: (Units=1/GPa)
#
#
# Indices 1 2 3 4 5 6 
#
# 1 0.011242 -0.001586 -0.001208 0.000000 0.000000 0.000000
# 2 -0.001586 0.010021 -0.004237 0.000000 0.000000 0.000000
# 3 -0.001208 -0.004237 0.017220 0.000000 0.000000 0.000000
# 4 0.000000 0.000000 0.000000 0.031816 0.000000 0.000000
# 5 0.000000 0.000000 0.000000 0.000000 0.041097 0.000000
# 6 0.000000 0.000000 0.000000 0.000000 0.000000 0.041889
#
#
# Mechanical properties :
#
#
# Convention : Reuss Voigt Hill
#
# Bulk Modulus (GPa) = 40.94868 43.97176 42.46022
# Shear Modulus (GPa) = 28.49212 30.19383 29.34298
#
# Velocity S-wave (km/s) = 3.80203 3.91393 3.85838
# Velocity P-wave (km/s) = 6.32844 6.53713 6.43363
#
# Compressibility (1/GPa) = 0.02442081
#
# Stress axis : x y z
#
# Youngs Moduli (GPa) = 88.95419 99.79265 58.07175
#
# Poissons Ratio (x) = 0.15827 0.07012
# Poissons Ratio (y) = 0.14108 0.24607
# Poissons Ratio (z) = 0.10741 0.42286
#
# Static dielectric constant tensor:
#      x y z
#    x 2.493480 0.000000 0.000000 
#    y 0.000000 1.658100 0.000000 
#    z 0.000000 0.000000 1.670080 
# 
# From -- ./inp_files/16127.got.cif
#   From: 2010.05.17/outbox.ucp.g08.bks.cvg/sg44_9_cif.got.tgz:16127.got - 2010.06.11 16:32:36.
