data_PCOD9376720
_publ_section_title
;
Structure prediction by ZEFSAII (Michael W. Deem and Ramdas Pophale) SiO2 
 PCOD9376720
Probable space group: I B A 2
;
_chemical_formula_sum "Si O2"
_cell_formula_units_Z 60
_cell_length_a 8.243424
_cell_length_b 11.475446
_cell_length_c 28.912728
_cell_angle_alpha 90.000000
_cell_angle_beta 90.000000
_cell_angle_gamma 90.000000
_cell_volume 2735.056376
_symmetry_space_group_name_H-M "I B A 2"
_symmetry_group_IT_number 45
_symmetry_cell_setting 'orthorhombic'
loop_
_space_group_symop_operation_xyz
x,y,z
-x,-y,z
-x,y,1/2+z
x,-y,1/2+z
1/2+x,1/2+y,1/2+z
1/2-x,1/2-y,1/2+z
1/2-x,1/2+y,z
1/2+x,1/2-y,z
loop_
_atom_site_type_symbol
_atom_site_label
_atom_site_fract_x
_atom_site_fract_y
_atom_site_fract_z
Si Si1 0.104721 0.118401 0.259230
Si Si2 0.938266 0.821606 0.573333
Si Si3 0.229288 0.137270 0.013122
Si Si4 0.063112 0.130256 0.365679
Si Si5 0.646396 0.212392 0.923623
Si Si6 0.500000 0.000000 0.974129
Si Si7 0.820746 0.323852 0.639515
Si Si8 0.913177 0.675443 0.705607
O O1 0.121975 0.147666 0.313425
O O2 0.284637 0.106889 0.237323
O O3 0.003244 0.222514 0.234896
O O4 0.000000 0.000000 0.253977
O O5 0.837403 0.730299 0.541881
O O6 0.807283 0.888439 0.605739
O O7 0.064771 0.885531 0.540474
O O8 0.057578 0.748141 0.606865
O O9 0.182189 0.197566 0.964675
O O10 0.340996 0.025088 0.004410
O O11 0.195182 0.148422 0.405362
O O12 0.924518 0.220585 0.379693
O O13 0.000000 0.000000 0.368399
O O14 0.527905 0.113960 0.943498
O O15 0.706844 0.236889 0.668643
O O16 0.939336 0.382972 0.676811
#
# Coordination Sequence:
#
# PCOD9376720 Si02
#       8
#     8   8   8   8   8   4   8   8
#     4  10  21  38  62  91 126 165 212 269 323 396
#     4   9  17  33  61  87 123 168 209 259 314 384
#     4  11  20  37  60  86 127 170 213 268 322 383
#     4  11  24  40  63  91 126 171 224 273 330 387
#     4  12  23  42  62  91 126 172 219 278 325 394
#     4  12  24  38  64  90 126 174 222 266 334 392
#     4   8  16  31  63  89 117 171 197 255 323 380
#     4   9  17  36  62  89 124 166 202 258 328 388
#
# _framework density 21.937391000000002
#
# number of rings (size 3 to 8) (size 9 to 14) (size 15 to 20)
#    0.000    1.867    2.667    1.600    0.000    0.000 
#    0.000    2.667   17.600    0.000    0.000    0.933 
#    0.000    0.000    0.000    0.000    0.000    0.000 
#
# Total GULP energy -167501.005364 kJ/mol
# GULP energy per Si atom -5583.366845 kJ/mol
# Density = 2.188746 g / cm^3
# Si number density = 21.937391 Si / 1000 Ang^3
#
#
#
# Elastic Constant Matrix: (Units=GPa)
#
#
# Indices 1 2 3 4 5 6 
#
# 1 139.4609 34.0739 66.1831 0.0000 0.0000 0.0000
# 2 34.0739 61.1536 31.8378 0.0000 0.0000 0.0000
# 3 66.1831 31.8378 130.2314 0.0000 0.0000 0.0000
# 4 0.0000 0.0000 0.0000 -9.6349 0.0000 0.0000
# 5 0.0000 0.0000 0.0000 0.0000 48.9130 0.0000
# 6 0.0000 0.0000 0.0000 0.0000 0.0000 34.4260
#
#
#
# Elastic Compliance Matrix: (Units=1/GPa)
#
#
# Indices 1 2 3 4 5 6 
#
# 1 0.010017 -0.003359 -0.004270 0.000000 0.000000 0.000000
# 2 -0.003359 0.019863 -0.003149 0.000000 0.000000 0.000000
# 3 -0.004270 -0.003149 0.010618 0.000000 0.000000 0.000000
# 4 0.000000 0.000000 0.000000 -0.103790 0.000000 0.000000
# 5 0.000000 0.000000 0.000000 0.000000 0.020444 0.000000
# 6 0.000000 0.000000 0.000000 0.000000 0.000000 0.029048
#
#
# Mechanical properties :
#
#
# Convention : Reuss Voigt Hill
#
# Bulk Modulus (GPa) = 52.78730 66.11505 59.45118
# Shear Modulus (GPa) = 355.34819 27.99092 191.66955
#
# Velocity S-wave (km/s) = 12.74106 3.57591 9.35740
# Velocity P-wave (km/s) = 15.51003 6.87408 11.99613
#
# Compressibility (1/GPa) = 0.01894395
#
# Stress axis : x y z
#
# Youngs Moduli (GPa) = 99.82734 50.34456 94.17674
#
# Poissons Ratio (x) = 0.16909 0.40210
# Poissons Ratio (y) = 0.33528 0.29657
# Poissons Ratio (z) = 0.42623 0.15854
#
# Static dielectric constant tensor:
#      x y z
#    x 1.851490 0.000000 0.000000 
#    y 0.000000 1.947480 0.000000 
#    z 0.000000 0.000000 1.808110 
# 
# From -- ./inp_files/9960.got.cif
#   From: 2010.05.17/outbox.cif.g08.bks.cpg/sg45_5_cif.got.tgz:9960.got - 2010.06.03 19:51:22.
