data_PCOD9376842
_publ_section_title
;
Structure prediction by ZEFSAII (Michael W. Deem and Ramdas Pophale) SiO2 
 PCOD9376842
Probable space group: I B A 2
;
_chemical_formula_sum "Si O2"
_cell_formula_units_Z 52
_cell_length_a 13.510400
_cell_length_b 9.316312
_cell_length_c 18.800120
_cell_angle_alpha 90.000000
_cell_angle_beta 90.000000
_cell_angle_gamma 90.000000
_cell_volume 2366.316615
_symmetry_space_group_name_H-M "I B A 2"
_symmetry_group_IT_number 45
_symmetry_cell_setting 'orthorhombic'
loop_
_space_group_symop_operation_xyz
x,y,z
-x,-y,z
-x,y,1/2+z
x,-y,1/2+z
1/2+x,1/2+y,1/2+z
1/2-x,1/2-y,1/2+z
1/2-x,1/2+y,z
1/2+x,1/2-y,z
loop_
_atom_site_type_symbol
_atom_site_label
_atom_site_fract_x
_atom_site_fract_y
_atom_site_fract_z
Si Si1 0.428099 0.708786 0.242730
Si Si2 0.114420 0.675787 0.594481
Si Si3 0.000000 0.500000 0.988110
Si Si4 0.739144 0.752645 0.823675
Si Si5 0.716260 0.001964 0.418877
Si Si6 0.137756 0.901448 0.208643
Si Si7 0.199557 0.997223 0.567522
O O1 0.424089 0.808002 0.174104
O O2 0.379491 0.764890 0.314106
O O3 0.358901 0.569505 0.227349
O O4 0.538852 0.655453 0.245111
O O5 0.166930 0.829459 0.573743
O O6 0.191510 0.542559 0.595654
O O7 0.028606 0.633845 0.539385
O O8 0.103114 0.519833 0.945449
O O9 0.778974 0.602857 0.851467
O O10 0.778953 0.810652 0.748175
O O11 0.765070 0.855002 0.888778
O O12 0.786100 0.956823 0.485487
O O13 0.133412 0.908141 0.122554
#
# Coordination Sequence:
#
# PCOD9376842 Si02
#       7
#     8   8   4   8   8   8   8
#     4  10  22  42  67 103 130 177 234 289 346 418
#     4  10  21  41  70  98 134 178 235 296 346 419
#     4  10  24  44  60 106 144 170 242 292 350 430
#     4  12  23  44  65 100 137 188 220 289 361 427
#     4  11  25  41  67  96 141 185 227 287 364 427
#     4  10  22  42  71  95 139 176 239 293 346 420
#     4  10  21  43  69  96 135 187 234 294 357 418
#
# _framework density 21.975082
#
# number of rings (size 3 to 8) (size 9 to 14) (size 15 to 20)
#    0.000    1.538    3.077    1.846    2.154    3.692 
#    2.769    0.000    0.000    0.000    0.000    0.000 
#    0.000    0.000    0.000    0.000    0.000    0.000 
#
# Total GULP energy -144751.366169 kJ/mol
# GULP energy per Si atom -5567.360237 kJ/mol
# Density = 2.192507 g / cm^3
# Si number density = 21.975082 Si / 1000 Ang^3
#
#
#
# Elastic Constant Matrix: (Units=GPa)
#
#
# Indices 1 2 3 4 5 6 
#
# 1 73.0990 30.6841 28.1704 0.0000 0.0000 0.0000
# 2 30.6841 47.3317 20.5164 0.0000 0.0000 0.0000
# 3 28.1704 20.5164 91.1946 0.0000 0.0000 0.0000
# 4 0.0000 0.0000 0.0000 37.2171 0.0000 0.0000
# 5 0.0000 0.0000 0.0000 0.0000 27.8922 0.0000
# 6 0.0000 0.0000 0.0000 0.0000 0.0000 30.2809
#
#
#
# Elastic Compliance Matrix: (Units=1/GPa)
#
#
# Indices 1 2 3 4 5 6 
#
# 1 0.019794 -0.011282 -0.003576 0.000000 0.000000 0.000000
# 2 -0.011282 0.029841 -0.003228 0.000000 0.000000 0.000000
# 3 -0.003576 -0.003228 0.012797 0.000000 0.000000 0.000000
# 4 0.000000 0.000000 0.000000 0.026869 0.000000 0.000000
# 5 0.000000 0.000000 0.000000 0.000000 0.035852 0.000000
# 6 0.000000 0.000000 0.000000 0.000000 0.000000 0.033024
#
#
# Mechanical properties :
#
#
# Convention : Reuss Voigt Hill
#
# Bulk Modulus (GPa) = 38.08335 41.15188 39.61762
# Shear Modulus (GPa) = 24.61812 27.89501 26.25656
#
# Velocity S-wave (km/s) = 3.35068 3.56672 3.46039
# Velocity P-wave (km/s) = 5.68659 5.97739 5.83380
#
# Compressibility (1/GPa) = 0.02625819
#
# Stress axis : x y z
#
# Youngs Moduli (GPa) = 50.52059 33.51149 78.14576
#
# Poissons Ratio (x) = 0.37807 0.27947
# Poissons Ratio (y) = 0.56996 0.25228
# Poissons Ratio (z) = 0.18068 0.10819
#
# Static dielectric constant tensor:
#      x y z
#    x 1.884020 0.000000 0.000000 
#    y 0.000000 1.840670 0.000000 
#    z 0.000000 0.000000 1.833460 
# 
# From -- ./inp_files/9168.got.cif
#   From: 2010.05.17/outbox.cif.g08.bks.cpg/sg45_5_cif.got.tgz:9168.got - 2010.06.03 19:51:22.
