data_PCOD9376668
_publ_section_title
;
Structure prediction by ZEFSAII (Michael W. Deem and Ramdas Pophale) SiO2 
 PCOD9376668
Probable space group: I B A 2
;
_chemical_formula_sum "Si O2"
_cell_formula_units_Z 60
_cell_length_a 21.533028
_cell_length_b 10.567371
_cell_length_c 13.152674
_cell_angle_alpha 90.000000
_cell_angle_beta 90.000000
_cell_angle_gamma 90.000000
_cell_volume 2992.858030
_symmetry_space_group_name_H-M "I B A 2"
_symmetry_group_IT_number 45
_symmetry_cell_setting 'orthorhombic'
loop_
_space_group_symop_operation_xyz
x,y,z
-x,-y,z
-x,y,1/2+z
x,-y,1/2+z
1/2+x,1/2+y,1/2+z
1/2-x,1/2-y,1/2+z
1/2-x,1/2+y,z
1/2+x,1/2-y,z
loop_
_atom_site_type_symbol
_atom_site_label
_atom_site_fract_x
_atom_site_fract_y
_atom_site_fract_z
Si Si1 0.191397 0.883320 0.121700
Si Si2 0.390727 0.395829 0.716934
Si Si3 0.891899 0.112792 0.947629
Si Si4 0.584357 0.868179 0.434059
Si Si5 0.338195 0.862399 0.133255
Si Si6 0.500000 0.500000 0.589612
Si Si7 0.546540 0.850145 0.997679
Si Si8 0.612795 0.140008 0.696708
O O1 0.264031 0.866986 0.136307
O O2 0.157143 0.755403 0.161002
O O3 0.159805 0.003880 0.175396
O O4 0.172907 0.908862 0.004128
O O5 0.397804 0.432265 0.834248
O O6 0.365593 0.254378 0.697798
O O7 0.457082 0.412465 0.661378
O O8 0.901673 0.262291 0.949035
O O9 0.947422 0.062825 0.019140
O O10 0.636984 0.840328 0.517543
O O11 0.520290 0.799042 0.463509
O O12 0.600113 0.848004 0.316510
O O13 0.563605 0.012282 0.455955
O O14 0.361163 0.999776 0.172418
O O15 0.553799 0.849845 0.120013
#
# Coordination Sequence:
#
# PCOD9376668 Si02
#       8
#     8   8   8   8   8   4   8   8
#     4  10  24  41  58  87 123 156 201 249 288 346
#     4  11  23  40  64  90 120 159 198 246 302 352
#     4  10  21  39  60  85 120 159 193 243 303 354
#     4  10  21  36  61  89 116 155 192 240 299 353
#     4  11  23  40  61  89 118 155 207 245 283 352
#     4  10  22  38  60  94 122 150 198 248 298 364
#     4   9  20  36  57  89 119 146 192 245 295 356
#     4  10  22  41  61  86 121 156 193 243 299 348
#
# _framework density 20.047726999999998
#
# number of rings (size 3 to 8) (size 9 to 14) (size 15 to 20)
#    0.000    1.867    0.000    2.800    0.000   13.867 
#    0.000    0.000    0.000    0.000    0.000    0.000 
#    0.000    0.000    0.000    0.000    0.000    0.000 
#
# Total GULP energy -167325.429501 kJ/mol
# GULP energy per Si atom -5577.514317 kJ/mol
# Density = 2.000210 g / cm^3
# Si number density = 20.047727 Si / 1000 Ang^3
#
#
#
# Elastic Constant Matrix: (Units=GPa)
#
#
# Indices 1 2 3 4 5 6 
#
# 1 109.6849 19.4324 54.7012 0.0000 0.0000 0.0000
# 2 19.4324 72.9458 14.9708 0.0000 0.0000 0.0000
# 3 54.7012 14.9708 158.7862 0.0000 0.0000 0.0000
# 4 0.0000 0.0000 0.0000 2.0825 0.0000 0.0000
# 5 0.0000 0.0000 0.0000 0.0000 4.6203 0.0000
# 6 0.0000 0.0000 0.0000 0.0000 0.0000 20.6689
#
#
#
# Elastic Compliance Matrix: (Units=1/GPa)
#
#
# Indices 1 2 3 4 5 6 
#
# 1 0.011365 -0.002268 -0.003701 0.000000 0.000000 0.000000
# 2 -0.002268 0.014432 -0.000579 0.000000 0.000000 0.000000
# 3 -0.003701 -0.000579 0.007627 0.000000 0.000000 0.000000
# 4 0.000000 0.000000 0.000000 0.480190 0.000000 0.000000
# 5 0.000000 0.000000 0.000000 0.000000 0.216436 0.000000
# 6 0.000000 0.000000 0.000000 0.000000 0.000000 0.048382
#
#
# Mechanical properties :
#
#
# Convention : Reuss Voigt Hill
#
# Bulk Modulus (GPa) = 49.19582 57.73619 53.46600
# Shear Modulus (GPa) = 6.26327 22.29518 14.27922
#
# Velocity S-wave (km/s) = 1.76945 3.33844 2.67172
# Velocity P-wave (km/s) = 5.36351 6.61227 6.02036
#
# Compressibility (1/GPa) = 0.02032693
#
# Stress axis : x y z
#
# Youngs Moduli (GPa) = 87.99194 69.29111 131.10509
#
# Poissons Ratio (x) = 0.15714 0.48525
# Poissons Ratio (y) = 0.19956 0.07596
# Poissons Ratio (z) = 0.32568 0.04015
#
# Static dielectric constant tensor:
#      x y z
#    x 1.717630 0.000000 0.000000 
#    y 0.000000 1.772050 0.000000 
#    z 0.000000 0.000000 1.730960 
# 
# From -- ./inp_files/4662.got.cif
#   From: 2010.05.17/outbox.cif.g08.bks.cpg/sg45_3_cif.got.tgz:4662.got - 2010.06.03 19:51:22.
