data_PCOD9376170
_publ_section_title
;
Structure prediction by ZEFSAII (Michael W. Deem and Ramdas Pophale) SiO2 
 PCOD9376170
Probable space group: I B A 2
;
_chemical_formula_sum "Si O2"
_cell_formula_units_Z 60
_cell_length_a 15.826081
_cell_length_b 9.626262
_cell_length_c 17.745056
_cell_angle_alpha 90.000000
_cell_angle_beta 90.000000
_cell_angle_gamma 90.000000
_cell_volume 2703.388339
_symmetry_space_group_name_H-M "I B A 2"
_symmetry_group_IT_number 45
_symmetry_cell_setting 'orthorhombic'
loop_
_space_group_symop_operation_xyz
x,y,z
-x,-y,z
-x,y,1/2+z
x,-y,1/2+z
1/2+x,1/2+y,1/2+z
1/2-x,1/2-y,1/2+z
1/2-x,1/2+y,z
1/2+x,1/2-y,z
loop_
_atom_site_type_symbol
_atom_site_label
_atom_site_fract_x
_atom_site_fract_y
_atom_site_fract_z
Si Si1 0.141769 0.179291 0.403360
Si Si2 0.000000 0.500000 0.297769
Si Si3 0.088692 0.490471 0.440999
Si Si4 0.278179 0.653628 0.156006
Si Si5 0.908123 0.998292 0.267227
Si Si6 0.335699 0.939045 0.219273
Si Si7 0.286827 0.324252 0.342519
Si Si8 0.771608 0.014029 0.496278
O O1 0.104629 0.330406 0.417752
O O2 0.087325 0.092175 0.344518
O O3 0.233239 0.187408 0.360300
O O4 0.164551 0.113238 0.483792
O O5 0.936067 0.432815 0.361577
O O6 0.933398 0.576299 0.243175
O O7 0.173705 0.531381 0.484036
O O8 0.000000 0.500000 0.485634
O O9 0.346044 0.575410 0.208685
O O10 0.298685 0.816532 0.165550
O O11 0.189376 0.590180 0.187119
O O12 0.283570 0.599705 0.071434
O O13 0.869950 0.146032 0.294142
O O14 0.000000 0.000000 0.233155
O O15 0.282323 0.910384 0.294661
O O16 0.296050 0.390895 0.424589
#
# Coordination Sequence:
#
# PCOD9376170 Si02
#       8
#     8   4   8   8   8   8   8   8
#     4  10  18  37  64  94 129 172 233 282 354 419
#     4  10  18  40  66 102 138 180 244 312 344 416
#     4   9  19  36  63  97 129 165 233 298 345 404
#     4  11  25  43  65 100 144 191 233 283 371 448
#     4  10  21  38  61  92 126 171 234 286 341 410
#     4  11  22  44  69 101 140 187 244 293 354 431
#     4   9  18  38  64  94 122 172 231 281 341 420
#     4  10  21  37  67  92 137 185 224 287 358 442
#
# _framework density 22.194369999999999
#
# number of rings (size 3 to 8) (size 9 to 14) (size 15 to 20)
#    0.400    1.600    4.000    0.000    3.733    1.067 
#   10.800    2.667    2.933    0.000    0.000    0.000 
#    0.000    0.000    0.000    0.000    0.000    0.000 
#
# Total GULP energy -167018.714278 kJ/mol
# GULP energy per Si atom -5567.290476 kJ/mol
# Density = 2.214385 g / cm^3
# Si number density = 22.194370 Si / 1000 Ang^3
#
#
#
# Elastic Constant Matrix: (Units=GPa)
#
#
# Indices 1 2 3 4 5 6 
#
# 1 98.8862 27.1173 28.9710 0.0000 0.0000 0.0000
# 2 27.1173 79.7064 22.4185 0.0000 0.0000 0.0000
# 3 28.9710 22.4185 93.7818 0.0000 0.0000 0.0000
# 4 0.0000 0.0000 0.0000 31.1749 0.0000 0.0000
# 5 0.0000 0.0000 0.0000 0.0000 13.9335 0.0000
# 6 0.0000 0.0000 0.0000 0.0000 0.0000 19.4950
#
#
#
# Elastic Compliance Matrix: (Units=1/GPa)
#
#
# Indices 1 2 3 4 5 6 
#
# 1 0.011841 -0.003216 -0.002889 0.000000 0.000000 0.000000
# 2 -0.003216 0.014324 -0.002431 0.000000 0.000000 0.000000
# 3 -0.002889 -0.002431 0.012137 0.000000 0.000000 0.000000
# 4 0.000000 0.000000 0.000000 0.032077 0.000000 0.000000
# 5 0.000000 0.000000 0.000000 0.000000 0.071769 0.000000
# 6 0.000000 0.000000 0.000000 0.000000 0.000000 0.051295
#
#
# Mechanical properties :
#
#
# Convention : Reuss Voigt Hill
#
# Bulk Modulus (GPa) = 47.10309 47.70977 47.40643
# Shear Modulus (GPa) = 22.97889 25.84519 24.41204
#
# Velocity S-wave (km/s) = 3.22117 3.41617 3.32010
# Velocity P-wave (km/s) = 5.92483 6.09125 6.00862
#
# Compressibility (1/GPa) = 0.02123003
#
# Stress axis : x y z
#
# Youngs Moduli (GPa) = 84.45262 69.81399 82.39536
#
# Poissons Ratio (x) = 0.22451 0.23805
# Poissons Ratio (y) = 0.27159 0.20027
# Poissons Ratio (z) = 0.24400 0.16969
#
# Static dielectric constant tensor:
#      x y z
#    x 1.889900 0.000000 0.000000 
#    y 0.000000 1.952870 0.000000 
#    z 0.000000 0.000000 1.830760 
# 
# From -- ./inp_files/9221.got.cif
#   From: 2010.05.17/outbox.cif.g08.bks.cpg/sg45_5_cif.got.tgz:9221.got - 2010.06.03 19:51:22.
