data_PCOD9376011
_publ_section_title
;
Structure prediction by ZEFSAII (Michael W. Deem and Ramdas Pophale) SiO2 
 PCOD9376011
Probable space group: I M M 2
;
_chemical_formula_sum "Si O2"
_cell_formula_units_Z 28
_cell_length_a 21.000000
_cell_length_b 9.000000
_cell_length_c 15.000000
_cell_angle_alpha 90.000000
_cell_angle_beta 90.000000
_cell_angle_gamma 90.000000
_cell_volume 2835.000000
_symmetry_space_group_name_H-M "I M M 2"
_symmetry_group_IT_number 44
_symmetry_cell_setting 'orthorhombic'
loop_
_space_group_symop_operation_xyz
x,y,z
-x,-y,z
-x,y,z
x,-y,z
1/2+x,1/2+y,1/2+z
1/2-x,1/2-y,1/2+z
1/2-x,1/2+y,1/2+z
1/2+x,1/2-y,1/2+z
loop_
_atom_site_type_symbol
_atom_site_label
_atom_site_fract_x
_atom_site_fract_y
_atom_site_fract_z
Si Si1 0.876285 0.177704 0.857130
Si Si2 0.215765 0.678491 0.716783
Si Si3 0.500000 0.822161 0.272271
Si Si4 0.500000 0.678070 0.081484
Si Si5 0.075206 0.175107 0.048695
Si Si6 0.076068 0.667371 0.231383
Si Si7 0.329295 0.677027 0.841568
Si Si8 0.148590 0.821072 0.540739
O O1 0.825229 0.268921 0.801777
O O2 0.940775 0.240442 0.816162
O O3 0.869977 0.000000 0.842947
O O4 0.881592 0.204907 0.962696
O O5 0.214361 0.500000 0.705556
O O6 0.284680 0.724775 0.757429
O O7 0.184857 0.749441 0.626786
O O8 0.500000 0.780564 0.168732
O O9 0.500000 0.000000 0.285878
O O10 0.500000 0.500000 0.102611
O O11 0.428904 0.706756 0.039664
O O12 0.093229 0.270539 0.133970
O O13 0.000000 0.202358 0.027041
O O14 0.080377 0.000000 0.070458
O O15 0.100018 0.500000 0.244104
O O16 0.102002 0.771827 0.308593
O O17 0.000000 0.665873 0.233699
O O18 0.323514 0.500000 0.845417
O O19 0.321777 0.728657 0.944735
O O20 0.155699 0.000000 0.548644
#
# Coordination Sequence:
#
# PCOD9376011 Si02
#       8
#     8   8   4   4   8   8   8   8
#     4  11  21  36  58  86 121 164 212 253 304 373
#     4  11  24  41  60  90 127 160 205 260 311 370
#     4  12  22  32  54  89 126 161 198 255 324 368
#     4  10  20  36  62  93 124 161 212 263 312 376
#     4   9  18  34  56  83 117 158 201 243 290 355
#     4  10  22  39  60  90 122 153 197 255 315 373
#     4  10  24  44  65  89 120 162 210 254 306 380
#     4  10  22  41  66  94 124 165 213 259 311 376
#
# _framework density 9.8765429999999999
#
# number of rings (size 3 to 8) (size 9 to 14) (size 15 to 20)
#    0.000    1.714    2.143    1.929    1.000    4.857 
#    0.000    2.857    0.000    0.000    0.000    0.000 
#    0.000    0.000    0.000    0.000    0.000    0.000 
#
# Total GULP energy -156027.030962 kJ/mol
# GULP energy per Si atom -5572.393963 kJ/mol
# Density = 0.985406 g / cm^3
# Si number density = 9.876543 Si / 1000 Ang^3
#
#
#
# Elastic Constant Matrix: (Units=GPa)
#
#
# Indices 1 2 3 4 5 6 
#
# 1 54.9173 15.6001 36.4756 0.0000 0.0000 0.0000
# 2 15.6001 -11.7877 15.1575 0.0000 0.0000 0.0000
# 3 36.4756 15.1575 101.6709 0.0000 0.0000 0.0000
# 4 0.0000 0.0000 0.0000 22.7889 0.0000 0.0000
# 5 0.0000 0.0000 0.0000 0.0000 20.6435 0.0000
# 6 0.0000 0.0000 0.0000 0.0000 0.0000 29.0514
#
#
#
# Elastic Compliance Matrix: (Units=1/GPa)
#
#
# Indices 1 2 3 4 5 6 
#
# 1 0.020332 0.014709 -0.009487 0.000000 0.000000 0.000000
# 2 0.014709 -0.060547 0.003750 0.000000 0.000000 0.000000
# 3 -0.009487 0.003750 0.012680 0.000000 0.000000 0.000000
# 4 0.000000 0.000000 0.000000 0.043881 0.000000 0.000000
# 5 0.000000 0.000000 0.000000 0.000000 0.048441 0.000000
# 6 0.000000 0.000000 0.000000 0.000000 0.000000 0.034422
#
#
# Mechanical properties :
#
#
# Convention : Reuss Voigt Hill
#
# Bulk Modulus (GPa) = -104.25491 31.02969 -36.61261
# Shear Modulus (GPa) = 64.04458 19.66790 41.85624
#
# Velocity S-wave (km/s) = 5.70026 3.15887 4.60822
# Velocity P-wave (km/s) = 3.09349 5.38958 3.12072
#
# Compressibility (1/GPa) = -0.00959187
#
# Stress axis : x y z
#
# Youngs Moduli (GPa) = 49.18280 -16.51616 78.86231
#
# Poissons Ratio (x) = 0.24293 0.74819
# Poissons Ratio (y) = -0.72342 -0.29570
# Poissons Ratio (z) = 0.46661 0.06193
#
# Static dielectric constant tensor:
#      x y z
#    x 1.584500 0.000000 0.000000 
#    y 0.000000 1.666160 0.000000 
#    z 0.000000 0.000000 1.694960 
# 
# From -- ./inp_files/19231.got.cif
#   From: 2010.05.17/outbox.ucp.g08.bks.cvg/sg44_10_cif.got.tgz:19231.got - 2010.06.11 16:32:36.
