data_PCOD9376176
_publ_section_title
;
Structure prediction by ZEFSAII (Michael W. Deem and Ramdas Pophale) SiO2 
 PCOD9376176
Probable space group: I B A 2
;
_chemical_formula_sum "Si O2"
_cell_formula_units_Z 60
_cell_length_a 10.701510
_cell_length_b 26.464373
_cell_length_c 9.608309
_cell_angle_alpha 90.000000
_cell_angle_beta 90.000000
_cell_angle_gamma 90.000000
_cell_volume 2721.157204
_symmetry_space_group_name_H-M "I B A 2"
_symmetry_group_IT_number 45
_symmetry_cell_setting 'orthorhombic'
loop_
_space_group_symop_operation_xyz
x,y,z
-x,-y,z
-x,y,1/2+z
x,-y,1/2+z
1/2+x,1/2+y,1/2+z
1/2-x,1/2-y,1/2+z
1/2-x,1/2+y,z
1/2+x,1/2-y,z
loop_
_atom_site_type_symbol
_atom_site_label
_atom_site_fract_x
_atom_site_fract_y
_atom_site_fract_z
Si Si1 0.191096 0.188488 0.154950
Si Si2 0.500000 0.500000 0.207845
Si Si3 0.733916 0.961961 0.314456
Si Si4 0.586560 0.159103 0.446229
Si Si5 0.363574 0.804558 0.135159
Si Si6 0.688098 0.945855 0.992940
Si Si7 0.199423 0.857001 0.936475
Si Si8 0.543036 0.597058 0.536309
O O1 0.141647 0.244227 0.129279
O O2 0.229179 0.183137 0.315831
O O3 0.096938 0.141505 0.133737
O O4 0.301778 0.178495 0.046083
O O5 0.622399 0.481833 0.291391
O O6 0.524589 0.549908 0.113261
O O7 0.731800 0.908704 0.393368
O O8 0.667894 0.004083 0.405707
O O9 0.682125 0.955170 0.158518
O O10 0.601083 0.179172 0.290539
O O11 0.462528 0.176492 0.522389
O O12 0.598251 0.098767 0.446924
O O13 0.237482 0.832430 0.083219
O O14 0.831682 0.926288 0.968718
O O15 0.055480 0.874327 0.941047
#
# Coordination Sequence:
#
# PCOD9376176 Si02
#       8
#     8   4   8   8   8   8   8   8
#     4  11  25  47  68 106 138 183 233 295 340 423
#     4  10  18  38  62 106 148 184 212 288 354 438
#     4  11  21  39  66 101 141 179 224 284 352 419
#     4  11  26  52  67 103 136 180 242 286 350 417
#     4  12  29  44  78  92 141 190 234 296 348 408
#     4  10  23  42  70  99 144 180 226 295 345 430
#     4  12  23  44  69 106 140 183 233 285 353 418
#     4  10  22  37  66 106 145 179 222 278 357 420
#
# _framework density 22.049441999999999
#
# number of rings (size 3 to 8) (size 9 to 14) (size 15 to 20)
#    0.000    1.067    4.000    4.000    7.467    1.600 
#    0.000    0.667    0.000    0.000    0.000    0.000 
#    0.000    0.000    0.000    0.000    0.000    0.000 
#
# Total GULP energy -167759.927712 kJ/mol
# GULP energy per Si atom -5591.997590 kJ/mol
# Density = 2.199926 g / cm^3
# Si number density = 22.049442 Si / 1000 Ang^3
#
#
#
# Elastic Constant Matrix: (Units=GPa)
#
#
# Indices 1 2 3 4 5 6 
#
# 1 33.2417 21.6661 23.0879 0.0001 0.0002 0.0001
# 2 21.6661 112.9556 10.6367 0.0005 -0.0001 -0.0001
# 3 23.0879 10.6367 70.8963 -0.0016 -0.0005 0.0004
# 4 0.0001 0.0005 -0.0016 33.5976 0.0000 0.0001
# 5 0.0002 -0.0001 -0.0005 0.0000 24.8275 -0.0001
# 6 0.0001 -0.0001 0.0004 0.0001 -0.0001 21.0627
#
#
#
# Elastic Compliance Matrix: (Units=1/GPa)
#
#
# Indices 1 2 3 4 5 6 
#
# 1 0.043960 -0.007185 -0.013238 -0.000001 -0.000001 0.000000
# 2 -0.007185 0.010154 0.000817 0.000000 0.000000 0.000000
# 3 -0.013238 0.000817 0.018294 0.000001 0.000001 0.000000
# 4 -0.000001 0.000000 0.000001 0.029764 0.000000 0.000000
# 5 -0.000001 0.000000 0.000001 0.000000 0.040278 0.000000
# 6 0.000000 0.000000 0.000000 0.000000 0.000000 0.047477
#
#
# Mechanical properties :
#
#
# Convention : Reuss Voigt Hill
#
# Bulk Modulus (GPa) = 30.12542 36.43056 33.27799
# Shear Modulus (GPa) = 20.81545 26.67775 23.74660
#
# Velocity S-wave (km/s) = 3.07585 3.48214 3.28528
# Velocity P-wave (km/s) = 5.12901 5.72059 5.43286
#
# Compressibility (1/GPa) = 0.03319455
#
# Stress axis : x y z
#
# Youngs Moduli (GPa) = 22.74780 98.47943 54.66386
#
# Poissons Ratio (x) = 0.70762 0.72364
# Poissons Ratio (y) = 0.16345 -0.04463
# Poissons Ratio (z) = 0.30113 -0.08041
#
# Static dielectric constant tensor:
#      x y z
#    x 1.875440 0.000000 0.000000 
#    y 0.000000 1.793690 0.000000 
#    z 0.000000 0.000000 1.826810 
# 
# From -- ./inp_files/1461.got.cif
#   From: 2010.05.17/outbox.cif.g08.bks.cpg/sg45_1_cif.got.tgz:1461.got - 2010.06.03 19:51:22.
