data_PCOD9376490
_publ_section_title
;
Structure prediction by ZEFSAII (Michael W. Deem and Ramdas Pophale) SiO2 
 PCOD9376490
Probable space group: I B A 2
;
_chemical_formula_sum "Si O2"
_cell_formula_units_Z 48
_cell_length_a 4.911066
_cell_length_b 29.307482
_cell_length_c 16.259711
_cell_angle_alpha 90.000000
_cell_angle_beta 90.000000
_cell_angle_gamma 90.000000
_cell_volume 2340.276113
_symmetry_space_group_name_H-M "I B A 2"
_symmetry_group_IT_number 45
_symmetry_cell_setting 'orthorhombic'
loop_
_space_group_symop_operation_xyz
x,y,z
-x,-y,z
-x,y,1/2+z
x,-y,1/2+z
1/2+x,1/2+y,1/2+z
1/2-x,1/2-y,1/2+z
1/2-x,1/2+y,z
1/2+x,1/2-y,z
loop_
_atom_site_type_symbol
_atom_site_label
_atom_site_fract_x
_atom_site_fract_y
_atom_site_fract_z
Si Si1 0.397436 0.342827 0.620560
Si Si2 0.606826 0.624848 0.288503
Si Si3 0.249769 0.532123 0.697537
Si Si4 0.792972 0.279301 0.988884
Si Si5 0.900448 0.399330 0.560523
Si Si6 0.405587 0.137535 0.396610
O O1 0.500186 0.343981 0.713630
O O2 0.260578 0.297489 0.582262
O O3 0.165037 0.380237 0.606477
O O4 0.658430 0.361475 0.569538
O O5 0.637586 0.572879 0.256184
O O6 0.403704 0.634269 0.364698
O O7 0.912900 0.635046 0.315303
O O8 0.500000 0.500000 0.682094
O O9 0.000000 0.500000 0.727263
O O10 0.175558 0.556485 0.611707
O O11 0.487446 0.263486 0.969386
O O12 0.950250 0.320069 0.943484
O O13 0.948529 0.402784 0.463297
#
# Coordination Sequence:
#
# PCOD9376490 Si02
#       6
#     8   8   8   8   8   8
#     4  10  20  38  61  84 114 159 206 237 291 377
#     4  11  22  39  62  88 121 162 200 248 311 381
#     4  11  22  39  61  88 118 156 206 260 305 357
#     4  11  22  39  61  88 119 158 205 258 300 347
#     4  10  20  38  61  84 113 159 203 238 292 377
#     4  11  22  39  62  88 122 162 201 245 311 381
#
# _framework density 20.510399
#
# number of rings (size 3 to 8) (size 9 to 14) (size 15 to 20)
#    0.000    1.333    0.000   10.000    0.000    0.000 
#    0.000   10.000    0.000    0.000    0.000    0.000 
#    0.000    0.000    0.000    0.000    0.000    0.000 
#
# Total GULP energy -133642.642354 kJ/mol
# GULP energy per Si atom -5568.443431 kJ/mol
# Density = 2.046372 g / cm^3
# Si number density = 20.510399 Si / 1000 Ang^3
#
#
#
# Elastic Constant Matrix: (Units=GPa)
#
#
# Indices 1 2 3 4 5 6 
#
# 1 121.6535 13.0391 5.6240 0.0000 0.0000 0.0000
# 2 13.0391 34.9596 12.3466 0.0000 0.0000 0.0000
# 3 5.6240 12.3466 68.9646 0.0000 0.0000 0.0000
# 4 0.0000 0.0000 0.0000 -33.4435 0.0000 0.0000
# 5 0.0000 0.0000 0.0000 0.0000 43.6918 0.0000
# 6 0.0000 0.0000 0.0000 0.0000 0.0000 35.2780
#
#
#
# Elastic Compliance Matrix: (Units=1/GPa)
#
#
# Indices 1 2 3 4 5 6 
#
# 1 0.008564 -0.003146 -0.000135 0.000000 0.000000 0.000000
# 2 -0.003146 0.031691 -0.005417 0.000000 0.000000 0.000000
# 3 -0.000135 -0.005417 0.015481 0.000000 0.000000 0.000000
# 4 0.000000 0.000000 0.000000 -0.029901 0.000000 0.000000
# 5 0.000000 0.000000 0.000000 0.000000 0.022888 0.000000
# 6 0.000000 0.000000 0.000000 0.000000 0.000000 0.028346
#
#
# Mechanical properties :
#
#
# Convention : Reuss Voigt Hill
#
# Bulk Modulus (GPa) = 26.08320 31.95524 29.01922
# Shear Modulus (GPa) = 46.62237 22.07646 34.34942
#
# Velocity S-wave (km/s) = 4.77289 3.28434 4.09679
# Velocity P-wave (km/s) = 6.56647 5.47690 6.04628
#
# Compressibility (1/GPa) = 0.03833885
#
# Stress axis : x y z
#
# Youngs Moduli (GPa) = 116.77416 31.55464 64.59533
#
# Poissons Ratio (x) = 0.09928 0.00873
# Poissons Ratio (y) = 0.36741 0.34991
# Poissons Ratio (z) = 0.01577 0.17093
#
# Static dielectric constant tensor:
#      x y z
#    x 1.683740 0.000000 0.000000 
#    y 0.000000 1.831720 0.000000 
#    z 0.000000 0.000000 1.798150 
# 
# From -- ./inp_files/5230.got.cif
#   From: 2010.05.17/outbox.cif.g08.bks.cpg/sg45_3_cif.got.tgz:5230.got - 2010.06.03 19:51:22.
