data_PCOD9376091
_publ_section_title
;
Structure prediction by ZEFSAII (Michael W. Deem and Ramdas Pophale) SiO2 
 PCOD9376091
Probable space group: I B A 2
;
_chemical_formula_sum "Si O2"
_cell_formula_units_Z 64
_cell_length_a 8.735930
_cell_length_b 23.375059
_cell_length_c 16.773875
_cell_angle_alpha 90.000000
_cell_angle_beta 90.000000
_cell_angle_gamma 90.000000
_cell_volume 3425.273570
_symmetry_space_group_name_H-M "I B A 2"
_symmetry_group_IT_number 45
_symmetry_cell_setting 'orthorhombic'
loop_
_space_group_symop_operation_xyz
x,y,z
-x,-y,z
-x,y,1/2+z
x,-y,1/2+z
1/2+x,1/2+y,1/2+z
1/2-x,1/2-y,1/2+z
1/2-x,1/2+y,z
1/2+x,1/2-y,z
loop_
_atom_site_type_symbol
_atom_site_label
_atom_site_fract_x
_atom_site_fract_y
_atom_site_fract_z
Si Si1 0.704872 0.175034 0.401630
Si Si2 0.673369 0.131266 0.231953
Si Si3 0.665256 0.482723 0.719488
Si Si4 0.150813 0.055192 0.532225
Si Si5 0.459790 0.743938 0.986083
Si Si6 0.404296 0.941706 0.657308
Si Si7 0.718706 0.323691 0.569781
Si Si8 0.289351 0.565203 0.999558
O O1 0.658565 0.169217 0.309848
O O2 0.574702 0.210911 0.446656
O O3 0.861727 0.209282 0.420633
O O4 0.730085 0.111790 0.437921
O O5 0.766661 0.074269 0.256730
O O6 0.518746 0.105913 0.191499
O O7 0.765666 0.164316 0.163243
O O8 0.500000 0.500000 0.749983
O O9 0.651381 0.466454 0.624640
O O10 0.782807 0.535262 0.722200
O O11 0.242085 0.114147 0.529328
O O12 0.973869 0.068447 0.511613
O O13 0.224639 0.003065 0.483039
O O14 0.557098 0.700579 0.040326
O O15 0.343591 0.778966 0.040936
O O16 0.306302 0.922937 0.580748
O O17 0.500000 0.000000 0.636990
#
# Coordination Sequence:
#
# PCOD9376091 Si02
#       8
#     8   8   8   8   8   8   8   8
#     4  11  23  41  56  87 119 154 189 253 314 349
#     4  10  22  35  55  85 123 146 195 251 299 354
#     4   9  15  32  54  82 119 157 192 228 285 344
#     4   9  16  31  60  91 113 145 195 241 279 352
#     4  10  23  41  64  76 113 158 206 248 288 357
#     4   9  17  32  55  85 118 161 193 233 280 357
#     4  10  20  40  62  88 106 154 210 242 285 351
#     4  10  17  32  61  86 117 150 190 238 290 350
#
# _framework density 18.684639000000001
#
# number of rings (size 3 to 8) (size 9 to 14) (size 15 to 20)
#    0.000    2.250    3.750    1.500    0.000    1.000 
#    2.250    8.125    0.000    0.000    0.000    0.000 
#    0.000    0.000    0.000    0.000    0.000    0.000 
#
# Total GULP energy -178347.274820 kJ/mol
# GULP energy per Si atom -5573.352338 kJ/mol
# Density = 1.864211 g / cm^3
# Si number density = 18.684639 Si / 1000 Ang^3
#
#
#
# Elastic Constant Matrix: (Units=GPa)
#
#
# Indices 1 2 3 4 5 6 
#
# 1 83.9679 25.8627 21.3053 0.0000 0.0000 0.0000
# 2 25.8627 101.7782 36.9646 0.0000 0.0000 0.0000
# 3 21.3053 36.9646 63.7142 0.0000 0.0000 0.0000
# 4 0.0000 0.0000 0.0000 20.7109 0.0000 0.0000
# 5 0.0000 0.0000 0.0000 0.0000 7.2809 0.0000
# 6 0.0000 0.0000 0.0000 0.0000 0.0000 14.3953
#
#
#
# Elastic Compliance Matrix: (Units=1/GPa)
#
#
# Indices 1 2 3 4 5 6 
#
# 1 0.013409 -0.002254 -0.003176 0.000000 0.000000 0.000000
# 2 -0.002254 0.012827 -0.006688 0.000000 0.000000 0.000000
# 3 -0.003176 -0.006688 0.020637 0.000000 0.000000 0.000000
# 4 0.000000 0.000000 0.000000 0.048284 0.000000 0.000000
# 5 0.000000 0.000000 0.000000 0.000000 0.137346 0.000000
# 6 0.000000 0.000000 0.000000 0.000000 0.000000 0.069467
#
#
# Mechanical properties :
#
#
# Convention : Reuss Voigt Hill
#
# Bulk Modulus (GPa) = 44.17496 46.41397 45.29446
# Shear Modulus (GPa) = 14.98114 19.49925 17.24019
#
# Velocity S-wave (km/s) = 2.83466 3.23398 3.04088
# Velocity P-wave (km/s) = 5.86579 6.23213 6.05173
#
# Compressibility (1/GPa) = 0.02263726
#
# Stress axis : x y z
#
# Youngs Moduli (GPa) = 74.57425 77.96024 48.45562
#
# Poissons Ratio (x) = 0.17571 0.15391
# Poissons Ratio (y) = 0.16808 0.32408
# Poissons Ratio (z) = 0.23688 0.52141
#
# Static dielectric constant tensor:
#      x y z
#    x 1.675680 0.000000 0.000000 
#    y 0.000000 1.661750 0.000000 
#    z 0.000000 0.000000 1.624690 
# 
# From -- ./inp_files/5871.got.cif
#   From: 2010.05.17/outbox.cif.g08.bks.cpg/sg45_3_cif.got.tgz:5871.got - 2010.06.03 19:51:22.
