data_PCOD9376063
_publ_section_title
;
Structure prediction by ZEFSAII (Michael W. Deem and Ramdas Pophale) SiO2 
 PCOD9376063
Probable space group: I B A 2
;
_chemical_formula_sum "Si O2"
_cell_formula_units_Z 60
_cell_length_a 12.141217
_cell_length_b 27.403171
_cell_length_c 8.619973
_cell_angle_alpha 90.000000
_cell_angle_beta 90.000000
_cell_angle_gamma 90.000000
_cell_volume 2867.932646
_symmetry_space_group_name_H-M "I B A 2"
_symmetry_group_IT_number 45
_symmetry_cell_setting 'orthorhombic'
loop_
_space_group_symop_operation_xyz
x,y,z
-x,-y,z
-x,y,1/2+z
x,-y,1/2+z
1/2+x,1/2+y,1/2+z
1/2-x,1/2-y,1/2+z
1/2-x,1/2+y,z
1/2+x,1/2-y,z
loop_
_atom_site_type_symbol
_atom_site_label
_atom_site_fract_x
_atom_site_fract_y
_atom_site_fract_z
Si Si1 0.150952 0.599993 0.876750
Si Si2 0.558642 0.124056 0.686342
Si Si3 0.000000 0.000000 0.022248
Si Si4 0.268828 0.796403 0.251575
Si Si5 0.420760 0.194307 0.458496
Si Si6 0.951010 0.835844 0.638401
Si Si7 0.416793 0.281196 0.843469
Si Si8 0.881148 0.060239 0.265189
O O1 0.185582 0.656124 0.840276
O O2 0.254245 0.569413 0.811053
O O3 0.037221 0.594097 0.778134
O O4 0.131552 0.594129 0.061965
O O5 0.499622 0.161721 0.569175
O O6 0.614453 0.158061 0.818191
O O7 0.903645 0.020533 0.132101
O O8 0.050673 0.041829 0.913489
O O9 0.327169 0.793551 0.083652
O O10 0.141237 0.804592 0.228602
O O11 0.303330 0.747712 0.338053
O O12 0.495489 0.238580 0.391903
O O13 0.926217 0.825963 0.460856
O O14 0.933801 0.890097 0.697168
O O15 0.061696 0.807518 0.680309
#
# Coordination Sequence:
#
# PCOD9376063 Si02
#       8
#     8   8   4   8   8   8   8   8
#     4   9  18  34  60  92 126 154 209 247 290 381
#     4   9  15  30  56  84 120 166 190 245 281 344
#     4  10  22  46  80  82 114 158 196 276 350 408
#     4  10  21  35  49  80 117 170 211 243 282 344
#     4  10  16  31  49  73 113 166 218 216 277 327
#     4  11  25  36  56  85 122 151 209 265 288 356
#     4  12  20  35  52  76 124 169 198 252 285 336
#     4  10  22  45  66  96 113 152 214 266 337 387
#
# _framework density 20.920992999999999
#
# number of rings (size 3 to 8) (size 9 to 14) (size 15 to 20)
#    0.000    1.867    5.333    0.800    1.867    0.000 
#    0.000   14.667    0.000    2.400    0.000    0.000 
#    0.000    0.000    0.000    0.000    0.000    0.000 
#
# Total GULP energy -167253.675737 kJ/mol
# GULP energy per Si atom -5575.122525 kJ/mol
# Density = 2.087338 g / cm^3
# Si number density = 20.920993 Si / 1000 Ang^3
#
#
#
# Elastic Constant Matrix: (Units=GPa)
#
#
# Indices 1 2 3 4 5 6 
#
# 1 35.6710 27.2983 15.3342 0.0001 -0.0001 0.0000
# 2 27.2983 60.5903 31.9514 0.0005 0.0000 0.0000
# 3 15.3342 31.9514 115.5493 0.0012 -0.0002 -0.0001
# 4 0.0001 0.0005 0.0012 26.8885 0.0001 0.0000
# 5 -0.0001 0.0000 -0.0002 0.0001 26.8717 0.0000
# 6 0.0000 0.0000 -0.0001 0.0000 0.0000 29.6077
#
#
#
# Elastic Compliance Matrix: (Units=1/GPa)
#
#
# Indices 1 2 3 4 5 6 
#
# 1 0.042803 -0.019069 -0.000407 0.000000 0.000000 0.000000
# 2 -0.019069 0.027818 -0.005161 0.000000 0.000000 0.000000
# 3 -0.000407 -0.005161 0.010136 0.000000 0.000000 0.000000
# 4 0.000000 0.000000 0.000000 0.037191 0.000000 0.000000
# 5 0.000000 0.000000 0.000000 0.000000 0.037214 0.000000
# 6 0.000000 0.000000 0.000000 0.000000 0.000000 0.033775
#
#
# Mechanical properties :
#
#
# Convention : Reuss Voigt Hill
#
# Bulk Modulus (GPa) = 31.76660 40.10872 35.93766
# Shear Modulus (GPa) = 20.10418 25.82203 22.96310
#
# Velocity S-wave (km/s) = 3.10329 3.51702 3.31661
# Velocity P-wave (km/s) = 5.29694 5.97543 5.64639
#
# Compressibility (1/GPa) = 0.03147960
#
# Stress axis : x y z
#
# Youngs Moduli (GPa) = 23.36312 35.94844 98.66245
#
# Poissons Ratio (x) = 0.68552 0.04017
# Poissons Ratio (y) = 0.44552 0.50924
# Poissons Ratio (z) = 0.00951 0.18554
#
# Static dielectric constant tensor:
#      x y z
#    x 1.812690 0.000000 0.000000 
#    y 0.000000 1.733290 0.000000 
#    z 0.000000 0.000000 1.793240 
# 
# From -- ./inp_files/1454.got.cif
#   From: 2010.05.17/outbox.cif.g08.bks.cpg/sg45_1_cif.got.tgz:1454.got - 2010.06.03 19:51:22.
