data_PCOD9376983
_publ_section_title
;
Structure prediction by ZEFSAII (Michael W. Deem and Ramdas Pophale) SiO2 
 PCOD9376983
Probable space group: I B A 2
;
_chemical_formula_sum "Si O2"
_cell_formula_units_Z 64
_cell_length_a 23.569665
_cell_length_b 8.767523
_cell_length_c 14.463017
_cell_angle_alpha 90.000000
_cell_angle_beta 90.000000
_cell_angle_gamma 90.000000
_cell_volume 2988.747462
_symmetry_space_group_name_H-M "I B A 2"
_symmetry_group_IT_number 45
_symmetry_cell_setting 'orthorhombic'
loop_
_space_group_symop_operation_xyz
x,y,z
-x,-y,z
-x,y,1/2+z
x,-y,1/2+z
1/2+x,1/2+y,1/2+z
1/2-x,1/2-y,1/2+z
1/2-x,1/2+y,z
1/2+x,1/2-y,z
loop_
_atom_site_type_symbol
_atom_site_label
_atom_site_fract_x
_atom_site_fract_y
_atom_site_fract_z
Si Si1 0.441341 0.444270 0.860310
Si Si2 0.851385 0.845967 0.500797
Si Si3 0.120196 0.858539 0.207041
Si Si4 0.947473 0.589014 0.332626
Si Si5 0.871310 0.484687 0.481383
Si Si6 0.262380 0.463903 0.290025
Si Si7 0.143341 0.497687 0.194788
Si Si8 0.261499 0.800365 0.920699
O O1 0.500000 0.500000 0.905041
O O2 0.425005 0.549625 0.770809
O O3 0.457310 0.266726 0.846927
O O4 0.385011 0.441634 0.923805
O O5 0.880842 0.887371 0.597277
O O6 0.858417 0.666103 0.477907
O O7 0.782772 0.850414 0.499714
O O8 0.181576 0.914357 0.239651
O O9 0.124514 0.674036 0.212837
O O10 0.928857 0.485659 0.421488
O O11 0.893822 0.593217 0.266441
O O12 0.000000 0.500000 0.288805
O O13 0.871514 0.452055 0.590269
O O14 0.823045 0.375541 0.437232
O O15 0.207932 0.463149 0.223346
O O16 0.261569 0.375191 0.389694
O O17 0.264419 0.636468 0.324841
#
# Coordination Sequence:
#
# PCOD9376983 Si02
#       8
#     8   8   8   8   8   8   8   8
#     4  11  24  43  66  89 120 165 211 264 320 378
#     4  10  22  40  62  91 130 165 206 259 312 369
#     4  11  23  40  63  94 129 167 209 260 313 377
#     4  11  23  44  66  88 121 163 211 266 320 378
#     4  10  22  41  64  92 126 167 209 256 311 375
#     4  12  21  36  65  90 130 168 202 250 308 372
#     4  11  23  41  64  94 128 166 210 258 315 376
#     4  12  20  39  62  92 127 168 204 248 308 369
#
# _framework density 21.413654000000001
#
# number of rings (size 3 to 8) (size 9 to 14) (size 15 to 20)
#    0.000    1.000    5.000    2.250    0.000    1.000 
#    2.250    2.500    0.000    0.000    0.000    0.000 
#    0.000    0.000    0.000    0.000    0.000    0.000 
#
# Total GULP energy -178273.887100 kJ/mol
# GULP energy per Si atom -5571.058972 kJ/mol
# Density = 2.136492 g / cm^3
# Si number density = 21.413654 Si / 1000 Ang^3
#
#
#
# Elastic Constant Matrix: (Units=GPa)
#
#
# Indices 1 2 3 4 5 6 
#
# 1 61.1837 0.5227 -4.5352 0.0000 0.0000 0.0000
# 2 0.5227 45.6035 14.2538 0.0000 0.0000 0.0000
# 3 -4.5352 14.2538 74.8530 0.0000 0.0000 0.0000
# 4 0.0000 0.0000 0.0000 19.3315 0.0000 0.0000
# 5 0.0000 0.0000 0.0000 0.0000 26.7693 0.0000
# 6 0.0000 0.0000 0.0000 0.0000 0.0000 33.7518
#
#
#
# Elastic Compliance Matrix: (Units=1/GPa)
#
#
# Indices 1 2 3 4 5 6 
#
# 1 0.016430 -0.000531 0.001097 0.000000 0.000000 0.000000
# 2 -0.000531 0.023333 -0.004475 0.000000 0.000000 0.000000
# 3 0.001097 -0.004475 0.014278 0.000000 0.000000 0.000000
# 4 0.000000 0.000000 0.000000 0.051729 0.000000 0.000000
# 5 0.000000 0.000000 0.000000 0.000000 0.037356 0.000000
# 6 0.000000 0.000000 0.000000 0.000000 0.000000 0.029628
#
#
# Mechanical properties :
#
#
# Convention : Reuss Voigt Hill
#
# Bulk Modulus (GPa) = 21.63489 22.45808 22.04648
# Shear Modulus (GPa) = 25.51263 27.39712 26.45488
#
# Velocity S-wave (km/s) = 3.45544 3.58078 3.51867
# Velocity P-wave (km/s) = 5.10346 5.25419 5.17937
#
# Compressibility (1/GPa) = 0.04622164
#
# Stress axis : x y z
#
# Youngs Moduli (GPa) = 60.86414 42.85765 70.03693
#
# Poissons Ratio (x) = 0.02276 -0.07680
# Poissons Ratio (y) = 0.03232 0.31344
# Poissons Ratio (z) = -0.06674 0.19180
#
# Static dielectric constant tensor:
#      x y z
#    x 1.787920 0.000000 0.000000 
#    y 0.000000 1.818570 0.000000 
#    z 0.000000 0.000000 1.819950 
# 
# From -- ./inp_files/5879.got.cif
#   From: 2010.05.17/outbox.cif.g08.bks.cpg/sg45_3_cif.got.tgz:5879.got - 2010.06.03 19:51:22.
