data_PCOD9376984
_publ_section_title
;
Structure prediction by ZEFSAII (Michael W. Deem and Ramdas Pophale) SiO2 
 PCOD9376984
Probable space group: I B A 2
;
_chemical_formula_sum "Si O2"
_cell_formula_units_Z 56
_cell_length_a 13.841943
_cell_length_b 10.591060
_cell_length_c 17.269519
_cell_angle_alpha 90.000000
_cell_angle_beta 90.000000
_cell_angle_gamma 90.000000
_cell_volume 2531.726144
_symmetry_space_group_name_H-M "I B A 2"
_symmetry_group_IT_number 45
_symmetry_cell_setting 'orthorhombic'
loop_
_space_group_symop_operation_xyz
x,y,z
-x,-y,z
-x,y,1/2+z
x,-y,1/2+z
1/2+x,1/2+y,1/2+z
1/2-x,1/2-y,1/2+z
1/2-x,1/2+y,z
1/2+x,1/2-y,z
loop_
_atom_site_type_symbol
_atom_site_label
_atom_site_fract_x
_atom_site_fract_y
_atom_site_fract_z
Si Si1 0.000000 0.000000 0.117370
Si Si2 0.000000 0.500000 0.388610
Si Si3 0.647293 0.440492 0.832881
Si Si4 0.529922 0.171331 0.027670
Si Si5 0.539971 0.326416 0.260597
Si Si6 0.147422 0.438060 0.265465
Si Si7 0.645438 0.938963 0.099879
Si Si8 0.154262 0.077875 0.015219
O O1 0.024128 0.113005 0.176202
O O2 0.091951 0.975404 0.062659
O O3 0.993655 0.621046 0.444397
O O4 0.093711 0.509492 0.335062
O O5 0.559702 0.347577 0.807998
O O6 0.615105 0.578668 0.802548
O O7 0.745370 0.401045 0.790821
O O8 0.664416 0.448745 0.924591
O O9 0.437302 0.163411 0.083292
O O10 0.586474 0.299715 0.020902
O O11 0.604361 0.065061 0.058223
O O12 0.582142 0.186856 0.253573
O O13 0.152804 0.524338 0.189448
O O14 0.745409 0.903400 0.059501
#
# Coordination Sequence:
#
# PCOD9376984 Si02
#       8
#     4   4   8   8   8   8   8   8
#     4  10  22  40  62  92 126 162 214 262 318 388
#     4  10  22  40  66  96 128 172 226 264 318 404
#     4  10  23  41  66  99 130 171 226 264 325 402
#     4  10  23  44  62  93 136 172 216 271 324 387
#     4  10  23  44  63  93 135 171 215 276 326 381
#     4  12  23  42  69  95 132 176 216 274 329 384
#     4  10  23  42  65  95 130 172 223 263 324 404
#     4  12  23  41  69  97 132 174 214 276 332 381
#
# _framework density 22.119295000000001
#
# number of rings (size 3 to 8) (size 9 to 14) (size 15 to 20)
#    0.000    1.714    0.000    6.857    0.000    4.571 
#    0.000   11.429    0.000    0.000    0.000    0.000 
#    0.000    0.000    0.000    0.000    0.000    0.000 
#
# Total GULP energy -156657.909696 kJ/mol
# GULP energy per Si atom -5594.925346 kJ/mol
# Density = 2.206895 g / cm^3
# Si number density = 22.119295 Si / 1000 Ang^3
#
#
#
# Elastic Constant Matrix: (Units=GPa)
#
#
# Indices 1 2 3 4 5 6 
#
# 1 153.2340 36.4581 65.2637 0.0000 0.0000 0.0000
# 2 36.4581 73.3566 40.9392 0.0000 0.0000 0.0000
# 3 65.2637 40.9392 184.8672 0.0000 0.0000 0.0000
# 4 0.0000 0.0000 0.0000 68.2704 0.0000 0.0000
# 5 0.0000 0.0000 0.0000 0.0000 40.0987 0.0000
# 6 0.0000 0.0000 0.0000 0.0000 0.0000 16.5094
#
#
#
# Elastic Compliance Matrix: (Units=1/GPa)
#
#
# Indices 1 2 3 4 5 6 
#
# 1 0.008152 -0.002790 -0.002260 0.000000 0.000000 0.000000
# 2 -0.002790 0.016509 -0.002671 0.000000 0.000000 0.000000
# 3 -0.002260 -0.002671 0.006799 0.000000 0.000000 0.000000
# 4 0.000000 0.000000 0.000000 0.014648 0.000000 0.000000
# 5 0.000000 0.000000 0.000000 0.000000 0.024938 0.000000
# 6 0.000000 0.000000 0.000000 0.000000 0.000000 0.060572
#
#
# Mechanical properties :
#
#
# Convention : Reuss Voigt Hill
#
# Bulk Modulus (GPa) = 62.43120 77.41998 69.92559
# Shear Modulus (GPa) = 32.80825 42.89548 37.85186
#
# Velocity S-wave (km/s) = 3.85547 4.40850 4.14123
# Velocity P-wave (km/s) = 6.93581 7.80963 7.38565
#
# Compressibility (1/GPa) = 0.01601763
#
# Stress axis : x y z
#
# Youngs Moduli (GPa) = 122.66200 60.57124 147.08764
#
# Poissons Ratio (x) = 0.16902 0.33244
# Poissons Ratio (y) = 0.34228 0.39286
# Poissons Ratio (z) = 0.27723 0.16178
#
# Static dielectric constant tensor:
#      x y z
#    x 1.799920 0.000000 0.000000 
#    y 0.000000 1.826700 0.000000 
#    z 0.000000 0.000000 1.827290 
# 
# From -- ./inp_files/6538.got.cif
#   From: 2010.05.17/outbox.cif.g08.bks.cpg/sg45_4_cif.got.tgz:6538.got - 2010.06.03 19:51:22.
