data_PCOD9376795
_publ_section_title
;
Structure prediction by ZEFSAII (Michael W. Deem and Ramdas Pophale) SiO2 
 PCOD9376795
Probable space group: I B A 2
;
_chemical_formula_sum "Si O2"
_cell_formula_units_Z 48
_cell_length_a 14.403589
_cell_length_b 8.079777
_cell_length_c 16.630954
_cell_angle_alpha 90.000000
_cell_angle_beta 90.000000
_cell_angle_gamma 90.000000
_cell_volume 1935.473624
_symmetry_space_group_name_H-M "I B A 2"
_symmetry_group_IT_number 45
_symmetry_cell_setting 'orthorhombic'
loop_
_space_group_symop_operation_xyz
x,y,z
-x,-y,z
-x,y,1/2+z
x,-y,1/2+z
1/2+x,1/2+y,1/2+z
1/2-x,1/2-y,1/2+z
1/2-x,1/2+y,z
1/2+x,1/2-y,z
loop_
_atom_site_type_symbol
_atom_site_label
_atom_site_fract_x
_atom_site_fract_y
_atom_site_fract_z
Si Si1 0.786877 0.627670 0.046590
Si Si2 0.620280 0.815103 0.782871
Si Si3 0.872557 0.678497 0.468879
Si Si4 0.556960 0.328969 0.984823
Si Si5 0.563892 0.334783 0.796389
Si Si6 0.269122 0.492104 0.716590
O O1 0.771835 0.531297 0.129279
O O2 0.828609 0.499308 0.982735
O O3 0.688544 0.693628 0.018401
O O4 0.858582 0.782045 0.042791
O O5 0.629555 0.768599 0.876309
O O6 0.509986 0.804104 0.767949
O O7 0.676546 0.678711 0.731103
O O8 0.677876 0.983469 0.771910
O O9 0.978188 0.690586 0.495995
O O10 0.500000 0.500000 0.997431
O O11 0.588986 0.321469 0.891180
O O12 0.500000 0.500000 0.791251
O O13 0.653709 0.371793 0.743226
#
# Coordination Sequence:
#
# PCOD9376795 Si02
#       6
#     8   8   8   8   8   8
#     4  12  24  39  63 100 142 178 221 285 354 416
#     4  10  21  40  65  90 124 175 227 274 328 399
#     4  11  23  41  65  95 132 179 233 283 336 411
#     4  10  21  41  68  97 131 177 230 283 339 407
#     4   8  18  38  64  89 120 167 223 271 323 397
#     4  11  22  39  61  93 132 170 216 276 341 406
#
# _framework density 24.800132000000001
#
# number of rings (size 3 to 8) (size 9 to 14) (size 15 to 20)
#    0.000    1.667    0.000    5.500    0.000    1.333 
#    0.000    7.500    0.000    0.000    0.000    0.000 
#    0.000    0.000    0.000    0.000    0.000    0.000 
#
# Total GULP energy -134306.590954 kJ/mol
# GULP energy per Si atom -5596.107956 kJ/mol
# Density = 2.474369 g / cm^3
# Si number density = 24.800132 Si / 1000 Ang^3
#
#
#
# Elastic Constant Matrix: (Units=GPa)
#
#
# Indices 1 2 3 4 5 6 
#
# 1 131.7612 17.3473 53.2770 0.0000 0.0000 0.0000
# 2 17.3473 89.7197 10.3367 0.0000 0.0000 0.0000
# 3 53.2770 10.3367 81.3234 0.0000 0.0000 0.0000
# 4 0.0000 0.0000 0.0000 33.0339 0.0000 0.0000
# 5 0.0000 0.0000 0.0000 0.0000 -66.3493 0.0000
# 6 0.0000 0.0000 0.0000 0.0000 0.0000 49.0509
#
#
#
# Elastic Compliance Matrix: (Units=1/GPa)
#
#
# Indices 1 2 3 4 5 6 
#
# 1 0.010461 -0.001251 -0.006694 0.000000 0.000000 0.000000
# 2 -0.001251 0.011461 -0.000637 0.000000 0.000000 0.000000
# 3 -0.006694 -0.000637 0.016763 0.000000 0.000000 0.000000
# 4 0.000000 0.000000 0.000000 0.030272 0.000000 0.000000
# 5 0.000000 0.000000 0.000000 0.000000 -0.015072 0.000000
# 6 0.000000 0.000000 0.000000 0.000000 0.000000 0.020387
#
#
# Mechanical properties :
#
#
# Convention : Reuss Voigt Hill
#
# Bulk Modulus (GPa) = 46.46814 51.63627 49.05221
# Shear Modulus (GPa) = 50.70432 17.93666 34.32049
#
# Velocity S-wave (km/s) = 4.52654 2.69225 3.72409
# Velocity P-wave (km/s) = 6.78949 5.52543 6.18981
#
# Compressibility (1/GPa) = 0.02152012
#
# Stress axis : x y z
#
# Youngs Moduli (GPa) = 95.59309 87.25121 59.65489
#
# Poissons Ratio (x) = 0.10918 0.39934
# Poissons Ratio (y) = 0.11962 0.03800
# Poissons Ratio (z) = 0.63992 0.05558
#
# Static dielectric constant tensor:
#      x y z
#    x 1.958020 0.000000 0.000000 
#    y 0.000000 2.097840 0.000000 
#    z 0.000000 0.000000 1.898990 
# 
# From -- ./inp_files/8138.got.cif
#   From: 2010.05.17/outbox.cif.g08.bks.cpg/sg45_5_cif.got.tgz:8138.got - 2010.06.03 19:51:22.
