data_PCOD9376035
_publ_section_title
;
Structure prediction by ZEFSAII (Michael W. Deem and Ramdas Pophale) SiO2 
 PCOD9376035
Probable space group: I M M 2
;
_chemical_formula_sum "Si O2"
_cell_formula_units_Z 32
_cell_length_a 9.000000
_cell_length_b 21.000000
_cell_length_c 18.000000
_cell_angle_alpha 90.000000
_cell_angle_beta 90.000000
_cell_angle_gamma 90.000000
_cell_volume 3402.000000
_symmetry_space_group_name_H-M "I M M 2"
_symmetry_group_IT_number 44
_symmetry_cell_setting 'orthorhombic'
loop_
_space_group_symop_operation_xyz
x,y,z
-x,-y,z
-x,y,z
x,-y,z
1/2+x,1/2+y,1/2+z
1/2-x,1/2-y,1/2+z
1/2-x,1/2+y,1/2+z
1/2+x,1/2-y,1/2+z
loop_
_atom_site_type_symbol
_atom_site_label
_atom_site_fract_x
_atom_site_fract_y
_atom_site_fract_z
Si Si1 0.165476 0.192197 0.073280
Si Si2 0.827391 0.569305 0.807339
Si Si3 0.174170 0.928752 0.704557
Si Si4 0.330471 0.198768 0.933459
Si Si5 0.170562 0.571587 0.628353
Si Si6 0.167977 0.702470 0.199663
Si Si7 0.823217 0.711436 0.824230
Si Si8 0.326115 0.428834 0.384108
O O1 0.209068 0.123612 0.106164
O O2 0.161080 0.248682 0.131995
O O3 0.000000 0.188490 0.038717
O O4 0.301279 0.206660 0.019599
O O5 0.762249 0.500000 0.830449
O O6 0.830149 0.569566 0.717838
O O7 0.763149 0.638785 0.827104
O O8 0.000000 0.569199 0.832690
O O9 0.260615 0.865629 0.679935
O O10 0.182355 0.927304 0.794505
O O11 0.000000 0.923607 0.684669
O O12 0.226463 0.000000 0.681304
O O13 0.500000 0.207503 0.911218
O O14 0.224225 0.250463 0.896419
O O15 0.273469 0.127971 0.914100
O O16 0.203523 0.500000 0.601368
O O17 0.000000 0.587669 0.605451
O O18 0.258922 0.742657 0.260385
O O19 0.000000 0.690828 0.227087
O O20 0.000000 0.707721 0.814448
O O21 0.500000 0.419520 0.403492
O O22 0.281490 0.500000 0.408441
#
# Coordination Sequence:
#
# PCOD9376035 Si02
#       8
#     8   8   8   8   8   8   8   8
#     4  11  24  39  54  76 111 149 187 226 272 326
#     4   8  15  29  53  84 111 138 176 219 263 317
#     4   9  18  33  56  84 111 142 179 219 269 327
#     4  12  25  38  54  78 110 145 188 231 272 322
#     4   9  17  32  54  80 110 144 185 224 262 317
#     4  11  22  35  55  84 112 141 182 229 271 319
#     4  11  20  34  59  83 110 145 180 222 274 326
#     4   9  18  34  55  79 109 145 183 220 265 324
#
# _framework density 9.4062319999999993
#
# number of rings (size 3 to 8) (size 9 to 14) (size 15 to 20)
#    0.000    2.000    2.500    3.750    0.000    2.750 
#    0.000    1.250    0.000    2.250    0.000    1.750 
#    0.000    0.000    0.000    0.000    0.000    0.000 
#
# Total GULP energy -178241.931860 kJ/mol
# GULP energy per Si atom -5570.060371 kJ/mol
# Density = 0.938482 g / cm^3
# Si number density = 9.406232 Si / 1000 Ang^3
#
#
#
# Elastic Constant Matrix: (Units=GPa)
#
#
# Indices 1 2 3 4 5 6 
#
# 1 59.8049 49.3984 2.8058 0.0000 0.0000 0.0000
# 2 49.3984 156.8669 22.1550 0.0000 0.0000 0.0000
# 3 2.8058 22.1550 18.2803 0.0000 0.0000 0.0000
# 4 0.0000 0.0000 0.0000 1.9916 0.0000 0.0000
# 5 0.0000 0.0000 0.0000 0.0000 6.8572 0.0000
# 6 0.0000 0.0000 0.0000 0.0000 0.0000 97.8417
#
#
#
# Elastic Compliance Matrix: (Units=1/GPa)
#
#
# Indices 1 2 3 4 5 6 
#
# 1 0.023201 -0.008208 0.006387 0.000000 0.000000 0.000000
# 2 -0.008208 0.010595 -0.011581 0.000000 0.000000 0.000000
# 3 0.006387 -0.011581 0.067759 -0.000001 0.000000 0.000000
# 4 0.000000 0.000000 -0.000001 0.502103 0.000000 0.000000
# 5 0.000000 0.000000 0.000000 0.000000 0.145833 0.000000
# 6 0.000000 0.000000 0.000000 0.000000 0.000000 0.010221
#
#
# Mechanical properties :
#
#
# Convention : Reuss Voigt Hill
#
# Bulk Modulus (GPa) = 13.37776 42.63006 28.00391
# Shear Modulus (GPa) = 6.16193 32.04430 19.10312
#
# Velocity S-wave (km/s) = 1.81178 4.13165 3.19007
# Velocity P-wave (km/s) = 3.39165 6.74318 5.33731
#
# Compressibility (1/GPa) = 0.07475095
#
# Stress axis : x y z
#
# Youngs Moduli (GPa) = 43.10086 94.38098 14.75812
#
# Poissons Ratio (x) = 0.77471 -0.09426
# Poissons Ratio (y) = 0.35379 0.17092
# Poissons Ratio (z) = -0.27529 1.09305
#
# Static dielectric constant tensor:
#      x y z
#    x 1.665410 0.000000 0.000000 
#    y 0.000000 2.427480 0.000000 
#    z 0.000000 0.000000 1.676580 
# 
# From -- ./inp_files/20739.got.cif
#   From: 2010.05.17/outbox.ucp.g08.bks.cvg/sg44_11_cif.got.tgz:20739.got - 2010.06.11 16:32:36.
