data_PCOD9376330
_publ_section_title
;
Structure prediction by ZEFSAII (Michael W. Deem and Ramdas Pophale) SiO2 
 PCOD9376330
Probable space group: I B A 2
;
_chemical_formula_sum "Si O2"
_cell_formula_units_Z 64
_cell_length_a 14.982969
_cell_length_b 9.702108
_cell_length_c 19.487109
_cell_angle_alpha 90.000000
_cell_angle_beta 90.000000
_cell_angle_gamma 90.000000
_cell_volume 2832.770558
_symmetry_space_group_name_H-M "I B A 2"
_symmetry_group_IT_number 45
_symmetry_cell_setting 'orthorhombic'
loop_
_space_group_symop_operation_xyz
x,y,z
-x,-y,z
-x,y,1/2+z
x,-y,1/2+z
1/2+x,1/2+y,1/2+z
1/2-x,1/2-y,1/2+z
1/2-x,1/2+y,z
1/2+x,1/2-y,z
loop_
_atom_site_type_symbol
_atom_site_label
_atom_site_fract_x
_atom_site_fract_y
_atom_site_fract_z
Si Si1 0.294354 0.251917 0.093810
Si Si2 0.749090 0.701102 0.251867
Si Si3 0.927300 0.378688 0.526339
Si Si4 0.543343 0.151125 0.887145
Si Si5 0.985511 0.342797 0.150584
Si Si6 0.234023 0.003561 0.001109
Si Si7 0.765471 0.453837 0.343747
Si Si8 0.462566 0.650713 0.774020
O O1 0.248926 0.287300 0.168453
O O2 0.387162 0.178088 0.116962
O O3 0.315908 0.388616 0.048079
O O4 0.239031 0.149877 0.042015
O O5 0.796065 0.578470 0.293964
O O6 0.776999 0.841990 0.291122
O O7 0.645143 0.660486 0.268405
O O8 0.958888 0.289316 0.463287
O O9 0.835075 0.448146 0.509294
O O10 0.000000 0.500000 0.533459
O O11 0.936728 0.306285 0.597523
O O12 0.645484 0.124055 0.867813
O O13 0.503423 0.262401 0.838007
O O14 0.500000 0.000000 0.885573
O O15 0.995011 0.235618 0.209895
O O16 0.000000 0.500000 0.175195
O O17 0.218966 0.000816 0.917119
O O18 0.500000 0.500000 0.775511
#
# Coordination Sequence:
#
# PCOD9376330 Si02
#       8
#     8   8   8   8   8   8   8   8
#     4  11  22  38  61  92 125 159 203 260 306 369
#     4  10  22  41  58  84 125 159 198 244 307 368
#     4   9  17  37  64  86 115 156 209 255 292 358
#     4   9  19  36  62  90 113 151 208 248 287 360
#     4  10  19  40  64  83 115 161 208 249 294 365
#     4  11  21  38  63  92 123 158 209 257 310 366
#     4  10  21  39  61  85 123 161 196 251 304 364
#     4  10  22  39  56  85 123 153 195 248 303 361
#
# _framework density 22.592722999999999
#
# number of rings (size 3 to 8) (size 9 to 14) (size 15 to 20)
#    0.000    2.000    2.500    1.875    0.000    1.000 
#   11.250    0.625    0.000    0.000    0.000    0.000 
#    0.000    0.000    0.000    0.000    0.000    0.000 
#
# Total GULP energy -178281.421461 kJ/mol
# GULP energy per Si atom -5571.294421 kJ/mol
# Density = 2.254130 g / cm^3
# Si number density = 22.592723 Si / 1000 Ang^3
#
#
#
# Elastic Constant Matrix: (Units=GPa)
#
#
# Indices 1 2 3 4 5 6 
#
# 1 33.9223 -4.3620 15.4717 0.0000 0.0000 0.0000
# 2 -4.3620 130.8557 58.0360 0.0000 0.0000 0.0000
# 3 15.4717 58.0360 146.3899 0.0000 0.0000 0.0000
# 4 0.0000 0.0000 0.0000 4169.0108 0.0000 0.0000
# 5 0.0000 0.0000 0.0000 0.0000 -0.8547 0.0000
# 6 0.0000 0.0000 0.0000 0.0000 0.0000 19.4163
#
#
#
# Elastic Compliance Matrix: (Units=1/GPa)
#
#
# Indices 1 2 3 4 5 6 
#
# 1 0.031984 0.003113 -0.004614 0.000000 0.000000 0.000000
# 2 0.003113 0.009575 -0.004125 0.000000 0.000000 0.000000
# 3 -0.004614 -0.004125 0.008954 0.000000 0.000000 0.000000
# 4 0.000000 0.000000 0.000000 0.000240 0.000000 0.000000
# 5 0.000000 0.000000 0.000000 0.000000 -1.169940 0.000000
# 6 0.000000 0.000000 0.000000 0.000000 0.000000 0.051503
#
#
# Mechanical properties :
#
#
# Convention : Reuss Voigt Hill
#
# Bulk Modulus (GPa) = 25.47128 49.93993 37.70560
# Shear Modulus (GPa) = -4.79228 853.64929 424.42850
#
# Velocity S-wave (km/s) = -1.45800 19.45926 13.72110
# Velocity P-wave (km/s) = 2.90933 22.95727 16.36307
#
# Compressibility (1/GPa) = 0.03925990
#
# Stress axis : x y z
#
# Youngs Moduli (GPa) = 31.26565 104.43550 111.68021
#
# Poissons Ratio (x) = -0.32507 0.51533
# Poissons Ratio (y) = -0.09732 0.46069
# Poissons Ratio (z) = 0.14427 0.43080
#
# Static dielectric constant tensor:
#      x y z
#    x 1.955750 0.000000 0.000000 
#    y 0.000000 1.843610 0.000000 
#    z 0.000000 0.000000 1.966680 
# 
# From -- ./inp_files/9262.got.cif
#   From: 2010.05.17/outbox.cif.g08.bks.cpg/sg45_5_cif.got.tgz:9262.got - 2010.06.03 19:51:22.
