data_PCOD9376974
_publ_section_title
;
Structure prediction by ZEFSAII (Michael W. Deem and Ramdas Pophale) SiO2 
 PCOD9376974
Probable space group: I B A 2
;
_chemical_formula_sum "Si O2"
_cell_formula_units_Z 64
_cell_length_a 15.546733
_cell_length_b 19.050947
_cell_length_c 9.451837
_cell_angle_alpha 90.000000
_cell_angle_beta 90.000000
_cell_angle_gamma 90.000000
_cell_volume 2799.444954
_symmetry_space_group_name_H-M "I B A 2"
_symmetry_group_IT_number 45
_symmetry_cell_setting 'orthorhombic'
loop_
_space_group_symop_operation_xyz
x,y,z
-x,-y,z
-x,y,1/2+z
x,-y,1/2+z
1/2+x,1/2+y,1/2+z
1/2-x,1/2-y,1/2+z
1/2-x,1/2+y,z
1/2+x,1/2-y,z
loop_
_atom_site_type_symbol
_atom_site_label
_atom_site_fract_x
_atom_site_fract_y
_atom_site_fract_z
Si Si1 0.606287 0.908490 0.099160
Si Si2 0.956874 0.389836 0.406172
Si Si3 0.708474 0.048358 0.052236
Si Si4 0.321677 0.596682 0.772544
Si Si5 0.073995 0.754437 0.569519
Si Si6 0.851149 0.062308 0.813951
Si Si7 0.992523 0.835399 0.811437
Si Si8 0.770158 0.158894 0.572881
O O1 0.548690 0.895557 0.237498
O O2 0.672110 0.974254 0.111157
O O3 0.544357 0.921935 0.967096
O O4 0.667455 0.840856 0.079026
O O5 0.870069 0.426132 0.458511
O O6 0.950676 0.315438 0.487021
O O7 0.793373 0.051763 0.954105
O O8 0.734988 0.098770 0.180982
O O9 0.353858 0.516589 0.755442
O O10 0.402386 0.645417 0.735798
O O11 0.295977 0.615940 0.932337
O O12 0.037860 0.772279 0.724765
O O13 0.176556 0.769005 0.568930
O O14 0.032968 0.814002 0.469371
O O15 0.944285 0.098042 0.825399
O O16 0.803494 0.116625 0.709454
#
# Coordination Sequence:
#
# PCOD9376974 Si02
#       8
#     8   8   8   8   8   8   8   8
#     4  12  26  47  69  97 138 173 233 295 350 404
#     4  12  28  47  69  97 133 184 232 289 349 409
#     4  12  24  42  68 100 136 178 230 284 348 412
#     4  11  20  37  65 101 138 175 218 276 345 411
#     4  10  23  47  64  98 134 178 229 272 337 418
#     4  11  19  39  66  98 139 176 217 280 345 410
#     4  10  22  39  68 100 136 178 226 279 333 413
#     4  10  22  42  66  94 139 173 217 279 340 408
#
# _framework density 22.861674000000001
#
# number of rings (size 3 to 8) (size 9 to 14) (size 15 to 20)
#    0.000    1.000    3.750    2.250    1.750    1.000 
#    9.000    5.000    0.000    0.000    0.000    0.000 
#    0.000    0.000    0.000    0.000    0.000    0.000 
#
# Total GULP energy -178705.064035 kJ/mol
# GULP energy per Si atom -5584.533251 kJ/mol
# Density = 2.280964 g / cm^3
# Si number density = 22.861674 Si / 1000 Ang^3
#
#
#
# Elastic Constant Matrix: (Units=GPa)
#
#
# Indices 1 2 3 4 5 6 
#
# 1 107.7754 -0.4812 42.1306 0.0000 0.0000 0.0000
# 2 -0.4812 37.1339 11.7395 0.0000 0.0000 0.0000
# 3 42.1306 11.7395 101.3071 0.0000 0.0000 0.0000
# 4 0.0000 0.0000 0.0000 18.5651 0.0000 0.0000
# 5 0.0000 0.0000 0.0000 0.0000 42.6539 0.0000
# 6 0.0000 0.0000 0.0000 0.0000 0.0000 18.1902
#
#
#
# Elastic Compliance Matrix: (Units=1/GPa)
#
#
# Indices 1 2 3 4 5 6 
#
# 1 0.011179 0.001676 -0.004843 0.000000 0.000000 0.000000
# 2 0.001676 0.028205 -0.003965 0.000000 0.000000 0.000000
# 3 -0.004843 -0.003965 0.012345 0.000000 0.000000 0.000000
# 4 0.000000 0.000000 0.000000 0.053865 0.000000 0.000000
# 5 0.000000 0.000000 0.000000 0.000000 0.023445 0.000000
# 6 0.000000 0.000000 0.000000 0.000000 0.000000 0.054975
#
#
# Mechanical properties :
#
#
# Convention : Reuss Voigt Hill
#
# Bulk Modulus (GPa) = 26.69264 39.22158 32.95711
# Shear Modulus (GPa) = 23.72299 28.73700 26.23000
#
# Velocity S-wave (km/s) = 3.22479 3.54926 3.39091
# Velocity P-wave (km/s) = 5.05636 5.83006 5.45694
#
# Compressibility (1/GPa) = 0.03746351
#
# Stress axis : x y z
#
# Youngs Moduli (GPa) = 89.45043 35.45480 81.00636
#
# Poissons Ratio (x) = -0.05942 0.39235
# Poissons Ratio (y) = -0.14992 0.32122
# Poissons Ratio (z) = 0.43324 0.14059
#
# Static dielectric constant tensor:
#      x y z
#    x 1.878800 0.000000 0.000000 
#    y 0.000000 1.888670 0.000000 
#    z 0.000000 0.000000 1.849980 
# 
# From -- ./inp_files/1923.got.cif
#   From: 2010.05.17/outbox.cif.g08.bks.cpg/sg45_1_cif.got.tgz:1923.got - 2010.06.03 19:51:22.
