data_PCOD9376904
_publ_section_title
;
Structure prediction by ZEFSAII (Michael W. Deem and Ramdas Pophale) SiO2 
 PCOD9376904
Probable space group: I B A 2
;
_chemical_formula_sum "Si O2"
_cell_formula_units_Z 40
_cell_length_a 13.060935
_cell_length_b 10.859664
_cell_length_c 11.976953
_cell_angle_alpha 90.000000
_cell_angle_beta 90.000000
_cell_angle_gamma 90.000000
_cell_volume 1698.779462
_symmetry_space_group_name_H-M "I B A 2"
_symmetry_group_IT_number 45
_symmetry_cell_setting 'orthorhombic'
loop_
_space_group_symop_operation_xyz
x,y,z
-x,-y,z
-x,y,1/2+z
x,-y,1/2+z
1/2+x,1/2+y,1/2+z
1/2-x,1/2-y,1/2+z
1/2-x,1/2+y,z
1/2+x,1/2-y,z
loop_
_atom_site_type_symbol
_atom_site_label
_atom_site_fract_x
_atom_site_fract_y
_atom_site_fract_z
Si Si1 0.752388 0.070995 0.160590
Si Si2 0.111358 0.772705 0.318854
Si Si3 0.795328 0.813301 0.435490
Si Si4 0.104453 0.953188 0.514655
Si Si5 0.428056 0.110004 0.825377
O O1 0.840466 0.126682 0.238686
O O2 0.648363 0.063552 0.229220
O O3 0.745874 0.166891 0.057201
O O4 0.801583 0.951802 0.101011
O O5 0.205541 0.680988 0.344876
O O6 0.090482 0.834850 0.439109
O O7 0.010074 0.707144 0.276943
O O8 0.858024 0.687755 0.412301
O O9 0.866677 0.933504 0.430879
O O10 0.000000 0.000000 0.569971
O O11 0.500000 0.000000 0.871593
#
# Coordination Sequence:
#
# PCOD9376904 Si02
#       5
#     8   8   8   8   8
#     4   9  24  44  66 104 139 187 244 301 356 432
#     4  11  22  42  70  98 147 187 237 300 366 433
#     4   9  23  45  64 103 140 184 240 300 356 428
#     4  10  21  45  70 101 134 196 241 300 355 431
#     4  11  24  43  73 106 144 191 237 300 372 432
#
# _framework density 23.546316999999998
#
# number of rings (size 3 to 8) (size 9 to 14) (size 15 to 20)
#    1.200    0.800    2.000    0.000    5.600    5.600 
#    3.600    4.000    0.000    0.000    0.000    0.000 
#    0.000    0.000    0.000    0.000    0.000    0.000 
#
# Total GULP energy -111536.102275 kJ/mol
# GULP energy per Si atom -5576.805114 kJ/mol
# Density = 2.349272 g / cm^3
# Si number density = 23.546317 Si / 1000 Ang^3
#
#
#
# Elastic Constant Matrix: (Units=GPa)
#
#
# Indices 1 2 3 4 5 6 
#
# 1 122.8140 44.8558 23.1584 0.0000 0.0000 0.0000
# 2 44.8558 65.2632 18.5450 0.0000 0.0000 0.0000
# 3 23.1584 18.5450 55.2827 0.0000 0.0000 0.0000
# 4 0.0000 0.0000 0.0000 23.3931 0.0000 0.0000
# 5 0.0000 0.0000 0.0000 0.0000 21.5082 0.0000
# 6 0.0000 0.0000 0.0000 0.0000 0.0000 18.7184
#
#
#
# Elastic Compliance Matrix: (Units=1/GPa)
#
#
# Indices 1 2 3 4 5 6 
#
# 1 0.011134 -0.006994 -0.002318 0.000000 0.000000 0.000000
# 2 -0.006994 0.021330 -0.004226 0.000000 0.000000 0.000000
# 3 -0.002318 -0.004226 0.020477 0.000000 0.000000 0.000000
# 4 0.000000 0.000000 0.000000 0.042748 0.000000 0.000000
# 5 0.000000 0.000000 0.000000 0.000000 0.046494 0.000000
# 6 0.000000 0.000000 0.000000 0.000000 0.000000 0.053423
#
#
# Mechanical properties :
#
#
# Convention : Reuss Voigt Hill
#
# Bulk Modulus (GPa) = 38.65967 46.27537 42.46752
# Shear Modulus (GPa) = 21.61667 23.17732 22.39700
#
# Velocity S-wave (km/s) = 3.03322 3.14081 3.08748
# Velocity P-wave (km/s) = 5.35924 5.73136 5.54842
#
# Compressibility (1/GPa) = 0.02586675
#
# Stress axis : x y z
#
# Youngs Moduli (GPa) = 89.81653 46.88213 48.83437
#
# Poissons Ratio (x) = 0.32788 0.11320
# Poissons Ratio (y) = 0.62815 0.20636
# Poissons Ratio (z) = 0.20819 0.19811
#
# Static dielectric constant tensor:
#      x y z
#    x 1.934500 0.000000 0.000000 
#    y 0.000000 1.949530 0.000000 
#    z 0.000000 0.000000 1.913480 
# 
# From -- ./inp_files/6404.got.cif
#   From: 2010.05.17/outbox.cif.g08.bks.cpg/sg45_4_cif.got.tgz:6404.got - 2010.06.03 19:51:22.
