data_PCOD9376758
_publ_section_title
;
Structure prediction by ZEFSAII (Michael W. Deem and Ramdas Pophale) SiO2 
 PCOD9376758
Probable space group: I B A 2
;
_chemical_formula_sum "Si O2"
_cell_formula_units_Z 64
_cell_length_a 16.608860
_cell_length_b 11.879063
_cell_length_c 15.832239
_cell_angle_alpha 90.000000
_cell_angle_beta 90.000000
_cell_angle_gamma 90.000000
_cell_volume 3123.664250
_symmetry_space_group_name_H-M "I B A 2"
_symmetry_group_IT_number 45
_symmetry_cell_setting 'orthorhombic'
loop_
_space_group_symop_operation_xyz
x,y,z
-x,-y,z
-x,y,1/2+z
x,-y,1/2+z
1/2+x,1/2+y,1/2+z
1/2-x,1/2-y,1/2+z
1/2-x,1/2+y,z
1/2+x,1/2-y,z
loop_
_atom_site_type_symbol
_atom_site_label
_atom_site_fract_x
_atom_site_fract_y
_atom_site_fract_z
Si Si1 0.827036 0.091435 0.113180
Si Si2 0.674824 0.328000 0.908512
Si Si3 0.912392 0.049244 0.948537
Si Si4 0.385774 0.779438 0.734947
Si Si5 0.847019 0.260940 0.857602
Si Si6 0.448118 0.884807 0.222066
Si Si7 0.230578 0.114045 0.209183
Si Si8 0.832007 0.703140 0.076913
O O1 0.859663 0.200889 0.158413
O O2 0.743874 0.119624 0.064541
O O3 0.804142 0.006410 0.187651
O O4 0.892536 0.048038 0.047903
O O5 0.650367 0.458254 0.911762
O O6 0.639511 0.275299 0.823243
O O7 0.771452 0.312518 0.907708
O O8 0.641061 0.257410 0.988623
O O9 0.899881 0.176288 0.914662
O O10 0.000000 0.000000 0.930014
O O11 0.479945 0.795185 0.729571
O O12 0.326844 0.887249 0.722800
O O13 0.892818 0.357176 0.803857
O O14 0.808528 0.176585 0.788297
O O15 0.397064 0.858743 0.137051
O O16 0.500000 0.000000 0.221843
O O17 0.203743 0.192542 0.130861
#
# Coordination Sequence:
#
# PCOD9376758 Si02
#       8
#     8   8   8   8   8   8   8   8
#     4  11  21  39  63  93 127 176 221 270 336 409
#     4  11  22  43  65  98 132 178 222 284 337 417
#     4  12  25  38  65 102 135 169 223 290 349 393
#     4  10  23  38  65  93 131 164 223 273 336 401
#     4  10  23  42  66  95 137 178 236 275 343 430
#     4  11  24  45  67  97 135 179 219 283 344 418
#     4   9  19  38  63  89 122 179 218 271 327 406
#     4  10  21  39  64  91 130 173 230 272 327 414
#
# _framework density 20.488758000000001
#
# number of rings (size 3 to 8) (size 9 to 14) (size 15 to 20)
#    0.000    1.500    2.500    3.000    1.750    2.000 
#    0.000    1.250    0.000    0.000    0.000    0.000 
#    0.000    0.000    0.000    0.000    0.000    0.000 
#
# Total GULP energy -178595.562686 kJ/mol
# GULP energy per Si atom -5581.111334 kJ/mol
# Density = 2.044212 g / cm^3
# Si number density = 20.488758 Si / 1000 Ang^3
#
#
#
# Elastic Constant Matrix: (Units=GPa)
#
#
# Indices 1 2 3 4 5 6 
#
# 1 95.4576 27.7316 23.0668 0.0000 0.0000 0.0000
# 2 27.7316 62.1540 10.9855 0.0000 0.0000 0.0000
# 3 23.0668 10.9855 75.5024 0.0000 0.0000 0.0000
# 4 0.0000 0.0000 0.0000 31.1846 0.0000 0.0000
# 5 0.0000 0.0000 0.0000 0.0000 24.7086 0.0000
# 6 0.0000 0.0000 0.0000 0.0000 0.0000 27.6358
#
#
#
# Elastic Compliance Matrix: (Units=1/GPa)
#
#
# Indices 1 2 3 4 5 6 
#
# 1 0.012723 -0.005121 -0.003142 0.000000 0.000000 0.000000
# 2 -0.005121 0.018575 -0.001138 0.000000 0.000000 0.000000
# 3 -0.003142 -0.001138 0.014370 0.000000 0.000000 0.000000
# 4 0.000000 0.000000 0.000000 0.032067 0.000000 0.000000
# 5 0.000000 0.000000 0.000000 0.000000 0.040472 0.000000
# 6 0.000000 0.000000 0.000000 0.000000 0.000000 0.036185
#
#
# Mechanical properties :
#
#
# Convention : Reuss Voigt Hill
#
# Bulk Modulus (GPa) = 37.22214 39.63132 38.42673
# Shear Modulus (GPa) = 27.44997 28.12781 27.78889
#
# Velocity S-wave (km/s) = 3.66424 3.70921 3.68679
# Velocity P-wave (km/s) = 6.00906 6.14241 6.07610
#
# Compressibility (1/GPa) = 0.02686573
#
# Stress axis : x y z
#
# Youngs Moduli (GPa) = 78.59865 53.83517 69.58911
#
# Poissons Ratio (x) = 0.27571 0.21864
# Poissons Ratio (y) = 0.40253 0.07920
# Poissons Ratio (z) = 0.24694 0.06127
#
# Static dielectric constant tensor:
#      x y z
#    x 1.746370 0.000000 0.000000 
#    y 0.000000 1.766120 0.000000 
#    z 0.000000 0.000000 1.713900 
# 
# From -- ./inp_files/6815.got.cif
#   From: 2010.05.17/outbox.cif.g08.bks.cpg/sg45_4_cif.got.tgz:6815.got - 2010.06.03 19:51:22.
