data_PCOD9376657
_publ_section_title
;
Structure prediction by ZEFSAII (Michael W. Deem and Ramdas Pophale) SiO2 
 PCOD9376657
Probable space group: I B A 2
;
_chemical_formula_sum "Si O2"
_cell_formula_units_Z 56
_cell_length_a 34.958604
_cell_length_b 15.447001
_cell_length_c 4.997725
_cell_angle_alpha 90.000000
_cell_angle_beta 90.000000
_cell_angle_gamma 90.000000
_cell_volume 2698.799442
_symmetry_space_group_name_H-M "I B A 2"
_symmetry_group_IT_number 45
_symmetry_cell_setting 'orthorhombic'
loop_
_space_group_symop_operation_xyz
x,y,z
-x,-y,z
-x,y,1/2+z
x,-y,1/2+z
1/2+x,1/2+y,1/2+z
1/2-x,1/2-y,1/2+z
1/2-x,1/2+y,z
1/2+x,1/2-y,z
loop_
_atom_site_type_symbol
_atom_site_label
_atom_site_fract_x
_atom_site_fract_y
_atom_site_fract_z
Si Si1 0.523270 0.354247 0.570780
Si Si2 0.100457 0.556414 0.904244
Si Si3 0.749994 0.191682 0.324254
Si Si4 0.023270 0.645798 0.078295
Si Si5 0.100479 0.943587 0.244626
Si Si6 0.314634 0.060120 0.011134
Si Si7 0.314630 0.439877 0.137499
O O1 0.509222 0.383398 0.280601
O O2 0.524217 0.250022 0.574533
O O3 0.564245 0.387797 0.661550
O O4 0.098905 0.528311 0.595775
O O5 0.142240 0.594799 0.967581
O O6 0.064240 0.612242 0.987420
O O7 0.763286 0.249997 0.574246
O O8 0.716394 0.131004 0.436673
O O9 0.783588 0.130984 0.211863
O O10 0.009227 0.616649 0.368487
O O11 0.142251 0.905164 0.181166
O O12 0.098938 0.971686 0.553100
O O13 0.310275 0.979082 0.806734
O O14 0.310281 0.520915 0.341904
#
# Coordination Sequence:
#
# PCOD9376657 Si02
#       7
#     8   8   8   8   8   8   8
#     4  10  21  36  53  77 111 148 181 221 279 332
#     4  10  21  36  57  83 107 141 189 231 269 321
#     4  12  24  38  60  92 118 144 190 236 278 334
#     4  10  21  36  53  77 111 148 181 221 279 332
#     4  10  21  36  57  83 107 141 189 231 269 321
#     4  10  21  40  61  82 115 155 188 227 287 345
#     4  10  21  40  61  82 115 155 188 227 287 345
#
# _framework density 20.749966000000001
#
# number of rings (size 3 to 8) (size 9 to 14) (size 15 to 20)
#    0.000    1.714    0.000    4.286    0.000    4.571 
#    0.000    4.286    0.000    0.000    0.000    0.000 
#    0.000    0.000    0.000    0.000    0.000    0.000 
#
# Total GULP energy -156541.554966 kJ/mol
# GULP energy per Si atom -5590.769820 kJ/mol
# Density = 2.070274 g / cm^3
# Si number density = 20.749966 Si / 1000 Ang^3
#
#
#
# Elastic Constant Matrix: (Units=GPa)
#
#
# Indices 1 2 3 4 5 6 
#
# 1 142.8134 37.7634 -4.2901 -0.0001 -0.0014 0.0250
# 2 37.7634 24.7123 -2.7770 0.0001 -0.0007 0.0102
# 3 -4.2901 -2.7770 62.8636 -0.0034 -0.0032 0.3345
# 4 -0.0001 0.0001 -0.0034 25.0082 -0.0010 0.0913
# 5 -0.0014 -0.0007 -0.0032 -0.0010 24.3248 0.0987
# 6 0.0250 0.0102 0.3345 0.0913 0.0987-2079.7866
#
#
#
# Elastic Compliance Matrix: (Units=1/GPa)
#
#
# Indices 1 2 3 4 5 6 
#
# 1 0.011750 -0.017954 0.000009 0.000000 0.000000 0.000000
# 2 -0.017954 0.068103 0.001783 0.000000 0.000001 0.000000
# 3 0.000009 0.001783 0.015987 0.000002 0.000002 0.000003
# 4 0.000000 0.000000 0.000002 0.039987 0.000002 0.000002
# 5 0.000000 0.000001 0.000002 0.000002 0.041110 0.000002
# 6 0.000000 0.000000 0.000003 0.000002 0.000002 -0.000481
#
#
# Mechanical properties :
#
#
# Convention : Reuss Voigt Hill
#
# Bulk Modulus (GPa) = 15.74450 32.42020 24.08235
# Shear Modulus (GPa) = 21.74366 -392.77784 -185.51709
#
# Velocity S-wave (km/s) = 3.24062 -13.77323 -9.46573
# Velocity P-wave (km/s) = 4.64827 15.40382 10.38439
#
# Compressibility (1/GPa) = 0.06351426
#
# Stress axis : x y z
#
# Youngs Moduli (GPa) = 85.10649 14.68375 62.55153
#
# Poissons Ratio (x) = 0.26364 -0.00055
# Poissons Ratio (y) = 1.52804 -0.11154
# Poissons Ratio (z) = -0.00074 -0.02618
#
# Static dielectric constant tensor:
#      x y z
#    x 1.731170 0.000000 0.000000 
#    y 0.000000 1.713410 0.000000 
#    z 0.000000 0.000000 1.728160 
# 
# From -- ./inp_files/214.got.cif
#   From: 2010.05.17/outbox.cif.g08.bks.cpg/sg45_1_cif.got.tgz:214.got - 2010.06.03 19:51:22.
