data_PCOD9376891
_publ_section_title
;
Structure prediction by ZEFSAII (Michael W. Deem and Ramdas Pophale) SiO2 
 PCOD9376891
Probable space group: I B A 2
;
_chemical_formula_sum "Si O2"
_cell_formula_units_Z 64
_cell_length_a 13.964542
_cell_length_b 8.384955
_cell_length_c 25.145773
_cell_angle_alpha 90.000000
_cell_angle_beta 90.000000
_cell_angle_gamma 90.000000
_cell_volume 2944.370267
_symmetry_space_group_name_H-M "I B A 2"
_symmetry_group_IT_number 45
_symmetry_cell_setting 'orthorhombic'
loop_
_space_group_symop_operation_xyz
x,y,z
-x,-y,z
-x,y,1/2+z
x,-y,1/2+z
1/2+x,1/2+y,1/2+z
1/2-x,1/2-y,1/2+z
1/2-x,1/2+y,z
1/2+x,1/2-y,z
loop_
_atom_site_type_symbol
_atom_site_label
_atom_site_fract_x
_atom_site_fract_y
_atom_site_fract_z
Si Si1 0.360674 0.087302 0.543150
Si Si2 0.849586 0.237940 0.673580
Si Si3 0.479446 0.199225 0.101032
Si Si4 0.305503 0.578458 0.622011
Si Si5 0.202318 0.521412 0.424452
Si Si6 0.049800 0.330720 0.363921
Si Si7 0.394955 0.570963 0.282070
Si Si8 0.641095 0.341516 0.877439
O O1 0.442595 0.219088 0.553874
O O2 0.259385 0.113338 0.570912
O O3 0.409519 0.939261 0.576437
O O4 0.338378 0.064680 0.481840
O O5 0.761981 0.360676 0.670402
O O6 0.853537 0.136095 0.727169
O O7 0.949399 0.317659 0.652997
O O8 0.823337 0.106106 0.629762
O O9 0.406678 0.336012 0.117248
O O10 0.131932 0.382545 0.404022
O O11 0.309495 0.454953 0.420804
O O12 0.192488 0.670663 0.384342
O O13 0.094132 0.232344 0.316052
O O14 0.000000 0.500000 0.348524
O O15 0.968900 0.209630 0.385671
O O16 0.500000 0.500000 0.269863
O O17 0.349337 0.435223 0.321017
#
# Coordination Sequence:
#
# PCOD9376891 Si02
#       8
#     8   8   8   8   8   8   8   8
#     4  10  24  41  67  99 137 177 223 285 346 412
#     4  11  24  42  70  96 136 183 228 293 350 404
#     4  10  22  42  65  96 137 174 222 283 340 417
#     4  11  22  44  64 102 134 172 236 281 338 434
#     4  11  23  41  66  97 134 183 222 287 353 412
#     4   9  21  42  63  94 133 172 230 279 338 420
#     4  10  21  44  66  97 135 183 231 292 356 422
#     4  10  23  39  64  93 134 170 228 284 338 421
#
# _framework density 21.736395999999999
#
# number of rings (size 3 to 8) (size 9 to 14) (size 15 to 20)
#    0.000    1.750    1.250    1.875    7.000    2.000 
#    4.500    3.750    0.000    0.000    0.000    0.000 
#    0.000    0.000    0.000    0.000    0.000    0.000 
#
# Total GULP energy -178245.543293 kJ/mol
# GULP energy per Si atom -5570.173228 kJ/mol
# Density = 2.168692 g / cm^3
# Si number density = 21.736396 Si / 1000 Ang^3
#
#
#
# Elastic Constant Matrix: (Units=GPa)
#
#
# Indices 1 2 3 4 5 6 
#
# 1 106.1149 46.1256 53.8761 0.0000 0.0000 0.0000
# 2 46.1256 81.2168 43.1816 0.0000 0.0000 0.0000
# 3 53.8761 43.1816 107.1162 0.0000 0.0000 0.0000
# 4 0.0000 0.0000 0.0000 7.0591 0.0000 0.0000
# 5 0.0000 0.0000 0.0000 0.0000 27.4504 0.0000
# 6 0.0000 0.0000 0.0000 0.0000 0.0000 30.0914
#
#
#
# Elastic Compliance Matrix: (Units=1/GPa)
#
#
# Indices 1 2 3 4 5 6 
#
# 1 0.014351 -0.005489 -0.005005 0.000000 0.000000 0.000000
# 2 -0.005489 0.017771 -0.004403 0.000000 0.000000 0.000000
# 3 -0.005005 -0.004403 0.013628 0.000000 0.000000 0.000000
# 4 0.000000 0.000000 0.000000 0.141661 0.000000 0.000000
# 5 0.000000 0.000000 0.000000 0.000000 0.036429 0.000000
# 6 0.000000 0.000000 0.000000 0.000000 0.000000 0.033232
#
#
# Mechanical properties :
#
#
# Convention : Reuss Voigt Hill
#
# Bulk Modulus (GPa) = 62.67553 64.53493 63.60523
# Shear Modulus (GPa) = 17.11235 23.00449 20.05842
#
# Velocity S-wave (km/s) = 2.80887 3.25674 3.04106
# Velocity P-wave (km/s) = 6.27827 6.62541 6.45417
#
# Compressibility (1/GPa) = 0.01595519
#
# Stress axis : x y z
#
# Youngs Moduli (GPa) = 69.68152 56.27040 73.37715
#
# Poissons Ratio (x) = 0.30888 0.36727
# Poissons Ratio (y) = 0.38249 0.32310
# Poissons Ratio (z) = 0.34877 0.24777
#
# Static dielectric constant tensor:
#      x y z
#    x 1.836190 0.000000 0.000000 
#    y 0.000000 1.851670 0.000000 
#    z 0.000000 0.000000 1.799960 
# 
# From -- ./inp_files/9788.got.cif
#   From: 2010.05.17/outbox.cif.g08.bks.cpg/sg45_5_cif.got.tgz:9788.got - 2010.06.03 19:51:22.
