data_PCOD9376969
_publ_section_title
;
Structure prediction by ZEFSAII (Michael W. Deem and Ramdas Pophale) SiO2 
 PCOD9376969
Probable space group: I B A 2
;
_chemical_formula_sum "Si O2"
_cell_formula_units_Z 48
_cell_length_a 8.980851
_cell_length_b 16.812639
_cell_length_c 13.890580
_cell_angle_alpha 90.000000
_cell_angle_beta 90.000000
_cell_angle_gamma 90.000000
_cell_volume 2097.363757
_symmetry_space_group_name_H-M "I B A 2"
_symmetry_group_IT_number 45
_symmetry_cell_setting 'orthorhombic'
loop_
_space_group_symop_operation_xyz
x,y,z
-x,-y,z
-x,y,1/2+z
x,-y,1/2+z
1/2+x,1/2+y,1/2+z
1/2-x,1/2-y,1/2+z
1/2-x,1/2+y,z
1/2+x,1/2-y,z
loop_
_atom_site_type_symbol
_atom_site_label
_atom_site_fract_x
_atom_site_fract_y
_atom_site_fract_z
Si Si1 0.813770 0.262437 0.324310
Si Si2 0.399046 0.844369 0.640942
Si Si3 0.500000 0.000000 0.531847
Si Si4 0.695472 0.426529 0.500555
Si Si5 0.827936 0.265011 0.547188
Si Si6 0.468110 0.364763 0.812949
Si Si7 0.500000 0.500000 0.158855
O O1 0.881310 0.329428 0.254050
O O2 0.864505 0.264588 0.434561
O O3 0.640981 0.287399 0.316152
O O4 0.868109 0.173925 0.298335
O O5 0.252753 0.812467 0.586225
O O6 0.528474 0.784628 0.607866
O O7 0.443699 0.929213 0.600448
O O8 0.357916 0.036335 0.473899
O O9 0.720385 0.341136 0.550633
O O10 0.583823 0.410782 0.410885
O O11 0.630788 0.479695 0.585048
O O12 0.451379 0.427423 0.727292
#
# Coordination Sequence:
#
# PCOD9376969 Si02
#       7
#     8   8   4   8   8   8   4
#     4  11  23  42  67  97 132 178 232 281 338 413
#     4  11  22  41  66  96 131 170 220 275 336 406
#     4  10  24  44  70 100 136 180 224 290 360 412
#     4  10  23  44  64  96 137 178 230 283 345 417
#     4  10  22  39  63  92 129 175 219 269 326 399
#     4  11  25  43  69 101 135 181 229 284 350 417
#     4  12  24  44  70 100 140 180 222 284 360 424
#
# _framework density 22.885871000000002
#
# number of rings (size 3 to 8) (size 9 to 14) (size 15 to 20)
#    0.000    1.333    0.000    5.500    0.000    6.667 
#    0.000   18.333    0.000    0.000    0.000    0.000 
#    0.000    0.000    0.000    0.000    0.000    0.000 
#
# Total GULP energy -134000.072237 kJ/mol
# GULP energy per Si atom -5583.336343 kJ/mol
# Density = 2.283378 g / cm^3
# Si number density = 22.885871 Si / 1000 Ang^3
#
#
#
# Elastic Constant Matrix: (Units=GPa)
#
#
# Indices 1 2 3 4 5 6 
#
# 1 69.2880 51.7972 37.8241 0.0000 0.0000 0.0000
# 2 51.7972 119.4510 38.7200 0.0000 0.0000 0.0000
# 3 37.8241 38.7200 116.6946 0.0000 0.0000 0.0000
# 4 0.0000 0.0000 0.0000 27.9339 0.0000 0.0000
# 5 0.0000 0.0000 0.0000 0.0000 17.6737 0.0000
# 6 0.0000 0.0000 0.0000 0.0000 0.0000 48.9394
#
#
#
# Elastic Compliance Matrix: (Units=1/GPa)
#
#
# Indices 1 2 3 4 5 6 
#
# 1 0.023486 -0.008646 -0.004743 0.000000 0.000000 0.000000
# 2 -0.008646 0.012564 -0.001366 0.000000 0.000000 0.000000
# 3 -0.004743 -0.001366 0.010560 0.000000 0.000000 0.000000
# 4 0.000000 0.000000 0.000000 0.035799 0.000000 0.000000
# 5 0.000000 0.000000 0.000000 0.000000 0.056581 0.000000
# 6 0.000000 0.000000 0.000000 0.000000 0.000000 0.020433
#
#
# Mechanical properties :
#
#
# Convention : Reuss Voigt Hill
#
# Bulk Modulus (GPa) = 58.48800 62.45736 60.47268
# Shear Modulus (GPa) = 25.68917 30.71556 28.20236
#
# Velocity S-wave (km/s) = 3.35399 3.66747 3.51423
# Velocity P-wave (km/s) = 6.37267 6.72932 6.55342
#
# Compressibility (1/GPa) = 0.01709752
#
# Stress axis : x y z
#
# Youngs Moduli (GPa) = 42.57909 79.59370 94.69540
#
# Poissons Ratio (x) = 0.68820 0.44918
# Poissons Ratio (y) = 0.36816 0.12937
# Poissons Ratio (z) = 0.20197 0.10874
#
# Static dielectric constant tensor:
#      x y z
#    x 1.988030 0.000000 0.000000 
#    y 0.000000 1.854470 0.000000 
#    z 0.000000 0.000000 1.857110 
# 
# From -- ./inp_files/5636.got.cif
#   From: 2010.05.17/outbox.cif.g08.bks.cpg/sg45_3_cif.got.tgz:5636.got - 2010.06.03 19:51:22.
