data_PCOD9376905
_publ_section_title
;
Structure prediction by ZEFSAII (Michael W. Deem and Ramdas Pophale) SiO2 
 PCOD9376905
Probable space group: I B A 2
;
_chemical_formula_sum "Si O2"
_cell_formula_units_Z 48
_cell_length_a 13.297410
_cell_length_b 9.739901
_cell_length_c 15.834814
_cell_angle_alpha 90.000000
_cell_angle_beta 90.000000
_cell_angle_gamma 90.000000
_cell_volume 2050.853171
_symmetry_space_group_name_H-M "I B A 2"
_symmetry_group_IT_number 45
_symmetry_cell_setting 'orthorhombic'
loop_
_space_group_symop_operation_xyz
x,y,z
-x,-y,z
-x,y,1/2+z
x,-y,1/2+z
1/2+x,1/2+y,1/2+z
1/2-x,1/2-y,1/2+z
1/2-x,1/2+y,z
1/2+x,1/2-y,z
loop_
_atom_site_type_symbol
_atom_site_label
_atom_site_fract_x
_atom_site_fract_y
_atom_site_fract_z
Si Si1 0.711168 0.825925 0.731170
Si Si2 0.148911 0.953401 0.945912
Si Si3 0.676623 0.087245 0.828853
Si Si4 0.464762 0.270231 0.413865
Si Si5 0.404619 0.591040 0.640545
Si Si6 0.032721 0.343234 0.102751
O O1 0.753242 0.686053 0.771254
O O2 0.808838 0.908717 0.698892
O O3 0.633496 0.807058 0.654408
O O4 0.662353 0.934449 0.795156
O O5 0.261298 0.924782 0.916712
O O6 0.074165 0.838371 0.907727
O O7 0.111976 0.100765 0.912561
O O8 0.128154 0.952834 0.045996
O O9 0.572524 0.165058 0.844211
O O10 0.456872 0.197874 0.504812
O O11 0.500000 0.500000 0.667153
O O12 0.444211 0.746066 0.636118
O O13 0.000000 0.500000 0.111998
#
# Coordination Sequence:
#
# PCOD9376905 Si02
#       6
#     8   8   8   8   8   8
#     4  12  27  42  64 104 141 174 214 274 340 402
#     4  10  21  45  71  94 129 176 226 268 320 394
#     4  12  25  42  67 100 140 173 213 270 339 397
#     4  10  22  45  69  96 127 175 226 268 324 389
#     4  11  22  45  73  93 129 184 227 266 327 402
#     4  11  24  45  68 100 131 169 228 283 325 380
#
# _framework density 23.404893999999999
#
# number of rings (size 3 to 8) (size 9 to 14) (size 15 to 20)
#    0.000    1.000    5.000    3.000    0.000    6.667 
#    9.000    0.000    0.000    0.000    0.000    0.000 
#    0.000    0.000    0.000    0.000    0.000    0.000 
#
# Total GULP energy -134423.832895 kJ/mol
# GULP energy per Si atom -5600.993037 kJ/mol
# Density = 2.335162 g / cm^3
# Si number density = 23.404894 Si / 1000 Ang^3
#
#
#
# Elastic Constant Matrix: (Units=GPa)
#
#
# Indices 1 2 3 4 5 6 
#
# 1 60.8289 2.1580 20.5334 0.0000 0.0000 0.0000
# 2 2.1580 110.2957 12.0390 0.0000 0.0000 0.0000
# 3 20.5334 12.0390 37.5423 0.0000 0.0000 0.0000
# 4 0.0000 0.0000 0.0000 17.5173 0.0000 0.0000
# 5 0.0000 0.0000 0.0000 0.0000 24.0842 0.0000
# 6 0.0000 0.0000 0.0000 0.0000 0.0000 28.2637
#
#
#
# Elastic Compliance Matrix: (Units=1/GPa)
#
#
# Indices 1 2 3 4 5 6 
#
# 1 0.020237 0.000842 -0.011338 0.000000 0.000000 0.000000
# 2 0.000842 0.009430 -0.003484 0.000000 0.000000 0.000000
# 3 -0.011338 -0.003484 0.033955 0.000000 0.000000 0.000000
# 4 0.000000 0.000000 0.000000 0.057087 0.000000 0.000000
# 5 0.000000 0.000000 0.000000 0.000000 0.041521 0.000000
# 6 0.000000 0.000000 0.000000 0.000000 0.000000 0.035381
#
#
# Mechanical properties :
#
#
# Convention : Reuss Voigt Hill
#
# Bulk Modulus (GPa) = 28.04219 30.90308 29.47263
# Shear Modulus (GPa) = 21.05613 25.56882 23.31248
#
# Velocity S-wave (km/s) = 3.00266 3.30882 3.15945
# Velocity P-wave (km/s) = 4.90191 5.27542 5.09209
#
# Compressibility (1/GPa) = 0.03566055
#
# Stress axis : x y z
#
# Youngs Moduli (GPa) = 49.41423 106.04004 29.45037
#
# Poissons Ratio (x) = -0.08925 0.33392
# Poissons Ratio (y) = -0.04159 0.10262
# Poissons Ratio (z) = 0.56028 0.36949
#
# Static dielectric constant tensor:
#      x y z
#    x 1.850530 0.000000 0.000000 
#    y 0.000000 1.843420 0.000000 
#    z 0.000000 0.000000 1.902000 
# 
# From -- ./inp_files/7581.got.cif
#   From: 2010.05.17/outbox.cif.g08.bks.cpg/sg45_4_cif.got.tgz:7581.got - 2010.06.03 19:51:22.
