data_PCOD9376107
_publ_section_title
;
Structure prediction by ZEFSAII (Michael W. Deem and Ramdas Pophale) SiO2 
 PCOD9376107
Probable space group: I B A 2
;
_chemical_formula_sum "Si O2"
_cell_formula_units_Z 64
_cell_length_a 32.074284
_cell_length_b 13.125983
_cell_length_c 9.728169
_cell_angle_alpha 90.000000
_cell_angle_beta 90.000000
_cell_angle_gamma 90.000000
_cell_volume 4095.622446
_symmetry_space_group_name_H-M "I B A 2"
_symmetry_group_IT_number 45
_symmetry_cell_setting 'orthorhombic'
loop_
_space_group_symop_operation_xyz
x,y,z
-x,-y,z
-x,y,1/2+z
x,-y,1/2+z
1/2+x,1/2+y,1/2+z
1/2-x,1/2-y,1/2+z
1/2-x,1/2+y,z
1/2+x,1/2-y,z
loop_
_atom_site_type_symbol
_atom_site_label
_atom_site_fract_x
_atom_site_fract_y
_atom_site_fract_z
Si Si1 0.455836 0.380541 0.291510
Si Si2 0.311044 0.310704 0.166701
Si Si3 0.898112 0.876635 0.030499
Si Si4 0.549232 0.624562 0.796796
Si Si5 0.234676 0.404687 0.666292
Si Si6 0.237006 0.593479 0.490094
Si Si7 0.191834 0.808271 0.490247
Si Si8 0.897728 0.880534 0.543289
O O1 0.420182 0.340584 0.391563
O O2 0.455563 0.502451 0.319188
O O3 0.501990 0.337190 0.312966
O O4 0.438362 0.369168 0.139229
O O5 0.295735 0.193334 0.159764
O O6 0.307843 0.341131 0.328548
O O7 0.357420 0.328566 0.109311
O O8 0.279542 0.374260 0.069255
O O9 0.932622 0.859869 0.146340
O O10 0.888546 0.998286 0.029865
O O11 0.854479 0.821255 0.047222
O O12 0.585563 0.660260 0.898705
O O13 0.218705 0.500388 0.578316
O O14 0.242863 0.429338 0.827380
O O15 0.276639 0.371844 0.585439
O O16 0.207691 0.692531 0.495791
#
# Coordination Sequence:
#
# PCOD9376107 Si02
#       8
#     8   8   8   8   8   8   8   8
#     4   9  16  30  42  59  95 131 157 191 228 280
#     4  10  20  34  50  71  97 127 161 195 235 282
#     4  10  18  28  45  67  96 128 158 195 227 274
#     4   9  18  26  42  67  91 127 163 185 234 276
#     4  10  21  35  52  70  95 127 158 198 240 281
#     4  10  21  35  52  70  95 127 158 198 240 281
#     4  10  20  34  50  71  97 127 161 195 235 282
#     4  10  18  28  45  67  96 128 158 195 227 274
#
# _framework density 15.626440000000001
#
# number of rings (size 3 to 8) (size 9 to 14) (size 15 to 20)
#    0.000    2.250    1.250    2.250    1.750    4.000 
#    0.000    0.000    0.000    0.000    0.000    0.000 
#    0.000    6.000    0.000    0.000    0.000    0.000 
#
# Total GULP energy -178195.572671 kJ/mol
# GULP energy per Si atom -5568.611646 kJ/mol
# Density = 1.559087 g / cm^3
# Si number density = 15.626440 Si / 1000 Ang^3
#
#
#
# Elastic Constant Matrix: (Units=GPa)
#
#
# Indices 1 2 3 4 5 6 
#
# 1 86.0041 13.1948 7.2158 0.0000 0.0000 0.0000
# 2 13.1948 36.3203 24.0574 0.0000 0.0000 0.0000
# 3 7.2158 24.0574 64.7717 0.0000 0.0000 0.0000
# 4 0.0000 0.0000 0.0000 20.2204 0.0000 0.0000
# 5 0.0000 0.0000 0.0000 0.0000 66.2405 0.0000
# 6 0.0000 0.0000 0.0000 0.0000 0.0000 12.0990
#
#
#
# Elastic Compliance Matrix: (Units=1/GPa)
#
#
# Indices 1 2 3 4 5 6 
#
# 1 0.012321 -0.004731 0.000384 0.000000 0.000000 0.000000
# 2 -0.004731 0.038333 -0.013711 0.000000 0.000000 0.000000
# 3 0.000384 -0.013711 0.020488 0.000000 0.000000 0.000000
# 4 0.000000 0.000000 0.000000 0.049455 0.000000 0.000000
# 5 0.000000 0.000000 0.000000 0.000000 0.015097 0.000000
# 6 0.000000 0.000000 0.000000 0.000000 0.000000 0.082651
#
#
# Mechanical properties :
#
#
# Convention : Reuss Voigt Hill
#
# Bulk Modulus (GPa) = 28.54814 30.67025 29.60919
# Shear Modulus (GPa) = 18.78748 29.22052 24.00400
#
# Velocity S-wave (km/s) = 3.47116 4.32897 3.92358
# Velocity P-wave (km/s) = 5.86294 6.68255 6.28612
#
# Compressibility (1/GPa) = 0.03502856
#
# Stress axis : x y z
#
# Youngs Moduli (GPa) = 81.16297 26.08730 48.80824
#
# Poissons Ratio (x) = 0.12341 -0.01877
# Poissons Ratio (y) = 0.38396 0.66919
# Poissons Ratio (z) = -0.03121 0.35767
#
# Static dielectric constant tensor:
#      x y z
#    x 1.466140 0.000000 0.000000 
#    y 0.000000 1.513450 0.000000 
#    z 0.000000 0.000000 1.564690 
# 
# From -- ./inp_files/1499.got.cif
#   From: 2010.05.17/outbox.cif.g08.bks.cpg/sg45_1_cif.got.tgz:1499.got - 2010.06.03 19:51:22.
