data_PCOD9376022
_publ_section_title
;
Structure prediction by ZEFSAII (Michael W. Deem and Ramdas Pophale) SiO2 
 PCOD9376022
Probable space group: I M M 2
;
_chemical_formula_sum "Si O2"
_cell_formula_units_Z 24
_cell_length_a 9.000000
_cell_length_b 30.000000
_cell_length_c 9.000000
_cell_angle_alpha 90.000000
_cell_angle_beta 90.000000
_cell_angle_gamma 90.000000
_cell_volume 2430.000000
_symmetry_space_group_name_H-M "I M M 2"
_symmetry_group_IT_number 44
_symmetry_cell_setting 'orthorhombic'
loop_
_space_group_symop_operation_xyz
x,y,z
-x,-y,z
-x,y,z
x,-y,z
1/2+x,1/2+y,1/2+z
1/2-x,1/2-y,1/2+z
1/2-x,1/2+y,1/2+z
1/2+x,1/2-y,1/2+z
loop_
_atom_site_type_symbol
_atom_site_label
_atom_site_fract_x
_atom_site_fract_y
_atom_site_fract_z
Si Si1 0.331297 0.221842 0.079430
Si Si2 0.330218 0.381271 0.851944
Si Si3 0.166283 0.551393 0.037109
Si Si4 0.832174 0.299093 0.929449
Si Si5 0.327843 0.449829 0.345550
Si Si6 0.173254 0.378384 0.542597
O O1 0.500000 0.235997 0.042124
O O2 0.323654 0.215111 0.256516
O O3 0.305495 0.173664 0.004784
O O4 0.213511 0.257412 0.027178
O O5 0.500000 0.378351 0.803223
O O6 0.283768 0.338856 0.950025
O O7 0.218031 0.381650 0.714291
O O8 0.292588 0.424386 0.945285
O O9 0.160950 0.500000 0.993125
O O10 0.216994 0.553451 0.207188
O O11 0.000000 0.570480 0.016847
O O12 0.000000 0.313877 0.959947
O O13 0.500000 0.444661 0.299562
O O14 0.313260 0.500000 0.409258
O O15 0.279337 0.411679 0.456992
O O16 0.000000 0.389475 0.520854
#
# Coordination Sequence:
#
# PCOD9376022 Si02
#       6
#     8   8   8   8   8   8
#     4   9  20  37  55  79 109 141 180 224 270 321
#     4  11  22  37  58  82 111 145 183 229 277 326
#     4  10  21  38  59  82 110 145 184 226 274 328
#     4  10  21  37  57  81 110 143 181 224 271 327
#     4  10  21  37  57  83 114 146 183 227 273 323
#     4  10  21  38  58  81 112 147 185 228 273 326
#
# _framework density 9.8765429999999999
#
# number of rings (size 3 to 8) (size 9 to 14) (size 15 to 20)
#    0.000    2.000    0.000    4.500    0.000    8.000 
#    0.000    3.333    0.000    0.000    0.000    0.000 
#    0.000    0.000    0.000    0.000    0.000    0.000 
#
# Total GULP energy -133836.002352 kJ/mol
# GULP energy per Si atom -5576.500098 kJ/mol
# Density = 0.985406 g / cm^3
# Si number density = 9.876543 Si / 1000 Ang^3
#
#
#
# Elastic Constant Matrix: (Units=GPa)
#
#
# Indices 1 2 3 4 5 6 
#
# 1 56.4528 15.8281 -4.0825 0.0008 -0.0001 0.0000
# 2 15.8281 42.5073 17.3504 0.0006 0.0000 0.0000
# 3 -4.0825 17.3504 1.0318 0.0012 0.0005 -0.0005
# 4 0.0008 0.0006 0.0012 17.7683 0.0000 -0.0001
# 5 -0.0001 0.0000 0.0005 0.0000 26.6089 0.0000
# 6 0.0000 0.0000 -0.0005 -0.0001 0.0000 32.4926
#
#
#
# Elastic Compliance Matrix: (Units=1/GPa)
#
#
# Indices 1 2 3 4 5 6 
#
# 1 0.014507 0.004917 -0.025280 0.000001 0.000001 0.000000
# 2 0.004917 -0.002346 0.058897 -0.000004 -0.000001 0.000001
# 3 -0.025280 0.058897 -0.121231 0.000007 0.000002 -0.000002
# 4 0.000001 -0.000004 0.000007 0.056280 0.000000 0.000000
# 5 0.000001 -0.000001 0.000002 0.000000 0.037581 0.000000
# 6 0.000000 0.000001 -0.000002 0.000000 0.000000 0.030776
#
#
# Mechanical properties :
#
#
# Convention : Reuss Voigt Hill
#
# Bulk Modulus (GPa) = -31.24743 17.57600 -6.83571
# Shear Modulus (GPa) = -69.28484 20.10035 -24.59225
#
# Velocity S-wave (km/s) = -5.92888 3.19341 -3.53226
# Velocity P-wave (km/s) = 7.91973 4.74493 4.48374
#
# Compressibility (1/GPa) = -0.03200263
#
# Stress axis : x y z
#
# Youngs Moduli (GPa) = 68.93155 -426.31582 -8.24873
#
# Poissons Ratio (x) = 2.09615 -0.20853
# Poissons Ratio (y) = -0.33893 0.48582
# Poissons Ratio (z) = 1.74261 25.10862
#
# Static dielectric constant tensor:
#      x y z
#    x 1.661990 0.000000 0.000000 
#    y 0.000000 1.718030 0.000000 
#    z 0.000000 0.000000 1.677510 
# 
# From -- ./inp_files/4874.got.cif
#   From: 2010.05.17/outbox.ucp.g08.bks.cvg/sg44_3_cif.got.tgz:4874.got - 2010.06.11 16:32:36.
