data_PCOD9376656
_publ_section_title
;
Structure prediction by ZEFSAII (Michael W. Deem and Ramdas Pophale) SiO2 
 PCOD9376656
Probable space group: I B A 2
;
_chemical_formula_sum "Si O2"
_cell_formula_units_Z 64
_cell_length_a 37.112670
_cell_length_b 5.151432
_cell_length_c 18.054959
_cell_angle_alpha 90.000000
_cell_angle_beta 90.000000
_cell_angle_gamma 90.000000
_cell_volume 3451.808373
_symmetry_space_group_name_H-M "I B A 2"
_symmetry_group_IT_number 45
_symmetry_cell_setting 'orthorhombic'
loop_
_space_group_symop_operation_xyz
x,y,z
-x,-y,z
-x,y,1/2+z
x,-y,1/2+z
1/2+x,1/2+y,1/2+z
1/2-x,1/2-y,1/2+z
1/2-x,1/2+y,z
1/2+x,1/2-y,z
loop_
_atom_site_type_symbol
_atom_site_label
_atom_site_fract_x
_atom_site_fract_y
_atom_site_fract_z
Si Si1 0.043099 0.500571 0.180260
Si Si2 0.330738 0.921374 0.525984
Si Si3 0.669262 0.578626 0.432990
Si Si4 0.272870 0.254806 0.141433
Si Si5 0.583380 0.411444 0.932016
Si Si6 0.543099 0.499429 0.778714
Si Si7 0.772870 0.745194 0.817541
Si Si8 0.416620 0.911444 0.526958
O O1 0.052085 0.750000 0.229487
O O2 0.063132 0.519916 0.102311
O O3 0.000000 0.500000 0.167213
O O4 0.052349 0.250000 0.229487
O O5 0.322413 0.709358 0.462140
O O6 0.307623 0.831690 0.595823
O O7 0.373546 0.913760 0.540382
O O8 0.322413 0.209358 0.496835
O O9 0.626454 0.586240 0.418592
O O10 0.692377 0.668310 0.363151
O O11 0.257764 0.540023 0.123838
O O12 0.279764 0.250000 0.229487
O O13 0.563132 0.480084 0.856663
O O14 0.574544 0.629823 0.993437
O O15 0.574544 0.129823 0.965538
O O16 0.500000 0.500000 0.791761
O O17 0.757764 0.459977 0.835137
#
# Coordination Sequence:
#
# PCOD9376656 Si02
#       8
#     8   8   8   8   8   8   8   8
#     4  10  21  37  57  83 113 144 182 225 268 321
#     4  10  21  36  54  78 106 137 176 219 262 313
#     4  10  21  36  54  78 106 137 176 219 262 313
#     4  10  21  36  53  76 105 136 174 218 263 314
#     4  10  21  37  56  81 112 144 182 226 271 324
#     4  10  21  37  57  83 113 144 182 225 268 321
#     4  10  21  36  53  76 105 136 174 218 263 314
#     4  10  21  37  56  81 112 144 182 226 271 324
#
# _framework density 18.541005999999999
#
# number of rings (size 3 to 8) (size 9 to 14) (size 15 to 20)
#    0.000    2.000    0.000    3.000    0.000    5.000 
#    0.000    3.750    0.000    0.000    0.000    0.000 
#    0.000    0.000    0.000    0.000    0.000    0.000 
#
# Total GULP energy -178694.422507 kJ/mol
# GULP energy per Si atom -5584.200703 kJ/mol
# Density = 1.849881 g / cm^3
# Si number density = 18.541006 Si / 1000 Ang^3
#
#
#
# Elastic Constant Matrix: (Units=GPa)
#
#
# Indices 1 2 3 4 5 6 
#
# 1 44.7367 31.3013 62.7900 0.0000 0.0000 0.0000
# 2 31.3013 108.0343 36.4841 0.0000 0.0000 0.0000
# 3 62.7900 36.4841 103.9731 0.0000 0.0000 0.0000
# 4 0.0000 0.0000 0.0000 21.1000 0.0000 0.0000
# 5 0.0000 0.0000 0.0000 0.0000 62.5336 0.0000
# 6 0.0000 0.0000 0.0000 0.0000 0.0000 3468.5560
#
#
#
# Elastic Compliance Matrix: (Units=1/GPa)
#
#
# Indices 1 2 3 4 5 6 
#
# 1 0.169049 -0.016453 -0.096317 0.000000 0.000000 0.000000
# 2 -0.016453 0.012102 0.005689 0.000000 0.000000 0.000000
# 3 -0.096317 0.005689 0.065788 0.000000 0.000000 0.000000
# 4 0.000000 0.000000 0.000000 0.047393 0.000000 0.000000
# 5 0.000000 0.000000 0.000000 0.000000 0.015991 0.000000
# 6 0.000000 0.000000 0.000000 0.000000 0.000000 0.000288
#
#
# Mechanical properties :
#
#
# Convention : Reuss Voigt Hill
#
# Bulk Modulus (GPa) = 30.50736 57.54387 44.02562
# Shear Modulus (GPa) = 9.33360 718.84915 364.09138
#
# Velocity S-wave (km/s) = 2.24610 19.71166 14.02844
# Velocity P-wave (km/s) = 4.81833 23.43436 16.91723
#
# Compressibility (1/GPa) = 0.03277898
#
# Stress axis : x y z
#
# Youngs Moduli (GPa) = 5.91543 82.63162 15.20041
#
# Poissons Ratio (x) = 1.35951 1.46405
# Poissons Ratio (y) = 0.09732 -0.08648
# Poissons Ratio (z) = 0.56975 -0.47011
#
# Static dielectric constant tensor:
#      x y z
#    x 1.617000 0.000000 0.000000 
#    y 0.000000 1.631170 0.000000 
#    z 0.000000 0.000000 1.607910 
# 
# From -- ./inp_files/8576.got.cif
#   From: 2010.05.17/outbox.cif.g08.bks.cpg/sg45_5_cif.got.tgz:8576.got - 2010.06.03 19:51:22.
