data_PCOD9376327
_publ_section_title
;
Structure prediction by ZEFSAII (Michael W. Deem and Ramdas Pophale) SiO2 
 PCOD9376327
Probable space group: I B A 2
;
_chemical_formula_sum "Si O2"
_cell_formula_units_Z 64
_cell_length_a 14.857455
_cell_length_b 19.130296
_cell_length_c 9.984692
_cell_angle_alpha 90.000000
_cell_angle_beta 90.000000
_cell_angle_gamma 90.000000
_cell_volume 2837.924165
_symmetry_space_group_name_H-M "I B A 2"
_symmetry_group_IT_number 45
_symmetry_cell_setting 'orthorhombic'
loop_
_space_group_symop_operation_xyz
x,y,z
-x,-y,z
-x,y,1/2+z
x,-y,1/2+z
1/2+x,1/2+y,1/2+z
1/2-x,1/2-y,1/2+z
1/2-x,1/2+y,z
1/2+x,1/2-y,z
loop_
_atom_site_type_symbol
_atom_site_label
_atom_site_fract_x
_atom_site_fract_y
_atom_site_fract_z
Si Si1 0.794167 0.500226 0.100840
Si Si2 0.687278 0.498561 0.349951
Si Si3 0.378950 0.720751 0.692175
Si Si4 0.594924 0.874440 0.224116
Si Si5 0.903169 0.777692 0.156657
Si Si6 0.918158 0.631179 0.039636
Si Si7 0.368894 0.655946 0.415993
Si Si8 0.082078 0.876291 0.429552
O O1 0.708437 0.513939 0.195797
O O2 0.846940 0.440549 0.180858
O O3 0.852922 0.569559 0.085952
O O4 0.765551 0.476897 0.952252
O O5 0.677520 0.416344 0.376785
O O6 0.602727 0.543944 0.397266
O O7 0.352064 0.801308 0.706704
O O8 0.488309 0.724792 0.675604
O O9 0.341177 0.685415 0.559131
O O10 0.367206 0.671592 0.819954
O O11 0.566608 0.875891 0.380246
O O12 0.509631 0.875215 0.124807
O O13 0.880182 0.708068 0.075128
O O14 0.859211 0.785794 0.301282
O O15 0.885263 0.847923 0.072577
O O16 0.475850 0.638831 0.421880
#
# Coordination Sequence:
#
# PCOD9376327 Si02
#       8
#     8   8   8   8   8   8   8   8
#     4  12  27  44  61  90 138 170 212 262 313 384
#     4  12  25  42  61  92 134 180 214 258 317 376
#     4   9  19  36  65  96 126 155 210 275 320 369
#     4  11  24  44  71  98 124 162 213 266 325 389
#     4   9  19  36  65  96 126 155 210 275 320 369
#     4  11  24  44  71  98 124 162 213 266 325 389
#     4  10  21  39  64  99 126 167 219 264 310 376
#     4  10  19  39  66  93 126 169 215 266 318 372
#
# _framework density 22.551694999999999
#
# number of rings (size 3 to 8) (size 9 to 14) (size 15 to 20)
#    0.000    1.500    2.500    2.250    7.000    1.000 
#    0.000   12.500    0.000    0.000    0.000    0.000 
#    0.000    0.000    0.000    0.000    0.000    0.000 
#
# Total GULP energy -178965.589746 kJ/mol
# GULP energy per Si atom -5592.674680 kJ/mol
# Density = 2.250037 g / cm^3
# Si number density = 22.551695 Si / 1000 Ang^3
#
#
#
# Elastic Constant Matrix: (Units=GPa)
#
#
# Indices 1 2 3 4 5 6 
#
# 1 37.2013 6.9701 5.7527 0.0000 0.0000 0.0000
# 2 6.9701 85.6227 17.7850 0.0000 0.0000 0.0000
# 3 5.7527 17.7850 112.8843 0.0000 0.0000 0.0000
# 4 0.0000 0.0000 0.0000 36.4231 0.0000 0.0000
# 5 0.0000 0.0000 0.0000 0.0000 23.7110 0.0000
# 6 0.0000 0.0000 0.0000 0.0000 0.0000 0.2116
#
#
#
# Elastic Compliance Matrix: (Units=1/GPa)
#
#
# Indices 1 2 3 4 5 6 
#
# 1 0.027424 -0.002008 -0.001081 0.000000 0.000000 0.000000
# 2 -0.002008 0.012221 -0.001823 0.000000 0.000000 0.000000
# 3 -0.001081 -0.001823 0.009201 0.000000 0.000000 0.000000
# 4 0.000000 0.000000 0.000000 0.027455 0.000000 0.000000
# 5 0.000000 0.000000 0.000000 0.000000 0.042174 0.000000
# 6 0.000000 0.000000 0.000000 0.000000 0.000000 4.725639
#
#
# Mechanical properties :
#
#
# Convention : Reuss Voigt Hill
#
# Bulk Modulus (GPa) = 25.62661 32.96931 29.29796
# Shear Modulus (GPa) = 1.02734 25.74919 13.38826
#
# Velocity S-wave (km/s) = 0.67568 3.38270 2.43918
# Velocity P-wave (km/s) = 3.46365 5.46882 4.57738
#
# Compressibility (1/GPa) = 0.03902194
#
# Stress axis : x y z
#
# Youngs Moduli (GPa) = 36.46422 81.82443 108.68420
#
# Poissons Ratio (x) = 0.16429 0.11751
# Poissons Ratio (y) = 0.07322 0.19815
# Poissons Ratio (z) = 0.03943 0.14918
#
# Static dielectric constant tensor:
#      x y z
#    x 1.858730 0.000000 0.000000 
#    y 0.000000 1.816770 0.000000 
#    z 0.000000 0.000000 1.808870 
# 
# From -- ./inp_files/2390.got.cif
#   From: 2010.05.17/outbox.cif.g08.bks.cpg/sg45_2_cif.got.tgz:2390.got - 2010.06.03 19:51:22.
