data_PCOD9376263
_publ_section_title
;
Structure prediction by ZEFSAII (Michael W. Deem and Ramdas Pophale) SiO2 
 PCOD9376263
Probable space group: I B A 2
;
_chemical_formula_sum "Si O2"
_cell_formula_units_Z 60
_cell_length_a 33.647325
_cell_length_b 5.376861
_cell_length_c 13.594801
_cell_angle_alpha 90.000000
_cell_angle_beta 90.000000
_cell_angle_gamma 90.000000
_cell_volume 2459.530470
_symmetry_space_group_name_H-M "I B A 2"
_symmetry_group_IT_number 45
_symmetry_cell_setting 'orthorhombic'
loop_
_space_group_symop_operation_xyz
x,y,z
-x,-y,z
-x,y,1/2+z
x,-y,1/2+z
1/2+x,1/2+y,1/2+z
1/2-x,1/2-y,1/2+z
1/2-x,1/2+y,z
1/2+x,1/2-y,z
loop_
_atom_site_type_symbol
_atom_site_label
_atom_site_fract_x
_atom_site_fract_y
_atom_site_fract_z
Si Si1 0.230280 0.353301 0.005550
Si Si2 0.894379 0.865746 0.485027
Si Si3 0.483650 0.248617 0.958699
Si Si4 0.909624 0.892850 0.716803
Si Si5 0.365906 0.111235 0.733012
Si Si6 0.772818 0.374604 0.744796
Si Si7 0.500000 0.500000 0.767537
Si Si8 0.142043 0.634807 0.494395
O O1 0.240366 0.633409 0.974999
O O2 0.229984 0.363240 0.124952
O O3 0.186436 0.278621 0.973386
O O4 0.937006 0.764211 0.456176
O O5 0.864469 0.645213 0.457962
O O6 0.896122 0.882358 0.603450
O O7 0.886493 0.148841 0.455146
O O8 0.500000 0.500000 0.008218
O O9 0.497406 0.273486 0.845989
O O10 0.500000 0.000000 0.006301
O O11 0.887099 0.130893 0.762791
O O12 0.893340 0.628328 0.757107
O O13 0.957037 0.951028 0.718667
O O14 0.319818 0.097263 0.765925
O O15 0.363358 0.120272 0.612876
O O16 0.747770 0.616645 0.776951
#
# Coordination Sequence:
#
# PCOD9376263 Si02
#       8
#     8   8   8   8   8   8   4   8
#     4   9  15  23  38  65 101 140 166 197 247 306
#     4  10  19  35  53  76 101 138 174 217 261 310
#     4  10  23  39  56  76 103 134 169 229 260 314
#     4  10  21  34  54  76 106 140 175 218 268 313
#     4   9  18  31  46  74 108 137 173 216 258 309
#     4   9  15  24  42  66 100 141 171 197 249 313
#     4  10  26  38  58  76 108 138 182 222 274 320
#     4   9  17  29  47  72 104 137 174 210 253 309
#
# _framework density 24.394898000000001
#
# number of rings (size 3 to 8) (size 9 to 14) (size 15 to 20)
#    0.400    2.133    0.000    2.400    2.800    6.400 
#    0.000    0.000    0.000    0.000    0.000    0.000 
#    0.000   21.333    0.000    0.000    0.000    0.000 
#
# Total GULP energy -167627.381318 kJ/mol
# GULP energy per Si atom -5587.579377 kJ/mol
# Density = 2.433937 g / cm^3
# Si number density = 24.394898 Si / 1000 Ang^3
#
#
#
# Elastic Constant Matrix: (Units=GPa)
#
#
# Indices 1 2 3 4 5 6 
#
# 1 141.8704 83.1070 3.0793 0.0000 0.0000 0.0000
# 2 83.1070 196.2066 33.1885 0.0000 0.0000 0.0000
# 3 3.0793 33.1885 65.2794 0.0000 0.0000 0.0000
# 4 0.0000 0.0000 0.0000 66.8853 0.0000 0.0000
# 5 0.0000 0.0000 0.0000 0.0000 15.1479 0.0000
# 6 0.0000 0.0000 0.0000 0.0000 0.0000 24.7809
#
#
#
# Elastic Compliance Matrix: (Units=1/GPa)
#
#
# Indices 1 2 3 4 5 6 
#
# 1 0.009556 -0.004345 0.001758 0.000000 0.000000 0.000000
# 2 -0.004345 0.007552 -0.003634 0.000000 0.000000 0.000000
# 3 0.001758 -0.003634 0.017084 0.000000 0.000000 0.000000
# 4 0.000000 0.000000 0.000000 0.014951 0.000000 0.000000
# 5 0.000000 0.000000 0.000000 0.000000 0.066016 0.000000
# 6 0.000000 0.000000 0.000000 0.000000 0.000000 0.040354
#
#
# Mechanical properties :
#
#
# Convention : Reuss Voigt Hill
#
# Bulk Modulus (GPa) = 45.97928 71.34511 58.66220
# Shear Modulus (GPa) = 28.53822 40.29493 34.41657
#
# Velocity S-wave (km/s) = 3.42401 4.06861 3.76015
# Velocity P-wave (km/s) = 5.87542 7.16805 6.55368
#
# Compressibility (1/GPa) = 0.02174893
#
# Stress axis : x y z
#
# Youngs Moduli (GPa) = 104.64892 132.41851 58.53561
#
# Poissons Ratio (x) = 0.57535 -0.10292
# Poissons Ratio (y) = 0.45469 0.21274
# Poissons Ratio (z) = -0.18400 0.48127
#
# Static dielectric constant tensor:
#      x y z
#    x 1.421310 0.000000 0.000000 
#    y 0.000000 1.876130 0.000000 
#    z 0.000000 0.000000 2.045390 
# 
# From -- ./inp_files/8561.got.cif
#   From: 2010.05.17/outbox.cif.g08.bks.cpg/sg45_5_cif.got.tgz:8561.got - 2010.06.03 19:51:22.
