data_PCOD9376123
_publ_section_title
;
Structure prediction by ZEFSAII (Michael W. Deem and Ramdas Pophale) SiO2 
 PCOD9376123
Probable space group: I B A 2
;
_chemical_formula_sum "Si O2"
_cell_formula_units_Z 52
_cell_length_a 12.035827
_cell_length_b 14.263229
_cell_length_c 13.483182
_cell_angle_alpha 90.000000
_cell_angle_beta 90.000000
_cell_angle_gamma 90.000000
_cell_volume 2314.654574
_symmetry_space_group_name_H-M "I B A 2"
_symmetry_group_IT_number 45
_symmetry_cell_setting 'orthorhombic'
loop_
_space_group_symop_operation_xyz
x,y,z
-x,-y,z
-x,y,1/2+z
x,-y,1/2+z
1/2+x,1/2+y,1/2+z
1/2-x,1/2-y,1/2+z
1/2-x,1/2+y,z
1/2+x,1/2-y,z
loop_
_atom_site_type_symbol
_atom_site_label
_atom_site_fract_x
_atom_site_fract_y
_atom_site_fract_z
Si Si1 0.153217 0.827191 0.900240
Si Si2 0.165021 0.688317 0.247254
Si Si3 0.500000 0.500000 0.658105
Si Si4 0.926817 0.115918 0.474565
Si Si5 0.911472 0.345760 0.763990
Si Si6 0.310048 0.585168 0.793250
Si Si7 0.708846 0.239564 0.074504
O O1 0.245486 0.857514 0.821130
O O2 0.115968 0.725938 0.854677
O O3 0.038551 0.881565 0.910841
O O4 0.207563 0.822562 0.009323
O O5 0.163655 0.802006 0.272791
O O6 0.214233 0.687470 0.135798
O O7 0.043192 0.645619 0.258309
O O8 0.544817 0.578014 0.582374
O O9 0.396218 0.533387 0.722717
O O10 0.837852 0.063339 0.407175
O O11 0.872510 0.216088 0.493921
O O12 0.820960 0.427918 0.775909
O O13 0.869443 0.302888 0.659263
#
# Coordination Sequence:
#
# PCOD9376123 Si02
#       7
#     8   8   4   8   8   8   8
#     4  10  18  32  57  85 120 142 185 251 310 351
#     4  10  20  34  59  91 117 148 181 258 322 359
#     4  12  26  36  56  82 118 166 204 238 278 358
#     4  12  21  37  57  87 117 155 199 241 295 362
#     4  10  18  34  56  85 121 147 187 250 317 366
#     4  10  21  38  55  85 120 154 195 248 299 353
#     4  10  18  31  54  88 115 148 186 242 312 356
#
# _framework density 22.465554999999998
#
# number of rings (size 3 to 8) (size 9 to 14) (size 15 to 20)
#    0.000    1.846    4.615    4.154    2.154    0.000 
#    0.000    0.000    0.000    0.923    0.000    0.000 
#    0.000    0.000    0.000    0.000    0.000    0.000 
#
# Total GULP energy -145083.691438 kJ/mol
# GULP energy per Si atom -5580.141978 kJ/mol
# Density = 2.241442 g / cm^3
# Si number density = 22.465555 Si / 1000 Ang^3
#
#
#
# Elastic Constant Matrix: (Units=GPa)
#
#
# Indices 1 2 3 4 5 6 
#
# 1 201.0920 18.0798 45.7000 0.0000 0.0000 0.0000
# 2 18.0798 28.3713 -2.1363 0.0000 0.0000 0.0000
# 3 45.7000 -2.1363 101.3241 0.0000 0.0000 0.0000
# 4 0.0000 0.0000 0.0000 18.2110 0.0000 0.0000
# 5 0.0000 0.0000 0.0000 0.0000 36.7941 0.0000
# 6 0.0000 0.0000 0.0000 0.0000 0.0000 21.1166
#
#
#
# Elastic Compliance Matrix: (Units=1/GPa)
#
#
# Indices 1 2 3 4 5 6 
#
# 1 0.005964 -0.004009 -0.002774 0.000000 0.000000 0.000000
# 2 -0.004009 0.037998 0.002609 0.000000 0.000000 0.000000
# 3 -0.002774 0.002609 0.011176 0.000000 0.000000 0.000000
# 4 0.000000 0.000000 0.000000 0.054912 0.000000 0.000000
# 5 0.000000 0.000000 0.000000 0.000000 0.027178 0.000000
# 6 0.000000 0.000000 0.000000 0.000000 0.000000 0.047356
#
#
# Mechanical properties :
#
#
# Convention : Reuss Voigt Hill
#
# Bulk Modulus (GPa) = 21.37243 50.45272 35.91258
# Shear Modulus (GPa) = 23.97748 33.16726 28.57237
#
# Velocity S-wave (km/s) = 3.27050 3.84651 3.57014
# Velocity P-wave (km/s) = 4.87808 6.49878 5.74586
#
# Compressibility (1/GPa) = 0.04678924
#
# Stress axis : x y z
#
# Youngs Moduli (GPa) = 167.67748 26.31694 89.48014
#
# Poissons Ratio (x) = 0.10551 0.24825
# Poissons Ratio (y) = 0.67228 -0.23350
# Poissons Ratio (z) = 0.46520 -0.06867
#
# Static dielectric constant tensor:
#      x y z
#    x 1.851020 0.000000 0.000000 
#    y 0.000000 2.028600 0.000000 
#    z 0.000000 0.000000 1.814640 
# 
# From -- ./inp_files/6229.got.cif
#   From: 2010.05.17/outbox.cif.g08.bks.cpg/sg45_4_cif.got.tgz:6229.got - 2010.06.03 19:51:22.
