data_PCOD9376633
_publ_section_title
;
Structure prediction by ZEFSAII (Michael W. Deem and Ramdas Pophale) SiO2 
 PCOD9376633
Probable space group: I B A 2
;
_chemical_formula_sum "Si O2"
_cell_formula_units_Z 64
_cell_length_a 9.906907
_cell_length_b 29.572695
_cell_length_c 9.148474
_cell_angle_alpha 90.000000
_cell_angle_beta 90.000000
_cell_angle_gamma 90.000000
_cell_volume 2680.264465
_symmetry_space_group_name_H-M "I B A 2"
_symmetry_group_IT_number 45
_symmetry_cell_setting 'orthorhombic'
loop_
_space_group_symop_operation_xyz
x,y,z
-x,-y,z
-x,y,1/2+z
x,-y,1/2+z
1/2+x,1/2+y,1/2+z
1/2-x,1/2-y,1/2+z
1/2-x,1/2+y,z
1/2+x,1/2-y,z
loop_
_atom_site_type_symbol
_atom_site_label
_atom_site_fract_x
_atom_site_fract_y
_atom_site_fract_z
Si Si1 0.468911 0.221852 0.859350
Si Si2 0.883570 0.155804 0.459121
Si Si3 0.290685 0.503382 0.324922
Si Si4 0.201547 0.658289 0.679561
Si Si5 0.430312 0.559212 0.069676
Si Si6 0.675734 0.796489 0.152251
Si Si7 0.758382 0.438846 0.578291
Si Si8 0.320255 0.688090 0.400575
O O1 0.421206 0.177961 0.770751
O O2 0.607947 0.235456 0.779483
O O3 0.373164 0.264722 0.835772
O O4 0.440096 0.208471 0.027109
O O5 0.818412 0.151761 0.299339
O O6 0.868668 0.108599 0.543600
O O7 0.806331 0.196085 0.545209
O O8 0.042226 0.162843 0.438785
O O9 0.378850 0.535116 0.217060
O O10 0.377003 0.471778 0.435708
O O11 0.204364 0.535677 0.429875
O O12 0.210689 0.470025 0.217685
O O13 0.182440 0.610738 0.599572
O O14 0.245394 0.693287 0.554099
O O15 0.592905 0.563635 0.073540
O O16 0.725151 0.833122 0.276735
#
# Coordination Sequence:
#
# PCOD9376633 Si02
#       8
#     8   8   8   8   8   8   8   8
#     4  11  27  47  69  95 136 182 246 296 367 427
#     4  11  25  40  65 101 142 177 235 289 360 432
#     4  10  21  31  55  88 141 192 224 279 356 447
#     4  11  24  42  64  97 136 182 237 300 351 438
#     4  11  19  35  54  94 139 186 227 277 359 435
#     4  11  27  46  69  99 132 185 233 301 354 426
#     4  11  19  33  55  89 136 183 226 281 350 430
#     4  12  25  42  71  98 135 179 235 303 369 424
#
# _framework density 23.878240000000002
#
# number of rings (size 3 to 8) (size 9 to 14) (size 15 to 20)
#    0.000    1.000    2.500    5.250    8.750    0.000 
#    0.000    0.000    0.000    0.000    0.000    5.250 
#    0.000    0.000    0.000    0.000    0.000    0.000 
#
# Total GULP energy -178412.848727 kJ/mol
# GULP energy per Si atom -5575.401523 kJ/mol
# Density = 2.382389 g / cm^3
# Si number density = 23.878240 Si / 1000 Ang^3
#
#
#
# Elastic Constant Matrix: (Units=GPa)
#
#
# Indices 1 2 3 4 5 6 
#
# 1 55.9421 30.9294 31.5623 -0.0002 -0.0002 0.0010
# 2 30.9294 122.2130 40.9012 -0.0017 -0.0005 0.0008
# 3 31.5623 40.9012 177.1383 0.0015 -0.0037 -0.0051
# 4 -0.0002 -0.0017 0.0015 35.1487 -0.0003 -0.0015
# 5 -0.0002 -0.0005 -0.0037 -0.0003 40.5198 0.0000
# 6 0.0010 0.0008 -0.0051 -0.0015 0.0000 17.2677
#
#
#
# Elastic Compliance Matrix: (Units=1/GPa)
#
#
# Indices 1 2 3 4 5 6 
#
# 1 0.022045 -0.004622 -0.002861 0.000000 0.000000 -0.000002
# 2 -0.004622 0.009837 -0.001448 0.000001 0.000000 -0.000001
# 3 -0.002861 -0.001448 0.006489 0.000000 0.000001 0.000002
# 4 0.000000 0.000001 0.000000 0.028451 0.000000 0.000002
# 5 0.000000 0.000000 0.000001 0.000000 0.024679 0.000000
# 6 -0.000002 -0.000001 0.000002 0.000002 0.000000 0.057912
#
#
# Mechanical properties :
#
#
# Convention : Reuss Voigt Hill
#
# Bulk Modulus (GPa) = 48.75580 62.45323 55.60451
# Shear Modulus (GPa) = 28.71752 35.38060 32.04906
#
# Velocity S-wave (km/s) = 3.47171 3.85347 3.66756
# Velocity P-wave (km/s) = 6.04427 6.78312 6.42432
#
# Compressibility (1/GPa) = 0.02051038
#
# Stress axis : x y z
#
# Youngs Moduli (GPa) = 45.36191 101.66102 154.09902
#
# Poissons Ratio (x) = 0.46984 0.44085
# Poissons Ratio (y) = 0.20965 0.22310
# Poissons Ratio (z) = 0.12977 0.14718
#
# Static dielectric constant tensor:
#      x y z
#    x 2.096640 -0.000010 0.000000 
#    y -0.000010 1.999330 0.000000 
#    z 0.000000 0.000000 1.954920 
# 
# From -- ./inp_files/1509.got.cif
#   From: 2010.05.17/outbox.cif.g08.bks.cpg/sg45_1_cif.got.tgz:1509.got - 2010.06.03 19:51:22.
