data_PCOD9376114
_publ_section_title
;
Structure prediction by ZEFSAII (Michael W. Deem and Ramdas Pophale) SiO2 
 PCOD9376114
Probable space group: I B A 2
;
_chemical_formula_sum "Si O2"
_cell_formula_units_Z 56
_cell_length_a 19.388986
_cell_length_b 27.161146
_cell_length_c 5.444378
_cell_angle_alpha 90.000000
_cell_angle_beta 90.000000
_cell_angle_gamma 90.000000
_cell_volume 2867.156886
_symmetry_space_group_name_H-M "I B A 2"
_symmetry_group_IT_number 45
_symmetry_cell_setting 'orthorhombic'
loop_
_space_group_symop_operation_xyz
x,y,z
-x,-y,z
-x,y,1/2+z
x,-y,1/2+z
1/2+x,1/2+y,1/2+z
1/2-x,1/2-y,1/2+z
1/2-x,1/2+y,z
1/2+x,1/2-y,z
loop_
_atom_site_type_symbol
_atom_site_label
_atom_site_fract_x
_atom_site_fract_y
_atom_site_fract_z
Si Si1 0.118047 0.722355 0.647110
Si Si2 0.543755 0.323033 0.147109
Si Si3 0.782843 0.801496 0.647110
Si Si4 0.195286 0.972569 0.647109
Si Si5 0.955803 0.936391 0.147109
Si Si6 0.269163 0.641758 0.147110
Si Si7 0.869052 0.698443 0.647110
O O1 0.097074 0.778841 0.647110
O O2 0.201776 0.714645 0.647110
O O3 0.090793 0.698363 0.399314
O O4 0.090793 0.698363 0.894906
O O5 0.500000 0.317828 0.397109
O O6 0.569355 0.379297 0.147109
O O7 0.795300 0.833610 0.402471
O O8 0.828184 0.751772 0.647110
O O9 0.795300 0.833610 0.891749
O O10 0.111745 0.969555 0.647109
O O11 0.220513 0.916337 0.647110
O O12 0.216755 1.000000 0.397109
O O13 1.000000 0.942862 0.397110
O O14 0.188441 0.656526 0.147110
#
# Coordination Sequence:
#
# PCOD9376114 Si02
#       7
#     8   8   8   8   8   8   8
#     4  10  18  30  47  71 104 125 159 193 228 300
#     4  10  21  35  48  72 100 134 169 202 255 298
#     4  10  19  30  51  81  95 125 149 187 255 306
#     4  12  26  40  55  73  90 130 175 216 277 308
#     4  10  23  39  54  70  87 121 173 231 274 301
#     4  10  20  35  49  72 104 116 152 203 248 308
#     4  10  19  29  50  81  96 124 151 187 254 304
#
# _framework density 19.531545000000001
#
# number of rings (size 3 to 8) (size 9 to 14) (size 15 to 20)
#    0.000    1.714    0.000    6.857    6.000    1.714 
#    0.000    0.000    0.000    0.000    0.000    0.000 
#    0.000    0.000    0.000    0.000    0.000  800.000 
#
# Total GULP energy -156517.394807 kJ/mol
# GULP energy per Si atom -5589.906957 kJ/mol
# Density = 1.948709 g / cm^3
# Si number density = 19.531545 Si / 1000 Ang^3
#
#
#
# Elastic Constant Matrix: (Units=GPa)
#
#
# Indices 1 2 3 4 5 6 
#
# 1 23.7632 32.0355 26.5240 0.0000 0.0000 0.0000
# 2 32.0355 128.7989 63.4169 0.0000 0.0000 0.0000
# 3 26.5240 63.4169 218.7683 0.0000 0.0000 0.0000
# 4 0.0000 0.0000 0.0000 28.3713 0.0000 0.0000
# 5 0.0000 0.0000 0.0000 0.0000 10.2451 0.0000
# 6 0.0000 0.0000 0.0000 0.0000 0.0000 31.9309
#
#
#
# Elastic Compliance Matrix: (Units=1/GPa)
#
#
# Indices 1 2 3 4 5 6 
#
# 1 0.065881 -0.014527 -0.003776 0.000000 0.000000 0.000000
# 2 -0.014527 0.012260 -0.001793 0.000000 0.000000 0.000000
# 3 -0.003776 -0.001793 0.005549 0.000000 0.000000 0.000000
# 4 0.000000 0.000000 0.000000 0.035247 0.000000 0.000000
# 5 0.000000 0.000000 0.000000 0.000000 0.097608 0.000000
# 6 0.000000 0.000000 0.000000 0.000000 0.000000 0.031318
#
#
# Mechanical properties :
#
#
# Convention : Reuss Voigt Hill
#
# Bulk Modulus (GPa) = 22.98986 68.36481 45.67733
# Shear Modulus (GPa) = 16.52605 30.73305 23.62955
#
# Velocity S-wave (km/s) = 2.91197 3.97105 3.48201
# Velocity P-wave (km/s) = 4.80648 7.49025 6.29310
#
# Compressibility (1/GPa) = 0.04349743
#
# Stress axis : x y z
#
# Youngs Moduli (GPa) = 15.17891 81.56692 180.22654
#
# Poissons Ratio (x) = 1.18491 0.68063
# Poissons Ratio (y) = 0.22050 0.32308
# Poissons Ratio (z) = 0.05732 0.14622
#
# Static dielectric constant tensor:
#      x y z
#    x 1.695090 0.000000 0.000000 
#    y 0.000000 1.653700 0.000000 
#    z 0.000000 0.000000 1.779550 
# 
# From -- ./inp_files/438.got.cif
#   From: 2010.05.17/outbox.cif.g08.bks.cpg/sg45_1_cif.got.tgz:438.got - 2010.06.03 19:51:22.
