data_PCOD9376586
_publ_section_title
;
Structure prediction by ZEFSAII (Michael W. Deem and Ramdas Pophale) SiO2 
 PCOD9376586
Probable space group: I B A 2
;
_chemical_formula_sum "Si O2"
_cell_formula_units_Z 60
_cell_length_a 19.246479
_cell_length_b 16.835770
_cell_length_c 8.652634
_cell_angle_alpha 90.000000
_cell_angle_beta 90.000000
_cell_angle_gamma 90.000000
_cell_volume 2803.706884
_symmetry_space_group_name_H-M "I B A 2"
_symmetry_group_IT_number 45
_symmetry_cell_setting 'orthorhombic'
loop_
_space_group_symop_operation_xyz
x,y,z
-x,-y,z
-x,y,1/2+z
x,-y,1/2+z
1/2+x,1/2+y,1/2+z
1/2-x,1/2-y,1/2+z
1/2-x,1/2+y,z
1/2+x,1/2-y,z
loop_
_atom_site_type_symbol
_atom_site_label
_atom_site_fract_x
_atom_site_fract_y
_atom_site_fract_z
Si Si1 0.560271 0.765775 0.498310
Si Si2 0.278739 0.107056 0.076151
Si Si3 0.812536 0.834394 0.520693
Si Si4 0.078855 0.914184 0.390717
Si Si5 0.500000 0.500000 0.144780
Si Si6 0.306604 0.751256 0.186820
Si Si7 0.782207 0.996770 0.350385
Si Si8 0.912218 0.289104 0.148524
O O1 0.567114 0.672557 0.457795
O O2 0.618497 0.779041 0.629167
O O3 0.485318 0.791417 0.560614
O O4 0.577615 0.802536 0.331296
O O5 0.220117 0.175930 0.085185
O O6 0.253587 0.047678 0.209603
O O7 0.352398 0.149177 0.098769
O O8 0.274433 0.053912 0.926071
O O9 0.749455 0.817002 0.638152
O O10 0.805058 0.780469 0.362650
O O11 0.808811 0.924095 0.459973
O O12 0.879469 0.797738 0.606874
O O13 0.061154 0.971789 0.534301
O O14 0.151826 0.945669 0.325466
O O15 0.022433 0.929768 0.257892
#
# Coordination Sequence:
#
# PCOD9376586 Si02
#       8
#     8   8   8   8   4   8   8   8
#     4  12  23  40  66  91 130 178 226 274 337 410
#     4  10  23  43  64  99 131 172 222 283 339 410
#     4  10  23  38  64  94 131 176 221 276 334 405
#     4  11  23  36  59  90 129 178 212 268 332 410
#     4  10  24  36  48  84 140 170 208 256 328 422
#     4  10  20  41  61  94 131 171 226 273 331 404
#     4  11  22  38  66  94 132 169 225 278 343 397
#     4  11  26  43  66  97 132 178 231 277 343 417
#
# _framework density 21.400238999999999
#
# number of rings (size 3 to 8) (size 9 to 14) (size 15 to 20)
#    0.000    1.333    1.333    4.800    9.333    2.133 
#    0.000    1.333    0.000    6.400    0.000    0.000 
#    0.000    0.000    0.000    0.000    0.000    0.000 
#
# Total GULP energy -167651.281115 kJ/mol
# GULP energy per Si atom -5588.376037 kJ/mol
# Density = 2.135153 g / cm^3
# Si number density = 21.400239 Si / 1000 Ang^3
#
#
#
# Elastic Constant Matrix: (Units=GPa)
#
#
# Indices 1 2 3 4 5 6 
#
# 1 148.2820 26.4876 40.1654 0.0000 0.0000 0.0000
# 2 26.4876 47.0388 25.2976 0.0000 0.0000 0.0000
# 3 40.1654 25.2976 80.6767 0.0000 0.0000 0.0000
# 4 0.0000 0.0000 0.0000 39.7629 0.0000 0.0000
# 5 0.0000 0.0000 0.0000 0.0000 30.0886 0.0000
# 6 0.0000 0.0000 0.0000 0.0000 0.0000 27.9581
#
#
#
# Elastic Compliance Matrix: (Units=1/GPa)
#
#
# Indices 1 2 3 4 5 6 
#
# 1 0.008107 -0.002880 -0.003133 0.000000 0.000000 0.000000
# 2 -0.002880 0.026595 -0.006905 0.000000 0.000000 0.000000
# 3 -0.003133 -0.006905 0.016120 0.000000 0.000000 0.000000
# 4 0.000000 0.000000 0.000000 0.025149 0.000000 0.000000
# 5 0.000000 0.000000 0.000000 0.000000 0.033235 0.000000
# 6 0.000000 0.000000 0.000000 0.000000 0.000000 0.035768
#
#
# Mechanical properties :
#
#
# Convention : Reuss Voigt Hill
#
# Bulk Modulus (GPa) = 40.02416 51.09986 45.56201
# Shear Modulus (GPa) = 27.91128 31.83172 29.87150
#
# Velocity S-wave (km/s) = 3.61536 3.86093 3.74016
# Velocity P-wave (km/s) = 6.01424 6.61859 6.32364
#
# Compressibility (1/GPa) = 0.02498491
#
# Stress axis : x y z
#
# Youngs Moduli (GPa) = 123.34970 37.60167 62.03387
#
# Poissons Ratio (x) = 0.10830 0.19435
# Poissons Ratio (y) = 0.35526 0.42836
# Poissons Ratio (z) = 0.38646 0.25965
#
# Static dielectric constant tensor:
#      x y z
#    x 1.762820 0.000000 0.000000 
#    y 0.000000 1.781810 0.000000 
#    z 0.000000 0.000000 1.825070 
# 
# From -- ./inp_files/2147.got.cif
#   From: 2010.05.17/outbox.cif.g08.bks.cpg/sg45_2_cif.got.tgz:2147.got - 2010.06.03 19:51:22.
