data_PCOD9376549
_publ_section_title
;
Structure prediction by ZEFSAII (Michael W. Deem and Ramdas Pophale) SiO2 
 PCOD9376549
Probable space group: I B A 2
;
_chemical_formula_sum "Si O2"
_cell_formula_units_Z 56
_cell_length_a 12.214131
_cell_length_b 17.010703
_cell_length_c 11.886758
_cell_angle_alpha 90.000000
_cell_angle_beta 90.000000
_cell_angle_gamma 90.000000
_cell_volume 2469.723060
_symmetry_space_group_name_H-M "I B A 2"
_symmetry_group_IT_number 45
_symmetry_cell_setting 'orthorhombic'
loop_
_space_group_symop_operation_xyz
x,y,z
-x,-y,z
-x,y,1/2+z
x,-y,1/2+z
1/2+x,1/2+y,1/2+z
1/2-x,1/2-y,1/2+z
1/2-x,1/2+y,z
1/2+x,1/2-y,z
loop_
_atom_site_type_symbol
_atom_site_label
_atom_site_fract_x
_atom_site_fract_y
_atom_site_fract_z
Si Si1 0.346629 0.145312 0.270780
Si Si2 0.211327 0.949526 0.953168
Si Si3 0.979558 0.909873 0.303432
Si Si4 0.199218 0.135155 0.902241
Si Si5 0.841783 0.205158 0.644440
Si Si6 0.882925 0.508132 0.128942
Si Si7 0.413787 0.844852 0.272297
O O1 0.283334 0.104944 0.372529
O O2 0.275280 0.209947 0.207396
O O3 0.464567 0.170943 0.314438
O O4 0.356114 0.077618 0.175304
O O5 0.088634 0.919845 0.921863
O O6 0.214315 0.041439 0.920590
O O7 0.277102 0.953206 0.070044
O O8 0.907408 0.861756 0.214438
O O9 0.092995 0.864875 0.322568
O O10 0.000000 0.000000 0.264769
O O11 0.313921 0.167603 0.856446
O O12 0.170656 0.178809 0.017354
O O13 0.898692 0.288213 0.665126
O O14 0.908900 0.565366 0.232499
O O15 0.000000 0.500000 0.063043
#
# Coordination Sequence:
#
# PCOD9376549 Si02
#       7
#     8   8   8   8   8   8   8
#     4  10  22  43  65  98 133 170 233 285 333 412
#     4  10  20  39  69  98 125 174 228 281 327 395
#     4   9  23  43  66  97 132 174 227 276 325 409
#     4  11  23  43  70  96 132 184 223 273 348 408
#     4  11  25  45  66  98 138 178 218 286 343 409
#     4  10  21  37  66  98 127 172 226 282 338 397
#     4  11  26  41  65  98 137 175 220 290 346 409
#
# _framework density 22.674609
#
# number of rings (size 3 to 8) (size 9 to 14) (size 15 to 20)
#    0.000    1.714    2.857    0.000    4.000    5.143 
#    2.571    0.000    0.000    0.000    0.000    0.000 
#    0.000    0.000    0.000    0.000    0.000    0.000 
#
# Total GULP energy -156305.589013 kJ/mol
# GULP energy per Si atom -5582.342465 kJ/mol
# Density = 2.262300 g / cm^3
# Si number density = 22.674609 Si / 1000 Ang^3
#
#
#
# Elastic Constant Matrix: (Units=GPa)
#
#
# Indices 1 2 3 4 5 6 
#
# 1 119.4996 10.7118 18.5805 0.0000 0.0000 0.0000
# 2 10.7118 61.6497 -2.3401 0.0000 0.0000 0.0000
# 3 18.5805 -2.3401 35.8716 -0.0001 0.0000 0.0000
# 4 0.0000 0.0000 -0.0001 8.0363 0.0000 0.0000
# 5 0.0000 0.0000 0.0000 0.0000 25.3671 0.0000
# 6 0.0000 0.0000 0.0000 0.0000 0.0000 21.8837
#
#
#
# Elastic Compliance Matrix: (Units=1/GPa)
#
#
# Indices 1 2 3 4 5 6 
#
# 1 0.009297 -0.001803 -0.004933 0.000000 0.000000 0.000000
# 2 -0.001803 0.016610 0.002017 0.000000 0.000000 0.000000
# 3 -0.004933 0.002017 0.030564 0.000000 0.000000 0.000000
# 4 0.000000 0.000000 0.000000 0.124435 0.000000 0.000000
# 5 0.000000 0.000000 0.000000 0.000000 0.039421 0.000000
# 6 0.000000 0.000000 0.000000 0.000000 0.000000 0.045696
#
#
# Mechanical properties :
#
#
# Convention : Reuss Voigt Hill
#
# Bulk Modulus (GPa) = 21.26101 30.10282 25.68192
# Shear Modulus (GPa) = 17.17398 23.72869 20.45133
#
# Velocity S-wave (km/s) = 2.75509 3.23846 3.00650
# Velocity P-wave (km/s) = 4.41788 5.22382 4.83766
#
# Compressibility (1/GPa) = 0.04703444
#
# Stress axis : x y z
#
# Youngs Moduli (GPa) = 107.56346 60.20306 32.71826
#
# Poissons Ratio (x) = 0.10852 0.16140
# Poissons Ratio (y) = 0.19389 -0.06600
# Poissons Ratio (z) = 0.53062 -0.12145
#
# Static dielectric constant tensor:
#      x y z
#    x 1.925770 0.000000 0.000000 
#    y 0.000000 1.833870 0.000000 
#    z 0.000000 0.000000 1.834200 
# 
# From -- ./inp_files/3773.got.cif
#   From: 2010.05.17/outbox.cif.g08.bks.cpg/sg45_2_cif.got.tgz:3773.got - 2010.06.03 19:51:22.
