data_PCOD9376282
_publ_section_title
;
Structure prediction by ZEFSAII (Michael W. Deem and Ramdas Pophale) SiO2 
 PCOD9376282
Probable space group: I B A 2
;
_chemical_formula_sum "Si O2"
_cell_formula_units_Z 56
_cell_length_a 28.223944
_cell_length_b 5.392569
_cell_length_c 15.382337
_cell_angle_alpha 90.000000
_cell_angle_beta 90.000000
_cell_angle_gamma 90.000000
_cell_volume 2341.185007
_symmetry_space_group_name_H-M "I B A 2"
_symmetry_group_IT_number 45
_symmetry_cell_setting 'orthorhombic'
loop_
_space_group_symop_operation_xyz
x,y,z
-x,-y,z
-x,y,1/2+z
x,-y,1/2+z
1/2+x,1/2+y,1/2+z
1/2-x,1/2-y,1/2+z
1/2-x,1/2+y,z
1/2+x,1/2-y,z
loop_
_atom_site_type_symbol
_atom_site_label
_atom_site_fract_x
_atom_site_fract_y
_atom_site_fract_z
Si Si1 0.944282 0.044307 0.180050
Si Si2 0.446171 0.576997 0.375482
Si Si3 0.369561 0.072681 0.234885
Si Si4 0.135319 0.781927 0.582530
Si Si5 0.265240 0.629767 0.017342
Si Si6 0.727979 0.758586 0.212895
Si Si7 0.600762 0.057693 0.922609
O O1 0.920711 0.312967 0.204775
O O2 0.937353 0.899158 0.271596
O O3 0.911319 0.939373 0.103953
O O4 0.000000 0.000000 0.159529
O O5 0.500000 0.500000 0.385750
O O6 0.416438 0.341478 0.408756
O O7 0.437331 0.838684 0.420542
O O8 0.328271 0.275051 0.222098
O O9 0.369718 0.004936 0.335827
O O10 0.353338 0.850377 0.173226
O O11 0.179791 0.916603 0.539468
O O12 0.124901 0.560472 0.515352
O O13 0.241594 0.395468 0.971905
O O14 0.240625 0.696765 0.110560
O O15 0.754387 0.520353 0.250384
#
# Coordination Sequence:
#
# PCOD9376282 Si02
#       7
#     8   8   8   8   8   8   8
#     4  10  23  42  69  98 132 182 232 279 342 409
#     4  10  22  46  67  90 133 179 224 284 335 393
#     4  11  23  43  68  93 139 175 226 281 341 410
#     4  12  24  41  69  96 139 176 227 283 339 410
#     4  10  20  36  63  93 125 172 216 268 341 394
#     4  10  19  35  65  93 121 171 218 265 340 397
#     4  11  26  41  65 101 131 179 223 276 348 392
#
# _framework density 23.919509999999999
#
# number of rings (size 3 to 8) (size 9 to 14) (size 15 to 20)
#    0.000    1.429    4.286    2.143    2.000    1.143 
#    2.571    1.429    0.000    0.000    0.000    0.000 
#    0.000    0.000    0.000    0.000    0.000    0.000 
#
# Total GULP energy -156337.104593 kJ/mol
# GULP energy per Si atom -5583.468021 kJ/mol
# Density = 2.386507 g / cm^3
# Si number density = 23.919510 Si / 1000 Ang^3
#
#
#
# Elastic Constant Matrix: (Units=GPa)
#
#
# Indices 1 2 3 4 5 6 
#
# 1 112.9899 30.0673 -1.5784 0.0000 0.0000 0.0000
# 2 30.0673 122.9298 13.9340 0.0000 0.0000 0.0000
# 3 -1.5784 13.9340 58.5749 0.0000 0.0000 0.0000
# 4 0.0000 0.0000 0.0000 14.5957 0.0000 0.0000
# 5 0.0000 0.0000 0.0000 0.0000 3.6299 0.0000
# 6 0.0000 0.0000 0.0000 0.0000 0.0000 35.8883
#
#
#
# Elastic Compliance Matrix: (Units=1/GPa)
#
#
# Indices 1 2 3 4 5 6 
#
# 1 0.009506 -0.002419 0.000832 0.000000 0.000000 0.000000
# 2 -0.002419 0.008976 -0.002200 0.000000 0.000000 0.000000
# 3 0.000832 -0.002200 0.017618 0.000000 0.000000 0.000000
# 4 0.000000 0.000000 0.000000 0.068513 0.000000 0.000000
# 5 0.000000 0.000000 0.000000 0.000000 0.275490 0.000000
# 6 0.000000 0.000000 0.000000 0.000000 0.000000 0.027864
#
#
# Mechanical properties :
#
#
# Convention : Reuss Voigt Hill
#
# Bulk Modulus (GPa) = 35.05871 42.14894 38.60382
# Shear Modulus (GPa) = 11.76328 27.62755 19.69542
#
# Velocity S-wave (km/s) = 2.22003 3.40225 2.87261
# Velocity P-wave (km/s) = 4.61087 5.75266 5.21312
#
# Compressibility (1/GPa) = 0.02852358
#
# Stress axis : x y z
#
# Youngs Moduli (GPa) = 105.19948 111.40986 56.76012
#
# Poissons Ratio (x) = 0.26953 -0.04720
# Poissons Ratio (y) = 0.25451 0.12490
# Poissons Ratio (z) = -0.08749 0.24515
#
# Static dielectric constant tensor:
#      x y z
#    x 1.940110 0.000000 0.000000 
#    y 0.000000 2.032560 0.000000 
#    z 0.000000 0.000000 1.928670 
# 
# From -- ./inp_files/5251.got.cif
#   From: 2010.05.17/outbox.cif.g08.bks.cpg/sg45_3_cif.got.tgz:5251.got - 2010.06.03 19:51:22.
