data_PCOD9376243
_publ_section_title
;
Structure prediction by ZEFSAII (Michael W. Deem and Ramdas Pophale) SiO2 
 PCOD9376243
Probable space group: I B A 2
;
_chemical_formula_sum "Si O2"
_cell_formula_units_Z 60
_cell_length_a 27.276087
_cell_length_b 5.881932
_cell_length_c 18.134450
_cell_angle_alpha 90.000000
_cell_angle_beta 90.000000
_cell_angle_gamma 90.000000
_cell_volume 2909.420233
_symmetry_space_group_name_H-M "I B A 2"
_symmetry_group_IT_number 45
_symmetry_cell_setting 'orthorhombic'
loop_
_space_group_symop_operation_xyz
x,y,z
-x,-y,z
-x,y,1/2+z
x,-y,1/2+z
1/2+x,1/2+y,1/2+z
1/2-x,1/2-y,1/2+z
1/2-x,1/2+y,z
1/2+x,1/2-y,z
loop_
_atom_site_type_symbol
_atom_site_label
_atom_site_fract_x
_atom_site_fract_y
_atom_site_fract_z
Si Si1 0.051792 0.362894 0.283550
Si Si2 0.429927 0.367991 0.473352
Si Si3 0.242250 0.417682 0.827674
Si Si4 0.865851 0.575887 0.888142
Si Si5 0.274741 0.425043 0.995607
Si Si6 0.058096 0.437716 0.116137
Si Si7 0.500000 0.500000 0.366342
Si Si8 0.123297 0.741781 0.027689
O O1 0.093266 0.477741 0.333325
O O2 0.066170 0.347761 0.198233
O O3 0.000000 0.500000 0.286553
O O4 0.040328 0.116187 0.316378
O O5 0.384353 0.312433 0.420911
O O6 0.432714 0.234292 0.549079
O O7 0.475982 0.320404 0.421870
O O8 0.423425 0.626962 0.494574
O O9 0.249079 0.668457 0.791268
O O10 0.185709 0.413281 0.850174
O O11 0.273092 0.421401 0.905312
O O12 0.861822 0.431705 0.963367
O O13 0.252687 0.679444 0.014675
O O14 0.328490 0.398683 0.032917
O O15 0.099594 0.628624 0.099697
O O16 0.000000 0.500000 0.111751
#
# Coordination Sequence:
#
# PCOD9376243 Si02
#       8
#     8   8   8   8   8   8   4   8
#     4  11  24  43  57  88 130 172 212 264 332 404
#     4  11  22  35  60  92 117 157 220 273 319 388
#     4  10  19  33  57  93 129 161 204 271 332 383
#     4  11  21  35  62  90 124 159 213 267 325 383
#     4  10  19  33  58  93 130 160 205 271 334 384
#     4  10  25  41  59  82 132 172 212 263 338 400
#     4  12  22  34  64  88 120 164 220 270 328 372
#     4  11  21  36  62  92 121 162 211 272 323 392
#
# _framework density 20.622664
#
# number of rings (size 3 to 8) (size 9 to 14) (size 15 to 20)
#    0.000    1.333    5.333    2.400    3.733    2.667 
#    0.000    0.000    0.000    1.600    0.000    0.000 
#    0.000    0.000    0.000    0.000    0.000    0.000 
#
# Total GULP energy -167028.033408 kJ/mol
# GULP energy per Si atom -5567.601114 kJ/mol
# Density = 2.057573 g / cm^3
# Si number density = 20.622664 Si / 1000 Ang^3
#
#
#
# Elastic Constant Matrix: (Units=GPa)
#
#
# Indices 1 2 3 4 5 6 
#
# 1 82.8398 15.7417 26.0705 0.0000 0.0000 0.0000
# 2 15.7417 93.1711 23.6699 0.0000 0.0000 0.0000
# 3 26.0705 23.6699 81.0953 0.0000 0.0000 0.0000
# 4 0.0000 0.0000 0.0000 18.0066 0.0000 0.0000
# 5 0.0000 0.0000 0.0000 0.0000 5.2728 0.0000
# 6 0.0000 0.0000 0.0000 0.0000 0.0000 35.7322
#
#
#
# Elastic Compliance Matrix: (Units=1/GPa)
#
#
# Indices 1 2 3 4 5 6 
#
# 1 0.013570 -0.001279 -0.003989 0.000000 0.000000 0.000000
# 2 -0.001279 0.011713 -0.003008 0.000000 0.000000 0.000000
# 3 -0.003989 -0.003008 0.014491 0.000000 0.000000 0.000000
# 4 0.000000 0.000000 0.000000 0.055535 0.000000 0.000000
# 5 0.000000 0.000000 0.000000 0.000000 0.189653 0.000000
# 6 0.000000 0.000000 0.000000 0.000000 0.000000 0.027986
#
#
# Mechanical properties :
#
#
# Convention : Reuss Voigt Hill
#
# Bulk Modulus (GPa) = 43.06129 43.11894 43.09012
# Shear Modulus (GPa) = 14.82618 24.57727 19.70172
#
# Velocity S-wave (km/s) = 2.68419 3.45593 3.09422
# Velocity P-wave (km/s) = 5.52561 6.07277 5.80564
#
# Compressibility (1/GPa) = 0.02322271
#
# Stress axis : x y z
#
# Youngs Moduli (GPa) = 73.69200 85.37421 69.00641
#
# Poissons Ratio (x) = 0.10922 0.27527
# Poissons Ratio (y) = 0.09427 0.20754
# Poissons Ratio (z) = 0.29396 0.25677
#
# Static dielectric constant tensor:
#      x y z
#    x 1.786940 0.000000 0.000000 
#    y 0.000000 1.842170 0.000000 
#    z 0.000000 0.000000 1.681760 
# 
# From -- ./inp_files/7336.got.cif
#   From: 2010.05.17/outbox.cif.g08.bks.cpg/sg45_4_cif.got.tgz:7336.got - 2010.06.03 19:51:22.
