data_PCOD9376834
_publ_section_title
;
Structure prediction by ZEFSAII (Michael W. Deem and Ramdas Pophale) SiO2 
 PCOD9376834
Probable space group: I B A 2
;
_chemical_formula_sum "Si O2"
_cell_formula_units_Z 52
_cell_length_a 8.892653
_cell_length_b 17.765149
_cell_length_c 16.668507
_cell_angle_alpha 90.000000
_cell_angle_beta 90.000000
_cell_angle_gamma 90.000000
_cell_volume 2633.279160
_symmetry_space_group_name_H-M "I B A 2"
_symmetry_group_IT_number 45
_symmetry_cell_setting 'orthorhombic'
loop_
_space_group_symop_operation_xyz
x,y,z
-x,-y,z
-x,y,1/2+z
x,-y,1/2+z
1/2+x,1/2+y,1/2+z
1/2-x,1/2-y,1/2+z
1/2-x,1/2+y,z
1/2+x,1/2-y,z
loop_
_atom_site_type_symbol
_atom_site_label
_atom_site_fract_x
_atom_site_fract_y
_atom_site_fract_z
Si Si1 0.838035 0.687364 0.129510
Si Si2 0.443839 0.076466 0.058410
Si Si3 0.000000 0.000000 0.958429
Si Si4 0.134916 0.947673 0.615884
Si Si5 0.018340 0.186479 0.701022
Si Si6 0.275774 0.783418 0.476538
Si Si7 0.021042 0.160473 0.387095
O O1 0.693223 0.675915 0.184209
O O2 0.907308 0.610594 0.098412
O O3 0.967554 0.730083 0.178097
O O4 0.786259 0.738311 0.054049
O O5 0.314707 0.055524 0.124592
O O6 0.500000 0.000000 0.016118
O O7 0.377552 0.146235 0.006460
O O8 0.051857 0.926579 0.910517
O O9 0.876914 0.969660 0.021879
O O10 0.072592 0.866630 0.639759
O O11 0.000000 0.000000 0.653144
O O12 0.977890 0.167902 0.791688
O O13 0.140446 0.816262 0.423631
O O14 0.366115 0.720505 0.426698
#
# Coordination Sequence:
#
# PCOD9376834 Si02
#       7
#     8   8   4   8   8   8   8
#     4  12  22  42  70  94 134 182 236 275 335 425
#     4  12  24  39  70 104 125 171 241 287 324 396
#     4  10  22  40  66  98 124 176 230 272 328 408
#     4  10  21  41  67  93 131 172 229 270 333 414
#     4  12  23  41  65 101 134 179 222 289 346 407
#     4  12  22  44  66  96 131 185 228 278 334 421
#     4  12  26  40  68  99 139 174 225 285 356 393
#
# _framework density 19.747242
#
# number of rings (size 3 to 8) (size 9 to 14) (size 15 to 20)
#    0.462    0.000    6.154    2.769    3.231    0.000 
#    0.000    0.000    0.000    1.846    0.000    0.000 
#    0.000    0.000    0.000    0.000    0.000    0.000 
#
# Total GULP energy -144958.629129 kJ/mol
# GULP energy per Si atom -5575.331890 kJ/mol
# Density = 1.970230 g / cm^3
# Si number density = 19.747242 Si / 1000 Ang^3
#
#
#
# Elastic Constant Matrix: (Units=GPa)
#
#
# Indices 1 2 3 4 5 6 
#
# 1 80.8059 32.1220 23.3485 0.0000 0.0000 0.0000
# 2 32.1220 148.3000 49.3314 0.0000 0.0000 0.0000
# 3 23.3485 49.3314 75.9961 0.0000 0.0000 0.0000
# 4 0.0000 0.0000 0.0000 12.8803 0.0000 0.0000
# 5 0.0000 0.0000 0.0000 0.0000 15.7785 0.0000
# 6 0.0000 0.0000 0.0000 0.0000 0.0000 41.0882
#
#
#
# Elastic Compliance Matrix: (Units=1/GPa)
#
#
# Indices 1 2 3 4 5 6 
#
# 1 0.014053 -0.002051 -0.002987 0.000000 0.000000 0.000000
# 2 -0.002051 0.008899 -0.005147 0.000000 0.000000 0.000000
# 3 -0.002987 -0.005147 0.017417 0.000000 0.000000 0.000000
# 4 0.000000 0.000000 0.000000 0.077638 0.000000 0.000000
# 5 0.000000 0.000000 0.000000 0.000000 0.063377 0.000000
# 6 0.000000 0.000000 0.000000 0.000000 0.000000 0.024338
#
#
# Mechanical properties :
#
#
# Convention : Reuss Voigt Hill
#
# Bulk Modulus (GPa) = 49.99517 57.18954 53.59236
# Shear Modulus (GPa) = 21.48154 27.30274 24.39214
#
# Velocity S-wave (km/s) = 3.30180 3.72238 3.51838
# Velocity P-wave (km/s) = 6.31730 6.89191 6.61085
#
# Compressibility (1/GPa) = 0.02000193
#
# Stress axis : x y z
#
# Youngs Moduli (GPa) = 71.15703 112.36834 57.41473
#
# Poissons Ratio (x) = 0.23041 0.17148
# Poissons Ratio (y) = 0.14591 0.29550
# Poissons Ratio (z) = 0.21252 0.57834
#
# Static dielectric constant tensor:
#      x y z
#    x 1.752890 0.000000 0.000000 
#    y 0.000000 1.729680 0.000000 
#    z 0.000000 0.000000 1.669210 
# 
# From -- ./inp_files/7648.got.cif
#   From: 2010.05.17/outbox.cif.g08.bks.cpg/sg45_4_cif.got.tgz:7648.got - 2010.06.03 19:51:22.
