data_PCOD9376617
_publ_section_title
;
Structure prediction by ZEFSAII (Michael W. Deem and Ramdas Pophale) SiO2 
 PCOD9376617
Probable space group: I B A 2
;
_chemical_formula_sum "Si O2"
_cell_formula_units_Z 52
_cell_length_a 27.326976
_cell_length_b 10.854096
_cell_length_c 8.869331
_cell_angle_alpha 90.000000
_cell_angle_beta 90.000000
_cell_angle_gamma 90.000000
_cell_volume 2630.728905
_symmetry_space_group_name_H-M "I B A 2"
_symmetry_group_IT_number 45
_symmetry_cell_setting 'orthorhombic'
loop_
_space_group_symop_operation_xyz
x,y,z
-x,-y,z
-x,y,1/2+z
x,-y,1/2+z
1/2+x,1/2+y,1/2+z
1/2-x,1/2-y,1/2+z
1/2-x,1/2+y,z
1/2+x,1/2-y,z
loop_
_atom_site_type_symbol
_atom_site_label
_atom_site_fract_x
_atom_site_fract_y
_atom_site_fract_z
Si Si1 0.356883 0.039104 0.349630
Si Si2 0.337916 0.419499 0.770494
Si Si3 0.198389 0.853152 0.074851
Si Si4 0.390022 0.162736 0.072304
Si Si5 0.440469 0.384297 0.932516
Si Si6 0.690162 0.835445 0.627818
Si Si7 0.500000 0.500000 0.688683
O O1 0.392365 0.117878 0.243163
O O2 0.324469 0.124819 0.458405
O O3 0.386196 0.952943 0.463424
O O4 0.326489 0.946169 0.240216
O O5 0.325731 0.539202 0.674219
O O6 0.390174 0.427751 0.854317
O O7 0.335334 0.292622 0.675589
O O8 0.298648 0.404317 0.904774
O O9 0.161540 0.737881 0.066745
O O10 0.251560 0.819415 0.135225
O O11 0.430433 0.252313 0.004953
O O12 0.481577 0.394576 0.803279
O O13 0.456506 0.465982 0.075017
#
# Coordination Sequence:
#
# PCOD9376617 Si02
#       7
#     8   8   8   8   8   8   4
#     4  10  22  40  58  84 118 179 205 263 291 374
#     4  11  24  40  58  92 130 167 212 274 308 386
#     4  11  24  35  58  87 129 170 219 270 305 359
#     4  10  22  40  61  88 126 162 215 251 314 376
#     4  10  20  44  62 102 122 160 204 251 346 379
#     4  11  23  38  58  86 126 175 228 253 312 352
#     4  10  22  40  78  92 130 154 192 280 326 418
#
# _framework density 19.766386000000001
#
# number of rings (size 3 to 8) (size 9 to 14) (size 15 to 20)
#    0.000    1.538    3.077    2.769    8.615    0.000 
#    5.538    0.000    0.000    2.769    0.000    0.000 
#    0.000    0.000    0.000    0.000    0.000    0.000 
#
# Total GULP energy -145116.566904 kJ/mol
# GULP energy per Si atom -5581.406419 kJ/mol
# Density = 1.972140 g / cm^3
# Si number density = 19.766386 Si / 1000 Ang^3
#
#
#
# Elastic Constant Matrix: (Units=GPa)
#
#
# Indices 1 2 3 4 5 6 
#
# 1 60.9938 32.9136 34.4365 0.0000 0.0000 0.0000
# 2 32.9136 72.3275 49.8399 0.0000 0.0000 0.0000
# 3 34.4365 49.8399 133.0992 0.0000 0.0000 0.0000
# 4 0.0000 0.0000 0.0000 35.1325 0.0000 0.0000
# 5 0.0000 0.0000 0.0000 0.0000 26.5735 0.0000
# 6 0.0000 0.0000 0.0000 0.0000 0.0000 16.3992
#
#
#
# Elastic Compliance Matrix: (Units=1/GPa)
#
#
# Indices 1 2 3 4 5 6 
#
# 1 0.022413 -0.008361 -0.002668 0.000000 0.000000 0.000000
# 2 -0.008361 0.021753 -0.005982 0.000000 0.000000 0.000000
# 3 -0.002668 -0.005982 0.010444 0.000000 0.000000 0.000000
# 4 0.000000 0.000000 0.000000 0.028464 0.000000 0.000000
# 5 0.000000 0.000000 0.000000 0.000000 0.037631 0.000000
# 6 0.000000 0.000000 0.000000 0.000000 0.000000 0.060979
#
#
# Mechanical properties :
#
#
# Convention : Reuss Voigt Hill
#
# Bulk Modulus (GPa) = 48.57391 55.64450 52.10920
# Shear Modulus (GPa) = 22.46494 25.56974 24.01734
#
# Velocity S-wave (km/s) = 3.37489 3.60056 3.48955
# Velocity P-wave (km/s) = 6.30982 6.74519 6.53114
#
# Compressibility (1/GPa) = 0.02058719
#
# Stress axis : x y z
#
# Youngs Moduli (GPa) = 44.61652 45.97045 95.75175
#
# Poissons Ratio (x) = 0.38435 0.25548
# Poissons Ratio (y) = 0.37303 0.57283
# Poissons Ratio (z) = 0.11904 0.27501
#
# Static dielectric constant tensor:
#      x y z
#    x 1.705430 0.000000 0.000000 
#    y 0.000000 1.693000 0.000000 
#    z 0.000000 0.000000 1.718280 
# 
# From -- ./inp_files/2609.got.cif
#   From: 2010.05.17/outbox.cif.g08.bks.cpg/sg45_2_cif.got.tgz:2609.got - 2010.06.03 19:51:22.
