data_PCOD9376627
_publ_section_title
;
Structure prediction by ZEFSAII (Michael W. Deem and Ramdas Pophale) SiO2 
 PCOD9376627
Probable space group: I B A 2
;
_chemical_formula_sum "Si O2"
_cell_formula_units_Z 56
_cell_length_a 14.211274
_cell_length_b 13.573353
_cell_length_c 12.246898
_cell_angle_alpha 90.000000
_cell_angle_beta 90.000000
_cell_angle_gamma 90.000000
_cell_volume 2362.360963
_symmetry_space_group_name_H-M "I B A 2"
_symmetry_group_IT_number 45
_symmetry_cell_setting 'orthorhombic'
loop_
_space_group_symop_operation_xyz
x,y,z
-x,-y,z
-x,y,1/2+z
x,-y,1/2+z
1/2+x,1/2+y,1/2+z
1/2-x,1/2-y,1/2+z
1/2-x,1/2+y,z
1/2+x,1/2-y,z
loop_
_atom_site_type_symbol
_atom_site_label
_atom_site_fract_x
_atom_site_fract_y
_atom_site_fract_z
Si Si1 0.000000 0.000000 0.424510
Si Si2 0.851232 0.547939 0.509488
Si Si3 0.050838 0.203552 0.028759
Si Si4 0.345175 0.733517 0.588660
Si Si5 0.691111 0.734802 0.720682
Si Si6 0.521232 0.840984 0.844140
Si Si7 0.500000 0.000000 0.672947
Si Si8 0.195257 0.918047 0.892258
O O1 0.907564 0.961887 0.363256
O O2 0.039258 0.909554 0.495223
O O3 0.821911 0.652771 0.561097
O O4 0.930876 0.581275 0.424977
O O5 0.768446 0.494448 0.444224
O O6 0.907006 0.483014 0.599179
O O7 0.139323 0.220789 0.104875
O O8 0.957176 0.227496 0.098827
O O9 0.043570 0.270935 0.919444
O O10 0.283764 0.702410 0.692694
O O11 0.320569 0.662563 0.487866
O O12 0.610125 0.780961 0.796221
O O13 0.726728 0.638303 0.784068
O O14 0.478346 0.905574 0.747603
#
# Coordination Sequence:
#
# PCOD9376627 Si02
#       8
#     4   8   8   8   8   8   4   8
#     4  10  20  48  70 100 146 180 244 296 352 432
#     4  11  24  47  66 109 148 179 249 305 353 455
#     4  10  23  46  71 103 147 183 244 310 354 446
#     4  10  23  46  67 101 148 182 239 307 356 435
#     4  12  23  46  72 103 140 198 237 291 389 422
#     4  11  23  46  68 106 144 186 243 304 366 436
#     4  12  26  42  78 106 138 204 238 298 398 428
#     4  11  24  45  72 105 142 190 240 300 363 436
#
# _framework density 23.705096999999999
#
# number of rings (size 3 to 8) (size 9 to 14) (size 15 to 20)
#    0.000    1.143    4.286    3.857    2.000    1.714 
#   12.857    0.000    0.000    0.000    0.000    0.000 
#    0.000    0.000    0.000    0.000    0.000    0.000 
#
# Total GULP energy -156586.038253 kJ/mol
# GULP energy per Si atom -5592.358509 kJ/mol
# Density = 2.365114 g / cm^3
# Si number density = 23.705097 Si / 1000 Ang^3
#
#
#
# Elastic Constant Matrix: (Units=GPa)
#
#
# Indices 1 2 3 4 5 6 
#
# 1 84.3745 22.1793 33.1213 0.0000 0.0000 0.0000
# 2 22.1793 80.5045 16.5099 0.0000 0.0000 0.0000
# 3 33.1213 16.5099 59.9061 0.0000 0.0000 0.0000
# 4 0.0000 0.0000 0.0000 -5.0245 0.0000 0.0000
# 5 0.0000 0.0000 0.0000 0.0000 37.2308 0.0000
# 6 0.0000 0.0000 0.0000 0.0000 0.0000 35.1553
#
#
#
# Elastic Compliance Matrix: (Units=1/GPa)
#
#
# Indices 1 2 3 4 5 6 
#
# 1 0.015669 -0.002692 -0.007921 0.000000 0.000000 0.000000
# 2 -0.002692 0.013628 -0.002267 0.000000 0.000000 0.000000
# 3 -0.007921 -0.002267 0.021697 0.000000 0.000000 0.000000
# 4 0.000000 0.000000 0.000000 -0.199026 0.000000 0.000000
# 5 0.000000 0.000000 0.000000 0.000000 0.026859 0.000000
# 6 0.000000 0.000000 0.000000 0.000000 0.000000 0.028445
#
#
# Mechanical properties :
#
#
# Convention : Reuss Voigt Hill
#
# Bulk Modulus (GPa) = 39.63100 40.93403 40.28251
# Shear Modulus (GPa) = -85.39249 23.67063 -30.86093
#
# Velocity S-wave (km/s) = -6.00841 3.16341 -3.61206
# Velocity P-wave (km/s) = 5.60179 5.53610 0.60486
#
# Compressibility (1/GPa) = 0.02523277
#
# Stress axis : x y z
#
# Youngs Moduli (GPa) = 63.81954 73.37602 46.08881
#
# Poissons Ratio (x) = 0.19756 0.36508
# Poissons Ratio (y) = 0.17183 0.10450
# Poissons Ratio (z) = 0.50553 0.16637
#
# Static dielectric constant tensor:
#      x y z
#    x 1.953710 0.000000 0.000000 
#    y 0.000000 1.940160 0.000000 
#    z 0.000000 0.000000 1.942800 
# 
# From -- ./inp_files/4196.got.cif
#   From: 2010.05.17/outbox.cif.g08.bks.cpg/sg45_3_cif.got.tgz:4196.got - 2010.06.03 19:51:22.
