data_PCOD9376151
_publ_section_title
;
Structure prediction by ZEFSAII (Michael W. Deem and Ramdas Pophale) SiO2 
 PCOD9376151
Probable space group: I B A 2
;
_chemical_formula_sum "Si O2"
_cell_formula_units_Z 56
_cell_length_a 13.056137
_cell_length_b 14.015458
_cell_length_c 14.213401
_cell_angle_alpha 90.000000
_cell_angle_beta 90.000000
_cell_angle_gamma 90.000000
_cell_volume 2600.878123
_symmetry_space_group_name_H-M "I B A 2"
_symmetry_group_IT_number 45
_symmetry_cell_setting 'orthorhombic'
loop_
_space_group_symop_operation_xyz
x,y,z
-x,-y,z
-x,y,1/2+z
x,-y,1/2+z
1/2+x,1/2+y,1/2+z
1/2-x,1/2-y,1/2+z
1/2-x,1/2+y,z
1/2+x,1/2-y,z
loop_
_atom_site_type_symbol
_atom_site_label
_atom_site_fract_x
_atom_site_fract_y
_atom_site_fract_z
Si Si1 0.000000 0.000000 0.887300
Si Si2 0.196251 0.454474 0.975120
Si Si3 0.870933 0.175199 0.943010
Si Si4 0.794465 0.957812 0.789059
Si Si5 0.305339 0.077985 0.146099
Si Si6 0.716877 0.761213 0.284540
Si Si7 0.477688 0.162288 0.402725
Si Si8 0.000000 0.500000 0.757296
O O1 0.049803 0.912415 0.942361
O O2 0.909411 0.957947 0.825525
O O3 0.199277 0.548357 0.038628
O O4 0.277118 0.370481 0.002883
O O5 0.227843 0.490228 0.870762
O O6 0.085729 0.405496 0.973114
O O7 0.812220 0.195357 0.843598
O O8 0.940060 0.269907 0.953512
O O9 0.763207 0.849729 0.773060
O O10 0.785565 0.020315 0.696399
O O11 0.297819 0.184505 0.185651
O O12 0.406055 0.031205 0.192507
O O13 0.613572 0.780147 0.347233
O O14 0.523710 0.090286 0.324887
#
# Coordination Sequence:
#
# PCOD9376151 Si02
#       8
#     4   8   8   8   8   8   8   4
#     4  10  18  34  68  88 120 176 216 272 328 402
#     4  10  23  41  64  98 136 175 214 285 336 391
#     4  10  19  37  64  92 125 170 221 264 337 397
#     4  11  20  42  64  91 130 175 222 277 338 396
#     4  11  22  43  59  95 134 166 229 269 335 396
#     4  10  20  37  64  89 124 174 215 272 327 390
#     4  10  19  38  65  92 125 169 221 261 336 390
#     4  10  20  38  64  90 122 176 218 274 322 400
#
# _framework density 21.531189000000001
#
# number of rings (size 3 to 8) (size 9 to 14) (size 15 to 20)
#    0.000    1.714    7.143    0.857    0.000    0.571 
#    5.143    4.286    0.000    0.000    0.000    0.000 
#    0.000    0.000    0.000    0.000    0.000    0.000 
#
# Total GULP energy -156175.767568 kJ/mol
# GULP energy per Si atom -5577.705985 kJ/mol
# Density = 2.148218 g / cm^3
# Si number density = 21.531189 Si / 1000 Ang^3
#
#
#
# Elastic Constant Matrix: (Units=GPa)
#
#
# Indices 1 2 3 4 5 6 
#
# 1 90.4590 20.3809 0.7140 0.0000 0.0000 0.0000
# 2 20.3809 131.9260 14.7308 0.0000 0.0000 0.0000
# 3 0.7140 14.7308 40.0366 0.0000 0.0000 0.0000
# 4 0.0000 0.0000 0.0000 20.3737 0.0000 0.0000
# 5 0.0000 0.0000 0.0000 0.0000 5.2747 0.0000
# 6 0.0000 0.0000 0.0000 0.0000 0.0000 33.7459
#
#
#
# Elastic Compliance Matrix: (Units=1/GPa)
#
#
# Indices 1 2 3 4 5 6 
#
# 1 0.011462 -0.001823 0.000466 0.000000 0.000000 0.000000
# 2 -0.001823 0.008195 -0.002983 0.000000 0.000000 0.000000
# 3 0.000466 -0.002983 0.026066 0.000000 0.000000 0.000000
# 4 0.000000 0.000000 0.000000 0.049083 0.000000 0.000000
# 5 0.000000 0.000000 0.000000 0.000000 0.189585 0.000000
# 6 0.000000 0.000000 0.000000 0.000000 0.000000 0.029633
#
#
# Mechanical properties :
#
#
# Convention : Reuss Voigt Hill
#
# Bulk Modulus (GPa) = 26.99461 37.11921 32.05691
# Shear Modulus (GPa) = 14.92314 26.98524 20.95419
#
# Velocity S-wave (km/s) = 2.63552 3.54405 3.12300
# Velocity P-wave (km/s) = 4.67183 5.83303 5.28442
#
# Compressibility (1/GPa) = 0.03704443
#
# Stress axis : x y z
#
# Youngs Moduli (GPa) = 87.24687 122.03111 38.36386
#
# Poissons Ratio (x) = 0.22243 -0.01789
# Poissons Ratio (y) = 0.15903 0.11442
# Poissons Ratio (z) = -0.04068 0.36397
#
# Static dielectric constant tensor:
#      x y z
#    x 1.829900 0.000000 0.000000 
#    y 0.000000 1.805220 0.000000 
#    z 0.000000 0.000000 1.779890 
# 
# From -- ./inp_files/6589.got.cif
#   From: 2010.05.17/outbox.cif.g08.bks.cpg/sg45_4_cif.got.tgz:6589.got - 2010.06.03 19:51:22.
