data_PCOD9376951
_publ_section_title
;
Structure prediction by ZEFSAII (Michael W. Deem and Ramdas Pophale) SiO2 
 PCOD9376951
Probable space group: I B A 2
;
_chemical_formula_sum "Si O2"
_cell_formula_units_Z 40
_cell_length_a 9.297415
_cell_length_b 20.267027
_cell_length_c 8.777195
_cell_angle_alpha 90.000000
_cell_angle_beta 90.000000
_cell_angle_gamma 90.000000
_cell_volume 1653.895287
_symmetry_space_group_name_H-M "I B A 2"
_symmetry_group_IT_number 45
_symmetry_cell_setting 'orthorhombic'
loop_
_space_group_symop_operation_xyz
x,y,z
-x,-y,z
-x,y,1/2+z
x,-y,1/2+z
1/2+x,1/2+y,1/2+z
1/2-x,1/2-y,1/2+z
1/2-x,1/2+y,z
1/2+x,1/2-y,z
loop_
_atom_site_type_symbol
_atom_site_label
_atom_site_fract_x
_atom_site_fract_y
_atom_site_fract_z
Si Si1 0.500000 0.000000 0.576401
Si Si2 0.500000 0.500000 0.548524
Si Si3 0.893005 0.906658 0.286631
Si Si4 0.082353 0.784731 0.611622
Si Si5 0.639462 0.203308 0.408627
Si Si6 0.911960 0.407583 0.342166
O O1 0.553427 0.057457 0.684489
O O2 0.387589 0.033764 0.462963
O O3 0.385429 0.466572 0.664014
O O4 0.547455 0.441021 0.437051
O O5 0.977365 0.847950 0.204410
O O6 0.739965 0.872863 0.323407
O O7 0.208861 0.805116 0.493842
O O8 0.143877 0.734560 0.739587
O O9 0.957385 0.750134 0.516081
O O10 0.544730 0.137032 0.390806
#
# Coordination Sequence:
#
# PCOD9376951 Si02
#       6
#     4   4   8   8   8   8
#     4  10  22  38  64  94 124 160 212 270 340 404
#     4  10  24  40  64  96 132 180 228 278 338 412
#     4  11  22  41  63  92 131 173 225 278 337 404
#     4  12  25  44  68  99 135 180 229 285 344 411
#     4  12  26  45  70 100 137 180 231 286 346 411
#     4  11  22  41  65  95 129 171 219 279 340 404
#
# _framework density 24.185327000000001
#
# number of rings (size 3 to 8) (size 9 to 14) (size 15 to 20)
#    0.000    0.800    0.000    8.400    0.000    1.600 
#    0.000    8.000    0.000    0.000    0.000    0.000 
#    0.000    0.000    0.000    0.000    0.000    0.000 
#
# Total GULP energy -111875.578523 kJ/mol
# GULP energy per Si atom -5593.778926 kJ/mol
# Density = 2.413028 g / cm^3
# Si number density = 24.185327 Si / 1000 Ang^3
#
#
#
# Elastic Constant Matrix: (Units=GPa)
#
#
# Indices 1 2 3 4 5 6 
#
# 1 69.4763 11.2431 29.1553 -0.0001 0.0000 0.0000
# 2 11.2431 75.6633 24.3705 0.0000 0.0000 0.0000
# 3 29.1553 24.3705 144.2424 -0.0001 0.0002 0.0000
# 4 -0.0001 0.0000 -0.0001 59.8974 0.0000 0.0000
# 5 0.0000 0.0000 0.0002 0.0000 27.1390 0.0000
# 6 0.0000 0.0000 0.0000 0.0000 0.0000 35.3245
#
#
#
# Elastic Compliance Matrix: (Units=1/GPa)
#
#
# Indices 1 2 3 4 5 6 
#
# 1 0.015867 -0.001401 -0.002970 0.000000 0.000000 0.000000
# 2 -0.001401 0.014101 -0.002099 0.000000 0.000000 0.000000
# 3 -0.002970 -0.002099 0.007888 0.000000 0.000000 0.000000
# 4 0.000000 0.000000 0.000000 0.016695 0.000000 0.000000
# 5 0.000000 0.000000 0.000000 0.000000 0.036847 0.000000
# 6 0.000000 0.000000 0.000000 0.000000 0.000000 0.028309
#
#
# Mechanical properties :
#
#
# Convention : Reuss Voigt Hill
#
# Bulk Modulus (GPa) = 40.13787 46.54662 43.34225
# Shear Modulus (GPa) = 35.47294 39.44638 37.45966
#
# Velocity S-wave (km/s) = 3.83392 4.04295 3.93982
# Velocity P-wave (km/s) = 6.01919 6.40949 6.21740
#
# Compressibility (1/GPa) = 0.02491412
#
# Stress axis : x y z
#
# Youngs Moduli (GPa) = 63.02542 70.91811 126.77746
#
# Poissons Ratio (x) = 0.09935 0.37658
# Poissons Ratio (y) = 0.08830 0.26613
# Poissons Ratio (z) = 0.18721 0.14887
#
# Static dielectric constant tensor:
#      x y z
#    x 1.966940 0.000000 0.000000 
#    y 0.000000 1.939770 0.000000 
#    z 0.000000 0.000000 1.896870 
# 
# From -- ./inp_files/978.got.cif
#   From: 2010.05.17/outbox.cif.g08.bks.cpg/sg45_1_cif.got.tgz:978.got - 2010.06.03 19:51:22.
