data_PCOD9376272
_publ_section_title
;
Structure prediction by ZEFSAII (Michael W. Deem and Ramdas Pophale) SiO2 
 PCOD9376272
Probable space group: I B A 2
;
_chemical_formula_sum "Si O2"
_cell_formula_units_Z 64
_cell_length_a 25.940466
_cell_length_b 5.609604
_cell_length_c 20.602223
_cell_angle_alpha 90.000000
_cell_angle_beta 90.000000
_cell_angle_gamma 90.000000
_cell_volume 2997.947763
_symmetry_space_group_name_H-M "I B A 2"
_symmetry_group_IT_number 45
_symmetry_cell_setting 'orthorhombic'
loop_
_space_group_symop_operation_xyz
x,y,z
-x,-y,z
-x,y,1/2+z
x,-y,1/2+z
1/2+x,1/2+y,1/2+z
1/2-x,1/2-y,1/2+z
1/2-x,1/2+y,z
1/2+x,1/2-y,z
loop_
_atom_site_type_symbol
_atom_site_label
_atom_site_fract_x
_atom_site_fract_y
_atom_site_fract_z
Si Si1 0.238024 0.705895 0.213090
Si Si2 0.951601 0.319469 0.461146
Si Si3 0.223931 0.178558 0.361638
Si Si4 0.556033 0.708273 0.602946
Si Si5 0.439201 0.205910 0.149774
Si Si6 0.446816 0.531970 0.337045
Si Si7 0.879263 0.597197 0.389053
Si Si8 0.874685 0.270837 0.266831
O O1 0.244578 0.450018 0.180000
O O2 0.269825 0.685717 0.282268
O O3 0.177978 0.736952 0.228826
O O4 0.950988 0.165740 0.526411
O O5 0.897382 0.459761 0.452663
O O6 0.000000 0.500000 0.467068
O O7 0.952842 0.153635 0.396893
O O8 0.254330 0.420299 0.381685
O O9 0.166876 0.215162 0.390675
O O10 0.582041 0.472218 0.633185
O O11 0.499893 0.751495 0.636337
O O12 0.579343 0.974901 0.609380
O O13 0.420831 0.135353 0.221757
O O14 0.500000 0.500000 0.299285
O O15 0.432948 0.784382 0.366301
O O16 0.398211 0.474309 0.292421
O O17 0.863575 0.421211 0.331210
#
# Coordination Sequence:
#
# PCOD9376272 Si02
#       8
#     8   8   8   8   8   8   8   8
#     4  10  19  35  59  82 119 157 191 248 296 370
#     4  11  22  40  58  86 121 165 214 256 302 359
#     4  10  19  36  58  82 122 156 197 244 299 367
#     4  10  23  42  61  80 115 162 216 254 288 339
#     4  10  23  37  62  82 114 162 205 255 289 352
#     4  11  24  33  55  85 129 166 191 245 305 375
#     4  11  23  36  59  91 125 164 200 247 312 387
#     4  11  24  36  56  92 127 157 207 239 317 381
#
# _framework density 21.347937000000002
#
# number of rings (size 3 to 8) (size 9 to 14) (size 15 to 20)
#    0.000    1.500    5.000    1.500    8.750    1.000 
#    0.000    0.000    0.000    0.000    0.000    5.250 
#    0.000    0.000    0.000    0.000    0.000    0.000 
#
# Total GULP energy -178251.699537 kJ/mol
# GULP energy per Si atom -5570.365611 kJ/mol
# Density = 2.129935 g / cm^3
# Si number density = 21.347937 Si / 1000 Ang^3
#
#
#
# Elastic Constant Matrix: (Units=GPa)
#
#
# Indices 1 2 3 4 5 6 
#
# 1 59.3885 4.0976 -1.1724 0.0000 0.0000 0.0000
# 2 4.0976 126.3107 -6.5361 0.0000 0.0000 0.0000
# 3 -1.1724 -6.5361 43.7042 0.0000 0.0000 0.0000
# 4 0.0000 0.0000 0.0000 10.3336 0.0000 0.0000
# 5 0.0000 0.0000 0.0000 0.0000 -17.9098 0.0000
# 6 0.0000 0.0000 0.0000 0.0000 0.0000 28.1032
#
#
#
# Elastic Compliance Matrix: (Units=1/GPa)
#
#
# Indices 1 2 3 4 5 6 
#
# 1 0.016882 -0.000528 0.000374 0.000000 0.000000 0.000000
# 2 -0.000528 0.007995 0.001182 0.000000 0.000000 0.000000
# 3 0.000374 0.001182 0.023068 0.000000 0.000000 0.000000
# 4 0.000000 0.000000 0.000000 0.096772 0.000000 0.000000
# 5 0.000000 0.000000 0.000000 0.000000 -0.055835 0.000000
# 6 0.000000 0.000000 0.000000 0.000000 0.000000 0.035583
#
#
# Mechanical properties :
#
#
# Convention : Reuss Voigt Hill
#
# Bulk Modulus (GPa) = 20.00024 24.68683 22.34354
# Shear Modulus (GPa) = 35.95129 19.63969 27.79549
#
# Velocity S-wave (km/s) = 4.10819 3.03641 3.61227
# Velocity P-wave (km/s) = 5.64730 4.88694 5.28082
#
# Compressibility (1/GPa) = 0.04999941
#
# Stress axis : x y z
#
# Youngs Moduli (GPa) = 59.23427 125.07403 43.35042
#
# Poissons Ratio (x) = 0.06608 -0.01621
# Poissons Ratio (y) = 0.03129 -0.05122
# Poissons Ratio (z) = -0.02215 -0.14778
#
# Static dielectric constant tensor:
#      x y z
#    x 1.841330 0.000000 0.000000 
#    y 0.000000 1.926730 0.000000 
#    z 0.000000 0.000000 1.792610 
# 
# From -- ./inp_files/8736.got.cif
#   From: 2010.05.17/outbox.cif.g08.bks.cpg/sg45_5_cif.got.tgz:8736.got - 2010.06.03 19:51:22.
