data_PCOD9376950
_publ_section_title
;
Structure prediction by ZEFSAII (Michael W. Deem and Ramdas Pophale) SiO2 
 PCOD9376950
Probable space group: I B A 2
;
_chemical_formula_sum "Si O2"
_cell_formula_units_Z 56
_cell_length_a 14.988823
_cell_length_b 16.745860
_cell_length_c 8.559653
_cell_angle_alpha 90.000000
_cell_angle_beta 90.000000
_cell_angle_gamma 90.000000
_cell_volume 2148.479165
_symmetry_space_group_name_H-M "I B A 2"
_symmetry_group_IT_number 45
_symmetry_cell_setting 'orthorhombic'
loop_
_space_group_symop_operation_xyz
x,y,z
-x,-y,z
-x,y,1/2+z
x,-y,1/2+z
1/2+x,1/2+y,1/2+z
1/2-x,1/2-y,1/2+z
1/2-x,1/2+y,z
1/2+x,1/2-y,z
loop_
_atom_site_type_symbol
_atom_site_label
_atom_site_fract_x
_atom_site_fract_y
_atom_site_fract_z
Si Si1 0.100827 0.293367 0.040280
Si Si2 0.190633 0.240181 0.555367
Si Si3 0.111080 0.889991 0.264908
Si Si4 0.364185 0.926037 0.583918
Si Si5 0.677765 0.527459 0.576900
Si Si6 0.989268 0.609955 0.307276
Si Si7 0.913419 0.842585 0.274303
O O1 0.070137 0.211930 0.121781
O O2 0.073993 0.359547 0.168653
O O3 0.206783 0.283614 0.023035
O O4 0.040999 0.316228 0.892343
O O5 0.157246 0.191549 0.707628
O O6 0.175773 0.334953 0.579171
O O7 0.132339 0.209944 0.408416
O O8 0.158223 0.931141 0.412014
O O9 0.008965 0.879097 0.311672
O O10 0.122267 0.948539 0.115721
O O11 0.283086 0.986923 0.582871
O O12 0.428412 0.935845 0.730493
O O13 0.428662 0.929731 0.436804
O O14 0.652311 0.588297 0.715708
#
# Coordination Sequence:
#
# PCOD9376950 Si02
#       7
#     8   8   8   8   8   8   8
#     4  11  23  38  65 103 147 186 244 309 378 444
#     4  12  25  42  72 108 147 198 251 313 384 446
#     4  12  28  46  71 104 149 201 248 313 374 463
#     4  11  23  43  73 107 149 187 246 320 381 453
#     4  12  27  47  71 100 149 200 253 305 378 463
#     4  10  22  38  64 104 141 181 238 314 382 439
#     4  12  25  42  67 103 149 197 251 304 374 454
#
# _framework density 26.06495
#
# number of rings (size 3 to 8) (size 9 to 14) (size 15 to 20)
#    0.000    0.571    2.857    5.571    4.000    1.143 
#    0.000    0.000    0.000   14.571    0.000    0.000 
#    0.000    0.000    0.000    0.000    0.000    0.000 
#
# Total GULP energy -157227.648042 kJ/mol
# GULP energy per Si atom -5615.273144 kJ/mol
# Density = 2.600562 g / cm^3
# Si number density = 26.064950 Si / 1000 Ang^3
#
#
#
# Elastic Constant Matrix: (Units=GPa)
#
#
# Indices 1 2 3 4 5 6 
#
# 1 202.8146 28.1008 61.5083 0.0000 0.0000 0.0000
# 2 28.1008 82.5953 32.9124 0.0000 0.0000 0.0000
# 3 61.5083 32.9124 105.1562 0.0000 0.0000 0.0000
# 4 0.0000 0.0000 0.0000 35.8082 0.0000 0.0000
# 5 0.0000 0.0000 0.0000 0.0000 41.4437 0.0000
# 6 0.0000 0.0000 0.0000 0.0000 0.0000 24.2295
#
#
#
# Elastic Compliance Matrix: (Units=1/GPa)
#
#
# Indices 1 2 3 4 5 6 
#
# 1 0.006033 -0.000739 -0.003298 0.000000 0.000000 0.000000
# 2 -0.000739 0.013923 -0.003926 0.000000 0.000000 0.000000
# 3 -0.003298 -0.003926 0.012667 0.000000 0.000000 0.000000
# 4 0.000000 0.000000 0.000000 0.027927 0.000000 0.000000
# 5 0.000000 0.000000 0.000000 0.000000 0.024129 0.000000
# 6 0.000000 0.000000 0.000000 0.000000 0.000000 0.041272
#
#
# Mechanical properties :
#
#
# Convention : Reuss Voigt Hill
#
# Bulk Modulus (GPa) = 59.88280 70.62322 65.25301
# Shear Modulus (GPa) = 33.91189 38.16594 36.03891
#
# Velocity S-wave (km/s) = 3.61092 3.83072 3.72245
# Velocity P-wave (km/s) = 6.35684 6.83519 6.60035
#
# Compressibility (1/GPa) = 0.01669929
#
# Stress axis : x y z
#
# Youngs Moduli (GPa) = 165.75371 71.82483 78.94378
#
# Poissons Ratio (x) = 0.05304 0.26033
# Poissons Ratio (y) = 0.12241 0.30991
# Poissons Ratio (z) = 0.54661 0.28196
#
# Static dielectric constant tensor:
#      x y z
#    x 1.982780 0.000000 0.000000 
#    y 0.000000 2.100270 0.000000 
#    z 0.000000 0.000000 2.024470 
# 
# From -- ./inp_files/1812.got.cif
#   From: 2010.05.17/outbox.cif.g08.bks.cpg/sg45_1_cif.got.tgz:1812.got - 2010.06.03 19:51:22.
