data_PCOD9376991
_publ_section_title
;
Structure prediction by ZEFSAII (Michael W. Deem and Ramdas Pophale) SiO2 
 PCOD9376991
Probable space group: I B A 2
;
_chemical_formula_sum "Si O2"
_cell_formula_units_Z 56
_cell_length_a 18.917279
_cell_length_b 6.794203
_cell_length_c 17.899743
_cell_angle_alpha 90.000000
_cell_angle_beta 90.000000
_cell_angle_gamma 90.000000
_cell_volume 2300.615192
_symmetry_space_group_name_H-M "I B A 2"
_symmetry_group_IT_number 45
_symmetry_cell_setting 'orthorhombic'
loop_
_space_group_symop_operation_xyz
x,y,z
-x,-y,z
-x,y,1/2+z
x,-y,1/2+z
1/2+x,1/2+y,1/2+z
1/2-x,1/2-y,1/2+z
1/2-x,1/2+y,z
1/2+x,1/2-y,z
loop_
_atom_site_type_symbol
_atom_site_label
_atom_site_fract_x
_atom_site_fract_y
_atom_site_fract_z
Si Si1 0.000000 0.500000 0.024890
Si Si2 0.260718 0.990870 0.315032
Si Si3 0.236307 0.747447 0.198153
Si Si4 0.000000 0.500000 0.777779
Si Si5 0.098163 0.596439 0.901315
Si Si6 0.681534 0.454793 0.463181
Si Si7 0.179385 0.686769 0.555303
Si Si8 0.590873 0.852118 0.141156
O O1 0.025955 0.673588 0.081924
O O2 0.061283 0.459684 0.963170
O O3 0.249901 0.740016 0.292538
O O4 0.336410 0.992286 0.356123
O O5 0.264481 0.990060 0.219585
O O6 0.201509 0.984663 0.379620
O O7 0.284281 0.716862 0.126659
O O8 0.155974 0.783526 0.167526
O O9 0.958079 0.357581 0.835303
O O10 0.944545 0.593601 0.720245
O O11 0.129766 0.772635 0.950717
O O12 0.755877 0.398589 0.504383
O O13 0.648319 0.632084 0.508915
O O14 0.129509 0.526894 0.594799
#
# Coordination Sequence:
#
# PCOD9376991 Si02
#       8
#     4   8   8   4   8   8   8   8
#     4  10  24  40  66  88 126 184 228 268 310 426
#     4  12  22  37  65 102 134 167 218 289 357 408
#     4  12  21  37  64  99 131 167 219 287 351 402
#     4  10  22  40  64  90 124 186 234 272 306 420
#     4  11  21  40  63  94 133 176 227 265 344 409
#     4  12  23  39  65 103 143 170 219 293 362 420
#     4  12  22  39  65 102 137 173 222 292 360 413
#     4  11  22  40  64  94 124 172 235 268 333 400
#
# _framework density 24.341314000000001
#
# number of rings (size 3 to 8) (size 9 to 14) (size 15 to 20)
#    0.000    0.571    7.143    1.714    0.000    0.000 
#    0.000    0.714    0.000    0.000    0.000    0.000 
#    0.000    0.000    0.000    0.000    0.000    0.000 
#
# Total GULP energy -156019.380186 kJ/mol
# GULP energy per Si atom -5572.120721 kJ/mol
# Density = 2.428591 g / cm^3
# Si number density = 24.341314 Si / 1000 Ang^3
#
#
#
# Elastic Constant Matrix: (Units=GPa)
#
#
# Indices 1 2 3 4 5 6 
#
# 1 103.7415 33.5292 49.4262 0.0000 0.0000 0.0000
# 2 33.5292 112.1447 61.7605 0.0000 0.0000 0.0000
# 3 49.4262 61.7605 191.5956 0.0000 0.0000 0.0000
# 4 0.0000 0.0000 0.0000 57.7800 0.0000 0.0000
# 5 0.0000 0.0000 0.0000 0.0000 66.1575 0.0000
# 6 0.0000 0.0000 0.0000 0.0000 0.0000 5.8059
#
#
#
# Elastic Compliance Matrix: (Units=1/GPa)
#
#
# Indices 1 2 3 4 5 6 
#
# 1 0.011411 -0.002177 -0.002242 0.000000 0.000000 0.000000
# 2 -0.002177 0.011257 -0.003067 0.000000 0.000000 0.000000
# 3 -0.002242 -0.003067 0.006786 0.000000 0.000000 0.000000
# 4 0.000000 0.000000 0.000000 0.017307 0.000000 0.000000
# 5 0.000000 0.000000 0.000000 0.000000 0.015115 0.000000
# 6 0.000000 0.000000 0.000000 0.000000 0.000000 0.172240
#
#
# Mechanical properties :
#
#
# Convention : Reuss Voigt Hill
#
# Bulk Modulus (GPa) = 69.04943 77.43483 73.24213
# Shear Modulus (GPa) = 19.69152 43.46641 31.57896
#
# Velocity S-wave (km/s) = 2.84733 4.23034 3.60577
# Velocity P-wave (km/s) = 6.26406 7.46607 6.89133
#
# Compressibility (1/GPa) = 0.01448238
#
# Stress axis : x y z
#
# Youngs Moduli (GPa) = 87.63385 88.83325 147.35428
#
# Poissons Ratio (x) = 0.19339 0.33037
# Poissons Ratio (y) = 0.19078 0.45195
# Poissons Ratio (z) = 0.19647 0.27246
#
# Static dielectric constant tensor:
#      x y z
#    x 2.122090 0.000000 0.000000 
#    y 0.000000 2.192670 0.000000 
#    z 0.000000 0.000000 1.894200 
# 
# From -- ./inp_files/8440.got.cif
#   From: 2010.05.17/outbox.cif.g08.bks.cpg/sg45_5_cif.got.tgz:8440.got - 2010.06.03 19:51:22.
