data_PCOD9376369
_publ_section_title
;
Structure prediction by ZEFSAII (Michael W. Deem and Ramdas Pophale) SiO2 
 PCOD9376369
Probable space group: I B A 2
;
_chemical_formula_sum "Si O2"
_cell_formula_units_Z 64
_cell_length_a 20.758649
_cell_length_b 17.805830
_cell_length_c 8.977457
_cell_angle_alpha 90.000000
_cell_angle_beta 90.000000
_cell_angle_gamma 90.000000
_cell_volume 3318.292320
_symmetry_space_group_name_H-M "I B A 2"
_symmetry_group_IT_number 45
_symmetry_cell_setting 'orthorhombic'
loop_
_space_group_symop_operation_xyz
x,y,z
-x,-y,z
-x,y,1/2+z
x,-y,1/2+z
1/2+x,1/2+y,1/2+z
1/2-x,1/2-y,1/2+z
1/2-x,1/2+y,z
1/2+x,1/2-y,z
loop_
_atom_site_type_symbol
_atom_site_label
_atom_site_fract_x
_atom_site_fract_y
_atom_site_fract_z
Si Si1 0.746009 0.009623 0.372830
Si Si2 0.919284 0.853391 0.093966
Si Si3 0.603874 0.483061 0.293751
Si Si4 0.956998 0.851339 0.771140
Si Si5 0.730718 0.655459 0.548743
Si Si6 0.209069 0.251949 0.281881
Si Si7 0.867319 0.850314 0.504947
Si Si8 0.723199 0.893444 0.599373
O O1 0.754090 0.070514 0.506248
O O2 0.711287 0.049930 0.236192
O O3 0.819280 0.996182 0.313989
O O4 0.711306 0.937793 0.445293
O O5 0.912180 0.941839 0.137807
O O6 0.844582 0.833254 0.083796
O O7 0.972367 0.831008 0.214326
O O8 0.946615 0.825708 0.937906
O O9 0.562988 0.559550 0.291183
O O10 0.595675 0.419871 0.423736
O O11 0.909575 0.822615 0.642252
O O12 0.752071 0.702385 0.406667
O O13 0.756125 0.691811 0.700956
O O14 0.154415 0.209018 0.378525
O O15 0.192946 0.314961 0.155660
O O16 0.799991 0.877478 0.578445
#
# Coordination Sequence:
#
# PCOD9376369 Si02
#       8
#     8   8   8   8   8   8   8   8
#     4  10  20  33  55  76 105 142 192 244 291 340
#     4  12  24  36  51  75 110 151 204 249 287 339
#     4  11  20  35  52  75 108 151 202 249 288 327
#     4  12  24  37  50  75 108 153 201 252 284 334
#     4  11  22  38  56  82 108 153 202 248 303 357
#     4  11  22  36  56  79 109 150 200 245 306 363
#     4  11  21  35  56  75 108 152 201 246 299 355
#     4  10  20  34  53  79 105 144 190 238 294 353
#
# _framework density 19.287030000000001
#
# number of rings (size 3 to 8) (size 9 to 14) (size 15 to 20)
#    0.000    1.000    5.000    3.375    1.750    1.000 
#    0.000    0.000    0.000    0.000    0.000    0.000 
#    0.000    0.000    0.000   23.625    1.000    0.000 
#
# Total GULP energy -178177.579166 kJ/mol
# GULP energy per Si atom -5568.049349 kJ/mol
# Density = 1.924313 g / cm^3
# Si number density = 19.287030 Si / 1000 Ang^3
#
#
#
# Elastic Constant Matrix: (Units=GPa)
#
#
# Indices 1 2 3 4 5 6 
#
# 1 18.7494 5.5037 4.7244 0.0000 0.0000 0.0000
# 2 5.5037 52.0338 45.7890 0.0000 0.0000 0.0000
# 3 4.7244 45.7890 89.4867 0.0000 0.0000 0.0000
# 4 0.0000 0.0000 0.0000 48.6365 0.0000 0.0000
# 5 0.0000 0.0000 0.0000 0.0000 30.8091 0.0000
# 6 0.0000 0.0000 0.0000 0.0000 0.0000 11.1636
#
#
#
# Elastic Compliance Matrix: (Units=1/GPa)
#
#
# Indices 1 2 3 4 5 6 
#
# 1 0.055045 -0.005939 0.000133 0.000000 0.000000 0.000000
# 2 -0.005939 0.035601 -0.017903 0.000000 0.000000 0.000000
# 3 0.000133 -0.017903 0.020328 0.000000 0.000000 0.000000
# 4 0.000000 0.000000 0.000000 0.020561 0.000000 0.000000
# 5 0.000000 0.000000 0.000000 0.000000 0.032458 0.000000
# 6 0.000000 0.000000 0.000000 0.000000 0.000000 0.089577
#
#
# Mechanical properties :
#
#
# Convention : Reuss Voigt Hill
#
# Bulk Modulus (GPa) = 15.73414 30.25600 22.99507
# Shear Modulus (GPa) = 15.51961 25.07202 20.29581
#
# Velocity S-wave (km/s) = 2.83974 3.60938 3.24744
# Velocity P-wave (km/s) = 4.35060 5.75252 5.09996
#
# Compressibility (1/GPa) = 0.06355605
#
# Stress axis : x y z
#
# Youngs Moduli (GPa) = 18.16695 28.08934 49.19224
#
# Poissons Ratio (x) = 0.16683 -0.00654
# Poissons Ratio (y) = 0.10790 0.88068
# Poissons Ratio (z) = -0.00241 0.50288
#
# Static dielectric constant tensor:
#      x y z
#    x 1.715340 0.000000 0.000000 
#    y 0.000000 1.807200 0.000000 
#    z 0.000000 0.000000 1.770100 
# 
# From -- ./inp_files/2567.got.cif
#   From: 2010.05.17/outbox.cif.g08.bks.cpg/sg45_2_cif.got.tgz:2567.got - 2010.06.03 19:51:22.
