data_PCOD9376140
_publ_section_title
;
Structure prediction by ZEFSAII (Michael W. Deem and Ramdas Pophale) SiO2 
 PCOD9376140
Probable space group: I B A 2
;
_chemical_formula_sum "Si O2"
_cell_formula_units_Z 44
_cell_length_a 8.519140
_cell_length_b 15.027169
_cell_length_c 13.795372
_cell_angle_alpha 90.000000
_cell_angle_beta 90.000000
_cell_angle_gamma 90.000000
_cell_volume 1766.063610
_symmetry_space_group_name_H-M "I B A 2"
_symmetry_group_IT_number 45
_symmetry_cell_setting 'orthorhombic'
loop_
_space_group_symop_operation_xyz
x,y,z
-x,-y,z
-x,y,1/2+z
x,-y,1/2+z
1/2+x,1/2+y,1/2+z
1/2-x,1/2-y,1/2+z
1/2-x,1/2+y,z
1/2+x,1/2-y,z
loop_
_atom_site_type_symbol
_atom_site_label
_atom_site_fract_x
_atom_site_fract_y
_atom_site_fract_z
Si Si1 0.325272 0.608350 0.483080
Si Si2 0.500000 0.500000 0.133659
Si Si3 0.730737 0.197080 0.516006
Si Si4 0.864037 0.876546 0.275118
Si Si5 0.072276 0.656768 0.615644
Si Si6 0.778223 0.816373 0.797409
O O1 0.445217 0.574300 0.560432
O O2 0.354052 0.713741 0.474951
O O3 0.340611 0.572402 0.376654
O O4 0.159086 0.595996 0.535557
O O5 0.635817 0.454638 0.196409
O O6 0.863580 0.244912 0.581508
O O7 0.609518 0.151104 0.588936
O O8 0.768451 0.154353 0.411297
O O9 0.043722 0.839495 0.267365
O O10 0.749669 0.790700 0.283115
O O11 0.148313 0.643595 0.722156
#
# Coordination Sequence:
#
# PCOD9376140 Si02
#       6
#     8   4   8   8   8   8
#     4   9  21  34  57  87 123 156 206 247 308 365
#     4  12  20  42  56  96 124 172 204 252 306 404
#     4   9  19  32  56  87 126 152 201 264 306 356
#     4  11  23  36  67  94 124 162 209 269 310 375
#     4  10  18  34  52  89 121 159 197 258 309 365
#     4  11  20  37  60  99 120 159 214 265 318 363
#
# _framework density 24.914165000000001
#
# number of rings (size 3 to 8) (size 9 to 14) (size 15 to 20)
#    1.091    0.727    1.818    4.909    0.000    0.000 
#    0.000    0.000    0.000    1.091    9.455    0.000 
#    0.000    0.000    0.000    0.000    0.000    0.000 
#
# Total GULP energy -122565.898767 kJ/mol
# GULP energy per Si atom -5571.177217 kJ/mol
# Density = 2.485746 g / cm^3
# Si number density = 24.914165 Si / 1000 Ang^3
#
#
#
# Elastic Constant Matrix: (Units=GPa)
#
#
# Indices 1 2 3 4 5 6 
#
# 1 26.7559 -6.3045 32.2428 0.0000 0.0000 0.0000
# 2 -6.3045 46.9277 19.0312 0.0000 0.0000 0.0000
# 3 32.2428 19.0312 166.9090 0.0000 0.0000 0.0000
# 4 0.0000 0.0000 0.0000 20.2014 0.0000 0.0000
# 5 0.0000 0.0000 0.0000 0.0000 37.6690 0.0000
# 6 0.0000 0.0000 0.0000 0.0000 0.0000 17.0060
#
#
#
# Elastic Compliance Matrix: (Units=1/GPa)
#
#
# Indices 1 2 3 4 5 6 
#
# 1 0.054640 0.012185 -0.011944 0.000000 0.000000 0.000000
# 2 0.012185 0.025060 -0.005211 0.000000 0.000000 0.000000
# 3 -0.011944 -0.005211 0.008893 0.000000 0.000000 0.000000
# 4 0.000000 0.000000 0.000000 0.049501 0.000000 0.000000
# 5 0.000000 0.000000 0.000000 0.000000 0.026547 0.000000
# 6 0.000000 0.000000 0.000000 0.000000 0.000000 0.058803
#
#
# Mechanical properties :
#
#
# Convention : Reuss Voigt Hill
#
# Bulk Modulus (GPa) = 12.71446 36.72571 24.72009
# Shear Modulus (GPa) = 19.26023 28.01683 23.63853
#
# Velocity S-wave (km/s) = 2.78342 3.35705 3.08360
# Velocity P-wave (km/s) = 3.92992 5.45887 4.75623
#
# Compressibility (1/GPa) = 0.07865062
#
# Stress axis : x y z
#
# Youngs Moduli (GPa) = 18.30162 39.90477 112.45005
#
# Poissons Ratio (x) = -0.48622 1.34315
# Poissons Ratio (y) = -0.22300 0.58599
# Poissons Ratio (z) = 0.21860 0.20795
#
# Static dielectric constant tensor:
#      x y z
#    x 2.118400 0.000000 0.000000 
#    y 0.000000 2.027280 0.000000 
#    z 0.000000 0.000000 2.026810 
# 
# From -- ./inp_files/5553.got.cif
#   From: 2010.05.17/outbox.cif.g08.bks.cpg/sg45_3_cif.got.tgz:5553.got - 2010.06.03 19:51:22.
