data_PCOD9376648
_publ_section_title
;
Structure prediction by ZEFSAII (Michael W. Deem and Ramdas Pophale) SiO2 
 PCOD9376648
Probable space group: I B A 2
;
_chemical_formula_sum "Si O2"
_cell_formula_units_Z 60
_cell_length_a 29.037389
_cell_length_b 11.901840
_cell_length_c 8.649580
_cell_angle_alpha 90.000000
_cell_angle_beta 90.000000
_cell_angle_gamma 90.000000
_cell_volume 2989.280644
_symmetry_space_group_name_H-M "I B A 2"
_symmetry_group_IT_number 45
_symmetry_cell_setting 'orthorhombic'
loop_
_space_group_symop_operation_xyz
x,y,z
-x,-y,z
-x,y,1/2+z
x,-y,1/2+z
1/2+x,1/2+y,1/2+z
1/2-x,1/2-y,1/2+z
1/2-x,1/2+y,z
1/2+x,1/2-y,z
loop_
_atom_site_type_symbol
_atom_site_label
_atom_site_fract_x
_atom_site_fract_y
_atom_site_fract_z
Si Si1 0.000000 0.000000 0.384531
Si Si2 0.844194 0.550908 0.410006
Si Si3 0.348586 0.508360 0.471941
Si Si4 0.372662 0.155182 0.624467
Si Si5 0.302738 0.348325 0.711989
Si Si6 0.303060 0.864985 0.708184
Si Si7 0.614010 0.279260 0.844475
Si Si8 0.560010 0.390321 0.625644
O O1 0.960275 0.041384 0.270943
O O2 0.021087 0.096833 0.494645
O O3 0.880905 0.613754 0.299661
O O4 0.865736 0.456319 0.521625
O O5 0.810155 0.485982 0.291731
O O6 0.815929 0.627970 0.527550
O O7 0.313085 0.448825 0.589641
O O8 0.325286 0.604366 0.369021
O O9 0.367543 0.404720 0.370933
O O10 0.393698 0.557146 0.555006
O O11 0.328471 0.236926 0.650922
O O12 0.403189 0.232979 0.510822
O O13 0.248908 0.327222 0.729782
O O14 0.341423 0.789166 0.789661
O O15 0.576528 0.276186 0.708071
#
# Coordination Sequence:
#
# PCOD9376648 Si02
#       8
#     4   8   8   8   8   8   8   8
#     4  10  22  36  68  86 116 166 192 244 306 426
#     4   9  19  38  51  70 106 155 204 272 297 318
#     4  11  21  37  54  82 127 165 197 254 305 364
#     4   9  21  35  54  75 107 152 205 257 298 350
#     4  11  22  33  53  82 114 170 215 246 309 352
#     4  10  21  35  54  77 117 158 223 262 293 349
#     4  10  21  37  54  83 122 156 203 255 298 369
#     4  11  20  40  58  90 121 160 197 239 320 374
#
# _framework density 20.071717
#
# number of rings (size 3 to 8) (size 9 to 14) (size 15 to 20)
#    0.000    1.867    2.667    0.800    1.867    5.333 
#    0.000    0.000    0.000    0.000    0.000    0.000 
#    0.000   51.200    0.000    0.000    0.000    0.000 
#
# Total GULP energy -167087.967630 kJ/mol
# GULP energy per Si atom -5569.598921 kJ/mol
# Density = 2.002603 g / cm^3
# Si number density = 20.071717 Si / 1000 Ang^3
#
#
#
# Elastic Constant Matrix: (Units=GPa)
#
#
# Indices 1 2 3 4 5 6 
#
# 1 60.5485 11.0514 38.6639 0.0000 0.0000 0.0000
# 2 11.0514 52.3420 32.3036 0.0000 0.0000 0.0000
# 3 38.6639 32.3036 136.2802 0.0000 0.0000 0.0000
# 4 0.0000 0.0000 0.0000 34.2118 0.0000 0.0000
# 5 0.0000 0.0000 0.0000 0.0000 7.1423 0.0000
# 6 0.0000 0.0000 0.0000 0.0000 0.0000 15.7459
#
#
#
# Elastic Compliance Matrix: (Units=1/GPa)
#
#
# Indices 1 2 3 4 5 6 
#
# 1 0.020202 -0.000853 -0.005529 0.000000 0.000000 0.000000
# 2 -0.000853 0.022415 -0.005071 0.000000 0.000000 0.000000
# 3 -0.005529 -0.005071 0.010109 0.000000 0.000000 0.000000
# 4 0.000000 0.000000 0.000000 0.029230 0.000000 0.000000
# 5 0.000000 0.000000 0.000000 0.000000 0.140012 0.000000
# 6 0.000000 0.000000 0.000000 0.000000 0.000000 0.063508
#
#
# Mechanical properties :
#
#
# Convention : Reuss Voigt Hill
#
# Bulk Modulus (GPa) = 33.53594 45.91207 39.72400
# Shear Modulus (GPa) = 15.70735 22.56344 19.13540
#
# Velocity S-wave (km/s) = 2.80046 3.35646 3.09099
# Velocity P-wave (km/s) = 5.21547 6.15993 5.70727
#
# Compressibility (1/GPa) = 0.02981876
#
# Stress axis : x y z
#
# Youngs Moduli (GPa) = 49.49950 44.61304 98.92534
#
# Poissons Ratio (x) = 0.03805 0.54700
# Poissons Ratio (y) = 0.04222 0.50167
# Poissons Ratio (z) = 0.27370 0.22624
#
# Static dielectric constant tensor:
#      x y z
#    x 1.710180 0.000000 0.000000 
#    y 0.000000 1.763280 0.000000 
#    z 0.000000 0.000000 1.805790 
# 
# From -- ./inp_files/1459.got.cif
#   From: 2010.05.17/outbox.cif.g08.bks.cpg/sg45_1_cif.got.tgz:1459.got - 2010.06.03 19:51:22.
