data_PCOD9376193
_publ_section_title
;
Structure prediction by ZEFSAII (Michael W. Deem and Ramdas Pophale) SiO2 
 PCOD9376193
Probable space group: I B A 2
;
_chemical_formula_sum "Si O2"
_cell_formula_units_Z 36
_cell_length_a 7.076633
_cell_length_b 16.758117
_cell_length_c 11.516685
_cell_angle_alpha 90.000000
_cell_angle_beta 90.000000
_cell_angle_gamma 90.000000
_cell_volume 1365.775695
_symmetry_space_group_name_H-M "I B A 2"
_symmetry_group_IT_number 45
_symmetry_cell_setting 'orthorhombic'
loop_
_space_group_symop_operation_xyz
x,y,z
-x,-y,z
-x,y,1/2+z
x,-y,1/2+z
1/2+x,1/2+y,1/2+z
1/2-x,1/2-y,1/2+z
1/2-x,1/2+y,z
1/2+x,1/2-y,z
loop_
_atom_site_type_symbol
_atom_site_label
_atom_site_fract_x
_atom_site_fract_y
_atom_site_fract_z
Si Si1 0.500000 0.500000 0.905840
Si Si2 0.244405 0.596034 0.052207
Si Si3 0.261989 0.050385 0.719077
Si Si4 0.580732 0.324737 0.263527
Si Si5 0.461963 0.848434 0.852738
O O1 0.433666 0.576267 0.978611
O O2 0.602670 0.620554 0.230366
O O3 0.077011 0.625712 0.968398
O O4 0.222587 0.506735 0.108161
O O5 0.295152 0.662617 0.146664
O O6 0.177853 0.993425 0.819245
O O7 0.456669 0.089483 0.757291
O O8 0.515990 0.237945 0.302015
O O9 0.738068 0.343837 0.362380
#
# Coordination Sequence:
#
# PCOD9376193 Si02
#       5
#     4   8   8   8   8
#     4  10  18  42  78 108 144 206 262 334 402 486
#     4  11  24  48  77 116 153 223 265 340 426 495
#     4  11  22  49  75 106 161 203 272 336 401 503
#     4  12  23  51  72 112 161 208 266 342 411 505
#     4  11  28  46  75 117 157 206 275 338 412 501
#
# _framework density 26.358646
#
# number of rings (size 3 to 8) (size 9 to 14) (size 15 to 20)
#    0.000    0.889    6.667    0.000    0.000    2.667 
#   12.000    0.000    0.000    0.000    0.000    0.000 
#    0.000    0.000    0.000    0.000    0.000    0.000 
#
# Total GULP energy -100524.801372 kJ/mol
# GULP energy per Si atom -5584.711187 kJ/mol
# Density = 2.629865 g / cm^3
# Si number density = 26.358646 Si / 1000 Ang^3
#
#
#
# Elastic Constant Matrix: (Units=GPa)
#
#
# Indices 1 2 3 4 5 6 
#
# 1 185.0783 76.9313 49.6147 0.0000 0.0000 0.0000
# 2 76.9313 190.3023 58.4481 0.0001 0.0000 0.0000
# 3 49.6147 58.4481 114.7714 0.0001 0.0000 0.0000
# 4 0.0000 0.0001 0.0001 49.9096 0.0000 0.0000
# 5 0.0000 0.0000 0.0000 0.0000 37.5364 0.0000
# 6 0.0000 0.0000 0.0000 0.0000 0.0000 57.7678
#
#
#
# Elastic Compliance Matrix: (Units=1/GPa)
#
#
# Indices 1 2 3 4 5 6 
#
# 1 0.006803 -0.002189 -0.001826 0.000000 0.000000 0.000000
# 2 -0.002189 0.006934 -0.002585 0.000000 0.000000 0.000000
# 3 -0.001826 -0.002585 0.010818 0.000000 0.000000 0.000000
# 4 0.000000 0.000000 0.000000 0.020036 0.000000 0.000000
# 5 0.000000 0.000000 0.000000 0.000000 0.026641 0.000000
# 6 0.000000 0.000000 0.000000 0.000000 0.000000 0.017311
#
#
# Mechanical properties :
#
#
# Convention : Reuss Voigt Hill
#
# Bulk Modulus (GPa) = 88.06401 95.57114 91.81757
# Shear Modulus (GPa) = 47.38131 49.38662 48.38397
#
# Velocity S-wave (km/s) = 4.24437 4.33325 4.28904
# Velocity P-wave (km/s) = 7.58301 7.83408 7.70956
#
# Compressibility (1/GPa) = 0.01135538
#
# Stress axis : x y z
#
# Youngs Moduli (GPa) = 147.00338 144.22453 92.43435
#
# Poissons Ratio (x) = 0.31574 0.16877
# Poissons Ratio (y) = 0.32182 0.23891
# Poissons Ratio (z) = 0.26840 0.37277
#
# Static dielectric constant tensor:
#      x y z
#    x 2.132580 0.000000 0.000000 
#    y 0.000000 2.149310 0.000000 
#    z 0.000000 0.000000 2.179410 
# 
# From -- ./inp_files/5516.got.cif
#   From: 2010.05.17/outbox.cif.g08.bks.cpg/sg45_3_cif.got.tgz:5516.got - 2010.06.03 19:51:22.
