data_PCOD9376012
_publ_section_title
;
Structure prediction by ZEFSAII (Michael W. Deem and Ramdas Pophale) SiO2 
 PCOD9376012
Probable space group: I M M 2
;
_chemical_formula_sum "Si O2"
_cell_formula_units_Z 24
_cell_length_a 15.000000
_cell_length_b 9.000000
_cell_length_c 18.000000
_cell_angle_alpha 90.000000
_cell_angle_beta 90.000000
_cell_angle_gamma 90.000000
_cell_volume 2430.000000
_symmetry_space_group_name_H-M "I M M 2"
_symmetry_group_IT_number 44
_symmetry_cell_setting 'orthorhombic'
loop_
_space_group_symop_operation_xyz
x,y,z
-x,-y,z
-x,y,z
x,-y,z
1/2+x,1/2+y,1/2+z
1/2-x,1/2-y,1/2+z
1/2-x,1/2+y,1/2+z
1/2+x,1/2-y,1/2+z
loop_
_atom_site_type_symbol
_atom_site_label
_atom_site_fract_x
_atom_site_fract_y
_atom_site_fract_z
Si Si1 0.000000 0.674701 0.623821
Si Si2 0.800082 0.332009 0.024275
Si Si3 0.000000 0.824464 0.233191
Si Si4 0.327176 0.331778 0.168561
Si Si5 0.000000 0.328913 0.079814
Si Si6 0.500000 0.677151 0.969256
Si Si7 0.316267 0.171967 0.918859
Si Si8 0.694367 0.325860 0.775823
O O1 0.908830 0.717075 0.664543
O O2 0.000000 0.793139 0.556652
O O3 0.000000 0.500000 0.601636
O O4 0.789719 0.500000 0.992017
O O5 0.736768 0.334585 0.096713
O O6 0.905397 0.311463 0.038629
O O7 0.757410 0.194036 0.981675
O O8 0.092731 0.769193 0.265941
O O9 0.000000 0.785025 0.147288
O O10 0.000000 0.000000 0.246625
O O11 0.359842 0.500000 0.180967
O O12 0.260352 0.274073 0.229978
O O13 0.000000 0.500000 0.108727
O O14 0.500000 0.500000 0.951266
O O15 0.587993 0.762408 0.942370
O O16 0.282845 0.290473 0.859303
O O17 0.323474 0.000000 0.896139
O O18 0.699000 0.500000 0.756320
#
# Coordination Sequence:
#
# PCOD9376012 Si02
#       8
#     4   8   4   8   4   4   8   8
#     4  12  24  39  62  93 124 158 206 254 304 367
#     4  10  21  38  62  89 122 161 201 250 306 360
#     4  10  21  35  58  90 123 157 192 243 301 356
#     4  11  22  39  64  91 123 161 204 255 307 361
#     4  10  20  37  62  91 120 156 200 244 292 355
#     4  12  23  39  62  90 125 161 200 253 315 370
#     4  12  25  40  61  90 124 163 207 254 308 371
#     4  11  23  40  61  89 127 166 205 251 306 367
#
# _framework density 9.8765429999999999
#
# number of rings (size 3 to 8) (size 9 to 14) (size 15 to 20)
#    0.000    1.000    3.333    4.500    0.000    2.667 
#    0.000    0.833    0.000    1.000    0.000    0.000 
#    0.000    0.000    0.000    0.000    0.000    0.000 
#
# Total GULP energy -133697.415476 kJ/mol
# GULP energy per Si atom -5570.725645 kJ/mol
# Density = 0.985406 g / cm^3
# Si number density = 9.876543 Si / 1000 Ang^3
#
#
#
# Elastic Constant Matrix: (Units=GPa)
#
#
# Indices 1 2 3 4 5 6 
#
# 1 98.4167 40.6140 21.4823 0.0000 0.0000 0.0000
# 2 40.6140 24.1430 -7.1838 0.0000 0.0000 0.0000
# 3 21.4823 -7.1838 26.6218 0.0000 0.0000 0.0000
# 4 0.0000 0.0000 0.0000 24.6513 0.0000 0.0000
# 5 0.0000 0.0000 0.0000 0.0000 22.4759 0.0000
# 6 0.0000 0.0000 0.0000 0.0000 0.0000 9.8758
#
#
#
# Elastic Compliance Matrix: (Units=1/GPa)
#
#
# Indices 1 2 3 4 5 6 
#
# 1 -0.062796 0.131254 0.086092 0.000000 0.000000 0.000000
# 2 0.131254 -0.229307 -0.167793 0.000000 0.000000 0.000000
# 3 0.086092 -0.167793 -0.077186 0.000000 0.000000 0.000000
# 4 0.000000 0.000000 0.000000 0.040566 0.000000 0.000000
# 5 0.000000 0.000000 0.000000 0.000000 0.044492 0.000000
# 6 0.000000 0.000000 0.000000 0.000000 0.000000 0.101258
#
#
# Mechanical properties :
#
#
# Convention : Reuss Voigt Hill
#
# Bulk Modulus (GPa) = -3.70121 28.77848 12.53864
# Shear Modulus (GPa) = -13.43576 17.68519 2.12471
#
# Velocity S-wave (km/s) = -2.61087 2.99542 1.03825
# Velocity P-wave (km/s) = 3.31159 5.15404 2.79263
#
# Compressibility (1/GPa) = -0.27018224
#
# Stress axis : x y z
#
# Youngs Moduli (GPa) = -15.92448 -4.36097 -12.95567
#
# Poissons Ratio (x) = 0.57240 1.11538
# Poissons Ratio (y) = 2.09016 -2.17387
# Poissons Ratio (z) = 1.37097 -0.73174
#
# Static dielectric constant tensor:
#      x y z
#    x 1.613910 0.000000 0.000000 
#    y 0.000000 1.650570 0.000000 
#    z 0.000000 0.000000 1.791640 
# 
# From -- ./inp_files/20358.got.cif
#   From: 2010.05.17/outbox.ucp.g08.bks.cvg/sg44_11_cif.got.tgz:20358.got - 2010.06.11 16:32:36.
