data_PCOD9376723
_publ_section_title
;
Structure prediction by ZEFSAII (Michael W. Deem and Ramdas Pophale) SiO2 
 PCOD9376723
Probable space group: I B A 2
;
_chemical_formula_sum "Si O2"
_cell_formula_units_Z 64
_cell_length_a 15.768119
_cell_length_b 8.842694
_cell_length_c 19.913307
_cell_angle_alpha 90.000000
_cell_angle_beta 90.000000
_cell_angle_gamma 90.000000
_cell_volume 2776.565191
_symmetry_space_group_name_H-M "I B A 2"
_symmetry_group_IT_number 45
_symmetry_cell_setting 'orthorhombic'
loop_
_space_group_symop_operation_xyz
x,y,z
-x,-y,z
-x,y,1/2+z
x,-y,1/2+z
1/2+x,1/2+y,1/2+z
1/2-x,1/2-y,1/2+z
1/2-x,1/2+y,z
1/2+x,1/2-y,z
loop_
_atom_site_type_symbol
_atom_site_label
_atom_site_fract_x
_atom_site_fract_y
_atom_site_fract_z
Si Si1 0.316848 0.766663 0.656620
Si Si2 0.607780 0.561767 0.520700
Si Si3 0.918779 0.647137 0.938001
Si Si4 0.308311 0.920249 0.518314
Si Si5 0.089061 0.781721 0.940100
Si Si6 0.830432 0.701828 0.803978
Si Si7 0.357766 0.437635 0.808579
Si Si8 0.635095 0.412134 0.162098
O O1 0.342189 0.850783 0.588167
O O2 0.355180 0.830031 0.726297
O O3 0.334317 0.587585 0.655547
O O4 0.215954 0.800396 0.660612
O O5 0.595859 0.679110 0.460977
O O6 0.710201 0.541019 0.525209
O O7 0.571058 0.401420 0.498709
O O8 0.581745 0.616826 0.594952
O O9 0.883138 0.624010 0.863320
O O10 0.020790 0.648241 0.938790
O O11 0.863928 0.559526 0.993326
O O12 0.322085 0.794879 0.460220
O O13 0.091284 0.870518 0.870781
O O14 0.733643 0.645347 0.810086
O O15 0.840285 0.883069 0.812681
O O16 0.401659 0.401793 0.736952
#
# Coordination Sequence:
#
# PCOD9376723 Si02
#       8
#     8   8   8   8   8   8   8   8
#     4   9  19  36  61  91 123 155 208 272 312 366
#     4  11  21  39  66  92 121 161 219 264 311 379
#     4  12  26  39  60  93 132 171 205 261 325 379
#     4  11  23  41  64  93 121 170 219 262 317 378
#     4  12  24  41  60  90 134 166 206 263 320 383
#     4  10  21  39  62  93 122 164 213 261 315 378
#     4  10  21  38  63  92 123 163 214 264 316 377
#     4   9  19  35  60  94 120 156 208 269 314 362
#
# _framework density 23.050059999999998
#
# number of rings (size 3 to 8) (size 9 to 14) (size 15 to 20)
#    0.000    1.500    2.500    3.000    7.000    0.000 
#    0.000    1.250    2.750    1.500    0.000    0.000 
#    0.000    0.000    0.000    0.000    0.000    0.000 
#
# Total GULP energy -178777.651576 kJ/mol
# GULP energy per Si atom -5586.801612 kJ/mol
# Density = 2.299760 g / cm^3
# Si number density = 23.050060 Si / 1000 Ang^3
#
#
#
# Elastic Constant Matrix: (Units=GPa)
#
#
# Indices 1 2 3 4 5 6 
#
# 1 44.9260 -5.8861 22.5226 0.0000 0.0000 0.0000
# 2 -5.8861 44.1772 9.1235 0.0000 0.0000 0.0000
# 3 22.5226 9.1235 168.1013 0.0000 0.0000 0.0000
# 4 0.0000 0.0000 0.0000 36.6852 0.0000 0.0000
# 5 0.0000 0.0000 0.0000 0.0000 16.6516 0.0000
# 6 0.0000 0.0000 0.0000 0.0000 0.0000 36.1948
#
#
#
# Elastic Compliance Matrix: (Units=1/GPa)
#
#
# Indices 1 2 3 4 5 6 
#
# 1 0.024539 0.003993 -0.003505 0.000000 0.000000 0.000000
# 2 0.003993 0.023543 -0.001813 0.000000 0.000000 0.000000
# 3 -0.003505 -0.001813 0.006517 0.000000 0.000000 0.000000
# 4 0.000000 0.000000 0.000000 0.027259 0.000000 0.000000
# 5 0.000000 0.000000 0.000000 0.000000 0.060054 0.000000
# 6 0.000000 0.000000 0.000000 0.000000 0.000000 0.027628
#
#
# Mechanical properties :
#
#
# Convention : Reuss Voigt Hill
#
# Bulk Modulus (GPa) = 19.24921 34.30272 26.77596
# Shear Modulus (GPa) = 26.38461 33.33595 29.86028
#
# Velocity S-wave (km/s) = 3.38696 3.80707 3.60315
# Velocity P-wave (km/s) = 4.86462 5.85143 5.38069
#
# Compressibility (1/GPa) = 0.05195019
#
# Stress axis : x y z
#
# Youngs Moduli (GPa) = 40.75161 42.47630 153.45140
#
# Poissons Ratio (x) = -0.16962 0.53777
# Poissons Ratio (y) = -0.16273 0.27817
# Poissons Ratio (z) = 0.14281 0.07700
#
# Static dielectric constant tensor:
#      x y z
#    x 1.907690 0.000000 0.000000 
#    y 0.000000 1.874000 0.000000 
#    z 0.000000 0.000000 1.875870 
# 
# From -- ./inp_files/9259.got.cif
#   From: 2010.05.17/outbox.cif.g08.bks.cpg/sg45_5_cif.got.tgz:9259.got - 2010.06.03 19:51:22.
