data_PCOD9376210
_publ_section_title
;
Structure prediction by ZEFSAII (Michael W. Deem and Ramdas Pophale) SiO2 
 PCOD9376210
Probable space group: I B A 2
;
_chemical_formula_sum "Si O2"
_cell_formula_units_Z 52
_cell_length_a 25.255706
_cell_length_b 13.896652
_cell_length_c 9.259850
_cell_angle_alpha 90.000000
_cell_angle_beta 90.000000
_cell_angle_gamma 90.000000
_cell_volume 3249.927307
_symmetry_space_group_name_H-M "I B A 2"
_symmetry_group_IT_number 45
_symmetry_cell_setting 'orthorhombic'
loop_
_space_group_symop_operation_xyz
x,y,z
-x,-y,z
-x,y,1/2+z
x,-y,1/2+z
1/2+x,1/2+y,1/2+z
1/2-x,1/2-y,1/2+z
1/2-x,1/2+y,z
1/2+x,1/2-y,z
loop_
_atom_site_type_symbol
_atom_site_label
_atom_site_fract_x
_atom_site_fract_y
_atom_site_fract_z
Si Si1 0.230654 0.898940 0.391240
Si Si2 0.896427 0.407815 0.724441
Si Si3 0.000000 0.500000 0.310922
Si Si4 0.166845 0.739934 0.230099
Si Si5 0.166845 0.260064 0.391742
Si Si6 0.230654 0.898941 0.730600
Si Si7 0.603573 0.092184 0.897402
O O1 0.185892 0.835107 0.312463
O O2 0.284304 0.835775 0.380698
O O3 0.219226 0.912397 0.560920
O O4 0.236561 0.999999 0.310919
O O5 0.959033 0.432619 0.724934
O O6 0.881338 0.313131 0.811988
O O7 0.876407 0.403611 0.560922
O O8 0.873428 0.499999 0.810923
O O9 0.040967 0.567380 0.396910
O O10 0.215696 0.664223 0.241142
O O11 0.118662 0.686867 0.309852
O O12 0.156716 0.757121 0.060921
O O13 0.185893 0.164891 0.309379
#
# Coordination Sequence:
#
# PCOD9376210 Si02
#       7
#     8   8   4   8   8   8   8
#     4  10  20  33  48  69  98 131 168 207 245 293
#     4  10  19  31  48  70  99 130 162 201 246 295
#     4   8  22  32  50  72 104 132 166 204 250 302
#     4  10  20  32  49  71  97 131 168 204 248 296
#     4  10  20  32  49  71  97 131 168 204 248 296
#     4  10  20  33  48  69  98 131 168 207 245 293
#     4  10  19  31  48  70  99 130 162 201 246 295
#
# _framework density 16.000357000000001
#
# number of rings (size 3 to 8) (size 9 to 14) (size 15 to 20)
#    0.923    1.231    0.000    4.154    0.000    6.154 
#    0.000    0.000    0.000    0.000    0.000    1.077 
#    0.000    7.385    0.000    0.000    0.000    0.000 
#
# Total GULP energy -144795.709409 kJ/mol
# GULP energy per Si atom -5569.065747 kJ/mol
# Density = 1.596394 g / cm^3
# Si number density = 16.000357 Si / 1000 Ang^3
#
#
#
# Elastic Constant Matrix: (Units=GPa)
#
#
# Indices 1 2 3 4 5 6 
#
# 1 45.7401 13.8706 26.7901 0.0000 0.0000 0.0000
# 2 13.8706 76.9316 54.9909 0.0000 0.0000 0.0000
# 3 26.7901 54.9909 152.2195 0.0000 0.0000 0.0000
# 4 0.0000 0.0000 0.0000 30.3294 0.0000 0.0000
# 5 0.0000 0.0000 0.0000 0.0000 18.2966 0.0000
# 6 0.0000 0.0000 0.0000 0.0000 0.0000 31.5146
#
#
#
# Elastic Compliance Matrix: (Units=1/GPa)
#
#
# Indices 1 2 3 4 5 6 
#
# 1 0.024560 -0.001804 -0.003671 0.000000 0.000000 0.000000
# 2 -0.001804 0.017656 -0.006061 0.000000 0.000000 0.000000
# 3 -0.003671 -0.006061 0.009405 0.000000 0.000000 0.000000
# 4 0.000000 0.000000 0.000000 0.032971 0.000000 0.000000
# 5 0.000000 0.000000 0.000000 0.000000 0.054655 0.000000
# 6 0.000000 0.000000 0.000000 0.000000 0.000000 0.031731
#
#
# Mechanical properties :
#
#
# Convention : Reuss Voigt Hill
#
# Bulk Modulus (GPa) = 35.02712 51.79937 43.41325
# Shear Modulus (GPa) = 24.56195 27.97741 26.26968
#
# Velocity S-wave (km/s) = 3.92227 4.18610 4.05633
# Velocity P-wave (km/s) = 6.51546 7.47053 7.00928
#
# Compressibility (1/GPa) = 0.02854930
#
# Stress axis : x y z
#
# Youngs Moduli (GPa) = 40.71712 56.63712 106.32569
#
# Poissons Ratio (x) = 0.10219 0.39028
# Poissons Ratio (y) = 0.07347 0.64444
# Poissons Ratio (z) = 0.14946 0.34328
#
# Static dielectric constant tensor:
#      x y z
#    x 1.550410 0.000000 0.000000 
#    y 0.000000 1.516260 0.000000 
#    z 0.000000 0.000000 1.547840 
# 
# From -- ./inp_files/1472.got.cif
#   From: 2010.05.17/outbox.cif.g08.bks.cpg/sg45_1_cif.got.tgz:1472.got - 2010.06.03 19:51:22.
