data_PCOD9376876
_publ_section_title
;
Structure prediction by ZEFSAII (Michael W. Deem and Ramdas Pophale) SiO2 
 PCOD9376876
Probable space group: I B A 2
;
_chemical_formula_sum "Si O2"
_cell_formula_units_Z 60
_cell_length_a 12.054181
_cell_length_b 11.576544
_cell_length_c 18.753929
_cell_angle_alpha 90.000000
_cell_angle_beta 90.000000
_cell_angle_gamma 90.000000
_cell_volume 2617.031214
_symmetry_space_group_name_H-M "I B A 2"
_symmetry_group_IT_number 45
_symmetry_cell_setting 'orthorhombic'
loop_
_space_group_symop_operation_xyz
x,y,z
-x,-y,z
-x,y,1/2+z
x,-y,1/2+z
1/2+x,1/2+y,1/2+z
1/2-x,1/2-y,1/2+z
1/2-x,1/2+y,z
1/2+x,1/2-y,z
loop_
_atom_site_type_symbol
_atom_site_label
_atom_site_fract_x
_atom_site_fract_y
_atom_site_fract_z
Si Si1 0.914293 0.313108 0.169590
Si Si2 0.735563 0.433976 0.064121
Si Si3 0.577109 0.898739 0.569954
Si Si4 0.329294 0.180200 0.331450
Si Si5 0.500000 0.500000 0.397105
Si Si6 0.773472 0.934321 0.817707
Si Si7 0.921812 0.801511 0.966177
Si Si8 0.607994 0.548015 0.177961
O O1 0.821651 0.364021 0.114961
O O2 0.884775 0.323759 0.253060
O O3 0.915093 0.177493 0.156055
O O4 0.030948 0.374073 0.149393
O O5 0.799583 0.556162 0.056563
O O6 0.631080 0.463555 0.113003
O O7 0.688825 0.371879 0.993590
O O8 0.552863 0.781652 0.530505
O O9 0.500000 0.000000 0.539756
O O10 0.247782 0.296388 0.327875
O O11 0.402840 0.219420 0.398175
O O12 0.291701 0.047799 0.344112
O O13 0.394362 0.456370 0.353456
O O14 0.519326 0.390559 0.447948
O O15 0.790274 0.951660 0.732969
O O16 0.500000 0.500000 0.216901
#
# Coordination Sequence:
#
# PCOD9376876 Si02
#       8
#     8   8   8   8   4   8   8   8
#     4  10  22  43  66  95 135 172 229 288 341 411
#     4  11  23  41  66  99 134 180 223 285 346 424
#     4  10  24  44  65  98 141 178 228 292 347 418
#     4  10  23  43  69 100 133 181 228 287 349 423
#     4  10  24  42  64  98 134 182 220 284 334 424
#     4  10  21  43  65  97 134 171 234 276 347 411
#     4  11  25  42  67  99 139 181 233 276 365 421
#     4  11  21  36  66  94 129 171 225 275 338 401
#
# _framework density 22.926741
#
# number of rings (size 3 to 8) (size 9 to 14) (size 15 to 20)
#    0.000    1.600    2.000    1.600    6.533    2.133 
#    0.000    2.000    0.000    0.000    0.000    0.000 
#    0.000    0.000    0.000    0.000    0.000    0.000 
#
# Total GULP energy -167122.067636 kJ/mol
# GULP energy per Si atom -5570.735588 kJ/mol
# Density = 2.287456 g / cm^3
# Si number density = 22.926741 Si / 1000 Ang^3
#
#
#
# Elastic Constant Matrix: (Units=GPa)
#
#
# Indices 1 2 3 4 5 6 
#
# 1 30.9257 -1.6142 3.1609 0.0000 0.0000 0.0000
# 2 -1.6142 108.0097 8.2828 0.0000 0.0000 0.0000
# 3 3.1609 8.2828 81.7689 0.0000 0.0000 0.0000
# 4 0.0000 0.0000 0.0000 35.6021 0.0000 0.0000
# 5 0.0000 0.0000 0.0000 0.0000 35.9424 0.0000
# 6 0.0000 0.0000 0.0000 0.0000 0.0000 34.2169
#
#
#
# Elastic Compliance Matrix: (Units=1/GPa)
#
#
# Indices 1 2 3 4 5 6 
#
# 1 0.032501 0.000587 -0.001316 0.000000 0.000000 0.000000
# 2 0.000587 0.009341 -0.000969 0.000000 0.000000 0.000000
# 3 -0.001316 -0.000969 0.012379 0.000000 0.000000 0.000000
# 4 0.000000 0.000000 0.000000 0.028088 0.000000 0.000000
# 5 0.000000 0.000000 0.000000 0.000000 0.027822 0.000000
# 6 0.000000 0.000000 0.000000 0.000000 0.000000 0.029225
#
#
# Mechanical properties :
#
#
# Convention : Reuss Voigt Hill
#
# Bulk Modulus (GPa) = 19.67553 26.70704 23.19129
# Shear Modulus (GPa) = 31.30982 35.21060 33.26021
#
# Velocity S-wave (km/s) = 3.69947 3.92316 3.81296
# Velocity P-wave (km/s) = 5.18157 5.67413 5.43344
#
# Compressibility (1/GPa) = 0.05082455
#
# Stress axis : x y z
#
# Youngs Moduli (GPa) = 30.76862 107.04922 80.78460
#
# Poissons Ratio (x) = -0.06280 0.10630
# Poissons Ratio (y) = -0.01805 0.07827
# Poissons Ratio (z) = 0.04049 0.10372
#
# Static dielectric constant tensor:
#      x y z
#    x 1.864020 0.000000 0.000000 
#    y 0.000000 1.893570 0.000000 
#    z 0.000000 0.000000 1.880530 
# 
# From -- ./inp_files/9070.got.cif
#   From: 2010.05.17/outbox.cif.g08.bks.cpg/sg45_5_cif.got.tgz:9070.got - 2010.06.03 19:51:22.
