data_PCOD9376869
_publ_section_title
;
Structure prediction by ZEFSAII (Michael W. Deem and Ramdas Pophale) SiO2 
 PCOD9376869
Probable space group: I B A 2
;
_chemical_formula_sum "Si O2"
_cell_formula_units_Z 64
_cell_length_a 12.065811
_cell_length_b 18.798864
_cell_length_c 13.970426
_cell_angle_alpha 90.000000
_cell_angle_beta 90.000000
_cell_angle_gamma 90.000000
_cell_volume 3168.821481
_symmetry_space_group_name_H-M "I B A 2"
_symmetry_group_IT_number 45
_symmetry_cell_setting 'orthorhombic'
loop_
_space_group_symop_operation_xyz
x,y,z
-x,-y,z
-x,y,1/2+z
x,-y,1/2+z
1/2+x,1/2+y,1/2+z
1/2-x,1/2-y,1/2+z
1/2-x,1/2+y,z
1/2+x,1/2-y,z
loop_
_atom_site_type_symbol
_atom_site_label
_atom_site_fract_x
_atom_site_fract_y
_atom_site_fract_z
Si Si1 0.305140 0.042538 0.409950
Si Si2 0.888529 0.834394 0.954005
Si Si3 0.642317 0.883114 0.907508
Si Si4 0.065390 0.926078 0.854594
Si Si5 0.050142 0.386103 0.191188
Si Si6 0.666042 0.966423 0.181513
Si Si7 0.934292 0.324575 0.500550
Si Si8 0.592440 0.561491 0.629999
O O1 0.175386 0.062282 0.418480
O O2 0.312542 0.033291 0.295214
O O3 0.374676 0.107950 0.450842
O O4 0.353612 0.965869 0.441492
O O5 0.769814 0.858889 0.912433
O O6 0.988056 0.862673 0.888860
O O7 0.891727 0.750037 0.962402
O O8 0.912216 0.874537 0.054667
O O9 0.588970 0.876412 0.800692
O O10 0.563190 0.836437 0.974448
O O11 0.083285 0.915684 0.741061
O O12 0.000000 0.000000 0.864260
O O13 0.106889 0.459717 0.158914
O O14 0.084600 0.327673 0.114546
O O15 0.919908 0.401475 0.174849
O O16 0.780810 0.965278 0.125453
O O17 0.500000 0.500000 0.612341
#
# Coordination Sequence:
#
# PCOD9376869 Si02
#       8
#     8   8   8   8   8   8   8   8
#     4  10  21  42  71  95 123 170 228 275 326 390
#     4  12  27  44  62 102 141 178 221 273 342 413
#     4  11  24  47  70  94 133 176 230 282 332 400
#     4  10  21  44  70  96 130 173 225 278 331 392
#     4  10  22  40  68  98 130 168 224 285 331 395
#     4   9  19  41  68  99 124 164 228 281 326 380
#     4  12  27  41  64 103 135 176 220 274 347 407
#     4  10  23  41  70  98 131 179 226 275 330 404
#
# _framework density 20.196784000000001
#
# number of rings (size 3 to 8) (size 9 to 14) (size 15 to 20)
#    0.000    1.500    2.500    1.500    8.750    1.000 
#    2.250    0.000    0.000    0.000    0.000    0.000 
#    0.000    0.000    0.000    0.000    0.000    0.000 
#
# Total GULP energy -178584.489125 kJ/mol
# GULP energy per Si atom -5580.765285 kJ/mol
# Density = 2.015082 g / cm^3
# Si number density = 20.196784 Si / 1000 Ang^3
#
#
#
# Elastic Constant Matrix: (Units=GPa)
#
#
# Indices 1 2 3 4 5 6 
#
# 1 109.4033 24.0752 14.0216 0.0000 0.0000 0.0000
# 2 24.0752 90.2144 19.9254 0.0001 0.0000 0.0000
# 3 14.0216 19.9254 74.8943 0.0003 0.0000 0.0000
# 4 0.0000 0.0001 0.0003 11.5068 0.0000 0.0000
# 5 0.0000 0.0000 0.0000 0.0000 20.5173 0.0000
# 6 0.0000 0.0000 0.0000 0.0000 0.0000 21.9390
#
#
#
# Elastic Compliance Matrix: (Units=1/GPa)
#
#
# Indices 1 2 3 4 5 6 
#
# 1 0.009813 -0.002351 -0.001212 0.000000 0.000000 0.000000
# 2 -0.002351 0.012340 -0.002843 0.000000 0.000000 0.000000
# 3 -0.001212 -0.002843 0.014335 0.000000 0.000000 0.000000
# 4 0.000000 0.000000 0.000000 0.086905 0.000000 0.000000
# 5 0.000000 0.000000 0.000000 0.000000 0.048739 0.000000
# 6 0.000000 0.000000 0.000000 0.000000 0.000000 0.045581
#
#
# Mechanical properties :
#
#
# Convention : Reuss Voigt Hill
#
# Bulk Modulus (GPa) = 42.23484 43.39514 42.81499
# Shear Modulus (GPa) = 20.97163 25.22529 23.09846
#
# Velocity S-wave (km/s) = 3.22586 3.53792 3.38549
# Velocity P-wave (km/s) = 5.90186 6.18239 6.04376
#
# Compressibility (1/GPa) = 0.02367713
#
# Stress axis : x y z
#
# Youngs Moduli (GPa) = 101.90365 81.03695 69.75775
#
# Poissons Ratio (x) = 0.19053 0.08452
# Poissons Ratio (y) = 0.23959 0.19831
# Poissons Ratio (z) = 0.12348 0.23038
#
# Static dielectric constant tensor:
#      x y z
#    x 1.767780 0.000000 0.000000 
#    y 0.000000 1.675160 0.000000 
#    z 0.000000 0.000000 1.763480 
# 
# From -- ./inp_files/6277.got.cif
#   From: 2010.05.17/outbox.cif.g08.bks.cpg/sg45_4_cif.got.tgz:6277.got - 2010.06.03 19:51:22.
