data_PCOD9376491
_publ_section_title
;
Structure prediction by ZEFSAII (Michael W. Deem and Ramdas Pophale) SiO2 
 PCOD9376491
Probable space group: I B A 2
;
_chemical_formula_sum "Si O2"
_cell_formula_units_Z 48
_cell_length_a 16.133406
_cell_length_b 9.044712
_cell_length_c 16.110104
_cell_angle_alpha 90.000000
_cell_angle_beta 90.000000
_cell_angle_gamma 90.000000
_cell_volume 2350.818771
_symmetry_space_group_name_H-M "I B A 2"
_symmetry_group_IT_number 45
_symmetry_cell_setting 'orthorhombic'
loop_
_space_group_symop_operation_xyz
x,y,z
-x,-y,z
-x,y,1/2+z
x,-y,1/2+z
1/2+x,1/2+y,1/2+z
1/2-x,1/2-y,1/2+z
1/2-x,1/2+y,z
1/2+x,1/2-y,z
loop_
_atom_site_type_symbol
_atom_site_label
_atom_site_fract_x
_atom_site_fract_y
_atom_site_fract_z
Si Si1 0.500000 0.000000 0.474301
Si Si2 0.218970 0.201030 0.479053
Si Si3 0.924428 0.722235 0.352566
Si Si4 0.171014 0.528726 0.070081
Si Si5 0.832621 0.157603 0.345554
Si Si6 0.184858 0.522130 0.264581
Si Si7 0.500000 0.500000 0.320131
O O1 0.510689 0.142748 0.414634
O O2 0.418096 0.010556 0.530752
O O3 0.143829 0.202036 0.413122
O O4 0.186121 0.298524 0.554788
O O5 0.259919 0.055631 0.515760
O O6 0.291520 0.285288 0.429773
O O7 0.881776 0.585860 0.306725
O O8 0.956682 0.847716 0.288808
O O9 0.180210 0.497686 0.166581
O O10 0.832792 0.307522 0.289342
O O11 0.771756 0.038041 0.301784
O O12 0.921112 0.082256 0.360629
#
# Coordination Sequence:
#
# PCOD9376491 Si02
#       7
#     4   8   8   8   8   8   4
#     4  10  22  38  60  86 118 158 204 252 308 356
#     4  10  20  38  61  84 118 162 203 242 299 372
#     4  10  21  38  60  89 120 160 205 248 300 367
#     4  11  22  38  61  89 119 156 200 254 308 355
#     4  11  22  39  63  90 120 162 207 250 301 370
#     4  11  23  41  62  88 125 164 203 251 309 368
#     4  12  22  34  62  92 114 148 208 260 294 342
#
# _framework density 20.418419
#
# number of rings (size 3 to 8) (size 9 to 14) (size 15 to 20)
#    0.000    1.333    0.000    9.000    0.000    2.000 
#    0.000    0.000    0.000   12.000    0.000    0.000 
#    0.000    0.000    0.000    0.000    0.000    0.000 
#
# Total GULP energy -133725.787735 kJ/mol
# GULP energy per Si atom -5571.907822 kJ/mol
# Density = 2.037195 g / cm^3
# Si number density = 20.418419 Si / 1000 Ang^3
#
#
#
# Elastic Constant Matrix: (Units=GPa)
#
#
# Indices 1 2 3 4 5 6 
#
# 1 57.2496 44.2116 -0.9646 0.0000 0.0000 0.0000
# 2 44.2116 125.6139 25.1287 0.0000 0.0000 0.0000
# 3 -0.9646 25.1287 85.4374 0.0000 0.0000 0.0000
# 4 0.0000 0.0000 0.0000 17.8755 0.0000 0.0000
# 5 0.0000 0.0000 0.0000 0.0000 8.8867 0.0000
# 6 0.0000 0.0000 0.0000 0.0000 0.0000 30.6646
#
#
#
# Elastic Compliance Matrix: (Units=1/GPa)
#
#
# Indices 1 2 3 4 5 6 
#
# 1 0.024696 -0.009295 0.003013 0.000000 0.000000 0.000000
# 2 -0.009295 0.011957 -0.003622 0.000000 0.000000 0.000000
# 3 0.003013 -0.003622 0.012804 0.000000 0.000000 0.000000
# 4 0.000000 0.000000 0.000000 0.055943 0.000000 0.000000
# 5 0.000000 0.000000 0.000000 0.000000 0.112528 0.000000
# 6 0.000000 0.000000 0.000000 0.000000 0.000000 0.032611
#
#
# Mechanical properties :
#
#
# Convention : Reuss Voigt Hill
#
# Bulk Modulus (GPa) = 33.72805 45.00580 39.36692
# Shear Modulus (GPa) = 17.84259 24.81372 21.32815
#
# Velocity S-wave (km/s) = 2.95930 3.48984 3.23546
# Velocity P-wave (km/s) = 5.31328 6.19098 5.76885
#
# Compressibility (1/GPa) = 0.02964892
#
# Stress axis : x y z
#
# Youngs Moduli (GPa) = 40.49216 83.63407 78.10251
#
# Poissons Ratio (x) = 0.77736 -0.23529
# Poissons Ratio (y) = 0.37637 0.28286
# Poissons Ratio (z) = -0.12199 0.30289
#
# Static dielectric constant tensor:
#      x y z
#    x 1.781590 0.000000 0.000000 
#    y 0.000000 1.775880 0.000000 
#    z 0.000000 0.000000 1.685040 
# 
# From -- ./inp_files/5635.got.cif
#   From: 2010.05.17/outbox.cif.g08.bks.cpg/sg45_3_cif.got.tgz:5635.got - 2010.06.03 19:51:22.
