data_PCOD9376378
_publ_section_title
;
Structure prediction by ZEFSAII (Michael W. Deem and Ramdas Pophale) SiO2 
 PCOD9376378
Probable space group: I B A 2
;
_chemical_formula_sum "Si O2"
_cell_formula_units_Z 40
_cell_length_a 13.832927
_cell_length_b 5.230695
_cell_length_c 25.850149
_cell_angle_alpha 90.000000
_cell_angle_beta 90.000000
_cell_angle_gamma 90.000000
_cell_volume 1870.408782
_symmetry_space_group_name_H-M "I B A 2"
_symmetry_group_IT_number 45
_symmetry_cell_setting 'orthorhombic'
loop_
_space_group_symop_operation_xyz
x,y,z
-x,-y,z
-x,y,1/2+z
x,-y,1/2+z
1/2+x,1/2+y,1/2+z
1/2-x,1/2-y,1/2+z
1/2-x,1/2+y,z
1/2+x,1/2-y,z
loop_
_atom_site_type_symbol
_atom_site_label
_atom_site_fract_x
_atom_site_fract_y
_atom_site_fract_z
Si Si1 0.000000 0.000000 0.955611
Si Si2 0.000000 0.500000 0.388075
Si Si3 0.312344 0.036597 0.698482
Si Si4 0.108296 0.799802 0.050302
Si Si5 0.683491 0.903815 0.815748
Si Si6 0.391788 0.800225 0.092559
O O1 0.023601 0.249996 0.922383
O O2 0.913040 0.088327 0.993786
O O3 0.093025 0.432063 0.353499
O O4 0.226674 0.247927 0.694702
O O5 0.352590 0.078383 0.756137
O O6 0.380675 0.101391 0.650536
O O7 0.149336 0.515725 0.053765
O O8 0.002136 0.748995 0.075577
O O9 0.154681 0.021437 0.084849
O O10 0.741025 0.637998 0.822803
#
# Coordination Sequence:
#
# PCOD9376378 Si02
#       6
#     4   4   8   8   8   8
#     4  10  20  36  58  86 110 148 210 252 298 358
#     4  12  22  38  70  88 110 168 210 242 310 372
#     4  10  20  34  53  77 116 159 186 232 294 347
#     4   9  18  32  54  79 111 138 178 251 284 324
#     4  10  23  42  60  90 128 154 198 260 301 351
#     4   9  16  30  51  76 101 141 180 211 281 350
#
# _framework density 21.385701999999998
#
# number of rings (size 3 to 8) (size 9 to 14) (size 15 to 20)
#    0.000    2.400    0.000    4.800    0.000    1.600 
#    0.000    6.000    0.000   55.200    0.000    0.000 
#    0.000    0.000    0.000    0.000    0.000    0.000 
#
# Total GULP energy -111560.299535 kJ/mol
# GULP energy per Si atom -5578.014977 kJ/mol
# Density = 2.133703 g / cm^3
# Si number density = 21.385702 Si / 1000 Ang^3
#
#
#
# Elastic Constant Matrix: (Units=GPa)
#
#
# Indices 1 2 3 4 5 6 
#
# 1 58.1594 -1.2339 33.1108 0.0000 0.0000 0.0000
# 2 -1.2339 175.0679 50.2859 0.0000 0.0000 0.0000
# 3 33.1108 50.2859 143.4138 0.0000 0.0000 0.0000
# 4 0.0000 0.0000 0.0000 56.6697 0.0000 0.0000
# 5 0.0000 0.0000 0.0000 0.0000 25.9649 0.0000
# 6 0.0000 0.0000 0.0000 0.0000 0.0000 9.4908
#
#
#
# Elastic Compliance Matrix: (Units=1/GPa)
#
#
# Indices 1 2 3 4 5 6 
#
# 1 0.020215 0.001649 -0.005246 0.000000 0.000000 0.000000
# 2 0.001649 0.006486 -0.002655 0.000000 0.000000 0.000000
# 3 -0.005246 -0.002655 0.009115 0.000000 0.000000 0.000000
# 4 0.000000 0.000000 0.000000 0.017646 0.000000 0.000000
# 5 0.000000 0.000000 0.000000 0.000000 0.038514 0.000000
# 6 0.000000 0.000000 0.000000 0.000000 0.000000 0.105365
#
#
# Mechanical properties :
#
#
# Convention : Reuss Voigt Hill
#
# Bulk Modulus (GPa) = 42.89311 60.10742 51.50026
# Shear Modulus (GPa) = 22.97629 38.05698 30.51663
#
# Velocity S-wave (km/s) = 3.28132 4.22305 3.78162
# Velocity P-wave (km/s) = 5.86997 7.20737 6.57278
#
# Compressibility (1/GPa) = 0.02331377
#
# Stress axis : x y z
#
# Youngs Moduli (GPa) = 49.46716 154.17039 109.71097
#
# Poissons Ratio (x) = -0.25426 0.57549
# Poissons Ratio (y) = -0.08158 0.29129
# Poissons Ratio (z) = 0.25948 0.40934
#
# Static dielectric constant tensor:
#      x y z
#    x 0.657650 0.000000 0.000000 
#    y 0.000000 1.516110 0.000000 
#    z 0.000000 0.000000 1.772650 
# 
# From -- ./inp_files/9734.got.cif
#   From: 2010.05.17/outbox.cif.g08.bks.cpg/sg45_5_cif.got.tgz:9734.got - 2010.06.03 19:51:22.
