data_PCOD9376139
_publ_section_title
;
Structure prediction by ZEFSAII (Michael W. Deem and Ramdas Pophale) SiO2 
 PCOD9376139
Probable space group: I B A 2
;
_chemical_formula_sum "Si O2"
_cell_formula_units_Z 48
_cell_length_a 7.457972
_cell_length_b 26.581480
_cell_length_c 8.886661
_cell_angle_alpha 90.000000
_cell_angle_beta 90.000000
_cell_angle_gamma 90.000000
_cell_volume 1761.726633
_symmetry_space_group_name_H-M "I B A 2"
_symmetry_group_IT_number 45
_symmetry_cell_setting 'orthorhombic'
loop_
_space_group_symop_operation_xyz
x,y,z
-x,-y,z
-x,y,1/2+z
x,-y,1/2+z
1/2+x,1/2+y,1/2+z
1/2-x,1/2-y,1/2+z
1/2-x,1/2+y,z
1/2+x,1/2-y,z
loop_
_atom_site_type_symbol
_atom_site_label
_atom_site_fract_x
_atom_site_fract_y
_atom_site_fract_z
Si Si1 0.196981 0.321617 0.238950
Si Si2 0.222187 0.487337 0.943083
Si Si3 0.106731 0.069655 0.168987
Si Si4 0.616314 0.685791 0.668614
Si Si5 0.679299 0.931390 0.706205
Si Si6 0.109334 0.275836 0.926256
O O1 0.413132 0.314434 0.236944
O O2 0.132580 0.377792 0.269804
O O3 0.083463 0.287192 0.351994
O O4 0.145949 0.312836 0.065383
O O5 0.333171 0.449213 0.834443
O O6 0.145914 0.526135 0.824500
O O7 0.325656 0.527124 0.053380
O O8 0.103760 0.451518 0.049622
O O9 0.162702 0.127334 0.133342
O O10 0.892048 0.071247 0.172128
O O11 0.760810 0.706550 0.788579
O O12 0.609631 0.723537 0.525364
#
# Coordination Sequence:
#
# PCOD9376139 Si02
#       6
#     8   8   8   8   8   8
#     4  11  30  53  82 117 165 214 281 341 421 497
#     4  10  18  33  68 111 158 199 267 333 405 501
#     4  10  19  37  66 111 153 203 262 331 412 494
#     4  11  30  53  84 118 166 221 281 343 430 492
#     4  10  19  37  66 107 151 206 257 333 403 482
#     4  12  31  53  82 118 162 221 282 353 409 502
#
# _framework density 27.245996000000002
#
# number of rings (size 3 to 8) (size 9 to 14) (size 15 to 20)
#    0.000    1.333    0.000    5.000    4.667    9.333 
#    0.000    0.000    0.000   17.000    0.000    0.000 
#    0.000    0.000    0.000    0.000    0.000    0.000 
#
# Total GULP energy -134356.533801 kJ/mol
# GULP energy per Si atom -5598.188908 kJ/mol
# Density = 2.718398 g / cm^3
# Si number density = 27.245996 Si / 1000 Ang^3
#
#
#
# Elastic Constant Matrix: (Units=GPa)
#
#
# Indices 1 2 3 4 5 6 
#
# 1 98.6110 36.3365 36.1253 -0.0003 0.0003 0.0000
# 2 36.3365 232.1286 41.1793 -0.0002 0.0001 0.0001
# 3 36.1253 41.1793 167.8993 -0.0012 0.0006 0.0000
# 4 -0.0003 -0.0002 -0.0012 25.2312 0.0023 0.0000
# 5 0.0003 0.0001 0.0006 0.0023 130.6242 0.0002
# 6 0.0000 0.0001 0.0000 0.0000 0.0002 26.7906
#
#
#
# Elastic Compliance Matrix: (Units=1/GPa)
#
#
# Indices 1 2 3 4 5 6 
#
# 1 0.011437 -0.001415 -0.002114 0.000000 0.000000 0.000000
# 2 -0.001415 0.004679 -0.000843 0.000000 0.000000 0.000000
# 3 -0.002114 -0.000843 0.006617 0.000000 0.000000 0.000000
# 4 0.000000 0.000000 0.000000 0.039633 -0.000001 0.000000
# 5 0.000000 0.000000 0.000000 -0.000001 0.007656 0.000000
# 6 0.000000 0.000000 0.000000 0.000000 0.000000 0.037327
#
#
# Mechanical properties :
#
#
# Convention : Reuss Voigt Hill
#
# Bulk Modulus (GPa) = 71.48340 80.65790 76.07065
# Shear Modulus (GPa) = 41.40588 62.19573 51.80080
#
# Velocity S-wave (km/s) = 3.90257 4.78299 4.36504
# Velocity P-wave (km/s) = 6.82642 7.75697 7.30652
#
# Compressibility (1/GPa) = 0.01398926
#
# Stress axis : x y z
#
# Youngs Moduli (GPa) = 87.43802 213.71802 151.11465
#
# Poissons Ratio (x) = 0.30248 0.31940
# Poissons Ratio (y) = 0.12375 0.12740
# Poissons Ratio (z) = 0.18481 0.18018
#
# Static dielectric constant tensor:
#      x y z
#    x 2.085350 0.000000 0.000000 
#    y 0.000000 2.259970 0.000000 
#    z 0.000000 0.000000 2.120970 
# 
# From -- ./inp_files/1357.got.cif
#   From: 2010.05.17/outbox.cif.g08.bks.cpg/sg45_1_cif.got.tgz:1357.got - 2010.06.03 19:51:22.
