data_PCOD9376054
_publ_section_title
;
Structure prediction by ZEFSAII (Michael W. Deem and Ramdas Pophale) SiO2 
 PCOD9376054
Probable space group: I B A 2
;
_chemical_formula_sum "Si O2"
_cell_formula_units_Z 64
_cell_length_a 27.742421
_cell_length_b 17.088427
_cell_length_c 5.576156
_cell_angle_alpha 90.000000
_cell_angle_beta 90.000000
_cell_angle_gamma 90.000000
_cell_volume 2643.512453
_symmetry_space_group_name_H-M "I B A 2"
_symmetry_group_IT_number 45
_symmetry_cell_setting 'orthorhombic'
loop_
_space_group_symop_operation_xyz
x,y,z
-x,-y,z
-x,y,1/2+z
x,-y,1/2+z
1/2+x,1/2+y,1/2+z
1/2-x,1/2-y,1/2+z
1/2-x,1/2+y,z
1/2+x,1/2-y,z
loop_
_atom_site_type_symbol
_atom_site_label
_atom_site_fract_x
_atom_site_fract_y
_atom_site_fract_z
Si Si1 0.234738 0.788926 0.418910
Si Si2 0.177483 0.399108 0.413333
Si Si3 0.482985 0.787741 0.863883
Si Si4 0.675376 0.912116 0.414161
Si Si5 0.980244 0.894047 0.332573
Si Si6 0.119017 0.223557 0.963035
Si Si7 0.617951 0.640273 0.963986
Si Si8 0.215616 0.047936 0.427871
O O1 0.251937 0.749593 0.665545
O O2 0.267058 0.868933 0.415661
O O3 0.177229 0.781009 0.431691
O O4 0.156144 0.374659 0.158237
O O5 0.171123 0.493263 0.412310
O O6 0.156744 0.374574 0.669313
O O7 0.506873 0.824450 0.102482
O O8 0.507623 0.700458 0.836777
O O9 0.425875 0.781978 0.915173
O O10 0.733339 0.907684 0.422129
O O11 0.925485 0.915930 0.392672
O O12 0.990001 0.920033 0.063613
O O13 0.114126 0.202196 0.245560
O O14 0.107248 0.165570 0.735817
O O15 0.670844 0.605493 0.943335
O O16 0.212952 0.997762 0.673964
#
# Coordination Sequence:
#
# PCOD9376054 Si02
#       8
#     8   8   8   8   8   8   8   8
#     4  12  26  40  49  73 108 145 178 202 246 327
#     4  10  18  33  54  68  95 121 159 223 260 287
#     4  10  16  30  48  77  94 104 153 219 255 285
#     4  10  17  32  52  78  86 111 165 220 270 289
#     4  10  16  30  46  72  93 108 147 205 252 306
#     4  12  21  34  55  73  90 132 164 203 256 296
#     4  12  21  31  54  74  90 122 153 198 273 309
#     4  12  21  32  42  66  96 108 147 205 252 317
#
# _framework density 24.210211999999999
#
# number of rings (size 3 to 8) (size 9 to 14) (size 15 to 20)
#    0.000    1.000    7.500    3.750    0.000    0.000 
#    0.000    0.000    0.000    2.250    0.000    0.000 
#    0.000    0.000    0.000    0.000    0.000    0.000 
#
# Total GULP energy -178349.791815 kJ/mol
# GULP energy per Si atom -5573.430994 kJ/mol
# Density = 2.415511 g / cm^3
# Si number density = 24.210212 Si / 1000 Ang^3
#
#
#
# Elastic Constant Matrix: (Units=GPa)
#
#
# Indices 1 2 3 4 5 6 
#
# 1 105.1953 -4.0031 14.7913 0.0000 0.0000 0.0000
# 2 -4.0031 28.2949 17.9212 0.0000 0.0000 0.0000
# 3 14.7913 17.9212 208.5155 0.0000 0.0000 0.0000
# 4 0.0000 0.0000 0.0000 28.6375 0.0000 0.0000
# 5 0.0000 0.0000 0.0000 0.0000 37.9927 0.0000
# 6 0.0000 0.0000 0.0000 0.0000 0.0000 4.2526
#
#
#
# Elastic Compliance Matrix: (Units=1/GPa)
#
#
# Indices 1 2 3 4 5 6 
#
# 1 0.009699 0.001912 -0.000852 0.000000 0.000000 0.000000
# 2 0.001912 0.037754 -0.003380 0.000000 0.000000 0.000000
# 3 -0.000852 -0.003380 0.005147 0.000000 0.000000 0.000000
# 4 0.000000 0.000000 0.000000 0.034919 0.000000 0.000000
# 5 0.000000 0.000000 0.000000 0.000000 0.026321 0.000000
# 6 0.000000 0.000000 0.000000 0.000000 0.000000 0.235153
#
#
# Mechanical properties :
#
#
# Convention : Reuss Voigt Hill
#
# Bulk Modulus (GPa) = 20.85171 44.38050 32.61611
# Shear Modulus (GPa) = 13.52742 35.06295 24.29519
#
# Velocity S-wave (km/s) = 2.36635 3.80974 3.17126
# Velocity P-wave (km/s) = 4.01218 6.14193 5.18753
#
# Compressibility (1/GPa) = 0.04795769
#
# Stress axis : x y z
#
# Youngs Moduli (GPa) = 103.10626 26.48748 194.29538
#
# Poissons Ratio (x) = -0.05064 0.16560
# Poissons Ratio (y) = -0.19714 0.65680
# Poissons Ratio (z) = 0.08788 0.08954
#
# Static dielectric constant tensor:
#      x y z
#    x 1.905050 0.000000 0.000000 
#    y 0.000000 2.068370 0.000000 
#    z 0.000000 0.000000 2.007420 
# 
# From -- ./inp_files/633.got.cif
#   From: 2010.05.17/outbox.cif.g08.bks.cpg/sg45_1_cif.got.tgz:633.got - 2010.06.03 19:51:22.
