data_PCOD9376765
_publ_section_title
;
Structure prediction by ZEFSAII (Michael W. Deem and Ramdas Pophale) SiO2 
 PCOD9376765
Probable space group: I B A 2
;
_chemical_formula_sum "Si O2"
_cell_formula_units_Z 64
_cell_length_a 15.412284
_cell_length_b 19.344045
_cell_length_c 9.155914
_cell_angle_alpha 90.000000
_cell_angle_beta 90.000000
_cell_angle_gamma 90.000000
_cell_volume 2729.706800
_symmetry_space_group_name_H-M "I B A 2"
_symmetry_group_IT_number 45
_symmetry_cell_setting 'orthorhombic'
loop_
_space_group_symop_operation_xyz
x,y,z
-x,-y,z
-x,y,1/2+z
x,-y,1/2+z
1/2+x,1/2+y,1/2+z
1/2-x,1/2-y,1/2+z
1/2-x,1/2+y,z
1/2+x,1/2-y,z
loop_
_atom_site_type_symbol
_atom_site_label
_atom_site_fract_x
_atom_site_fract_y
_atom_site_fract_z
Si Si1 0.818281 0.650054 0.094810
Si Si2 0.834377 0.338817 0.093064
Si Si3 0.564175 0.604239 0.462648
Si Si4 0.228836 0.914008 0.344420
Si Si5 0.105594 0.875590 0.800309
Si Si6 0.865002 0.251701 0.347984
Si Si7 0.561109 0.213794 0.333028
Si Si8 0.299086 0.061201 0.333691
O O1 0.736186 0.628188 0.193738
O O2 0.892326 0.668408 0.210492
O O3 0.814766 0.714381 0.983452
O O4 0.837183 0.586696 0.986646
O O5 0.813187 0.275380 0.203445
O O6 0.848496 0.403955 0.198979
O O7 0.762933 0.365849 0.976953
O O8 0.911617 0.313503 0.991122
O O9 0.635473 0.555148 0.388592
O O10 0.466160 0.595310 0.412488
O O11 0.575058 0.606488 0.635766
O O12 0.601116 0.675924 0.391073
O O13 0.290895 0.979636 0.326424
O O14 0.097323 0.792232 0.816001
O O15 0.202213 0.903962 0.824422
O O16 0.958196 0.287801 0.322528
#
# Coordination Sequence:
#
# PCOD9376765 Si02
#       8
#     8   8   8   8   8   8   8   8
#     4  10  22  37  65  94 119 169 212 256 323 372
#     4  10  22  39  67  92 127 169 206 264 317 376
#     4  11  25  42  65  97 130 166 207 258 323 387
#     4  11  24  43  63  89 129 171 218 262 304 367
#     4  11  25  42  65  97 130 166 207 258 323 387
#     4  10  21  39  65  97 131 158 203 260 329 383
#     4  10  21  39  65  97 131 158 203 260 329 383
#     4  11  24  43  63  89 129 171 218 262 304 367
#
# _framework density 23.445741999999999
#
# number of rings (size 3 to 8) (size 9 to 14) (size 15 to 20)
#    0.000    1.500    2.500    1.500    7.000    6.500 
#    0.000    1.250    0.000   52.500    0.000    0.000 
#    0.000    0.000    0.000    0.000    0.000    0.000 
#
# Total GULP energy -178839.079890 kJ/mol
# GULP energy per Si atom -5588.721247 kJ/mol
# Density = 2.339238 g / cm^3
# Si number density = 23.445742 Si / 1000 Ang^3
#
#
#
# Elastic Constant Matrix: (Units=GPa)
#
#
# Indices 1 2 3 4 5 6 
#
# 1 64.9163 3.7753 23.6428 0.0000 0.0000 0.0000
# 2 3.7753 85.9521 20.6981 0.0000 0.0000 0.0000
# 3 23.6428 20.6981 160.0119 0.0000 0.0000 0.0000
# 4 0.0000 0.0000 0.0000 15.3096 0.0000 0.0000
# 5 0.0000 0.0000 0.0000 0.0000 33.8371 0.0000
# 6 0.0000 0.0000 0.0000 0.0000 0.0000 24.7808
#
#
#
# Elastic Compliance Matrix: (Units=1/GPa)
#
#
# Indices 1 2 3 4 5 6 
#
# 1 0.016282 -0.000140 -0.002388 0.000000 0.000000 0.000000
# 2 -0.000140 0.012010 -0.001533 0.000000 0.000000 0.000000
# 3 -0.002388 -0.001533 0.006801 0.000000 0.000000 0.000000
# 4 0.000000 0.000000 0.000000 0.065319 0.000000 0.000000
# 5 0.000000 0.000000 0.000000 0.000000 0.029553 0.000000
# 6 0.000000 0.000000 0.000000 0.000000 0.000000 0.040354
#
#
# Mechanical properties :
#
#
# Convention : Reuss Voigt Hill
#
# Bulk Modulus (GPa) = 37.07661 45.23474 41.15567
# Shear Modulus (GPa) = 26.67663 32.30310 29.48987
#
# Velocity S-wave (km/s) = 3.37679 3.71587 3.55038
# Velocity P-wave (km/s) = 5.57241 6.14374 5.86504
#
# Compressibility (1/GPa) = 0.02697118
#
# Stress axis : x y z
#
# Youngs Moduli (GPa) = 61.41680 83.26636 147.04591
#
# Poissons Ratio (x) = 0.01167 0.35110
# Poissons Ratio (y) = 0.00861 0.22539
# Poissons Ratio (z) = 0.14664 0.12763
#
# Static dielectric constant tensor:
#      x y z
#    x 1.904670 0.000000 0.000000 
#    y 0.000000 1.950280 0.000000 
#    z 0.000000 0.000000 1.862840 
# 
# From -- ./inp_files/2201.got.cif
#   From: 2010.05.17/outbox.cif.g08.bks.cpg/sg45_2_cif.got.tgz:2201.got - 2010.06.03 19:51:22.
