data_PCOD9376435
_publ_section_title
;
Structure prediction by ZEFSAII (Michael W. Deem and Ramdas Pophale) SiO2 
 PCOD9376435
Probable space group: I B A 2
;
_chemical_formula_sum "Si O2"
_cell_formula_units_Z 60
_cell_length_a 19.506507
_cell_length_b 12.308123
_cell_length_c 12.055899
_cell_angle_alpha 90.000000
_cell_angle_beta 90.000000
_cell_angle_gamma 90.000000
_cell_volume 2894.482556
_symmetry_space_group_name_H-M "I B A 2"
_symmetry_group_IT_number 45
_symmetry_cell_setting 'orthorhombic'
loop_
_space_group_symop_operation_xyz
x,y,z
-x,-y,z
-x,y,1/2+z
x,-y,1/2+z
1/2+x,1/2+y,1/2+z
1/2-x,1/2-y,1/2+z
1/2-x,1/2+y,z
1/2+x,1/2-y,z
loop_
_atom_site_type_symbol
_atom_site_label
_atom_site_fract_x
_atom_site_fract_y
_atom_site_fract_z
Si Si1 0.938561 0.833642 0.960430
Si Si2 0.130124 0.673461 0.742151
Si Si3 0.383671 0.847015 0.815171
Si Si4 0.007262 0.663583 0.122776
Si Si5 0.500000 0.500000 0.298316
Si Si6 0.386881 0.941360 0.463052
Si Si7 0.715073 0.022160 0.661326
Si Si8 0.128794 0.922207 0.660766
O O1 0.885151 0.753862 0.898786
O O2 0.986225 0.895417 0.874244
O O3 0.895985 0.917317 0.034004
O O4 0.984319 0.765513 0.047754
O O5 0.122918 0.653957 0.873002
O O6 0.191025 0.596724 0.700862
O O7 0.134779 0.798188 0.706463
O O8 0.062886 0.624768 0.680091
O O9 0.441641 0.817325 0.725237
O O10 0.318061 0.888277 0.745499
O O11 0.401512 0.950886 0.891562
O O12 0.050109 0.587812 0.041451
O O13 0.568478 0.481290 0.227388
O O14 0.320555 0.957092 0.541784
O O15 0.796224 0.027988 0.665261
#
# Coordination Sequence:
#
# PCOD9376435 Si02
#       8
#     8   8   8   8   4   8   8   8
#     4  11  23  41  63  90 123 163 210 266 317 375
#     4  10  22  40  62  90 128 166 206 258 310 369
#     4  10  22  37  62  95 128 167 207 254 315 372
#     4  10  20  36  61  95 129 161 206 258 311 375
#     4  12  26  46  68  90 118 160 214 266 324 382
#     4  10  20  36  61  95 129 167 206 253 315 371
#     4  10  24  40  60  93 130 166 209 258 313 378
#     4  11  25  45  65  90 122 161 210 261 313 379
#
# _framework density 20.729094
#
# number of rings (size 3 to 8) (size 9 to 14) (size 15 to 20)
#    0.000    1.600    0.000    5.200    0.000   16.000 
#    0.000    2.667    0.000    0.000    0.000    0.000 
#    0.000    0.000    0.000    0.000    0.000    0.000 
#
# Total GULP energy -167656.570213 kJ/mol
# GULP energy per Si atom -5588.552340 kJ/mol
# Density = 2.068191 g / cm^3
# Si number density = 20.729094 Si / 1000 Ang^3
#
#
#
# Elastic Constant Matrix: (Units=GPa)
#
#
# Indices 1 2 3 4 5 6 
#
# 1 167.0669 34.6673 57.7019 0.0000 0.0000 0.0000
# 2 34.6673 31.8757 24.6664 0.0000 0.0000 0.0000
# 3 57.7019 24.6664 121.1514 0.0000 0.0000 0.0000
# 4 0.0000 0.0000 0.0000 34.4570 0.0000 0.0000
# 5 0.0000 0.0000 0.0000 0.0000 7.3057 0.0000
# 6 0.0000 0.0000 0.0000 0.0000 0.0000 22.6645
#
#
#
# Elastic Compliance Matrix: (Units=1/GPa)
#
#
# Indices 1 2 3 4 5 6 
#
# 1 0.008332 -0.007111 -0.002520 0.000000 0.000000 0.000000
# 2 -0.007111 0.043308 -0.005431 0.000000 0.000000 0.000000
# 3 -0.002520 -0.005431 0.010560 0.000000 0.000000 0.000000
# 4 0.000000 0.000000 0.000000 0.029022 0.000000 0.000000
# 5 0.000000 0.000000 0.000000 0.000000 0.136879 0.000000
# 6 0.000000 0.000000 0.000000 0.000000 0.000000 0.044122
#
#
# Mechanical properties :
#
#
# Convention : Reuss Voigt Hill
#
# Bulk Modulus (GPa) = 31.17621 61.57392 46.37506
# Shear Modulus (GPa) = 15.97246 26.42267 21.19756
#
# Velocity S-wave (km/s) = 2.77886 3.57412 3.20128
# Velocity P-wave (km/s) = 5.03672 6.84113 6.00706
#
# Compressibility (1/GPa) = 0.03207574
#
# Stress axis : x y z
#
# Youngs Moduli (GPa) = 120.02353 23.09044 94.69482
#
# Poissons Ratio (x) = 0.16420 0.23867
# Poissons Ratio (y) = 0.85348 0.51426
# Poissons Ratio (z) = 0.30251 0.12540
#
# Static dielectric constant tensor:
#      x y z
#    x 1.712820 0.000000 0.000000 
#    y 0.000000 1.773860 0.000000 
#    z 0.000000 0.000000 1.764300 
# 
# From -- ./inp_files/4675.got.cif
#   From: 2010.05.17/outbox.cif.g08.bks.cpg/sg45_3_cif.got.tgz:4675.got - 2010.06.03 19:51:22.
