data_PCOD9376559
_publ_section_title
;
Structure prediction by ZEFSAII (Michael W. Deem and Ramdas Pophale) SiO2 
 PCOD9376559
Probable space group: I B A 2
;
_chemical_formula_sum "Si O2"
_cell_formula_units_Z 60
_cell_length_a 13.616603
_cell_length_b 23.149628
_cell_length_c 8.581032
_cell_angle_alpha 90.000000
_cell_angle_beta 90.000000
_cell_angle_gamma 90.000000
_cell_volume 2704.906849
_symmetry_space_group_name_H-M "I B A 2"
_symmetry_group_IT_number 45
_symmetry_cell_setting 'orthorhombic'
loop_
_space_group_symop_operation_xyz
x,y,z
-x,-y,z
-x,y,1/2+z
x,-y,1/2+z
1/2+x,1/2+y,1/2+z
1/2-x,1/2-y,1/2+z
1/2-x,1/2+y,z
1/2+x,1/2-y,z
loop_
_atom_site_type_symbol
_atom_site_label
_atom_site_fract_x
_atom_site_fract_y
_atom_site_fract_z
Si Si1 0.111449 0.065218 0.882290
Si Si2 0.223507 0.239604 0.715090
Si Si3 0.363613 0.157956 0.588907
Si Si4 0.955633 0.318860 0.253401
Si Si5 0.329198 0.041553 0.750381
Si Si6 0.500000 0.500000 0.134824
Si Si7 0.132364 0.423090 0.577842
Si Si8 0.694272 0.332083 0.025114
O O1 0.216889 0.049532 0.807811
O O2 0.106690 0.129863 0.952480
O O3 0.033873 0.051685 0.746844
O O4 0.086635 0.021743 0.023067
O O5 0.257390 0.187968 0.601731
O O6 0.116158 0.268529 0.689382
O O7 0.299561 0.291798 0.676574
O O8 0.224983 0.210654 0.885013
O O9 0.428906 0.188099 0.725851
O O10 0.417629 0.171788 0.428043
O O11 0.349685 0.090704 0.623038
O O12 0.939672 0.378303 0.158703
O O13 0.349037 0.978818 0.682609
O O14 0.393344 0.055884 0.904190
O O15 0.228488 0.383076 0.559092
#
# Coordination Sequence:
#
# PCOD9376559 Si02
#       8
#     8   8   8   8   8   4   8   8
#     4  10  20  40  61  97 130 183 215 279 334 408
#     4  11  22  45  67  92 133 184 219 291 324 403
#     4  12  24  43  68  96 133 178 220 286 337 405
#     4  11  26  41  69  99 133 176 230 276 350 394
#     4  11  21  39  70  92 137 177 223 273 352 405
#     4  10  22  38  66  94 148 166 222 282 336 396
#     4  10  21  39  64 100 132 168 222 277 335 413
#     4  10  21  41  66  92 132 173 234 269 337 397
#
# _framework density 22.181909999999998
#
# number of rings (size 3 to 8) (size 9 to 14) (size 15 to 20)
#    0.000    1.333    4.000    3.200    1.867    0.533 
#    2.400    6.667    0.000    0.000    0.000    0.000 
#    0.000    0.000    0.000    0.000    0.000    0.000 
#
# Total GULP energy -167362.998148 kJ/mol
# GULP energy per Si atom -5578.766605 kJ/mol
# Density = 2.213142 g / cm^3
# Si number density = 22.181910 Si / 1000 Ang^3
#
#
#
# Elastic Constant Matrix: (Units=GPa)
#
#
# Indices 1 2 3 4 5 6 
#
# 1 58.7451 29.4385 6.2637 0.0000 0.0000 0.0000
# 2 29.4385 144.2616 43.9762 -0.0003 0.0001 0.0001
# 3 6.2637 43.9762 79.9993 -0.0017 0.0005 0.0004
# 4 0.0000 -0.0003 -0.0017 48.8543 0.0002 0.0002
# 5 0.0000 0.0001 0.0005 0.0002 24.3035 0.0000
# 6 0.0000 0.0001 0.0004 0.0002 0.0000 27.3982
#
#
#
# Elastic Compliance Matrix: (Units=1/GPa)
#
#
# Indices 1 2 3 4 5 6 
#
# 1 0.019001 -0.004113 0.000773 0.000000 0.000000 0.000000
# 2 -0.004113 0.009218 -0.004745 0.000000 0.000000 0.000000
# 3 0.000773 -0.004745 0.015048 0.000000 0.000000 0.000000
# 4 0.000000 0.000000 0.000000 0.020469 0.000000 0.000000
# 5 0.000000 0.000000 0.000000 0.000000 0.041146 0.000000
# 6 0.000000 0.000000 0.000000 0.000000 0.000000 0.036499
#
#
# Mechanical properties :
#
#
# Convention : Reuss Voigt Hill
#
# Bulk Modulus (GPa) = 36.90406 49.15142 43.02774
# Shear Modulus (GPa) = 30.01501 33.66636 31.84069
#
# Velocity S-wave (km/s) = 3.68248 3.90004 3.79282
# Velocity P-wave (km/s) = 5.89525 6.51820 6.21454
#
# Compressibility (1/GPa) = 0.02709729
#
# Stress axis : x y z
#
# Youngs Moduli (GPa) = 52.62748 108.48742 66.45441
#
# Poissons Ratio (x) = 0.44624 -0.05139
# Poissons Ratio (y) = 0.21647 0.31532
# Poissons Ratio (z) = -0.04070 0.51477
#
# Static dielectric constant tensor:
#      x y z
#    x 1.886900 0.000000 0.000000 
#    y 0.000000 1.838700 0.000000 
#    z 0.000000 0.000000 1.854360 
# 
# From -- ./inp_files/1896.got.cif
#   From: 2010.05.17/outbox.cif.g08.bks.cpg/sg45_1_cif.got.tgz:1896.got - 2010.06.03 19:51:22.
