data_PCOD9376451
_publ_section_title
;
Structure prediction by ZEFSAII (Michael W. Deem and Ramdas Pophale) SiO2 
 PCOD9376451
Probable space group: I B A 2
;
_chemical_formula_sum "Si O2"
_cell_formula_units_Z 36
_cell_length_a 16.758850
_cell_length_b 5.185632
_cell_length_c 16.017702
_cell_angle_alpha 90.000000
_cell_angle_beta 90.000000
_cell_angle_gamma 90.000000
_cell_volume 1392.022058
_symmetry_space_group_name_H-M "I B A 2"
_symmetry_group_IT_number 45
_symmetry_cell_setting 'orthorhombic'
loop_
_space_group_symop_operation_xyz
x,y,z
-x,-y,z
-x,y,1/2+z
x,-y,1/2+z
1/2+x,1/2+y,1/2+z
1/2-x,1/2-y,1/2+z
1/2-x,1/2+y,z
1/2+x,1/2-y,z
loop_
_atom_site_type_symbol
_atom_site_label
_atom_site_fract_x
_atom_site_fract_y
_atom_site_fract_z
Si Si1 0.092392 0.601747 0.221020
Si Si2 0.129776 0.312496 0.063787
Si Si3 0.000000 0.000000 0.637175
Si Si4 0.699634 0.496949 0.432241
Si Si5 0.409909 0.898316 0.398122
O O1 0.144500 0.462889 0.149675
O O2 0.073055 0.893750 0.193204
O O3 0.120537 0.528648 0.312421
O O4 0.000000 0.500000 0.218512
O O5 0.040451 0.206031 0.077190
O O6 0.182993 0.074432 0.029819
O O7 0.127403 0.504931 0.985531
O O8 0.751390 0.248798 0.406294
O O9 0.612781 0.406508 0.397305
O O10 0.500000 0.000000 0.401785
#
# Coordination Sequence:
#
# PCOD9376451 Si02
#       5
#     8   8   4   8   8
#     4   9  21  39  63 109 150 193 256 324 386 466
#     4  11  21  40  69 100 145 198 250 313 394 464
#     4  10  20  36  68 110 154 190 260 322 378 472
#     4  12  26  48  71 103 148 198 256 318 388 476
#     4  11  23  43  76 110 148 202 260 334 404 472
#
# _framework density 25.861660000000001
#
# number of rings (size 3 to 8) (size 9 to 14) (size 15 to 20)
#    0.000    1.333    2.222    4.667    0.000    6.222 
#    0.000    2.222    0.000    0.000    0.000    0.000 
#    0.000    0.000    0.000    0.000    0.000    0.000 
#
# Total GULP energy -100291.913947 kJ/mol
# GULP energy per Si atom -5571.772997 kJ/mol
# Density = 2.580280 g / cm^3
# Si number density = 25.861660 Si / 1000 Ang^3
#
#
#
# Elastic Constant Matrix: (Units=GPa)
#
#
# Indices 1 2 3 4 5 6 
#
# 1 78.6870 41.2789 32.4213 0.0000 0.0000 0.0000
# 2 41.2789 152.8578 64.5161 0.0000 0.0000 0.0000
# 3 32.4213 64.5161 188.9110 0.0000 0.0000 0.0000
# 4 0.0000 0.0000 0.0000 26.9668 0.0000 0.0000
# 5 0.0000 0.0000 0.0000 0.0000 37.4331 0.0000
# 6 0.0000 0.0000 0.0000 0.0000 0.0000 54.7416
#
#
#
# Elastic Compliance Matrix: (Units=1/GPa)
#
#
# Indices 1 2 3 4 5 6 
#
# 1 0.015118 -0.003491 -0.001402 0.000000 0.000000 0.000000
# 2 -0.003491 0.008450 -0.002287 0.000000 0.000000 0.000000
# 3 -0.001402 -0.002287 0.006315 0.000000 0.000000 0.000000
# 4 0.000000 0.000000 0.000000 0.037083 0.000000 0.000000
# 5 0.000000 0.000000 0.000000 0.000000 0.026714 0.000000
# 6 0.000000 0.000000 0.000000 0.000000 0.000000 0.018268
#
#
# Mechanical properties :
#
#
# Convention : Reuss Voigt Hill
#
# Bulk Modulus (GPa) = 64.41992 77.43203 70.92597
# Shear Modulus (GPa) = 38.02839 42.64427 40.33633
#
# Velocity S-wave (km/s) = 3.83881 4.06512 3.95358
# Velocity P-wave (km/s) = 6.67923 7.21384 6.95167
#
# Compressibility (1/GPa) = 0.01552315
#
# Stress axis : x y z
#
# Youngs Moduli (GPa) = 66.14830 118.34647 158.35008
#
# Poissons Ratio (x) = 0.41309 0.22208
# Poissons Ratio (y) = 0.23089 0.36210
# Poissons Ratio (z) = 0.09277 0.27062
#
# Static dielectric constant tensor:
#      x y z
#    x 2.179170 0.000000 0.000000 
#    y 0.000000 2.412980 0.000000 
#    z 0.000000 0.000000 2.010940 
# 
# From -- ./inp_files/8395.got.cif
#   From: 2010.05.17/outbox.cif.g08.bks.cpg/sg45_5_cif.got.tgz:8395.got - 2010.06.03 19:51:22.
