data_PCOD9376132
_publ_section_title
;
Structure prediction by ZEFSAII (Michael W. Deem and Ramdas Pophale) SiO2 
 PCOD9376132
Probable space group: I B A 2
;
_chemical_formula_sum "Si O2"
_cell_formula_units_Z 52
_cell_length_a 11.469215
_cell_length_b 14.368197
_cell_length_c 13.674717
_cell_angle_alpha 90.000000
_cell_angle_beta 90.000000
_cell_angle_gamma 90.000000
_cell_volume 2253.483151
_symmetry_space_group_name_H-M "I B A 2"
_symmetry_group_IT_number 45
_symmetry_cell_setting 'orthorhombic'
loop_
_space_group_symop_operation_xyz
x,y,z
-x,-y,z
-x,y,1/2+z
x,-y,1/2+z
1/2+x,1/2+y,1/2+z
1/2-x,1/2-y,1/2+z
1/2-x,1/2+y,z
1/2+x,1/2-y,z
loop_
_atom_site_type_symbol
_atom_site_label
_atom_site_fract_x
_atom_site_fract_y
_atom_site_fract_z
Si Si1 0.989900 0.147031 0.910000
Si Si2 0.736221 0.650530 0.796695
Si Si3 0.004344 0.362037 0.837624
Si Si4 0.000000 0.500000 0.497976
Si Si5 0.578203 0.318365 0.118790
Si Si6 0.854480 0.614327 0.142226
Si Si7 0.643758 0.343971 0.748148
O O1 0.002084 0.255894 0.875959
O O2 0.080687 0.100785 0.834542
O O3 0.856007 0.128210 0.882169
O O4 0.035990 0.134529 0.019025
O O5 0.862091 0.607046 0.816452
O O6 0.668750 0.633415 0.693982
O O7 0.772373 0.761033 0.788476
O O8 0.953999 0.420409 0.926788
O O9 0.934701 0.380629 0.738805
O O10 0.098833 0.540786 0.566668
O O11 0.634087 0.217591 0.095122
O O12 0.459667 0.302839 0.181103
O O13 0.725240 0.596069 0.179029
#
# Coordination Sequence:
#
# PCOD9376132 Si02
#       7
#     8   8   8   4   8   8   8
#     4  10  18  32  58  91 115 147 196 250 319 362
#     4   9  18  33  54  85 121 148 182 261 312 349
#     4  11  21  39  54  82 128 153 199 243 300 367
#     4  12  26  36  56  82 114 176 202 226 288 380
#     4  10  18  32  58  91 115 147 196 250 319 362
#     4  11  21  39  54  82 128 153 199 243 300 367
#     4   9  18  33  54  85 121 148 182 261 312 349
#
# _framework density 23.075389000000001
#
# number of rings (size 3 to 8) (size 9 to 14) (size 15 to 20)
#    0.000    1.846    7.692    0.462    2.154    1.231 
#    2.769    0.000    0.000    0.000    0.000   25.846 
#    0.000    0.000    0.000    0.000    0.000    0.000 
#
# Total GULP energy -145174.938501 kJ/mol
# GULP energy per Si atom -5583.651481 kJ/mol
# Density = 2.302287 g / cm^3
# Si number density = 23.075389 Si / 1000 Ang^3
#
#
#
# Elastic Constant Matrix: (Units=GPa)
#
#
# Indices 1 2 3 4 5 6 
#
# 1 99.6415 8.9578 18.6836 0.0000 0.0000 0.0000
# 2 8.9578 42.7439 8.0721 0.0000 0.0000 0.0000
# 3 18.6836 8.0721 91.1797 0.0000 0.0000 0.0000
# 4 0.0000 0.0000 0.0000 17.6165 0.0000 0.0000
# 5 0.0000 0.0000 0.0000 0.0000 14.6750 0.0000
# 6 0.0000 0.0000 0.0000 0.0000 0.0000 14.4031
#
#
#
# Elastic Compliance Matrix: (Units=1/GPa)
#
#
# Indices 1 2 3 4 5 6 
#
# 1 0.010577 -0.001838 -0.002005 0.000000 0.000000 0.000000
# 2 -0.001838 0.024112 -0.001758 0.000000 0.000000 0.000000
# 3 -0.002005 -0.001758 0.011534 0.000000 0.000000 0.000000
# 4 0.000000 0.000000 0.000000 0.056765 0.000000 0.000000
# 5 0.000000 0.000000 0.000000 0.000000 0.068143 0.000000
# 6 0.000000 0.000000 0.000000 0.000000 0.000000 0.069429
#
#
# Mechanical properties :
#
#
# Convention : Reuss Voigt Hill
#
# Bulk Modulus (GPa) = 28.55366 33.88801 31.22083
# Shear Modulus (GPa) = 18.97996 22.52905 20.75450
#
# Velocity S-wave (km/s) = 2.87107 3.12801 3.00229
# Velocity P-wave (km/s) = 4.83649 5.26911 5.05743
#
# Compressibility (1/GPa) = 0.03502178
#
# Stress axis : x y z
#
# Youngs Moduli (GPa) = 94.54387 41.47255 86.70207
#
# Poissons Ratio (x) = 0.07623 0.17380
# Poissons Ratio (y) = 0.17378 0.15242
# Poissons Ratio (z) = 0.18952 0.07291
#
# Static dielectric constant tensor:
#      x y z
#    x 1.874260 0.000000 0.000000 
#    y 0.000000 1.968490 0.000000 
#    z 0.000000 0.000000 1.861270 
# 
# From -- ./inp_files/6222.got.cif
#   From: 2010.05.17/outbox.cif.g08.bks.cpg/sg45_4_cif.got.tgz:6222.got - 2010.06.03 19:51:22.
