data_PCOD9376546
_publ_section_title
;
Structure prediction by ZEFSAII (Michael W. Deem and Ramdas Pophale) SiO2 
 PCOD9376546
Probable space group: I B A 2
;
_chemical_formula_sum "Si O2"
_cell_formula_units_Z 60
_cell_length_a 26.403682
_cell_length_b 11.269713
_cell_length_c 9.071311
_cell_angle_alpha 90.000000
_cell_angle_beta 90.000000
_cell_angle_gamma 90.000000
_cell_volume 2699.276703
_symmetry_space_group_name_H-M "I B A 2"
_symmetry_group_IT_number 45
_symmetry_cell_setting 'orthorhombic'
loop_
_space_group_symop_operation_xyz
x,y,z
-x,-y,z
-x,y,1/2+z
x,-y,1/2+z
1/2+x,1/2+y,1/2+z
1/2-x,1/2-y,1/2+z
1/2-x,1/2+y,z
1/2+x,1/2-y,z
loop_
_atom_site_type_symbol
_atom_site_label
_atom_site_fract_x
_atom_site_fract_y
_atom_site_fract_z
Si Si1 0.036389 0.745054 0.207750
Si Si2 0.841687 0.931876 0.057517
Si Si3 0.808061 0.152968 0.878017
Si Si4 0.393474 0.073907 0.519853
Si Si5 0.358198 0.183631 0.071818
Si Si6 0.941605 0.190469 0.548414
Si Si7 0.000000 0.500000 0.570577
Si Si8 0.692345 0.785677 0.357696
O O1 0.089946 0.746932 0.123269
O O2 0.045326 0.775949 0.378595
O O3 0.014428 0.613546 0.169858
O O4 0.992832 0.826615 0.138030
O O5 0.821004 0.898837 0.217934
O O6 0.902279 0.915914 0.056363
O O7 0.819834 0.835728 0.941754
O O8 0.826196 0.058908 0.998947
O O9 0.748345 0.172376 0.892877
O O10 0.839114 0.273469 0.912890
O O11 0.410083 0.193220 0.607344
O O12 0.449414 0.025679 0.475989
O O13 0.352623 0.124709 0.406182
O O14 0.367774 0.957059 0.585601
O O15 0.314328 0.222468 0.183508
#
# Coordination Sequence:
#
# PCOD9376546 Si02
#       8
#     8   8   8   8   8   8   4   8
#     4  10  20  39  67  98 139 178 221 281 347 409
#     4  11  26  50  68 103 133 179 237 286 343 416
#     4  12  28  44  75  92 140 185 233 289 348 403
#     4   9  20  38  63 102 139 176 217 275 339 413
#     4  11  23  44  67 103 139 182 229 281 347 413
#     4  10  22  43  68 101 139 179 224 289 345 424
#     4   8  18  34  60  98 140 176 214 260 348 406
#     4  11  24  45  69 102 138 179 232 288 339 413
#
# _framework density 22.228175
#
# number of rings (size 3 to 8) (size 9 to 14) (size 15 to 20)
#    0.000    1.600    2.667    1.600    5.600    5.333 
#    4.800    0.667    0.000    0.000    0.000    0.000 
#    0.000    0.000    0.000    0.000    0.000    0.000 
#
# Total GULP energy -167506.338066 kJ/mol
# GULP energy per Si atom -5583.544602 kJ/mol
# Density = 2.217758 g / cm^3
# Si number density = 22.228175 Si / 1000 Ang^3
#
#
#
# Elastic Constant Matrix: (Units=GPa)
#
#
# Indices 1 2 3 4 5 6 
#
# 1 143.3853 38.0436 27.1318 0.0000 0.0000 0.0000
# 2 38.0436 56.7022 11.8551 0.0000 0.0000 0.0000
# 3 27.1318 11.8551 56.0773 0.0000 0.0000 0.0000
# 4 0.0000 0.0000 0.0000 25.2213 0.0000 0.0000
# 5 0.0000 0.0000 0.0000 0.0000 37.1588 0.0000
# 6 0.0000 0.0000 0.0000 0.0000 0.0000 23.7608
#
#
#
# Elastic Compliance Matrix: (Units=1/GPa)
#
#
# Indices 1 2 3 4 5 6 
#
# 1 0.009009 -0.005371 -0.003224 0.000000 0.000000 0.000000
# 2 -0.005371 0.021653 -0.001979 0.000000 0.000000 0.000000
# 3 -0.003224 -0.001979 0.019811 0.000000 0.000000 0.000000
# 4 0.000000 0.000000 0.000000 0.039649 0.000000 0.000000
# 5 0.000000 0.000000 0.000000 0.000000 0.026912 0.000000
# 6 0.000000 0.000000 0.000000 0.000000 0.000000 0.042086
#
#
# Mechanical properties :
#
#
# Convention : Reuss Voigt Hill
#
# Bulk Modulus (GPa) = 34.09907 45.58064 39.83986
# Shear Modulus (GPa) = 26.31006 29.17047 27.74027
#
# Velocity S-wave (km/s) = 3.44413 3.62653 3.53651
# Velocity P-wave (km/s) = 5.58479 6.17138 5.88539
#
# Compressibility (1/GPa) = 0.02932631
#
# Stress axis : x y z
#
# Youngs Moduli (GPa) = 110.99857 46.18274 50.47818
#
# Poissons Ratio (x) = 0.24803 0.16272
# Poissons Ratio (y) = 0.59613 0.09990
# Poissons Ratio (z) = 0.35780 0.09140
#
# Static dielectric constant tensor:
#      x y z
#    x 1.794930 0.000000 0.000000 
#    y 0.000000 1.850780 0.000000 
#    z 0.000000 0.000000 1.826920 
# 
# From -- ./inp_files/2633.got.cif
#   From: 2010.05.17/outbox.cif.g08.bks.cpg/sg45_2_cif.got.tgz:2633.got - 2010.06.03 19:51:22.
