data_PCOD9376048
_publ_section_title
;
Structure prediction by ZEFSAII (Michael W. Deem and Ramdas Pophale) SiO2 
 PCOD9376048
Probable space group: I B A 2
;
_chemical_formula_sum "Si O2"
_cell_formula_units_Z 60
_cell_length_a 9.263275
_cell_length_b 26.457088
_cell_length_c 9.220059
_cell_angle_alpha 90.000000
_cell_angle_beta 90.000000
_cell_angle_gamma 90.000000
_cell_volume 2259.645438
_symmetry_space_group_name_H-M "I B A 2"
_symmetry_group_IT_number 45
_symmetry_cell_setting 'orthorhombic'
loop_
_space_group_symop_operation_xyz
x,y,z
-x,-y,z
-x,y,1/2+z
x,-y,1/2+z
1/2+x,1/2+y,1/2+z
1/2-x,1/2-y,1/2+z
1/2-x,1/2+y,z
1/2+x,1/2-y,z
loop_
_atom_site_type_symbol
_atom_site_label
_atom_site_fract_x
_atom_site_fract_y
_atom_site_fract_z
Si Si1 0.500000 0.000000 0.186800
Si Si2 0.791727 0.942917 0.980440
Si Si3 0.997847 0.320195 0.791368
Si Si4 0.690642 0.540935 0.144518
Si Si5 0.175369 0.729632 0.548320
Si Si6 0.180226 0.136131 0.462815
Si Si7 0.291612 0.657642 0.138850
Si Si8 0.982914 0.581765 0.915624
O O1 0.368132 0.964697 0.126252
O O2 0.574564 0.959434 0.300578
O O3 0.832772 0.953019 0.814826
O O4 0.614474 0.945698 0.997929
O O5 0.829262 0.887884 0.035318
O O6 0.853149 0.986966 0.080825
O O7 0.072287 0.286124 0.914802
O O8 0.122525 0.339548 0.681849
O O9 0.924293 0.372190 0.841045
O O10 0.889944 0.286541 0.701435
O O11 0.627060 0.588199 0.055055
O O12 0.314410 0.692425 0.530318
O O13 0.188054 0.789245 0.560019
O O14 0.135741 0.145143 0.295825
O O15 0.349334 0.117258 0.460138
#
# Coordination Sequence:
#
# PCOD9376048 Si02
#       8
#     4   8   8   8   8   8   8   8
#     4  10  16  24  42  66 100 138 180 208 238 296
#     4  11  20  31  48  69 106 141 180 218 258 313
#     4  10  21  35  54  77 107 143 183 227 272 317
#     4  11  20  29  45  70 102 141 179 216 256 309
#     4  10  21  36  55  79 108 143 181 225 274 323
#     4  10  20  32  48  71 103 140 180 214 257 310
#     4  10  21  37  53  75 109 145 181 222 266 320
#     4   9  17  28  44  67  99 141 176 209 246 299
#
# _framework density 26.552837
#
# number of rings (size 3 to 8) (size 9 to 14) (size 15 to 20)
#    0.000    2.133    0.000    8.000    0.000    8.000 
#    0.000    0.000    0.000    0.000    0.000    0.000 
#    0.000   22.400    0.000    0.000    0.000    0.000 
#
# Total GULP energy -167656.997729 kJ/mol
# GULP energy per Si atom -5588.566591 kJ/mol
# Density = 2.649240 g / cm^3
# Si number density = 26.552837 Si / 1000 Ang^3
#
#
#
# Elastic Constant Matrix: (Units=GPa)
#
#
# Indices 1 2 3 4 5 6 
#
# 1 56.8396 15.3581 -10.4080 -0.0004 -0.0005 0.0000
# 2 15.3581 205.5744 92.6106 0.0001 -0.0006 0.0001
# 3 -10.4080 92.6106 92.1085 0.0011 -0.0015 0.0001
# 4 -0.0004 0.0001 0.0011 140.2575 0.0004 0.0002
# 5 -0.0005 -0.0006 -0.0015 0.0004 -0.0538 0.0002
# 6 0.0000 0.0001 0.0001 0.0002 0.0002 19.8389
#
#
#
# Elastic Compliance Matrix: (Units=1/GPa)
#
#
# Indices 1 2 3 4 5 6 
#
# 1 0.020107 -0.004617 0.006914 0.000000 -0.000337 0.000000
# 2 -0.004617 0.009952 -0.010528 0.000000 0.000227 0.000000
# 3 0.006914 -0.010528 0.022224 0.000000 -0.000566 0.000000
# 4 0.000000 0.000000 0.000000 0.007130 0.000057 0.000000
# 5 -0.000337 0.000227 -0.000566 0.000057-18.592085 0.000194
# 6 0.000000 0.000000 0.000000 0.000000 0.000194 0.050406
#
#
# Mechanical properties :
#
#
# Convention : Reuss Voigt Hill
#
# Bulk Modulus (GPa) = 27.91680 61.07155 44.49417
# Shear Modulus (GPa) = -0.27095 49.13933 24.43419
#
# Velocity S-wave (km/s) = -0.31978 4.30656 3.03679
# Velocity P-wave (km/s) = 3.22493 6.91220 5.39345
#
# Compressibility (1/GPa) = 0.03582072
#
# Stress axis : x y z
#
# Youngs Moduli (GPa) = 49.73415 100.47966 44.99720
#
# Poissons Ratio (x) = 0.46391 -0.31112
# Poissons Ratio (y) = 0.22962 0.47374
# Poissons Ratio (z) = -0.34387 1.05787
#
# Static dielectric constant tensor:
#      x y z
#    x 2.329240 0.000000 0.000000 
#    y 0.000000 2.080470 0.000000 
#    z 0.000000 0.000000 2.310830 
# 
# From -- ./inp_files/1434.got.cif
#   From: 2010.05.17/outbox.cif.g08.bks.cpg/sg45_1_cif.got.tgz:1434.got - 2010.06.03 19:51:22.
