data_PCOD9376515
_publ_section_title
;
Structure prediction by ZEFSAII (Michael W. Deem and Ramdas Pophale) SiO2 
 PCOD9376515
Probable space group: I B A 2
;
_chemical_formula_sum "Si O2"
_cell_formula_units_Z 56
_cell_length_a 8.460785
_cell_length_b 14.410698
_cell_length_c 19.776772
_cell_angle_alpha 90.000000
_cell_angle_beta 90.000000
_cell_angle_gamma 90.000000
_cell_volume 2411.299093
_symmetry_space_group_name_H-M "I B A 2"
_symmetry_group_IT_number 45
_symmetry_cell_setting 'orthorhombic'
loop_
_space_group_symop_operation_xyz
x,y,z
-x,-y,z
-x,y,1/2+z
x,-y,1/2+z
1/2+x,1/2+y,1/2+z
1/2-x,1/2-y,1/2+z
1/2-x,1/2+y,z
1/2+x,1/2-y,z
loop_
_atom_site_type_symbol
_atom_site_label
_atom_site_fract_x
_atom_site_fract_y
_atom_site_fract_z
Si Si1 0.231684 0.697001 0.125000
Si Si2 0.074796 0.401685 0.274051
Si Si3 0.339706 0.633101 0.983455
Si Si4 0.163262 0.797286 0.923130
Si Si5 0.620175 0.885930 0.622609
Si Si6 0.258387 0.778362 0.778403
Si Si7 0.337450 0.959185 0.980770
O O1 0.248064 0.806883 0.113968
O O2 0.293593 0.690222 0.202714
O O3 0.051460 0.663432 0.118169
O O4 0.325573 0.648786 0.064101
O O5 0.119809 0.428066 0.196856
O O6 0.227774 0.333416 0.289097
O O7 0.000000 0.500000 0.301836
O O8 0.933682 0.324626 0.281127
O O9 0.202989 0.693859 0.947272
O O10 0.503508 0.669315 0.956243
O O11 0.304466 0.527758 0.964484
O O12 0.166076 0.815805 0.843377
O O13 0.305211 0.858185 0.953358
O O14 0.647865 0.954681 0.561645
O O15 0.500000 0.000000 0.954496
#
# Coordination Sequence:
#
# PCOD9376515 Si02
#       7
#     8   8   8   8   8   8   8
#     4  10  20  40  69 100 130 180 228 293 355 423
#     4  10  22  43  73 102 141 187 238 295 364 439
#     4  12  24  42  69  96 138 181 240 289 358 423
#     4  12  26  45  65 100 140 185 228 301 358 435
#     4  10  20  38  67 102 136 174 229 295 350 420
#     4  10  24  44  70 101 142 184 242 295 375 436
#     4  12  24  41  68  99 136 181 234 292 353 426
#
# _framework density 23.223994000000001
#
# number of rings (size 3 to 8) (size 9 to 14) (size 15 to 20)
#    0.000    1.143    2.857    3.429    2.000    1.714 
#    0.000    2.143    0.000    1.714    0.000    0.000 
#    0.000    0.000    0.000    0.000    0.000    0.000 
#
# Total GULP energy -156202.517930 kJ/mol
# GULP energy per Si atom -5578.661355 kJ/mol
# Density = 2.317113 g / cm^3
# Si number density = 23.223994 Si / 1000 Ang^3
#
#
#
# Elastic Constant Matrix: (Units=GPa)
#
#
# Indices 1 2 3 4 5 6 
#
# 1 80.1952 25.4404 25.9724 0.0000 0.0000 0.0000
# 2 25.4404 99.6181 3.1232 0.0000 0.0000 0.0000
# 3 25.9724 3.1232 135.5741 0.0000 0.0000 0.0000
# 4 0.0000 0.0000 0.0000 -10.7001 0.0000 0.0000
# 5 0.0000 0.0000 0.0000 0.0000 53.0785 0.0000
# 6 0.0000 0.0000 0.0000 0.0000 0.0000 47.8930
#
#
#
# Elastic Compliance Matrix: (Units=1/GPa)
#
#
# Indices 1 2 3 4 5 6 
#
# 1 0.014489 -0.003616 -0.002692 0.000000 0.000000 0.000000
# 2 -0.003616 0.010948 0.000440 0.000000 0.000000 0.000000
# 3 -0.002692 0.000440 0.007882 0.000000 0.000000 0.000000
# 4 0.000000 0.000000 0.000000 -0.093457 0.000000 0.000000
# 5 0.000000 0.000000 0.000000 0.000000 0.018840 0.000000
# 6 0.000000 0.000000 0.000000 0.000000 0.000000 0.020880
#
#
# Mechanical properties :
#
#
# Convention : Reuss Voigt Hill
#
# Bulk Modulus (GPa) = 46.33267 47.16215 46.74741
# Shear Modulus (GPa) = -3356.27068 35.44438 -1660.41315
#
# Velocity S-wave (km/s) = -38.05668 3.91090 -26.76767
# Velocity P-wave (km/s) = 43.71599 6.38319 30.58057
#
# Compressibility (1/GPa) = 0.02158304
#
# Stress axis : x y z
#
# Youngs Moduli (GPa) = 69.02013 91.34184 126.87660
#
# Poissons Ratio (x) = 0.33026 0.34159
# Poissons Ratio (y) = 0.24955 -0.05588
# Poissons Ratio (z) = 0.18582 -0.04023
#
# Static dielectric constant tensor:
#      x y z
#    x 1.813960 0.000000 0.000000 
#    y 0.000000 1.871780 0.000000 
#    z 0.000000 0.000000 1.917100 
# 
# From -- ./inp_files/8879.got.cif
#   From: 2010.05.17/outbox.cif.g08.bks.cpg/sg45_5_cif.got.tgz:8879.got - 2010.06.03 19:51:22.
