data_PCOD9376395
_publ_section_title
;
Structure prediction by ZEFSAII (Michael W. Deem and Ramdas Pophale) SiO2 
 PCOD9376395
Probable space group: I B A 2
;
_chemical_formula_sum "Si O2"
_cell_formula_units_Z 52
_cell_length_a 13.400979
_cell_length_b 17.825616
_cell_length_c 8.332048
_cell_angle_alpha 90.000000
_cell_angle_beta 90.000000
_cell_angle_gamma 90.000000
_cell_volume 1990.365506
_symmetry_space_group_name_H-M "I B A 2"
_symmetry_group_IT_number 45
_symmetry_cell_setting 'orthorhombic'
loop_
_space_group_symop_operation_xyz
x,y,z
-x,-y,z
-x,y,1/2+z
x,-y,1/2+z
1/2+x,1/2+y,1/2+z
1/2-x,1/2-y,1/2+z
1/2-x,1/2+y,z
1/2+x,1/2-y,z
loop_
_atom_site_type_symbol
_atom_site_label
_atom_site_fract_x
_atom_site_fract_y
_atom_site_fract_z
Si Si1 0.000000 0.500000 0.121390
Si Si2 0.514206 0.704913 0.272032
Si Si3 0.289466 0.567195 0.789380
Si Si4 0.291006 0.069521 0.114642
Si Si5 0.408095 0.146008 0.696879
Si Si6 0.326539 0.191987 0.367366
Si Si7 0.385672 0.643786 0.494716
O O1 0.891210 0.474258 0.049970
O O2 0.975684 0.573654 0.223757
O O3 0.447668 0.779517 0.277764
O O4 0.623222 0.726968 0.341611
O O5 0.452849 0.633047 0.336095
O O6 0.537198 0.698001 0.084322
O O7 0.251334 0.482873 0.756306
O O8 0.199271 0.624788 0.760854
O O9 0.362092 0.585958 0.639091
O O10 0.296132 0.573240 0.981270
O O11 0.321381 0.147666 0.198108
O O12 0.394991 0.154456 0.504996
O O13 0.215964 0.183502 0.439567
#
# Coordination Sequence:
#
# PCOD9376395 Si02
#       7
#     4   8   8   8   8   8   8
#     4  10  20  34  64 106 146 184 228 292 376 468
#     4  12  25  45  69  99 147 203 257 315 365 470
#     4  10  24  43  70 107 144 192 229 307 376 460
#     4  11  22  41  75 108 153 185 243 306 390 459
#     4  10  22  39  61 102 146 189 238 290 375 443
#     4  11  25  43  69 107 144 195 245 312 377 454
#     4  11  28  46  70 102 147 195 263 306 388 451
#
# _framework density 26.125855999999999
#
# number of rings (size 3 to 8) (size 9 to 14) (size 15 to 20)
#    0.000    1.231    3.077    2.769    8.615    4.308 
#    0.000    0.000    0.000   11.077    0.000    0.000 
#    0.000    0.000    0.000    0.000    0.000    0.000 
#
# Total GULP energy -145007.820698 kJ/mol
# GULP energy per Si atom -5577.223873 kJ/mol
# Density = 2.606639 g / cm^3
# Si number density = 26.125856 Si / 1000 Ang^3
#
#
#
# Elastic Constant Matrix: (Units=GPa)
#
#
# Indices 1 2 3 4 5 6 
#
# 1 88.3070 27.9862 28.5839 0.0000 0.0000 0.0000
# 2 27.9862 53.8159 16.2125 0.0000 0.0000 0.0000
# 3 28.5839 16.2125 112.9869 0.0000 0.0000 0.0000
# 4 0.0000 0.0000 0.0000 33.4325 0.0000 0.0000
# 5 0.0000 0.0000 0.0000 0.0000 54.7859 0.0000
# 6 0.0000 0.0000 0.0000 0.0000 0.0000 27.5853
#
#
#
# Elastic Compliance Matrix: (Units=1/GPa)
#
#
# Indices 1 2 3 4 5 6 
#
# 1 0.014286 -0.006627 -0.002663 0.000000 0.000000 0.000000
# 2 -0.006627 0.022496 -0.001551 0.000000 0.000000 0.000000
# 3 -0.002663 -0.001551 0.009747 0.000000 0.000000 0.000000
# 4 0.000000 0.000000 0.000000 0.029911 0.000000 0.000000
# 5 0.000000 0.000000 0.000000 0.000000 0.018253 0.000000
# 6 0.000000 0.000000 0.000000 0.000000 0.000000 0.036251
#
#
# Mechanical properties :
#
#
# Convention : Reuss Voigt Hill
#
# Bulk Modulus (GPa) = 40.24884 44.51942 42.38413
# Shear Modulus (GPa) = 31.07340 35.31591 33.19466
#
# Velocity S-wave (km/s) = 3.45247 3.68062 3.56837
# Velocity P-wave (km/s) = 5.59749 5.92790 5.76506
#
# Compressibility (1/GPa) = 0.02484544
#
# Stress axis : x y z
#
# Youngs Moduli (GPa) = 69.99630 44.45327 102.59611
#
# Poissons Ratio (x) = 0.29460 0.27325
# Poissons Ratio (y) = 0.46387 0.15916
# Poissons Ratio (z) = 0.18642 0.06896
#
# Static dielectric constant tensor:
#      x y z
#    x 2.115620 0.000000 0.000000 
#    y 0.000000 2.029880 0.000000 
#    z 0.000000 0.000000 2.103350 
# 
# From -- ./inp_files/1792.got.cif
#   From: 2010.05.17/outbox.cif.g08.bks.cpg/sg45_1_cif.got.tgz:1792.got - 2010.06.03 19:51:22.
