data_PCOD9376663
_publ_section_title
;
Structure prediction by ZEFSAII (Michael W. Deem and Ramdas Pophale) SiO2 
 PCOD9376663
Probable space group: I B A 2
;
_chemical_formula_sum "Si O2"
_cell_formula_units_Z 64
_cell_length_a 24.124174
_cell_length_b 13.838673
_cell_length_c 8.025607
_cell_angle_alpha 90.000000
_cell_angle_beta 90.000000
_cell_angle_gamma 90.000000
_cell_volume 2679.321252
_symmetry_space_group_name_H-M "I B A 2"
_symmetry_group_IT_number 45
_symmetry_cell_setting 'orthorhombic'
loop_
_space_group_symop_operation_xyz
x,y,z
-x,-y,z
-x,y,1/2+z
x,-y,1/2+z
1/2+x,1/2+y,1/2+z
1/2-x,1/2-y,1/2+z
1/2-x,1/2+y,z
1/2+x,1/2-y,z
loop_
_atom_site_type_symbol
_atom_site_label
_atom_site_fract_x
_atom_site_fract_y
_atom_site_fract_z
Si Si1 0.096614 0.922592 0.216460
Si Si2 0.640725 0.383725 0.081814
Si Si3 0.759078 0.623452 0.419983
Si Si4 0.307671 0.711757 0.645842
Si Si5 0.974773 0.775997 0.592193
Si Si6 0.917295 0.283019 0.747856
Si Si7 0.888860 0.351817 0.280122
Si Si8 0.129127 0.464355 0.439279
O O1 0.107339 0.892395 0.407286
O O2 0.141945 0.860927 0.108259
O O3 0.037255 0.885883 0.150652
O O4 0.113944 0.032592 0.194173
O O5 0.632288 0.283028 0.177793
O O6 0.704801 0.399859 0.030425
O O7 0.738974 0.650523 0.236027
O O8 0.787839 0.718525 0.500278
O O9 0.804749 0.540028 0.413202
O O10 0.334621 0.784438 0.784177
O O11 0.947276 0.760237 0.412818
O O12 0.939653 0.714068 0.726925
O O13 0.035815 0.733474 0.607841
O O14 0.898103 0.388147 0.809751
O O15 0.893840 0.427943 0.426033
O O16 0.880857 0.420549 0.119982
#
# Coordination Sequence:
#
# PCOD9376663 Si02
#       8
#     8   8   8   8   8   8   8   8
#     4  10  22  39  58  87 120 158 204 255 310 375
#     4  11  23  38  61  90 122 162 209 256 311 378
#     4  10  21  36  58  88 122 166 208 257 315 366
#     4   9  20  36  55  80 116 158 203 252 311 368
#     4  10  22  42  63  88 122 159 203 260 320 373
#     4  11  23  41  65  91 122 162 208 262 318 384
#     4   9  21  38  57  84 118 156 200 252 305 369
#     4  10  22  38  59  88 122 159 205 252 306 371
#
# _framework density 23.886645999999999
#
# number of rings (size 3 to 8) (size 9 to 14) (size 15 to 20)
#    0.000    2.000    0.000    3.000    0.000   12.000 
#    0.000    5.000    0.000    0.000    0.000    0.000 
#    0.000    0.000    0.000    0.000    0.000    0.000 
#
# Total GULP energy -178865.185674 kJ/mol
# GULP energy per Si atom -5589.537052 kJ/mol
# Density = 2.383228 g / cm^3
# Si number density = 23.886646 Si / 1000 Ang^3
#
#
#
# Elastic Constant Matrix: (Units=GPa)
#
#
# Indices 1 2 3 4 5 6 
#
# 1 76.0559 7.5786 7.4829 0.0000 0.0000 0.0000
# 2 7.5786 57.3899 -7.8197 0.0000 0.0000 0.0000
# 3 7.4829 -7.8197 82.8729 0.0000 0.0000 0.0000
# 4 0.0000 0.0000 0.0000 33.0525 0.0000 0.0000
# 5 0.0000 0.0000 0.0000 0.0000 31.3678 0.0000
# 6 0.0000 0.0000 0.0000 0.0000 0.0000 23.7766
#
#
#
# Elastic Compliance Matrix: (Units=1/GPa)
#
#
# Indices 1 2 3 4 5 6 
#
# 1 0.013483 -0.001972 -0.001403 0.000000 0.000000 0.000000
# 2 -0.001972 0.017940 0.001871 0.000000 0.000000 0.000000
# 3 -0.001403 0.001871 0.012370 0.000000 0.000000 0.000000
# 4 0.000000 0.000000 0.000000 0.030255 0.000000 0.000000
# 5 0.000000 0.000000 0.000000 0.000000 0.031880 0.000000
# 6 0.000000 0.000000 0.000000 0.000000 0.000000 0.042058
#
#
# Mechanical properties :
#
#
# Convention : Reuss Voigt Hill
#
# Bulk Modulus (GPa) = 24.51944 25.64469 25.08207
# Shear Modulus (GPa) = 30.37874 31.57785 30.97829
#
# Velocity S-wave (km/s) = 3.57008 3.63986 3.60514
# Velocity P-wave (km/s) = 5.22314 5.33142 5.27756
#
# Compressibility (1/GPa) = 0.04078397
#
# Stress axis : x y z
#
# Youngs Moduli (GPa) = 74.16869 55.74149 80.84131
#
# Poissons Ratio (x) = 0.10991 0.11346
# Poissons Ratio (y) = 0.14624 -0.15124
# Poissons Ratio (z) = 0.10409 -0.10428
#
# Static dielectric constant tensor:
#      x y z
#    x 1.941390 0.000000 0.000000 
#    y 0.000000 1.909470 0.000000 
#    z 0.000000 0.000000 1.937570 
# 
# From -- ./inp_files/2547.got.cif
#   From: 2010.05.17/outbox.cif.g08.bks.cpg/sg45_2_cif.got.tgz:2547.got - 2010.06.03 19:51:22.
