data_PCOD9376049
_publ_section_title
;
Structure prediction by ZEFSAII (Michael W. Deem and Ramdas Pophale) SiO2 
 PCOD9376049
Probable space group: I B A 2
;
_chemical_formula_sum "Si O2"
_cell_formula_units_Z 64
_cell_length_a 5.440961
_cell_length_b 18.159879
_cell_length_c 32.606694
_cell_angle_alpha 90.000000
_cell_angle_beta 90.000000
_cell_angle_gamma 90.000000
_cell_volume 3221.775920
_symmetry_space_group_name_H-M "I B A 2"
_symmetry_group_IT_number 45
_symmetry_cell_setting 'orthorhombic'
loop_
_space_group_symop_operation_xyz
x,y,z
-x,-y,z
-x,y,1/2+z
x,-y,1/2+z
1/2+x,1/2+y,1/2+z
1/2-x,1/2-y,1/2+z
1/2-x,1/2+y,z
1/2+x,1/2-y,z
loop_
_atom_site_type_symbol
_atom_site_label
_atom_site_fract_x
_atom_site_fract_y
_atom_site_fract_z
Si Si1 0.524334 0.200647 0.932940
Si Si2 0.600542 0.399321 0.720495
Si Si3 0.858009 0.742440 0.754196
Si Si4 0.899048 0.393065 0.192372
Si Si5 0.491154 0.798071 0.113631
Si Si6 0.503336 0.090177 0.358481
Si Si7 0.997271 0.915219 0.316353
Si Si8 0.450941 0.204526 0.023646
O O1 0.780076 0.247151 0.928419
O O2 0.522789 0.134551 0.900575
O O3 0.501862 0.169039 0.979488
O O4 0.637146 0.309884 0.721244
O O5 0.376884 0.422473 0.691865
O O6 0.539338 0.414906 0.767712
O O7 0.858348 0.433905 0.707797
O O8 0.607836 0.749300 0.778559
O O9 0.864692 0.668718 0.728183
O O10 0.971384 0.356031 0.149719
O O11 0.225339 0.757941 0.117284
O O12 0.508454 0.832465 0.067892
O O13 0.759682 0.115541 0.337915
O O14 0.270825 0.111630 0.329827
O O15 0.500000 0.000000 0.362844
O O16 0.000000 0.000000 0.329452
O O17 0.668283 0.266948 0.023974
#
# Coordination Sequence:
#
# PCOD9376049 Si02
#       8
#     8   8   8   8   8   8   8   8
#     4  10  19  35  55  80 111 137 168 213 269 320
#     4  10  18  29  43  61  86 118 153 195 245 282
#     4   8  14  23  34  52  79 111 138 171 216 267
#     4  10  17  26  41  63  93 125 156 192 235 292
#     4  10  16  25  41  64  96 132 166 195 236 294
#     4  10  21  38  58  78 102 137 179 219 261 318
#     4  10  21  37  54  71  93 125 175 228 262 305
#     4   8  16  27  44  69  99 131 159 197 246 306
#
# _framework density 19.864820999999999
#
# number of rings (size 3 to 8) (size 9 to 14) (size 15 to 20)
#    0.000    2.500    0.000    4.500    0.000    0.000 
#    0.000   11.250    0.000    0.000    0.000    1.750 
#    0.000    0.000    0.000    0.000    0.000    0.000 
#
# Total GULP energy -178159.281110 kJ/mol
# GULP energy per Si atom -5567.477535 kJ/mol
# Density = 1.981961 g / cm^3
# Si number density = 19.864821 Si / 1000 Ang^3
#
#
#
# Elastic Constant Matrix: (Units=GPa)
#
#
# Indices 1 2 3 4 5 6 
#
# 1 181.4576 20.9876 32.2476 0.0000 0.0000 0.0000
# 2 20.9876 40.2336 8.3354 0.0000 0.0000 0.0000
# 3 32.2476 8.3354 123.0076 0.0000 0.0000 0.0000
# 4 0.0000 0.0000 0.0000 -168.0168 0.0000 0.0000
# 5 0.0000 0.0000 0.0000 0.0000 28.4239 0.0000
# 6 0.0000 0.0000 0.0000 0.0000 0.0000 15.9700
#
#
#
# Elastic Compliance Matrix: (Units=1/GPa)
#
#
# Indices 1 2 3 4 5 6 
#
# 1 0.006094 -0.002889 -0.001402 0.000000 0.000000 0.000000
# 2 -0.002889 0.026578 -0.001044 0.000000 0.000000 0.000000
# 3 -0.001402 -0.001044 0.008568 0.000000 0.000000 0.000000
# 4 0.000000 0.000000 0.000000 -0.005952 0.000000 0.000000
# 5 0.000000 0.000000 0.000000 0.000000 0.035182 0.000000
# 6 0.000000 0.000000 0.000000 0.000000 0.000000 0.062618
#
#
# Mechanical properties :
#
#
# Convention : Reuss Voigt Hill
#
# Bulk Modulus (GPa) = 32.71023 51.98222 42.34623
# Shear Modulus (GPa) = 32.47889 -5.84938 13.31475
#
# Velocity S-wave (km/s) = 4.04789 -1.71784 2.59176
# Velocity P-wave (km/s) = 6.19269 4.72124 5.50634
#
# Compressibility (1/GPa) = 0.03057148
#
# Stress axis : x y z
#
# Youngs Moduli (GPa) = 164.09147 37.62530 116.71567
#
# Poissons Ratio (x) = 0.10868 0.16362
# Poissons Ratio (y) = 0.47399 0.12182
# Poissons Ratio (z) = 0.23004 0.03927
#
# Static dielectric constant tensor:
#      x y z
#    x 1.837430 0.000000 0.000000 
#    y 0.000000 1.758220 0.000000 
#    z 0.000000 0.000000 1.674110 
# 
# From -- ./inp_files/9925.got.cif
#   From: 2010.05.17/outbox.cif.g08.bks.cpg/sg45_5_cif.got.tgz:9925.got - 2010.06.03 19:51:22.
