data_PCOD9376496
_publ_section_title
;
Structure prediction by ZEFSAII (Michael W. Deem and Ramdas Pophale) SiO2 
 PCOD9376496
Probable space group: I B A 2
;
_chemical_formula_sum "Si O2"
_cell_formula_units_Z 56
_cell_length_a 5.122131
_cell_length_b 35.557449
_cell_length_c 14.641650
_cell_angle_alpha 90.000000
_cell_angle_beta 90.000000
_cell_angle_gamma 90.000000
_cell_volume 2666.682423
_symmetry_space_group_name_H-M "I B A 2"
_symmetry_group_IT_number 45
_symmetry_cell_setting 'orthorhombic'
loop_
_space_group_symop_operation_xyz
x,y,z
-x,-y,z
-x,y,1/2+z
x,-y,1/2+z
1/2+x,1/2+y,1/2+z
1/2-x,1/2-y,1/2+z
1/2-x,1/2+y,z
1/2+x,1/2-y,z
loop_
_atom_site_type_symbol
_atom_site_label
_atom_site_fract_x
_atom_site_fract_y
_atom_site_fract_z
Si Si1 0.210079 0.269903 0.248570
Si Si2 0.007139 0.154550 0.548506
Si Si3 0.501034 0.918052 0.791523
Si Si4 0.789927 0.769903 0.966457
Si Si5 0.000000 0.500000 0.791634
Si Si6 0.998985 0.081948 0.423507
Si Si7 0.500000 0.500000 0.423397
Si Si8 0.007140 0.654549 0.166522
O O1 0.499800 0.260724 0.213105
O O2 0.250003 0.267057 0.357513
O O3 0.083510 0.309888 0.226292
O O4 0.916497 0.190112 0.488735
O O5 0.977425 0.115982 0.493371
O O6 0.804384 0.155898 0.632593
O O7 0.304383 0.155897 0.582435
O O8 0.750022 0.917221 0.857509
O O9 0.522567 0.884018 0.721658
O O10 0.250021 0.913910 0.857520
O O11 0.492708 0.959355 0.743737
O O12 0.500206 0.760724 0.001921
O O13 0.250000 0.500232 0.857515
O O14 0.007293 0.040645 0.471293
#
# Coordination Sequence:
#
# PCOD9376496 Si02
#       8
#     8   8   8   8   4   8   4   8
#     4  10  22  40  61  82 107 146 194 236 277 331
#     4  12  25  38  56  87 122 152 186 232 292 347
#     4  10  20  38  62  84 112 151 195 236 278 335
#     4  10  22  40  61  82 107 146 194 236 277 331
#     4   8  16  32  58  86 106 140 194 240 274 322
#     4  10  20  38  62  84 112 151 195 236 278 335
#     4   8  16  32  58  86 106 140 194 240 274 322
#     4  12  25  38  56  87 122 152 186 232 292 347
#
# _framework density 20.999877000000001
#
# number of rings (size 3 to 8) (size 9 to 14) (size 15 to 20)
#    0.000    1.714    0.000    4.286    0.000    6.857 
#    0.000    1.429    0.000    0.000    0.000    0.000 
#    0.000    0.000    0.000    0.000    0.000    0.000 
#
# Total GULP energy -156311.353042 kJ/mol
# GULP energy per Si atom -5582.548323 kJ/mol
# Density = 2.095208 g / cm^3
# Si number density = 20.999877 Si / 1000 Ang^3
#
#
#
# Elastic Constant Matrix: (Units=GPa)
#
#
# Indices 1 2 3 4 5 6 
#
# 1 110.9972 32.0560 12.2377 0.0000 0.0000 0.0000
# 2 32.0560 182.0864 23.4465 0.0000 0.0000 0.0000
# 3 12.2377 23.4465 30.6667 0.0000 0.0000 0.0000
# 4 0.0000 0.0000 0.0000 -6.9598 0.0000 0.0000
# 5 0.0000 0.0000 0.0000 0.0000 21.4075 0.0000
# 6 0.0000 0.0000 0.0000 0.0000 0.0000 23.5948
#
#
#
# Elastic Compliance Matrix: (Units=1/GPa)
#
#
# Indices 1 2 3 4 5 6 
#
# 1 0.009711 -0.001343 -0.002849 0.000000 0.000000 0.000000
# 2 -0.001343 0.006277 -0.004264 0.000000 0.000000 0.000000
# 3 -0.002849 -0.004264 0.037005 0.000000 0.000000 0.000000
# 4 0.000000 0.000000 0.000000 -0.143682 0.000000 0.000000
# 5 0.000000 0.000000 0.000000 0.000000 0.046713 0.000000
# 6 0.000000 0.000000 0.000000 0.000000 0.000000 0.042382
#
#
# Mechanical properties :
#
#
# Convention : Reuss Voigt Hill
#
# Bulk Modulus (GPa) = 27.71334 51.02564 39.36949
# Shear Modulus (GPa) = 182.85146 24.67583 103.76364
#
# Velocity S-wave (km/s) = 9.34140 3.43161 7.03696
# Velocity P-wave (km/s) = 11.38308 6.32867 9.20941
#
# Compressibility (1/GPa) = 0.03608370
#
# Stress axis : x y z
#
# Youngs Moduli (GPa) = 102.97486 159.30426 27.02325
#
# Poissons Ratio (x) = 0.21392 0.07698
# Poissons Ratio (y) = 0.13828 0.11521
# Poissons Ratio (z) = 0.29333 0.67920
#
# Static dielectric constant tensor:
#      x y z
#    x 1.713320 0.000000 0.000000 
#    y 0.000000 1.799430 0.000000 
#    z 0.000000 0.000000 1.729000 
# 
# From -- ./inp_files/5306.got.cif
#   From: 2010.05.17/outbox.cif.g08.bks.cpg/sg45_3_cif.got.tgz:5306.got - 2010.06.03 19:51:22.
