data_PCOD9376787
_publ_section_title
;
Structure prediction by ZEFSAII (Michael W. Deem and Ramdas Pophale) SiO2 
 PCOD9376787
Probable space group: I B A 2
;
_chemical_formula_sum "Si O2"
_cell_formula_units_Z 64
_cell_length_a 10.090827
_cell_length_b 18.332646
_cell_length_c 14.492023
_cell_angle_alpha 90.000000
_cell_angle_beta 90.000000
_cell_angle_gamma 90.000000
_cell_volume 2680.901931
_symmetry_space_group_name_H-M "I B A 2"
_symmetry_group_IT_number 45
_symmetry_cell_setting 'orthorhombic'
loop_
_space_group_symop_operation_xyz
x,y,z
-x,-y,z
-x,y,1/2+z
x,-y,1/2+z
1/2+x,1/2+y,1/2+z
1/2-x,1/2-y,1/2+z
1/2-x,1/2+y,z
1/2+x,1/2-y,z
loop_
_atom_site_type_symbol
_atom_site_label
_atom_site_fract_x
_atom_site_fract_y
_atom_site_fract_z
Si Si1 0.580661 0.063052 0.467790
Si Si2 0.629465 0.539478 0.516411
Si Si3 0.030684 0.417781 0.176439
Si Si4 0.669465 0.219578 0.473886
Si Si5 0.442453 0.572805 0.208083
Si Si6 0.792190 0.315633 0.193461
Si Si7 0.187657 0.851874 0.231820
Si Si8 0.929645 0.816757 0.922736
O O1 0.724465 0.025689 0.481084
O O2 0.502460 0.079370 0.564994
O O3 0.616365 0.143105 0.429480
O O4 0.500000 0.000000 0.416935
O O5 0.500000 0.500000 0.478858
O O6 0.633347 0.530917 0.625606
O O7 0.600937 0.623746 0.499212
O O8 0.177975 0.393693 0.206247
O O9 0.000000 0.500000 0.206343
O O10 0.925636 0.359870 0.217035
O O11 0.688661 0.201307 0.582590
O O12 0.813195 0.241582 0.436722
O O13 0.567742 0.280630 0.443084
O O14 0.500000 0.500000 0.261399
O O15 0.330772 0.634617 0.229500
O O16 0.568087 0.618704 0.168868
O O17 0.781955 0.233643 0.229231
O O18 0.105380 0.858946 0.328444
#
# Coordination Sequence:
#
# PCOD9376787 Si02
#       8
#     8   8   8   8   8   8   8   8
#     4   9  19  37  66  97 121 156 213 276 324 374
#     4  10  21  41  67  93 127 162 219 269 322 396
#     4  10  21  40  63  96 128 168 215 277 327 390
#     4  10  23  42  64  90 127 165 218 268 322 392
#     4  11  22  41  66  98 127 171 220 282 332 394
#     4  11  22  42  68  98 128 170 228 276 329 401
#     4  12  27  37  68  93 139 176 219 272 340 403
#     4  11  25  44  60  93 133 174 212 268 332 400
#
# _framework density 23.872564000000001
#
# number of rings (size 3 to 8) (size 9 to 14) (size 15 to 20)
#    0.000    1.500    3.750    2.250   12.250    1.500 
#    0.000    2.500    5.500    0.000    0.000    0.000 
#    0.000    0.000    0.000    0.000    0.000    0.000 
#
# Total GULP energy -178181.008218 kJ/mol
# GULP energy per Si atom -5568.156507 kJ/mol
# Density = 2.381823 g / cm^3
# Si number density = 23.872564 Si / 1000 Ang^3
#
#
#
# Elastic Constant Matrix: (Units=GPa)
#
#
# Indices 1 2 3 4 5 6 
#
# 1 176.1286 43.0748 2.0023 0.0000 0.0000 0.0000
# 2 43.0748 107.9694 3.3967 0.0000 0.0000 0.0000
# 3 2.0023 3.3967 58.5274 0.0000 0.0000 0.0000
# 4 0.0000 0.0000 0.0000 0.8594 0.0000 0.0000
# 5 0.0000 0.0000 0.0000 0.0000 -7.7571 0.0000
# 6 0.0000 0.0000 0.0000 0.0000 0.0000 61.1471
#
#
#
# Elastic Compliance Matrix: (Units=1/GPa)
#
#
# Indices 1 2 3 4 5 6 
#
# 1 0.006292 -0.002508 -0.000070 0.000000 0.000000 0.000000
# 2 -0.002508 0.010279 -0.000511 0.000000 0.000000 0.000000
# 3 -0.000070 -0.000511 0.017118 -0.000001 0.000000 0.000000
# 4 0.000000 0.000000 -0.000001 1.163561 0.000000 0.000000
# 5 0.000000 0.000000 0.000000 0.000000 -0.128915 0.000000
# 6 0.000000 0.000000 0.000000 0.000000 0.000000 0.016354
#
#
# Mechanical properties :
#
#
# Convention : Reuss Voigt Hill
#
# Bulk Modulus (GPa) = 36.34829 48.84146 42.59487
# Shear Modulus (GPa) = 4.54531 30.45999 17.50265
#
# Velocity S-wave (km/s) = 1.38135 3.57591 2.71065
# Velocity P-wave (km/s) = 4.21938 6.12806 5.26100
#
# Compressibility (1/GPa) = 0.02751161
#
# Stress axis : x y z
#
# Youngs Moduli (GPa) = 158.93653 97.29035 58.41786
#
# Poissons Ratio (x) = 0.24400 0.00407
# Poissons Ratio (y) = 0.39861 0.02984
# Poissons Ratio (z) = 0.01108 0.04969
#
# Static dielectric constant tensor:
#      x y z
#    x 2.031390 0.000000 0.000000 
#    y 0.000000 1.979710 0.000000 
#    z 0.000000 0.000000 2.250970 
# 
# From -- ./inp_files/7770.got.cif
#   From: 2010.05.17/outbox.cif.g08.bks.cpg/sg45_4_cif.got.tgz:7770.got - 2010.06.03 19:51:22.
