data_PCOD9376566
_publ_section_title
;
Structure prediction by ZEFSAII (Michael W. Deem and Ramdas Pophale) SiO2 
 PCOD9376566
Probable space group: I B A 2
;
_chemical_formula_sum "Si O2"
_cell_formula_units_Z 60
_cell_length_a 31.300759
_cell_length_b 10.726478
_cell_length_c 8.991815
_cell_angle_alpha 90.000000
_cell_angle_beta 90.000000
_cell_angle_gamma 90.000000
_cell_volume 3018.974037
_symmetry_space_group_name_H-M "I B A 2"
_symmetry_group_IT_number 45
_symmetry_cell_setting 'orthorhombic'
loop_
_space_group_symop_operation_xyz
x,y,z
-x,-y,z
-x,y,1/2+z
x,-y,1/2+z
1/2+x,1/2+y,1/2+z
1/2-x,1/2-y,1/2+z
1/2-x,1/2+y,z
1/2+x,1/2-y,z
loop_
_atom_site_type_symbol
_atom_site_label
_atom_site_fract_x
_atom_site_fract_y
_atom_site_fract_z
Si Si1 0.692707 0.247494 0.700180
Si Si2 0.827996 0.630171 0.129025
Si Si3 0.345547 0.490884 0.799018
Si Si4 0.859655 0.457906 0.354595
Si Si5 0.778062 0.230402 0.863486
Si Si6 0.887306 0.851140 0.051715
Si Si7 0.000000 0.500000 0.747070
Si Si8 0.446960 0.131433 0.490705
O O1 0.676448 0.389676 0.719225
O O2 0.654129 0.153662 0.742904
O O3 0.728683 0.212081 0.823114
O O4 0.711895 0.232292 0.533685
O O5 0.860543 0.578124 0.252146
O O6 0.789432 0.667725 0.234867
O O7 0.825620 0.536272 0.990985
O O8 0.848773 0.750538 0.055257
O O9 0.308171 0.390546 0.834459
O O10 0.382001 0.419586 0.706943
O O11 0.371385 0.548180 0.935073
O O12 0.904334 0.437606 0.434114
O O13 0.929966 0.772429 0.018668
O O14 0.020151 0.395609 0.856445
O O15 0.033779 0.567275 0.637580
#
# Coordination Sequence:
#
# PCOD9376566 Si02
#       8
#     8   8   8   8   8   8   4   8
#     4  12  24  40  60  90 123 179 222 290 333 386
#     4  10  21  38  57  90 124 166 218 276 329 382
#     4  11  22  43  63  89 122 179 228 274 328 377
#     4  11  21  38  63  90 129 164 221 267 328 395
#     4  11  26  38  60  86 129 171 229 282 339 377
#     4  10  21  41  67  90 126 170 224 268 318 395
#     4  10  22  38  70 106 144 162 194 264 354 406
#     4  10  20  40  65 103 133 172 202 264 328 418
#
# _framework density 19.874302
#
# number of rings (size 3 to 8) (size 9 to 14) (size 15 to 20)
#    0.000    1.333    4.000    3.200    3.733    0.000 
#    0.000    4.000    0.000    2.400    0.000    0.000 
#    0.000    0.000    0.000    0.000    0.000    0.000 
#
# Total GULP energy -167116.045513 kJ/mol
# GULP energy per Si atom -5570.534850 kJ/mol
# Density = 1.982907 g / cm^3
# Si number density = 19.874302 Si / 1000 Ang^3
#
#
#
# Elastic Constant Matrix: (Units=GPa)
#
#
# Indices 1 2 3 4 5 6 
#
# 1 85.5347 32.8072 35.6860 0.0000 0.0000 0.0000
# 2 32.8072 70.4393 35.4581 0.0000 0.0000 0.0000
# 3 35.6860 35.4581 111.2673 0.0000 0.0000 0.0000
# 4 0.0000 0.0000 0.0000 39.7506 0.0000 0.0000
# 5 0.0000 0.0000 0.0000 0.0000 35.8625 0.0000
# 6 0.0000 0.0000 0.0000 0.0000 0.0000 33.1049
#
#
#
# Elastic Compliance Matrix: (Units=1/GPa)
#
#
# Indices 1 2 3 4 5 6 
#
# 1 0.015078 -0.005465 -0.003094 0.000000 0.000000 0.000000
# 2 -0.005465 0.018890 -0.004267 0.000000 0.000000 0.000000
# 3 -0.003094 -0.004267 0.011340 0.000000 0.000000 0.000000
# 4 0.000000 0.000000 0.000000 0.025157 0.000000 0.000000
# 5 0.000000 0.000000 0.000000 0.000000 0.027884 0.000000
# 6 0.000000 0.000000 0.000000 0.000000 0.000000 0.030207
#
#
# Mechanical properties :
#
#
# Convention : Reuss Voigt Hill
#
# Bulk Modulus (GPa) = 50.87773 52.79376 51.83574
# Shear Modulus (GPa) = 31.10215 32.62958 31.86586
#
# Velocity S-wave (km/s) = 3.96023 4.05631 4.00855
# Velocity P-wave (km/s) = 6.82397 6.96848 6.89660
#
# Compressibility (1/GPa) = 0.01965496
#
# Stress axis : x y z
#
# Youngs Moduli (GPa) = 66.32026 52.93823 88.18668
#
# Poissons Ratio (x) = 0.28931 0.27288
# Poissons Ratio (y) = 0.36245 0.37629
# Poissons Ratio (z) = 0.20522 0.22589
#
# Static dielectric constant tensor:
#      x y z
#    x 1.732190 0.000000 0.000000 
#    y 0.000000 1.764130 0.000000 
#    z 0.000000 0.000000 1.763480 
# 
# From -- ./inp_files/2767.got.cif
#   From: 2010.05.17/outbox.cif.g08.bks.cpg/sg45_2_cif.got.tgz:2767.got - 2010.06.03 19:51:22.
