data_PCOD9376635
_publ_section_title
;
Structure prediction by ZEFSAII (Michael W. Deem and Ramdas Pophale) SiO2 
 PCOD9376635
Probable space group: I B A 2
;
_chemical_formula_sum "Si O2"
_cell_formula_units_Z 64
_cell_length_a 20.577225
_cell_length_b 29.510780
_cell_length_c 4.839148
_cell_angle_alpha 90.000000
_cell_angle_beta 90.000000
_cell_angle_gamma 90.000000
_cell_volume 2938.572429
_symmetry_space_group_name_H-M "I B A 2"
_symmetry_group_IT_number 45
_symmetry_cell_setting 'orthorhombic'
loop_
_space_group_symop_operation_xyz
x,y,z
-x,-y,z
-x,y,1/2+z
x,-y,1/2+z
1/2+x,1/2+y,1/2+z
1/2-x,1/2-y,1/2+z
1/2-x,1/2+y,z
1/2+x,1/2-y,z
loop_
_atom_site_type_symbol
_atom_site_label
_atom_site_fract_x
_atom_site_fract_y
_atom_site_fract_z
Si Si1 0.159887 0.969802 0.120790
Si Si2 0.750026 0.886470 0.597808
Si Si3 0.793534 0.744554 0.834942
Si Si4 0.455172 0.161999 0.810175
Si Si5 0.869845 0.174334 0.072998
Si Si6 0.456472 0.265946 0.711628
Si Si7 0.173371 0.645641 0.115854
Si Si8 0.455737 0.405762 0.300170
O O1 0.218411 0.934629 0.169202
O O2 0.093260 0.945217 0.208481
O O3 0.163311 0.014870 0.304565
O O4 0.808565 0.855796 0.476741
O O5 0.693129 0.886740 0.370332
O O6 0.725963 0.862015 0.874982
O O7 0.728696 0.752650 0.650846
O O8 0.841220 0.784841 0.754064
O O9 0.822201 0.695958 0.748421
O O10 0.518072 0.153469 0.003971
O O11 0.434677 0.215109 0.788199
O O12 0.394558 0.138415 0.957271
O O13 0.907887 0.196761 0.820824
O O14 0.917550 0.140206 0.231265
O O15 0.521662 0.270081 0.897660
O O16 0.479385 0.407954 0.613818
#
# Coordination Sequence:
#
# PCOD9376635 Si02
#       8
#     8   8   8   8   8   8   8   8
#     4  11  24  45  69  94 124 156 198 261 331 401
#     4  11  25  38  63  89 118 152 195 254 318 369
#     4  12  23  36  53  82 116 167 209 250 303 358
#     4  10  21  35  53  78 112 157 200 231 271 329
#     4  11  22  38  54  81 118 160 210 257 304 348
#     4  10  21  33  48  70 103 154 205 249 284 323
#     4  12  21  40  57  87 123 156 204 254 288 360
#     4  11  25  41  61  91 122 165 216 265 314 366
#
# _framework density 21.779284000000001
#
# number of rings (size 3 to 8) (size 9 to 14) (size 15 to 20)
#    0.000    1.000    3.750    3.000    0.000    7.500 
#    0.000    0.000    0.000    0.000    0.000    0.000 
#    0.000   35.000    0.000    0.000    0.000    0.000 
#
# Total GULP energy -179221.719416 kJ/mol
# GULP energy per Si atom -5600.678732 kJ/mol
# Density = 2.172971 g / cm^3
# Si number density = 21.779284 Si / 1000 Ang^3
#
#
#
# Elastic Constant Matrix: (Units=GPa)
#
#
# Indices 1 2 3 4 5 6 
#
# 1 73.2406 27.7813 6.0815 0.0000 0.0000 0.0000
# 2 27.7813 60.9733 -0.0655 0.0000 0.0000 0.0000
# 3 6.0815 -0.0655 70.0988 0.0000 0.0000 0.0000
# 4 0.0000 0.0000 0.0000 26.9729 0.0000 0.0000
# 5 0.0000 0.0000 0.0000 0.0000 35.7956 0.0000
# 6 0.0000 0.0000 0.0000 0.0000 0.0000 27.4696
#
#
#
# Elastic Compliance Matrix: (Units=1/GPa)
#
#
# Indices 1 2 3 4 5 6 
#
# 1 0.016653 -0.007589 -0.001452 0.000000 0.000000 0.000000
# 2 -0.007589 0.019859 0.000677 0.000000 0.000000 0.000000
# 3 -0.001452 0.000677 0.014392 0.000000 0.000000 0.000000
# 4 0.000000 0.000000 0.000000 0.037074 0.000000 0.000000
# 5 0.000000 0.000000 0.000000 0.000000 0.027936 0.000000
# 6 0.000000 0.000000 0.000000 0.000000 0.000000 0.036404
#
#
# Mechanical properties :
#
#
# Convention : Reuss Voigt Hill
#
# Bulk Modulus (GPa) = 29.26009 30.21192 29.73601
# Shear Modulus (GPa) = 27.71023 29.41532 28.56277
#
# Velocity S-wave (km/s) = 3.57083 3.67905 3.62534
# Velocity P-wave (km/s) = 5.51952 5.65236 5.58634
#
# Compressibility (1/GPa) = 0.03417624
#
# Stress axis : x y z
#
# Youngs Moduli (GPa) = 60.04971 50.35448 69.48225
#
# Poissons Ratio (x) = 0.38215 0.10088
# Poissons Ratio (y) = 0.45573 -0.04704
# Poissons Ratio (z) = 0.08718 -0.03409
#
# Static dielectric constant tensor:
#      x y z
#    x 1.847070 0.000000 0.000000 
#    y 0.000000 1.768770 0.000000 
#    z 0.000000 0.000000 1.784140 
# 
# From -- ./inp_files/481.got.cif
#   From: 2010.05.17/outbox.cif.g08.bks.cpg/sg45_1_cif.got.tgz:481.got - 2010.06.03 19:51:22.
