data_PCOD9376527
_publ_section_title
;
Structure prediction by ZEFSAII (Michael W. Deem and Ramdas Pophale) SiO2 
 PCOD9376527
Probable space group: I B A 2
;
_chemical_formula_sum "Si O2"
_cell_formula_units_Z 60
_cell_length_a 16.820169
_cell_length_b 8.753319
_cell_length_c 17.831994
_cell_angle_alpha 90.000000
_cell_angle_beta 90.000000
_cell_angle_gamma 90.000000
_cell_volume 2625.445577
_symmetry_space_group_name_H-M "I B A 2"
_symmetry_group_IT_number 45
_symmetry_cell_setting 'orthorhombic'
loop_
_space_group_symop_operation_xyz
x,y,z
-x,-y,z
-x,y,1/2+z
x,-y,1/2+z
1/2+x,1/2+y,1/2+z
1/2-x,1/2-y,1/2+z
1/2-x,1/2+y,z
1/2+x,1/2-y,z
loop_
_atom_site_type_symbol
_atom_site_label
_atom_site_fract_x
_atom_site_fract_y
_atom_site_fract_z
Si Si1 0.203214 0.764050 0.020840
Si Si2 0.872306 0.659882 0.946056
Si Si3 0.039847 0.833284 0.333843
Si Si4 0.019297 0.331059 0.696101
Si Si5 0.241309 0.996501 0.127140
Si Si6 0.500000 0.000000 0.554195
Si Si7 0.841756 0.248020 0.714348
Si Si8 0.880919 0.341556 0.874088
O O1 0.180190 0.898887 0.077249
O O2 0.217765 0.614557 0.070526
O O3 0.289383 0.811054 0.987002
O O4 0.146494 0.734076 0.951514
O O5 0.897190 0.811232 0.900152
O O6 0.868515 0.521283 0.886296
O O7 0.938483 0.596472 0.004469
O O8 0.070605 0.769321 0.253357
O O9 0.970067 0.714791 0.357805
O O10 0.000000 0.000000 0.328221
O O11 0.042322 0.380651 0.612014
O O12 0.934784 0.245704 0.693951
O O13 0.000000 0.500000 0.730070
O O14 0.302934 0.881048 0.164665
O O15 0.198986 0.092228 0.191235
O O16 0.833133 0.284835 0.801713
#
# Coordination Sequence:
#
# PCOD9376527 Si02
#       8
#     8   8   8   8   8   4   8   8
#     4  11  24  40  67  99 135 173 221 277 334 397
#     4  12  23  44  69  97 135 180 224 274 335 413
#     4  11  24  43  67  97 135 172 225 283 329 388
#     4   9  21  42  67  93 124 171 224 264 325 402
#     4  10  22  41  61  94 135 168 210 274 332 392
#     4  10  20  38  74  92 118 180 222 264 328 404
#     4  10  22  41  64  92 132 170 219 271 328 398
#     4  11  24  44  67  96 132 182 225 269 338 407
#
# _framework density 22.853263999999999
#
# number of rings (size 3 to 8) (size 9 to 14) (size 15 to 20)
#    0.400    1.067    2.667    3.200    3.733    0.000 
#    2.400    6.000    0.000    0.000    0.000    0.000 
#    0.000    0.000    0.000    0.000    0.000    0.000 
#
# Total GULP energy -167705.215641 kJ/mol
# GULP energy per Si atom -5590.173855 kJ/mol
# Density = 2.280125 g / cm^3
# Si number density = 22.853264 Si / 1000 Ang^3
#
#
#
# Elastic Constant Matrix: (Units=GPa)
#
#
# Indices 1 2 3 4 5 6 
#
# 1 29.4039 -5.4397 -2.3605 0.0000 0.0000 0.0000
# 2 -5.4397 77.8503 34.6420 0.0000 0.0000 0.0000
# 3 -2.3605 34.6420 134.1825 0.0000 0.0000 0.0000
# 4 0.0000 0.0000 0.0000 34.9850 0.0000 0.0000
# 5 0.0000 0.0000 0.0000 0.0000 25.2701 0.0000
# 6 0.0000 0.0000 0.0000 0.0000 0.0000 23.0257
#
#
#
# Elastic Compliance Matrix: (Units=1/GPa)
#
#
# Indices 1 2 3 4 5 6 
#
# 1 0.034454 0.002415 -0.000017 0.000000 0.000000 0.000000
# 2 0.002415 0.014682 -0.003748 0.000000 0.000000 0.000000
# 3 -0.000017 -0.003748 0.008420 0.000000 0.000000 0.000000
# 4 0.000000 0.000000 0.000000 0.028584 0.000000 0.000000
# 5 0.000000 0.000000 0.000000 0.000000 0.039572 0.000000
# 6 0.000000 0.000000 0.000000 0.000000 0.000000 0.043430
#
#
# Mechanical properties :
#
#
# Convention : Reuss Voigt Hill
#
# Bulk Modulus (GPa) = 18.22963 32.79115 25.51039
# Shear Modulus (GPa) = 26.29817 30.96248 28.63033
#
# Velocity S-wave (km/s) = 3.39594 3.68481 3.54332
# Velocity P-wave (km/s) = 4.83432 5.69942 5.28460
#
# Compressibility (1/GPa) = 0.05485576
#
# Stress axis : x y z
#
# Youngs Moduli (GPa) = 29.02379 68.11215 118.76728
#
# Poissons Ratio (x) = -0.16450 0.00207
# Poissons Ratio (y) = -0.07010 0.44513
# Poissons Ratio (z) = 0.00051 0.25528
#
# Static dielectric constant tensor:
#      x y z
#    x 1.872410 0.000000 0.000000 
#    y 0.000000 1.876550 0.000000 
#    z 0.000000 0.000000 1.896050 
# 
# From -- ./inp_files/8359.got.cif
#   From: 2010.05.17/outbox.cif.g08.bks.cpg/sg45_5_cif.got.tgz:8359.got - 2010.06.03 19:51:22.
