data_PCOD9376620
_publ_section_title
;
Structure prediction by ZEFSAII (Michael W. Deem and Ramdas Pophale) SiO2 
 PCOD9376620
Probable space group: I B A 2
;
_chemical_formula_sum "Si O2"
_cell_formula_units_Z 48
_cell_length_a 15.427168
_cell_length_b 9.199062
_cell_length_c 15.907123
_cell_angle_alpha 90.000000
_cell_angle_beta 90.000000
_cell_angle_gamma 90.000000
_cell_volume 2257.466915
_symmetry_space_group_name_H-M "I B A 2"
_symmetry_group_IT_number 45
_symmetry_cell_setting 'orthorhombic'
loop_
_space_group_symop_operation_xyz
x,y,z
-x,-y,z
-x,y,1/2+z
x,-y,1/2+z
1/2+x,1/2+y,1/2+z
1/2-x,1/2-y,1/2+z
1/2-x,1/2+y,z
1/2+x,1/2-y,z
loop_
_atom_site_type_symbol
_atom_site_label
_atom_site_fract_x
_atom_site_fract_y
_atom_site_fract_z
Si Si1 0.500000 0.000000 0.515400
Si Si2 0.002865 0.739137 0.884219
Si Si3 0.318444 0.898387 0.033482
Si Si4 0.000000 0.000000 0.509173
Si Si5 0.829965 0.909049 0.094997
Si Si6 0.165276 0.259218 0.270649
Si Si7 0.172550 0.417742 0.838574
O O1 0.464437 0.878440 0.452036
O O2 0.583091 0.936115 0.562021
O O3 0.920167 0.665831 0.839229
O O4 0.079208 0.781972 0.822361
O O5 0.980589 0.870127 0.945220
O O6 0.308524 0.724737 0.032407
O O7 0.249481 0.979181 0.091581
O O8 0.307911 0.949528 0.937008
O O9 0.085127 0.999169 0.567466
O O10 0.842893 0.817785 0.180277
O O11 0.170080 0.434281 0.283858
O O12 0.252315 0.189053 0.307846
#
# Coordination Sequence:
#
# PCOD9376620 Si02
#       7
#     4   8   8   4   8   8   8
#     4  10  20  44  72 100 122 184 250 284 344 416
#     4  11  23  45  74  99 135 184 242 291 343 439
#     4  11  23  45  70 100 135 189 239 291 349 432
#     4  12  26  46  70 108 138 188 246 288 358 430
#     4  12  27  44  67 109 147 181 233 303 369 422
#     4  12  25  45  67 104 142 182 231 297 365 419
#     4  11  23  45  74 100 135 193 242 284 351 439
#
# _framework density 21.262771000000001
#
# number of rings (size 3 to 8) (size 9 to 14) (size 15 to 20)
#    0.000    0.667    6.667    3.000    4.667    0.667 
#    9.000    0.000    0.000    0.000    0.000    0.000 
#    0.000    0.000    0.000    0.000    0.000    0.000 
#
# Total GULP energy -133950.416201 kJ/mol
# GULP energy per Si atom -5581.267342 kJ/mol
# Density = 2.121438 g / cm^3
# Si number density = 21.262771 Si / 1000 Ang^3
#
#
#
# Elastic Constant Matrix: (Units=GPa)
#
#
# Indices 1 2 3 4 5 6 
#
# 1 139.6825 32.9834 35.6252 0.0000 0.0000 0.0000
# 2 32.9834 61.6013 9.9044 0.0000 0.0000 0.0000
# 3 35.6252 9.9044 38.0595 0.0000 0.0000 0.0000
# 4 0.0000 0.0000 0.0000 47.0691 0.0000 0.0000
# 5 0.0000 0.0000 0.0000 0.0000 13.2675 0.0000
# 6 0.0000 0.0000 0.0000 0.0000 0.0000 41.4084
#
#
#
# Elastic Compliance Matrix: (Units=1/GPa)
#
#
# Indices 1 2 3 4 5 6 
#
# 1 0.010330 -0.004150 -0.008589 0.000000 0.000000 0.000000
# 2 -0.004150 0.018609 -0.000958 0.000000 0.000000 0.000000
# 3 -0.008589 -0.000958 0.034564 0.000000 0.000000 0.000000
# 4 0.000000 0.000000 0.000000 0.021245 0.000000 0.000000
# 5 0.000000 0.000000 0.000000 0.000000 0.075372 0.000000
# 6 0.000000 0.000000 0.000000 0.000000 0.000000 0.024150
#
#
# Mechanical properties :
#
#
# Convention : Reuss Voigt Hill
#
# Bulk Modulus (GPa) = 27.69447 44.04103 35.86775
# Shear Modulus (GPa) = 22.35130 31.07102 26.71116
#
# Velocity S-wave (km/s) = 3.24573 3.82683 3.54819
# Velocity P-wave (km/s) = 5.20572 6.34695 5.80445
#
# Compressibility (1/GPa) = 0.03610829
#
# Stress axis : x y z
#
# Youngs Moduli (GPa) = 96.80957 53.73606 28.93211
#
# Poissons Ratio (x) = 0.22300 0.24850
# Poissons Ratio (y) = 0.40174 0.02773
# Poissons Ratio (z) = 0.83149 0.05150
#
# Static dielectric constant tensor:
#      x y z
#    x 1.736850 0.000000 0.000000 
#    y 0.000000 1.461340 0.000000 
#    z 0.000000 0.000000 1.827220 
# 
# From -- ./inp_files/7593.got.cif
#   From: 2010.05.17/outbox.cif.g08.bks.cpg/sg45_4_cif.got.tgz:7593.got - 2010.06.03 19:51:22.
