data_PCOD9376434
_publ_section_title
;
Structure prediction by ZEFSAII (Michael W. Deem and Ramdas Pophale) SiO2 
 PCOD9376434
Probable space group: I B A 2
;
_chemical_formula_sum "Si O2"
_cell_formula_units_Z 64
_cell_length_a 17.648339
_cell_length_b 18.979437
_cell_length_c 8.613439
_cell_angle_alpha 90.000000
_cell_angle_beta 90.000000
_cell_angle_gamma 90.000000
_cell_volume 2885.119096
_symmetry_space_group_name_H-M "I B A 2"
_symmetry_group_IT_number 45
_symmetry_cell_setting 'orthorhombic'
loop_
_space_group_symop_operation_xyz
x,y,z
-x,-y,z
-x,y,1/2+z
x,-y,1/2+z
1/2+x,1/2+y,1/2+z
1/2-x,1/2-y,1/2+z
1/2-x,1/2+y,z
1/2+x,1/2-y,z
loop_
_atom_site_type_symbol
_atom_site_label
_atom_site_fract_x
_atom_site_fract_y
_atom_site_fract_z
Si Si1 0.035683 0.679849 0.335510
Si Si2 0.046838 0.218069 0.106445
Si Si3 0.692756 0.292679 0.550875
Si Si4 0.297078 0.709488 0.222454
Si Si5 0.366200 0.497895 0.779285
Si Si6 0.609838 0.859849 0.037740
Si Si7 0.232585 0.079837 0.024459
Si Si8 0.436182 0.403304 0.043521
O O1 0.072548 0.728085 0.470628
O O2 0.084462 0.630760 0.219495
O O3 0.011730 0.738244 0.208976
O O4 0.962910 0.643121 0.420796
O O5 0.113401 0.209310 0.229437
O O6 0.011528 0.144986 0.044180
O O7 0.731763 0.314493 0.388794
O O8 0.755518 0.281470 0.681216
O O9 0.648906 0.218018 0.527976
O O10 0.630783 0.349770 0.587311
O O11 0.285261 0.659249 0.076167
O O12 0.301699 0.463065 0.670770
O O13 0.427239 0.537568 0.673799
O O14 0.318770 0.551486 0.886181
O O15 0.411037 0.441475 0.884901
O O16 0.676486 0.916331 0.000347
#
# Coordination Sequence:
#
# PCOD9376434 Si02
#       8
#     8   8   8   8   8   8   8   8
#     4  10  20  36  60  95 125 159 192 248 342 396
#     4  11  22  36  60  85 133 164 199 256 320 379
#     4  11  22  38  63  94 127 160 213 263 335 379
#     4  11  24  37  62  97 125 165 207 271 324 391
#     4  10  24  43  64  88 120 183 228 253 302 358
#     4  10  21  39  62  96 127 157 198 270 331 398
#     4  10  23  42  64  87 126 161 223 268 308 375
#     4  11  22  43  62  88 130 174 221 265 301 379
#
# _framework density 22.182794000000001
#
# number of rings (size 3 to 8) (size 9 to 14) (size 15 to 20)
#    0.000    1.500    5.000    0.000    8.750    0.000 
#    0.000    7.500    0.000    2.250    0.000    0.000 
#    0.000    0.000    0.000    0.000    0.000    0.000 
#
# Total GULP energy -178412.047631 kJ/mol
# GULP energy per Si atom -5575.376488 kJ/mol
# Density = 2.213231 g / cm^3
# Si number density = 22.182794 Si / 1000 Ang^3
#
#
#
# Elastic Constant Matrix: (Units=GPa)
#
#
# Indices 1 2 3 4 5 6 
#
# 1 88.9073 36.3614 27.6812 0.0000 0.0000 0.0000
# 2 36.3614 32.1863 18.7042 0.0000 0.0000 0.0000
# 3 27.6812 18.7042 95.8290 0.0000 0.0000 0.0000
# 4 0.0000 0.0000 0.0000 22.1268 0.0000 0.0000
# 5 0.0000 0.0000 0.0000 0.0000 11.8466 0.0000
# 6 0.0000 0.0000 0.0000 0.0000 0.0000 27.8476
#
#
#
# Elastic Compliance Matrix: (Units=1/GPa)
#
#
# Indices 1 2 3 4 5 6 
#
# 1 0.021131 -0.022925 -0.001629 0.000000 0.000000 0.000000
# 2 -0.022925 0.059916 -0.005072 0.000000 0.000000 0.000000
# 3 -0.001629 -0.005072 0.011896 0.000000 0.000000 0.000000
# 4 0.000000 0.000000 0.000000 0.045194 0.000000 0.000000
# 5 0.000000 0.000000 0.000000 0.000000 0.084413 0.000000
# 6 0.000000 0.000000 0.000000 0.000000 0.000000 0.035910
#
#
# Mechanical properties :
#
#
# Convention : Reuss Voigt Hill
#
# Bulk Modulus (GPa) = 29.68332 42.49070 36.08701
# Shear Modulus (GPa) = 15.20024 21.30924 18.25474
#
# Velocity S-wave (km/s) = 2.62052 3.10275 2.87178
# Velocity P-wave (km/s) = 4.75042 5.65972 5.22489
#
# Compressibility (1/GPa) = 0.03368895
#
# Stress axis : x y z
#
# Youngs Moduli (GPa) = 47.32414 16.69012 84.06234
#
# Poissons Ratio (x) = 0.38262 0.13696
# Poissons Ratio (y) = 1.08491 0.42640
# Poissons Ratio (z) = 0.07710 0.08466
#
# Static dielectric constant tensor:
#      x y z
#    x 1.909340 0.000000 0.000000 
#    y 0.000000 1.850560 0.000000 
#    z 0.000000 0.000000 1.932380 
# 
# From -- ./inp_files/2217.got.cif
#   From: 2010.05.17/outbox.cif.g08.bks.cpg/sg45_2_cif.got.tgz:2217.got - 2010.06.03 19:51:22.
