data_PCOD9376900
_publ_section_title
;
Structure prediction by ZEFSAII (Michael W. Deem and Ramdas Pophale) SiO2 
 PCOD9376900
Probable space group: I B A 2
;
_chemical_formula_sum "Si O2"
_cell_formula_units_Z 60
_cell_length_a 9.071027
_cell_length_b 12.050002
_cell_length_c 24.070024
_cell_angle_alpha 90.000000
_cell_angle_beta 90.000000
_cell_angle_gamma 90.000000
_cell_volume 2630.995480
_symmetry_space_group_name_H-M "I B A 2"
_symmetry_group_IT_number 45
_symmetry_cell_setting 'orthorhombic'
loop_
_space_group_symop_operation_xyz
x,y,z
-x,-y,z
-x,y,1/2+z
x,-y,1/2+z
1/2+x,1/2+y,1/2+z
1/2-x,1/2-y,1/2+z
1/2-x,1/2+y,z
1/2+x,1/2-y,z
loop_
_atom_site_type_symbol
_atom_site_label
_atom_site_fract_x
_atom_site_fract_y
_atom_site_fract_z
Si Si1 0.179159 0.698486 0.313570
Si Si2 0.768553 0.344918 0.919828
Si Si3 0.500000 0.000000 0.367911
Si Si4 0.113985 0.908010 0.633577
Si Si5 0.435106 0.725551 0.236994
Si Si6 0.848167 0.564232 0.173996
Si Si7 0.009503 0.780578 0.492390
Si Si8 0.239952 0.291878 0.068045
O O1 0.218050 0.775397 0.366040
O O2 0.324944 0.665373 0.279766
O O3 0.073386 0.598668 0.332692
O O4 0.085872 0.766003 0.269085
O O5 0.892442 0.271023 0.950424
O O6 0.624775 0.359850 0.959556
O O7 0.861346 0.452657 0.902698
O O8 0.034844 0.824530 0.676115
O O9 0.208444 0.835200 0.589560
O O10 0.224040 0.970982 0.675755
O O11 0.000000 0.000000 0.612012
O O12 0.371199 0.848343 0.223235
O O13 0.802012 0.632039 0.119186
O O14 0.000000 0.500000 0.165807
O O15 0.902296 0.812928 0.543761
O O16 0.121716 0.691282 0.518956
#
# Coordination Sequence:
#
# PCOD9376900 Si02
#       8
#     8   8   4   8   8   8   8   8
#     4  12  24  45  69 100 139 184 236 295 350 418
#     4  11  23  47  70 103 139 180 233 301 348 425
#     4  12  26  44  76  98 142 182 236 288 368 418
#     4  11  23  40  63  99 140 180 233 287 339 418
#     4  11  25  40  68  99 141 186 233 285 349 412
#     4  11  23  41  66 100 140 184 231 282 348 417
#     4  10  21  44  73  95 142 179 225 298 356 401
#     4  10  22  42  66 100 137 180 229 289 347 418
#
# _framework density 22.805053999999998
#
# number of rings (size 3 to 8) (size 9 to 14) (size 15 to 20)
#    0.000    1.067    2.667    3.200    2.800    5.333 
#    6.000    6.000    0.000    0.000    0.000    0.000 
#    0.000    0.000    0.000    0.000    0.000    0.000 
#
# Total GULP energy -167525.540945 kJ/mol
# GULP energy per Si atom -5584.184698 kJ/mol
# Density = 2.275315 g / cm^3
# Si number density = 22.805054 Si / 1000 Ang^3
#
#
#
# Elastic Constant Matrix: (Units=GPa)
#
#
# Indices 1 2 3 4 5 6 
#
# 1 146.3974 39.7553 33.3515 0.0000 0.0000 0.0000
# 2 39.7553 68.9951 34.9010 0.0000 0.0000 0.0000
# 3 33.3515 34.9010 91.3953 0.0000 0.0000 0.0000
# 4 0.0000 0.0000 0.0000 9.3342 0.0000 0.0000
# 5 0.0000 0.0000 0.0000 0.0000 -33.2517 0.0000
# 6 0.0000 0.0000 0.0000 0.0000 0.0000 34.6879
#
#
#
# Elastic Compliance Matrix: (Units=1/GPa)
#
#
# Indices 1 2 3 4 5 6 
#
# 1 0.008257 -0.004008 -0.001483 0.000000 0.000000 0.000000
# 2 -0.004008 0.019909 -0.006140 0.000000 0.000000 0.000000
# 3 -0.001483 -0.006140 0.013827 0.000000 0.000000 0.000000
# 4 0.000000 0.000000 0.000000 0.107133 0.000000 0.000000
# 5 0.000000 0.000000 0.000000 0.000000 -0.030074 0.000000
# 6 0.000000 0.000000 0.000000 0.000000 0.000000 0.028829
#
#
# Mechanical properties :
#
#
# Convention : Reuss Voigt Hill
#
# Bulk Modulus (GPa) = 53.38410 58.08927 55.73668
# Shear Modulus (GPa) = 28.18717 15.40608 21.79662
#
# Velocity S-wave (km/s) = 3.51950 2.60196 3.09492
# Velocity P-wave (km/s) = 6.32262 5.87830 6.10450
#
# Compressibility (1/GPa) = 0.01873217
#
# Stress axis : x y z
#
# Youngs Moduli (GPa) = 121.11252 50.22857 72.32091
#
# Poissons Ratio (x) = 0.20130 0.10723
# Poissons Ratio (y) = 0.48537 0.44406
# Poissons Ratio (z) = 0.17957 0.30841
#
# Static dielectric constant tensor:
#      x y z
#    x 2.105750 0.000000 0.000000 
#    y 0.000000 1.917100 0.000000 
#    z 0.000000 0.000000 1.882480 
# 
# From -- ./inp_files/9952.got.cif
#   From: 2010.05.17/outbox.cif.g08.bks.cpg/sg45_5_cif.got.tgz:9952.got - 2010.06.03 19:51:22.
