data_PCOD9376128
_publ_section_title
;
Structure prediction by ZEFSAII (Michael W. Deem and Ramdas Pophale) SiO2 
 PCOD9376128
Probable space group: I B A 2
;
_chemical_formula_sum "Si O2"
_cell_formula_units_Z 56
_cell_length_a 9.103659
_cell_length_b 17.644245
_cell_length_c 19.039443
_cell_angle_alpha 90.000000
_cell_angle_beta 90.000000
_cell_angle_gamma 90.000000
_cell_volume 3058.252224
_symmetry_space_group_name_H-M "I B A 2"
_symmetry_group_IT_number 45
_symmetry_cell_setting 'orthorhombic'
loop_
_space_group_symop_operation_xyz
x,y,z
-x,-y,z
-x,y,1/2+z
x,-y,1/2+z
1/2+x,1/2+y,1/2+z
1/2-x,1/2-y,1/2+z
1/2-x,1/2+y,z
1/2+x,1/2-y,z
loop_
_atom_site_type_symbol
_atom_site_label
_atom_site_fract_x
_atom_site_fract_y
_atom_site_fract_z
Si Si1 0.878994 0.248824 0.795920
Si Si2 0.882060 0.812853 0.010862
Si Si3 0.588867 0.571780 0.080112
Si Si4 0.629353 0.301147 0.699116
Si Si5 0.602817 0.931795 0.511964
Si Si6 0.427295 0.815631 0.586775
Si Si7 0.373782 0.803125 0.892413
O O1 0.774827 0.298656 0.745821
O O2 0.771726 0.199480 0.845160
O O3 0.986810 0.197634 0.748685
O O4 0.983682 0.301296 0.843341
O O5 0.877486 0.777247 0.933900
O O6 0.717411 0.821861 0.038857
O O7 0.981674 0.885798 0.024580
O O8 0.962043 0.748016 0.056994
O O9 0.500000 0.500000 0.108674
O O10 0.626095 0.633268 0.140650
O O11 0.737349 0.547334 0.040933
O O12 0.622090 0.218860 0.660507
O O13 0.622000 0.869365 0.450248
O O14 0.500000 0.000000 0.487226
O O15 0.484151 0.107442 0.576999
#
# Coordination Sequence:
#
# PCOD9376128 Si02
#       7
#     8   8   8   8   8   8   8
#     4  10  20  32  56  78 104 144 180 212 254 306
#     4  10  18  32  56  81 107 137 172 223 272 310
#     4  11  22  36  55  81 109 139 175 225 281 322
#     4  10  19  35  54  81 108 137 179 218 255 316
#     4  11  22  36  55  81 109 139 175 225 281 322
#     4  10  18  32  56  81 107 137 172 223 272 310
#     4  10  19  35  54  81 108 137 179 218 255 316
#
# _framework density 18.311112999999999
#
# number of rings (size 3 to 8) (size 9 to 14) (size 15 to 20)
#    0.000    1.714    0.000    9.429    0.000    0.000 
#    0.000    1.429    0.000    6.857    0.000    0.000 
#    0.000    0.000    0.000    0.000    0.000    0.000 
#
# Total GULP energy -156185.858238 kJ/mol
# GULP energy per Si atom -5578.066366 kJ/mol
# Density = 1.826944 g / cm^3
# Si number density = 18.311113 Si / 1000 Ang^3
#
#
#
# Elastic Constant Matrix: (Units=GPa)
#
#
# Indices 1 2 3 4 5 6 
#
# 1 112.1237 29.7057 33.3541 0.0000 0.0000 0.0000
# 2 29.7057 46.4220 14.4080 0.0000 0.0000 0.0000
# 3 33.3541 14.4080 83.1164 0.0000 0.0000 0.0000
# 4 0.0000 0.0000 0.0000 15.5413 0.0000 0.0000
# 5 0.0000 0.0000 0.0000 0.0000 11.7851 0.0000
# 6 0.0000 0.0000 0.0000 0.0000 0.0000 14.2282
#
#
#
# Elastic Compliance Matrix: (Units=1/GPa)
#
#
# Indices 1 2 3 4 5 6 
#
# 1 0.011667 -0.006355 -0.003580 0.000000 0.000000 0.000000
# 2 -0.006355 0.026228 -0.001996 0.000000 0.000000 0.000000
# 3 -0.003580 -0.001996 0.013814 0.000000 0.000000 0.000000
# 4 0.000000 0.000000 0.000000 0.064345 0.000000 0.000000
# 5 0.000000 0.000000 0.000000 0.000000 0.084853 0.000000
# 6 0.000000 0.000000 0.000000 0.000000 0.000000 0.070283
#
#
# Mechanical properties :
#
#
# Convention : Reuss Voigt Hill
#
# Bulk Modulus (GPa) = 35.91179 44.06640 39.98910
# Shear Modulus (GPa) = 16.42926 19.25720 17.84323
#
# Velocity S-wave (km/s) = 2.99863 3.24646 3.12500
# Velocity P-wave (km/s) = 5.62527 6.17821 5.90821
#
# Compressibility (1/GPa) = 0.02784601
#
# Stress axis : x y z
#
# Youngs Moduli (GPa) = 85.70850 38.12780 72.38921
#
# Poissons Ratio (x) = 0.24229 0.25919
# Poissons Ratio (y) = 0.54466 0.14451
# Poissons Ratio (z) = 0.30688 0.07612
#
# Static dielectric constant tensor:
#      x y z
#    x 1.656770 0.000000 0.000000 
#    y 0.000000 1.645600 0.000000 
#    z 0.000000 0.000000 1.651870 
# 
# From -- ./inp_files/8880.got.cif
#   From: 2010.05.17/outbox.cif.g08.bks.cpg/sg45_5_cif.got.tgz:8880.got - 2010.06.03 19:51:22.
