data_PCOD9376813
_publ_section_title
;
Structure prediction by ZEFSAII (Michael W. Deem and Ramdas Pophale) SiO2 
 PCOD9376813
Probable space group: I B A 2
;
_chemical_formula_sum "Si O2"
_cell_formula_units_Z 44
_cell_length_a 21.784274
_cell_length_b 10.494033
_cell_length_c 9.028033
_cell_angle_alpha 90.000000
_cell_angle_beta 90.000000
_cell_angle_gamma 90.000000
_cell_volume 2063.852493
_symmetry_space_group_name_H-M "I B A 2"
_symmetry_group_IT_number 45
_symmetry_cell_setting 'orthorhombic'
loop_
_space_group_symop_operation_xyz
x,y,z
-x,-y,z
-x,y,1/2+z
x,-y,1/2+z
1/2+x,1/2+y,1/2+z
1/2-x,1/2-y,1/2+z
1/2-x,1/2+y,z
1/2+x,1/2-y,z
loop_
_atom_site_type_symbol
_atom_site_label
_atom_site_fract_x
_atom_site_fract_y
_atom_site_fract_z
Si Si1 0.229412 0.833343 0.715850
Si Si2 0.229525 0.913667 0.385842
Si Si3 0.500000 0.000000 0.002682
Si Si4 0.918674 0.165520 0.714177
Si Si5 0.417534 0.581968 0.886461
Si Si6 0.470209 0.825589 0.753134
O O1 0.250208 0.873215 0.550564
O O2 0.253738 0.698164 0.771678
O O3 0.154855 0.822597 0.716166
O O4 0.249444 0.947681 0.826330
O O5 0.155956 0.921310 0.392516
O O6 0.539912 0.908375 0.107610
O O7 0.459251 0.911940 0.896377
O O8 0.938687 0.119795 0.550458
O O9 0.957198 0.290782 0.750809
O O10 0.936952 0.056512 0.830906
O O11 0.436289 0.692328 0.771545
#
# Coordination Sequence:
#
# PCOD9376813 Si02
#       6
#     8   8   4   8   8   8
#     4  10  21  41  61  89 119 155 198 245 293 349
#     4  10  21  41  61  89 119 155 198 245 293 349
#     4  10  24  38  58  78 128 154 188 236 276 360
#     4  10  22  38  62  87 116 149 195 244 288 342
#     4  10  22  38  62  87 116 149 195 244 288 342
#     4  11  21  42  56  86 117 155 192 232 294 339
#
# _framework density 21.319354000000001
#
# number of rings (size 3 to 8) (size 9 to 14) (size 15 to 20)
#    0.000    1.818    1.818    1.636    2.545    2.909 
#    6.545    0.000    0.000    0.000    0.000    0.000 
#    0.000    0.000    0.000    0.000    0.000    0.000 
#
# Total GULP energy -122896.886334 kJ/mol
# GULP energy per Si atom -5586.222106 kJ/mol
# Density = 2.127083 g / cm^3
# Si number density = 21.319354 Si / 1000 Ang^3
#
#
#
# Elastic Constant Matrix: (Units=GPa)
#
#
# Indices 1 2 3 4 5 6 
#
# 1 5.0721 3.9810 10.2900 0.0000 0.0000 0.0000
# 2 3.9810 93.8380 17.0424 0.0000 0.0000 0.0000
# 3 10.2900 17.0424 91.9679 0.0000 0.0000 0.0000
# 4 0.0000 0.0000 0.0000 35.5670 0.0000 0.0000
# 5 0.0000 0.0000 0.0000 0.0000 19.9508 0.0000
# 6 0.0000 0.0000 0.0000 0.0000 0.0000 22.0001
#
#
#
# Elastic Compliance Matrix: (Units=1/GPa)
#
#
# Indices 1 2 3 4 5 6 
#
# 1 0.258175 -0.005905 -0.027792 0.000000 0.000000 0.000000
# 2 -0.005905 0.011163 -0.001408 0.000000 0.000000 0.000000
# 3 -0.027792 -0.001408 0.014244 0.000000 0.000000 0.000000
# 4 0.000000 0.000000 0.000000 0.028116 0.000000 0.000000
# 5 0.000000 0.000000 0.000000 0.000000 0.050123 0.000000
# 6 0.000000 0.000000 0.000000 0.000000 0.000000 0.045454
#
#
# Mechanical properties :
#
#
# Convention : Reuss Voigt Hill
#
# Bulk Modulus (GPa) = 4.68666 28.16718 16.42692
# Shear Modulus (GPa) = 9.11394 26.14122 17.62758
#
# Velocity S-wave (km/s) = 2.06984 3.50547 2.87859
# Velocity P-wave (km/s) = 2.81343 5.44290 4.33247
#
# Compressibility (1/GPa) = 0.21337150
#
# Stress axis : x y z
#
# Youngs Moduli (GPa) = 3.87334 89.58264 70.20600
#
# Poissons Ratio (x) = 0.52902 1.95117
# Poissons Ratio (y) = 0.02287 0.09884
# Poissons Ratio (z) = 0.10765 0.12612
#
# Static dielectric constant tensor:
#      x y z
#    x 1.760000 0.000000 0.000000 
#    y 0.000000 1.742590 0.000000 
#    z 0.000000 0.000000 1.789600 
# 
# From -- ./inp_files/1034.got.cif
#   From: 2010.05.17/outbox.cif.g08.bks.cpg/sg45_1_cif.got.tgz:1034.got - 2010.06.03 19:51:22.
