data_PCOD9376005
_publ_section_title
;
Structure prediction by ZEFSAII (Michael W. Deem and Ramdas Pophale) SiO2 
 PCOD9376005
Probable space group: I M M 2
;
_chemical_formula_sum "Si O2"
_cell_formula_units_Z 28
_cell_length_a 15.000000
_cell_length_b 21.000000
_cell_length_c 9.000000
_cell_angle_alpha 90.000000
_cell_angle_beta 90.000000
_cell_angle_gamma 90.000000
_cell_volume 2835.000000
_symmetry_space_group_name_H-M "I M M 2"
_symmetry_group_IT_number 44
_symmetry_cell_setting 'orthorhombic'
loop_
_space_group_symop_operation_xyz
x,y,z
-x,-y,z
-x,y,z
x,-y,z
1/2+x,1/2+y,1/2+z
1/2-x,1/2-y,1/2+z
1/2-x,1/2+y,1/2+z
1/2+x,1/2-y,1/2+z
loop_
_atom_site_type_symbol
_atom_site_label
_atom_site_fract_x
_atom_site_fract_y
_atom_site_fract_z
Si Si1 0.106925 0.500000 0.880970
Si Si2 0.100992 0.927576 0.941812
Si Si3 0.683806 0.425052 0.150703
Si Si4 0.900512 0.281212 0.130182
Si Si5 0.227456 0.833379 0.114920
Si Si6 0.201581 0.372134 0.923197
Si Si7 0.339688 0.124761 0.864219
Si Si8 0.104535 0.500000 0.543874
O O1 0.141454 0.500000 0.710627
O O2 0.000000 0.500000 0.889950
O O3 0.146781 0.436723 0.951817
O O4 0.159335 0.884065 0.045955
O O5 0.000000 0.926519 0.991690
O O6 0.135901 0.000000 0.947934
O O7 0.105881 0.909240 0.767124
O O8 0.679182 0.500000 0.112975
O O9 0.703972 0.382706 0.007029
O O10 0.767566 0.407181 0.255010
O O11 0.829796 0.226547 0.166241
O O12 0.857408 0.315622 0.988193
O O13 0.902271 0.334527 0.258261
O O14 0.000000 0.256932 0.102364
O O15 0.280829 0.860880 0.252276
O O16 0.294913 0.825092 0.977753
O O17 0.373603 0.064727 0.957266
O O18 0.000000 0.500000 0.565222
#
# Coordination Sequence:
#
# PCOD9376005 Si02
#       8
#     4   8   8   8   8   8   8   4
#     4  11  22  35  57  93 126 148 179 240 313 359
#     4   9  19  35  58  86 115 151 200 248 289 334
#     4   9  17  31  55  83 114 147 185 230 291 343
#     4  11  24  41  57  81 118 158 198 243 287 339
#     4  11  22  38  62  82 117 154 202 235 290 345
#     4  11  22  37  61  88 119 153 191 240 295 360
#     4  10  20  36  59  85 114 156 197 235 281 354
#     4  11  20  33  57  91 120 148 185 238 295 347
#
# _framework density 9.8765429999999999
#
# number of rings (size 3 to 8) (size 9 to 14) (size 15 to 20)
#    0.000    1.714    2.857    2.143    2.000    0.000 
#    0.000    3.571    0.000    1.714    0.000    0.000 
#    0.000    0.000    0.000    0.000    0.000    0.000 
#
# Total GULP energy -155949.599492 kJ/mol
# GULP energy per Si atom -5569.628553 kJ/mol
# Density = 0.985406 g / cm^3
# Si number density = 9.876543 Si / 1000 Ang^3
#
#
#
# Elastic Constant Matrix: (Units=GPa)
#
#
# Indices 1 2 3 4 5 6 
#
# 1 57.4973 22.5981 17.8306 0.0000 0.0000 0.0000
# 2 22.5981 46.4632 6.4411 0.0000 0.0000 0.0000
# 3 17.8306 6.4411 79.2563 0.0000 0.0000 0.0000
# 4 0.0000 0.0000 0.0000 26.2207 0.0000 0.0000
# 5 0.0000 0.0000 0.0000 0.0000 0.0188 0.0000
# 6 0.0000 0.0000 0.0000 0.0000 0.0000 15.8509
#
#
#
# Elastic Compliance Matrix: (Units=1/GPa)
#
#
# Indices 1 2 3 4 5 6 
#
# 1 0.022857 -0.010523 -0.004287 0.000000 -0.000001 0.000000
# 2 -0.010523 0.026612 0.000205 0.000000 0.000001 0.000000
# 3 -0.004287 0.000205 0.013565 0.000000 0.000002 0.000000
# 4 0.000000 0.000000 0.000000 0.038138 0.000002 0.000000
# 5 -0.000001 0.000001 0.000002 0.000002 53.136312 0.000001
# 6 0.000000 0.000000 0.000000 0.000000 0.000001 0.063088
#
#
# Mechanical properties :
#
#
# Convention : Reuss Voigt Hill
#
# Bulk Modulus (GPa) = 29.56483 30.77292 30.16887
# Shear Modulus (GPa) = 0.09374 17.50788 8.80081
#
# Velocity S-wave (km/s) = 0.21808 2.98037 2.11307
# Velocity P-wave (km/s) = 3.88112 5.23986 4.61081
#
# Compressibility (1/GPa) = 0.03382398
#
# Stress axis : x y z
#
# Youngs Moduli (GPa) = 43.74958 37.57713 73.71828
#
# Poissons Ratio (x) = 0.39541 0.31604
# Poissons Ratio (y) = 0.46036 -0.01508
# Poissons Ratio (z) = 0.18756 -0.00769
#
# Static dielectric constant tensor:
#      x y z
#    x 1.727890 0.000000 0.000000 
#    y 0.000000 1.670090 0.000000 
#    z 0.000000 0.000000 1.733540 
# 
# From -- ./inp_files/7412.got.cif
#   From: 2010.05.17/outbox.ucp.g08.bks.cvg/sg44_4_cif.got.tgz:7412.got - 2010.06.11 16:32:36.
