data_PCOD9376640
_publ_section_title
;
Structure prediction by ZEFSAII (Michael W. Deem and Ramdas Pophale) SiO2 
 PCOD9376640
Probable space group: I B A 2
;
_chemical_formula_sum "Si O2"
_cell_formula_units_Z 52
_cell_length_a 14.822689
_cell_length_b 17.610803
_cell_length_c 9.526740
_cell_angle_alpha 90.000000
_cell_angle_beta 90.000000
_cell_angle_gamma 90.000000
_cell_volume 2486.855026
_symmetry_space_group_name_H-M "I B A 2"
_symmetry_group_IT_number 45
_symmetry_cell_setting 'orthorhombic'
loop_
_space_group_symop_operation_xyz
x,y,z
-x,-y,z
-x,y,1/2+z
x,-y,1/2+z
1/2+x,1/2+y,1/2+z
1/2-x,1/2-y,1/2+z
1/2-x,1/2+y,z
1/2+x,1/2-y,z
loop_
_atom_site_type_symbol
_atom_site_label
_atom_site_fract_x
_atom_site_fract_y
_atom_site_fract_z
Si Si1 0.158666 0.574273 0.707660
Si Si2 0.133104 0.877536 0.198960
Si Si3 0.500000 0.500000 0.792919
Si Si4 0.341334 0.074273 0.378179
Si Si5 0.654574 0.241407 0.211376
Si Si6 0.845426 0.741407 0.874462
Si Si7 0.866896 0.877536 0.386879
O O1 0.266612 0.588955 0.727167
O O2 0.130687 0.500000 0.792920
O O3 0.143168 0.560893 0.542920
O O4 0.117901 0.657102 0.745183
O O5 0.105382 0.814814 0.313256
O O6 0.135674 0.842770 0.042919
O O7 0.064329 0.946291 0.203650
O O8 0.435670 0.446291 0.882189
O O9 0.382099 0.157102 0.340656
O O10 0.233388 0.088955 0.358672
O O11 0.750000 0.250000 0.292919
O O12 0.605382 0.314814 0.272583
O O13 0.664815 0.245628 0.042919
#
# Coordination Sequence:
#
# PCOD9376640 Si02
#       7
#     8   8   4   8   8   8   8
#     4   9  17  30  48  73  99 128 167 210 257 305
#     4  10  21  34  48  71 101 138 179 212 254 308
#     4  12  22  36  52  74 108 144 180 216 250 308
#     4   9  17  30  48  73  99 128 167 210 257 305
#     4   9  18  32  49  70  98 132 170 214 261 307
#     4   9  18  32  49  70  98 132 170 214 261 307
#     4  10  21  34  48  71 101 138 179 212 254 308
#
# _framework density 20.909945
#
# number of rings (size 3 to 8) (size 9 to 14) (size 15 to 20)
#    0.000    2.462    1.538    3.231    0.000    8.615 
#    0.000    0.000    0.000    0.000    0.000    1.077 
#    0.000    7.385    0.000    0.000    0.000    0.000 
#
# Total GULP energy -144936.864140 kJ/mol
# GULP energy per Si atom -5574.494775 kJ/mol
# Density = 2.086235 g / cm^3
# Si number density = 20.909945 Si / 1000 Ang^3
#
#
#
# Elastic Constant Matrix: (Units=GPa)
#
#
# Indices 1 2 3 4 5 6 
#
# 1 27.7581 0.1556 -3.1453 0.0000 0.0000 0.0000
# 2 0.1556 182.0575 84.5567 0.0000 0.0000 0.0000
# 3 -3.1453 84.5567 99.4214 0.0000 0.0000 0.0000
# 4 0.0000 0.0000 0.0000 43.0250 0.0000 0.0000
# 5 0.0000 0.0000 0.0000 0.0000 -0.0066 0.0000
# 6 0.0000 0.0000 0.0000 0.0000 0.0000 21.2231
#
#
#
# Elastic Compliance Matrix: (Units=1/GPa)
#
#
# Indices 1 2 3 4 5 6 
#
# 1 0.036250 -0.000932 0.001939 0.000000 0.000000 0.000000
# 2 -0.000932 0.009103 -0.007772 0.000000 0.000000 0.000000
# 3 0.001939 -0.007772 0.016729 0.000000 0.000000 0.000000
# 4 0.000000 0.000000 0.000000 0.023242 0.000000 0.000000
# 5 0.000000 0.000000 0.000000 0.000000********** 0.000000
# 6 0.000000 0.000000 0.000000 0.000000 0.000000 0.047119
#
#
# Mechanical properties :
#
#
# Convention : Reuss Voigt Hill
#
# Bulk Modulus (GPa) = 20.59532 52.48566 36.54049
# Shear Modulus (GPa) = -0.03284 28.02630 13.99673
#
# Velocity S-wave (km/s) = -0.12547 3.66503 2.59005
# Velocity P-wave (km/s) = 3.13846 6.56241 5.14369
#
# Compressibility (1/GPa) = 0.04855473
#
# Stress axis : x y z
#
# Youngs Moduli (GPa) = 27.58583 109.85331 59.77598
#
# Poissons Ratio (x) = 0.10234 -0.11592
# Poissons Ratio (y) = 0.02570 0.46455
# Poissons Ratio (z) = -0.05349 0.85373
#
# Static dielectric constant tensor:
#      x y z
#    x 1.809920 0.000000 0.000000 
#    y 0.000000 1.815810 0.000000 
#    z 0.000000 0.000000 1.750450 
# 
# From -- ./inp_files/2120.got.cif
#   From: 2010.05.17/outbox.cif.g08.bks.cpg/sg45_2_cif.got.tgz:2120.got - 2010.06.03 19:51:22.
