data_PCOD9376167
_publ_section_title
;
Structure prediction by ZEFSAII (Michael W. Deem and Ramdas Pophale) SiO2 
 PCOD9376167
Probable space group: I B A 2
;
_chemical_formula_sum "Si O2"
_cell_formula_units_Z 60
_cell_length_a 16.084776
_cell_length_b 9.372968
_cell_length_c 20.381759
_cell_angle_alpha 90.000000
_cell_angle_beta 90.000000
_cell_angle_gamma 90.000000
_cell_volume 3072.796600
_symmetry_space_group_name_H-M "I B A 2"
_symmetry_group_IT_number 45
_symmetry_cell_setting 'orthorhombic'
loop_
_space_group_symop_operation_xyz
x,y,z
-x,-y,z
-x,y,1/2+z
x,-y,1/2+z
1/2+x,1/2+y,1/2+z
1/2-x,1/2-y,1/2+z
1/2-x,1/2+y,z
1/2+x,1/2-y,z
loop_
_atom_site_type_symbol
_atom_site_label
_atom_site_fract_x
_atom_site_fract_y
_atom_site_fract_z
Si Si1 0.500000 0.500000 0.685670
Si Si2 0.019169 0.659929 0.999315
Si Si3 0.237247 0.354300 0.193853
Si Si4 0.799292 0.978144 0.017037
Si Si5 0.163502 0.668348 0.553884
Si Si6 0.888422 0.794783 0.611092
Si Si7 0.915781 0.085245 0.906305
Si Si8 0.339563 0.597818 0.264878
O O1 0.530453 0.366581 0.642678
O O2 0.576637 0.548612 0.729120
O O3 0.000000 0.500000 0.974870
O O4 0.054372 0.771392 0.945432
O O5 0.929840 0.699255 0.031146
O O6 0.083331 0.672745 0.060756
O O7 0.180673 0.380660 0.128806
O O8 0.319078 0.269323 0.166297
O O9 0.271310 0.487749 0.235417
O O10 0.186517 0.252359 0.240780
O O11 0.858437 0.991505 0.954650
O O12 0.710757 0.054319 0.008096
O O13 0.846748 0.074955 0.070606
O O14 0.790326 0.819394 0.043391
O O15 0.860788 0.104628 0.841524
O O16 0.000000 0.000000 0.890524
#
# Coordination Sequence:
#
# PCOD9376167 Si02
#       8
#     4   8   8   8   8   8   8   8
#     4  10  18  36  64  92 116 178 220 256 324 412
#     4  11  24  38  65  97 129 166 211 281 338 389
#     4  10  22  38  63  98 126 167 213 272 332 395
#     4  10  22  35  63  91 125 167 204 273 329 392
#     4  11  21  38  63  97 130 157 208 273 348 390
#     4   9  19  35  60  92 130 156 209 261 343 386
#     4  11  23  46  62  85 126 178 230 254 316 405
#     4  11  23  41  65  87 128 177 224 264 316 399
#
# _framework density 19.526185999999999
#
# number of rings (size 3 to 8) (size 9 to 14) (size 15 to 20)
#    0.000    1.600    2.000    4.000    9.333    1.067 
#    0.000    0.000    0.000    0.000    0.000    0.000 
#    0.000    0.000    0.000    0.000    0.000    0.000 
#
# Total GULP energy -167331.658562 kJ/mol
# GULP energy per Si atom -5577.721952 kJ/mol
# Density = 1.948174 g / cm^3
# Si number density = 19.526186 Si / 1000 Ang^3
#
#
#
# Elastic Constant Matrix: (Units=GPa)
#
#
# Indices 1 2 3 4 5 6 
#
# 1 63.7352 20.6012 30.8537 0.0000 0.0000 0.0000
# 2 20.6012 62.0664 20.8049 0.0000 0.0000 0.0000
# 3 30.8537 20.8049 102.3806 0.0000 0.0000 0.0000
# 4 0.0000 0.0000 0.0000 16.4590 0.0000 0.0000
# 5 0.0000 0.0000 0.0000 0.0000 31.7840 0.0000
# 6 0.0000 0.0000 0.0000 0.0000 0.0000 32.3021
#
#
#
# Elastic Compliance Matrix: (Units=1/GPa)
#
#
# Indices 1 2 3 4 5 6 
#
# 1 0.019652 -0.004869 -0.004933 0.000000 0.000000 0.000000
# 2 -0.004869 0.018496 -0.002291 0.000000 0.000000 0.000000
# 3 -0.004933 -0.002291 0.011720 0.000000 0.000000 0.000000
# 4 0.000000 0.000000 0.000000 0.060757 0.000000 0.000000
# 5 0.000000 0.000000 0.000000 0.000000 0.031462 0.000000
# 6 0.000000 0.000000 0.000000 0.000000 0.000000 0.030958
#
#
# Mechanical properties :
#
#
# Convention : Reuss Voigt Hill
#
# Bulk Modulus (GPa) = 38.93960 41.41130 40.17545
# Shear Modulus (GPa) = 24.29645 26.50387 25.40016
#
# Velocity S-wave (km/s) = 3.53129 3.68822 3.61061
# Velocity P-wave (km/s) = 6.05080 6.27626 6.16456
#
# Compressibility (1/GPa) = 0.02568080
#
# Stress axis : x y z
#
# Youngs Moduli (GPa) = 50.88593 54.06565 85.32695
#
# Poissons Ratio (x) = 0.26327 0.42090
# Poissons Ratio (y) = 0.24778 0.19550
# Poissons Ratio (z) = 0.25101 0.12387
#
# Static dielectric constant tensor:
#      x y z
#    x 1.749690 0.000000 0.000000 
#    y 0.000000 1.712910 0.000000 
#    z 0.000000 0.000000 1.705070 
# 
# From -- ./inp_files/8365.got.cif
#   From: 2010.05.17/outbox.cif.g08.bks.cpg/sg45_5_cif.got.tgz:8365.got - 2010.06.03 19:51:22.
