data_PCOD9376041
_publ_section_title
;
Structure prediction by ZEFSAII (Michael W. Deem and Ramdas Pophale) SiO2 
 PCOD9376041
Probable space group: I B A 2
;
_chemical_formula_sum "Si O2"
_cell_formula_units_Z 64
_cell_length_a 29.265231
_cell_length_b 16.869283
_cell_length_c 5.542916
_cell_angle_alpha 90.000000
_cell_angle_beta 90.000000
_cell_angle_gamma 90.000000
_cell_volume 2736.445970
_symmetry_space_group_name_H-M "I B A 2"
_symmetry_group_IT_number 45
_symmetry_cell_setting 'orthorhombic'
loop_
_space_group_symop_operation_xyz
x,y,z
-x,-y,z
-x,y,1/2+z
x,-y,1/2+z
1/2+x,1/2+y,1/2+z
1/2-x,1/2-y,1/2+z
1/2-x,1/2+y,z
1/2+x,1/2-y,z
loop_
_atom_site_type_symbol
_atom_site_label
_atom_site_fract_x
_atom_site_fract_y
_atom_site_fract_z
Si Si1 0.759146 0.540983 0.575840
Si Si2 0.360038 0.018898 0.506280
Si Si3 0.385122 0.729951 0.285056
Si Si4 0.215844 0.160632 0.798397
Si Si5 0.985926 0.292398 0.729638
Si Si6 0.478292 0.609314 0.719107
Si Si7 0.881063 0.864823 0.780676
Si Si8 0.190872 0.683126 0.540523
O O1 0.744997 0.495941 0.329181
O O2 0.814064 0.535310 0.543331
O O3 0.737781 0.627347 0.545439
O O4 0.339714 0.107275 0.478481
O O5 0.384315 0.991029 0.263357
O O6 0.431792 0.777854 0.244575
O O7 0.387979 0.692649 0.549267
O O8 0.337889 0.777287 0.257167
O O9 0.383870 0.671174 0.051990
O O10 0.170987 0.108666 0.744165
O O11 0.258496 0.158567 0.619966
O O12 0.197131 0.248999 0.841100
O O13 0.997847 0.332025 0.476296
O O14 0.012856 0.206172 0.722556
O O15 0.493707 0.584354 0.454361
O O16 0.426237 0.583128 0.760124
#
# Coordination Sequence:
#
# PCOD9376041 Si02
#       8
#     8   8   8   8   8   8   8   8
#     4  10  21  40  61  75 102 152 200 228 269 334
#     4  10  21  40  61  75 102 152 200 228 269 334
#     4  11  20  32  47  77 109 146 178 221 275 346
#     4  11  24  36  56  85 120 152 183 238 292 332
#     4  10  15  27  49  66  99 145 176 209 271 335
#     4  10  15  27  49  66  99 145 176 209 271 335
#     4  11  20  32  47  77 109 146 178 221 275 346
#     4  11  24  36  56  85 120 152 183 238 292 332
#
# _framework density 23.388002
#
# number of rings (size 3 to 8) (size 9 to 14) (size 15 to 20)
#    0.000    1.500    7.500    0.750    3.500    4.000 
#    0.000    0.000    0.000    0.000    0.000    0.000 
#    0.000    6.000    0.000    0.000    0.000    0.000 
#
# Total GULP energy -178456.981208 kJ/mol
# GULP energy per Si atom -5576.780663 kJ/mol
# Density = 2.333477 g / cm^3
# Si number density = 23.388002 Si / 1000 Ang^3
#
#
#
# Elastic Constant Matrix: (Units=GPa)
#
#
# Indices 1 2 3 4 5 6 
#
# 1 97.8333 -22.6279 -2.1946 0.0000 0.0000 0.0000
# 2 -22.6279 23.6187 26.0561 0.0000 0.0000 0.0000
# 3 -2.1946 26.0561 150.3980 0.0000 0.0000 0.0000
# 4 0.0000 0.0000 0.0000 18.0035 0.0000 0.0000
# 5 0.0000 0.0000 0.0000 0.0000 30.9634 0.0000
# 6 0.0000 0.0000 0.0000 0.0000 0.0000 -4.4732
#
#
#
# Elastic Compliance Matrix: (Units=1/GPa)
#
#
# Indices 1 2 3 4 5 6 
#
# 1 0.013910 0.016198 -0.002603 0.000000 0.000000 0.000000
# 2 0.016198 0.071207 -0.012100 0.000000 0.000000 0.000000
# 3 -0.002603 -0.012100 0.008707 0.000000 0.000000 0.000000
# 4 0.000000 0.000000 0.000000 0.055545 0.000000 0.000000
# 5 0.000000 0.000000 0.000000 0.000000 0.032296 0.000000
# 6 0.000000 0.000000 0.000000 0.000000 0.000000 -0.223552
#
#
# Mechanical properties :
#
#
# Convention : Reuss Voigt Hill
#
# Bulk Modulus (GPa) = 10.32920 30.47969 20.40444
# Shear Modulus (GPa) = -396.63227 26.93982 -184.84623
#
# Velocity S-wave (km/s) = -13.03672 3.39760 -8.89979
# Velocity P-wave (km/s) = 14.90577 5.33404 9.84200
#
# Compressibility (1/GPa) = 0.09681292
#
# Stress axis : x y z
#
# Youngs Moduli (GPa) = 71.89322 14.04362 114.84561
#
# Poissons Ratio (x) = -0.22748 0.29898
# Poissons Ratio (y) = -1.16453 1.38964
# Poissons Ratio (z) = 0.18716 0.16993
#
# Static dielectric constant tensor:
#      x y z
#    x 1.887090 0.000000 0.000000 
#    y 0.000000 1.969350 0.000000 
#    z 0.000000 0.000000 1.939730 
# 
# From -- ./inp_files/701.got.cif
#   From: 2010.05.17/outbox.cif.g08.bks.cpg/sg45_1_cif.got.tgz:701.got - 2010.06.03 19:51:22.
