data_PCOD9376238
_publ_section_title
;
Structure prediction by ZEFSAII (Michael W. Deem and Ramdas Pophale) SiO2 
 PCOD9376238
Probable space group: I B A 2
;
_chemical_formula_sum "Si O2"
_cell_formula_units_Z 44
_cell_length_a 5.170369
_cell_length_b 9.986945
_cell_length_c 31.723622
_cell_angle_alpha 90.000000
_cell_angle_beta 90.000000
_cell_angle_gamma 90.000000
_cell_volume 1638.086999
_symmetry_space_group_name_H-M "I B A 2"
_symmetry_group_IT_number 45
_symmetry_cell_setting 'orthorhombic'
loop_
_space_group_symop_operation_xyz
x,y,z
-x,-y,z
-x,y,1/2+z
x,-y,1/2+z
1/2+x,1/2+y,1/2+z
1/2-x,1/2-y,1/2+z
1/2-x,1/2+y,z
1/2+x,1/2-y,z
loop_
_atom_site_type_symbol
_atom_site_label
_atom_site_fract_x
_atom_site_fract_y
_atom_site_fract_z
Si Si1 0.151209 0.324373 0.061410
Si Si2 0.743667 0.410547 0.743425
Si Si3 0.301106 0.159368 0.386532
Si Si4 0.000000 0.000000 0.319906
Si Si5 0.699077 0.658942 0.976247
Si Si6 0.748220 0.909616 0.656560
O O1 0.348146 0.199673 0.056382
O O2 0.197712 0.352550 0.110424
O O3 0.246825 0.410388 0.021215
O O4 0.500000 0.500000 0.729615
O O5 0.629888 0.382685 0.790062
O O6 0.758470 0.322703 0.700522
O O7 0.000000 0.500000 0.750212
O O8 0.586072 0.221586 0.384911
O O9 0.219183 0.064068 0.348600
O O10 0.252402 0.088576 0.431829
O O11 0.414139 0.721925 0.975446
O O12 0.500000 0.000000 0.664600
O O13 0.000000 0.000000 0.649874
#
# Coordination Sequence:
#
# PCOD9376238 Si02
#       6
#     8   8   8   4   8   8
#     4  10  19  33  56  79 107 145 181 221 275 331
#     4   8  18  33  55  73 105 148 176 223 290 325
#     4  10  22  37  59  86 113 149 191 234 286 341
#     4  10  22  38  64  78 118 148 196 234 292 336
#     4   8  16  33  52  74 109 141 171 221 276 323
#     4  10  19  35  54  75 108 144 178 220 276 331
#
# _framework density 26.860598
#
# number of rings (size 3 to 8) (size 9 to 14) (size 15 to 20)
#    0.545    2.182    0.000    1.091    2.545    0.000 
#    1.636    1.818    0.000    0.000    0.000    0.000 
#    0.000    0.000    0.000    0.000    0.000    0.000 
#
# Total GULP energy -122485.937712 kJ/mol
# GULP energy per Si atom -5567.542623 kJ/mol
# Density = 2.679946 g / cm^3
# Si number density = 26.860598 Si / 1000 Ang^3
#
#
#
# Elastic Constant Matrix: (Units=GPa)
#
#
# Indices 1 2 3 4 5 6 
#
# 1 167.3656 37.0917 -3.0528 0.0000 0.0000 0.0000
# 2 37.0917 43.5444 26.4828 0.0000 0.0000 0.0000
# 3 -3.0528 26.4828 258.9945 0.0000 0.0000 0.0000
# 4 0.0000 0.0000 0.0000 11.2567 0.0000 0.0000
# 5 0.0000 0.0000 0.0000 0.0000 27.4832 0.0000
# 6 0.0000 0.0000 0.0000 0.0000 0.0000 49.3087
#
#
#
# Elastic Compliance Matrix: (Units=1/GPa)
#
#
# Indices 1 2 3 4 5 6 
#
# 1 0.007515 -0.006883 0.000792 0.000000 0.000000 0.000000
# 2 -0.006883 0.030792 -0.003230 0.000000 0.000000 0.000000
# 3 0.000792 -0.003230 0.004201 0.000000 0.000000 0.000000
# 4 0.000000 0.000000 0.000000 0.088836 0.000000 0.000000
# 5 0.000000 0.000000 0.000000 0.000000 0.036386 0.000000
# 6 0.000000 0.000000 0.000000 0.000000 0.000000 0.020280
#
#
# Mechanical properties :
#
#
# Convention : Reuss Voigt Hill
#
# Bulk Modulus (GPa) = 41.89884 65.66088 53.77986
# Shear Modulus (GPa) = 23.29838 44.90190 34.10014
#
# Velocity S-wave (km/s) = 2.94833 4.09303 3.56690
# Velocity P-wave (km/s) = 5.21754 6.84364 6.08515
#
# Compressibility (1/GPa) = 0.02386701
#
# Stress axis : x y z
#
# Youngs Moduli (GPa) = 133.06988 32.47544 238.05697
#
# Poissons Ratio (x) = 0.22353 -0.18864
# Poissons Ratio (y) = 0.91594 0.76886
# Poissons Ratio (z) = -0.10544 0.10489
#
# Static dielectric constant tensor:
#      x y z
#    x 2.010990 0.000000 0.000000 
#    y 0.000000 2.187340 0.000000 
#    z 0.000000 0.000000 2.363810 
# 
# From -- ./inp_files/10111.got.cif
#   From: 2010.05.17/outbox.cif.g08.bks.cpg/sg45_6_cif.got.tgz:10111.got - 2010.06.03 19:51:22.
