data_PCOD9376098
_publ_section_title
;
Structure prediction by ZEFSAII (Michael W. Deem and Ramdas Pophale) SiO2 
 PCOD9376098
Probable space group: I B A 2
;
_chemical_formula_sum "Si O2"
_cell_formula_units_Z 56
_cell_length_a 7.893107
_cell_length_b 20.779354
_cell_length_c 13.728109
_cell_angle_alpha 90.000000
_cell_angle_beta 90.000000
_cell_angle_gamma 90.000000
_cell_volume 2251.597464
_symmetry_space_group_name_H-M "I B A 2"
_symmetry_group_IT_number 45
_symmetry_cell_setting 'orthorhombic'
loop_
_space_group_symop_operation_xyz
x,y,z
-x,-y,z
-x,y,1/2+z
x,-y,1/2+z
1/2+x,1/2+y,1/2+z
1/2-x,1/2-y,1/2+z
1/2-x,1/2+y,z
1/2+x,1/2-y,z
loop_
_atom_site_type_symbol
_atom_site_label
_atom_site_fract_x
_atom_site_fract_y
_atom_site_fract_z
Si Si1 0.166327 0.846310 0.981490
Si Si2 0.424986 0.907251 0.720927
Si Si3 0.781040 0.533238 0.896720
Si Si4 0.274109 0.658311 0.714858
Si Si5 0.814947 0.783412 0.986377
Si Si6 0.343895 0.297914 0.721004
Si Si7 0.122136 0.410218 0.489901
O O1 0.146519 0.914296 0.928780
O O2 0.294381 0.789313 0.952069
O O3 0.993762 0.810452 0.958255
O O4 0.203792 0.852685 0.097319
O O5 0.335734 0.962889 0.784516
O O6 0.624003 0.892779 0.740555
O O7 0.310400 0.844945 0.747055
O O8 0.393367 0.917658 0.606233
O O9 0.755291 0.463797 0.942751
O O10 0.942836 0.568149 0.947586
O O11 0.474027 0.668688 0.742037
O O12 0.189466 0.724921 0.753102
O O13 0.677064 0.838285 0.963979
O O14 0.825983 0.785825 0.104390
#
# Coordination Sequence:
#
# PCOD9376098 Si02
#       7
#     8   8   8   8   8   8   8
#     4  10  19  37  64 100 131 168 222 275 331 403
#     4  11  22  42  67  93 139 176 226 286 332 411
#     4  11  24  41  66  99 127 178 232 268 344 402
#     4  10  17  35  64  94 138 176 216 270 344 398
#     4   9  19  36  68  94 132 176 215 274 338 394
#     4   9  18  33  63 100 131 180 218 269 342 407
#     4  10  23  45  67  92 133 179 227 273 340 405
#
# _framework density 24.871230000000001
#
# number of rings (size 3 to 8) (size 9 to 14) (size 15 to 20)
#    0.000    2.000    2.857    0.857    4.000    2.857 
#    7.714    0.000    0.000    1.714    0.000    0.000 
#    0.000    0.000    0.000    0.000    0.000    0.000 
#
# Total GULP energy -156244.463505 kJ/mol
# GULP energy per Si atom -5580.159411 kJ/mol
# Density = 2.481462 g / cm^3
# Si number density = 24.871230 Si / 1000 Ang^3
#
#
#
# Elastic Constant Matrix: (Units=GPa)
#
#
# Indices 1 2 3 4 5 6 
#
# 1 106.9017 11.4701 8.2303 0.0000 0.0000 0.0000
# 2 11.4701 76.7913 28.3440 0.0000 0.0000 0.0000
# 3 8.2303 28.3440 116.3085 0.0000 0.0000 0.0000
# 4 0.0000 0.0000 0.0000 23.4710 0.0000 0.0000
# 5 0.0000 0.0000 0.0000 0.0000 0.3092 0.0000
# 6 0.0000 0.0000 0.0000 0.0000 0.0000 14.6997
#
#
#
# Elastic Compliance Matrix: (Units=1/GPa)
#
#
# Indices 1 2 3 4 5 6 
#
# 1 0.009520 -0.001289 -0.000359 0.000000 0.000000 0.000000
# 2 -0.001289 0.014484 -0.003438 0.000000 0.000000 0.000000
# 3 -0.000359 -0.003438 0.009461 0.000000 0.000000 0.000000
# 4 0.000000 0.000000 0.000000 0.042606 -0.000001 0.000000
# 5 0.000000 0.000000 0.000000 -0.000001 3.233812 -0.000001
# 6 0.000000 0.000000 0.000000 0.000000 -0.000001 0.068029
#
#
# Mechanical properties :
#
#
# Convention : Reuss Voigt Hill
#
# Bulk Modulus (GPa) = 42.93495 44.01003 43.47249
# Shear Modulus (GPa) = 1.47239 24.49311 12.98275
#
# Velocity S-wave (km/s) = 0.77025 3.14155 2.28721
# Velocity P-wave (km/s) = 4.25340 5.55812 4.94895
#
# Compressibility (1/GPa) = 0.02329105
#
# Stress axis : x y z
#
# Youngs Moduli (GPa) = 105.03754 69.04147 105.69473
#
# Poissons Ratio (x) = 0.08902 0.03799
# Poissons Ratio (y) = 0.13543 0.36343
# Poissons Ratio (z) = 0.03776 0.23740
#
# Static dielectric constant tensor:
#      x y z
#    x 2.094600 0.000000 0.000000 
#    y 0.000000 2.104900 0.000000 
#    z 0.000000 0.000000 2.105160 
# 
# From -- ./inp_files/5738.got.cif
#   From: 2010.05.17/outbox.cif.g08.bks.cpg/sg45_3_cif.got.tgz:5738.got - 2010.06.03 19:51:22.
