data_PCOD9376392
_publ_section_title
;
Structure prediction by ZEFSAII (Michael W. Deem and Ramdas Pophale) SiO2 
 PCOD9376392
Probable space group: I B A 2
;
_chemical_formula_sum "Si O2"
_cell_formula_units_Z 40
_cell_length_a 24.050858
_cell_length_b 7.974843
_cell_length_c 8.680168
_cell_angle_alpha 90.000000
_cell_angle_beta 90.000000
_cell_angle_gamma 90.000000
_cell_volume 1664.871990
_symmetry_space_group_name_H-M "I B A 2"
_symmetry_group_IT_number 45
_symmetry_cell_setting 'orthorhombic'
loop_
_space_group_symop_operation_xyz
x,y,z
-x,-y,z
-x,y,1/2+z
x,-y,1/2+z
1/2+x,1/2+y,1/2+z
1/2-x,1/2-y,1/2+z
1/2-x,1/2+y,z
1/2+x,1/2-y,z
loop_
_atom_site_type_symbol
_atom_site_label
_atom_site_fract_x
_atom_site_fract_y
_atom_site_fract_z
Si Si1 0.805735 0.891224 0.229810
Si Si2 0.576889 0.826901 0.340742
Si Si3 0.196195 0.243905 0.875661
Si Si4 0.577640 0.579539 0.845585
Si Si5 0.500000 0.500000 0.602243
Si Si6 0.500000 0.000000 0.090937
O O1 0.753377 0.832399 0.329512
O O2 0.807402 0.092274 0.250981
O O3 0.863649 0.838695 0.312080
O O4 0.804045 0.830728 0.051426
O O5 0.642751 0.865171 0.357849
O O6 0.580003 0.623903 0.339926
O O7 0.545953 0.908408 0.196885
O O8 0.538845 0.888536 0.480030
O O9 0.535622 0.621451 0.709838
O O10 0.544616 0.601670 0.002148
#
# Coordination Sequence:
#
# PCOD9376392 Si02
#       6
#     8   8   8   8   4   4
#     4  11  24  44  69  97 134 173 224 278 335 397
#     4  10  22  40  64  92 129 169 220 269 326 390
#     4  11  25  46  69  99 132 176 225 279 336 398
#     4  10  20  38  62  94 127 166 211 269 327 389
#     4  10  20  34  60  92 124 158 204 256 328 392
#     4  10  22  42  64  94 132 178 220 266 324 400
#
# _framework density 24.025872
#
# number of rings (size 3 to 8) (size 9 to 14) (size 15 to 20)
#    0.000    1.600    0.000    4.800    0.000    6.400 
#    0.000   14.000    0.000    0.000    0.000    0.000 
#    0.000    0.000    0.000    0.000    0.000    0.000 
#
# Total GULP energy -111798.087239 kJ/mol
# GULP energy per Si atom -5589.904362 kJ/mol
# Density = 2.397119 g / cm^3
# Si number density = 24.025872 Si / 1000 Ang^3
#
#
#
# Elastic Constant Matrix: (Units=GPa)
#
#
# Indices 1 2 3 4 5 6 
#
# 1 222.1692 28.3445 44.3564 0.0000 0.0000 0.0000
# 2 28.3445 55.0500 24.7303 0.0000 0.0000 0.0000
# 3 44.3564 24.7303 125.1129 0.0000 0.0000 0.0000
# 4 0.0000 0.0000 0.0000 27.1179 0.0000 0.0000
# 5 0.0000 0.0000 0.0000 0.0000 10.4978 0.0000
# 6 0.0000 0.0000 0.0000 0.0000 0.0000 44.2232
#
#
#
# Elastic Compliance Matrix: (Units=1/GPa)
#
#
# Indices 1 2 3 4 5 6 
#
# 1 0.005030 -0.001963 -0.001395 0.000000 0.000000 0.000000
# 2 -0.001963 0.020702 -0.003396 0.000000 0.000000 0.000000
# 3 -0.001395 -0.003396 0.009159 0.000000 0.000000 0.000000
# 4 0.000000 0.000000 0.000000 0.036876 0.000000 0.000000
# 5 0.000000 0.000000 0.000000 0.000000 0.095258 0.000000
# 6 0.000000 0.000000 0.000000 0.000000 0.000000 0.022613
#
#
# Mechanical properties :
#
#
# Convention : Reuss Voigt Hill
#
# Bulk Modulus (GPa) = 46.76898 66.35496 56.56197
# Shear Modulus (GPa) = 23.77861 36.69450 30.23655
#
# Velocity S-wave (km/s) = 3.14938 3.91230 3.55138
# Velocity P-wave (km/s) = 5.72129 6.93442 6.35686
#
# Compressibility (1/GPa) = 0.02138169
#
# Stress axis : x y z
#
# Youngs Moduli (GPa) = 198.80306 48.30530 109.18556
#
# Poissons Ratio (x) = 0.09483 0.15235
# Poissons Ratio (y) = 0.39027 0.37079
# Poissons Ratio (z) = 0.27739 0.16404
#
# Static dielectric constant tensor:
#      x y z
#    x 2.004510 0.000000 0.000000 
#    y 0.000000 2.028100 0.000000 
#    z 0.000000 0.000000 1.944880 
# 
# From -- ./inp_files/2467.got.cif
#   From: 2010.05.17/outbox.cif.g08.bks.cpg/sg45_2_cif.got.tgz:2467.got - 2010.06.03 19:51:22.
