data_PCOD9376762
_publ_section_title
;
Structure prediction by ZEFSAII (Michael W. Deem and Ramdas Pophale) SiO2 
 PCOD9376762
Probable space group: I B A 2
;
_chemical_formula_sum "Si O2"
_cell_formula_units_Z 64
_cell_length_a 13.845565
_cell_length_b 9.019452
_cell_length_c 21.663429
_cell_angle_alpha 90.000000
_cell_angle_beta 90.000000
_cell_angle_gamma 90.000000
_cell_volume 2705.316209
_symmetry_space_group_name_H-M "I B A 2"
_symmetry_group_IT_number 45
_symmetry_cell_setting 'orthorhombic'
loop_
_space_group_symop_operation_xyz
x,y,z
-x,-y,z
-x,y,1/2+z
x,-y,1/2+z
1/2+x,1/2+y,1/2+z
1/2-x,1/2-y,1/2+z
1/2-x,1/2+y,z
1/2+x,1/2-y,z
loop_
_atom_site_type_symbol
_atom_site_label
_atom_site_fract_x
_atom_site_fract_y
_atom_site_fract_z
Si Si1 0.440881 0.347295 0.422910
Si Si2 0.417884 0.381932 0.282181
Si Si3 0.288928 0.004620 0.601905
Si Si4 0.861124 0.807330 0.552429
Si Si5 0.400509 0.927460 0.720714
Si Si6 0.293139 0.962180 0.335905
Si Si7 0.044504 0.661596 0.537880
Si Si8 0.237373 0.226173 0.423256
O O1 0.500000 0.500000 0.437512
O O2 0.452204 0.324299 0.349987
O O3 0.466163 0.210393 0.466869
O O4 0.324740 0.342855 0.437046
O O5 0.500000 0.500000 0.263213
O O6 0.407515 0.248033 0.233682
O O7 0.310944 0.444798 0.300590
O O8 0.181280 0.057590 0.590719
O O9 0.351832 0.135112 0.568243
O O10 0.313816 0.849921 0.570363
O O11 0.320726 0.978018 0.671595
O O12 0.826538 0.820463 0.481181
O O13 0.973685 0.782818 0.566960
O O14 0.371371 0.995906 0.785863
O O15 0.500000 0.000000 0.698375
O O16 0.284423 0.088667 0.387725
O O17 0.321323 0.811717 0.370587
O O18 0.000000 0.500000 0.545042
#
# Coordination Sequence:
#
# PCOD9376762 Si02
#       8
#     8   8   8   8   8   8   8   8
#     4  10  21  39  64  99 146 175 224 289 359 430
#     4  10  25  45  69 107 145 185 236 298 364 430
#     4  11  26  48  66 102 138 186 250 292 348 430
#     4  11  24  41  73  95 140 185 232 294 366 417
#     4  12  27  47  74  99 143 196 247 301 355 422
#     4  11  24  44  68 104 148 180 242 295 363 430
#     4  10  23  41  66  98 137 183 233 294 354 429
#     4  11  23  41  68 108 142 182 232 298 364 440
#
# _framework density 23.657124
#
# number of rings (size 3 to 8) (size 9 to 14) (size 15 to 20)
#    0.000    1.250    3.750    1.875   12.250    0.500 
#    0.000    0.000    0.000    3.750    0.000    0.000 
#    0.000    0.000    0.000    0.000    0.000    0.000 
#
# Total GULP energy -178706.123897 kJ/mol
# GULP energy per Si atom -5584.566372 kJ/mol
# Density = 2.360328 g / cm^3
# Si number density = 23.657124 Si / 1000 Ang^3
#
#
#
# Elastic Constant Matrix: (Units=GPa)
#
#
# Indices 1 2 3 4 5 6 
#
# 1 40.0613 -0.6335 -7.1459 0.0000 0.0000 0.0000
# 2 -0.6335 29.8730 7.7403 0.0000 0.0000 0.0000
# 3 -7.1459 7.7403 65.9454 0.0000 0.0000 0.0000
# 4 0.0000 0.0000 0.0000 20.3718 0.0000 0.0000
# 5 0.0000 0.0000 0.0000 0.0000 10.9440 0.0000
# 6 0.0000 0.0000 0.0000 0.0000 0.0000 40.6297
#
#
#
# Elastic Compliance Matrix: (Units=1/GPa)
#
#
# Indices 1 2 3 4 5 6 
#
# 1 0.025455 -0.000180 0.002779 0.000000 0.000000 0.000000
# 2 -0.000180 0.034526 -0.004072 0.000000 0.000000 0.000000
# 3 0.002779 -0.004072 0.015943 0.000000 0.000000 0.000000
# 4 0.000000 0.000000 0.000000 0.049087 0.000000 0.000000
# 5 0.000000 0.000000 0.000000 0.000000 0.091374 0.000000
# 6 0.000000 0.000000 0.000000 0.000000 0.000000 0.024613
#
#
# Mechanical properties :
#
#
# Convention : Reuss Voigt Hill
#
# Bulk Modulus (GPa) = 13.70271 15.08906 14.39588
# Shear Modulus (GPa) = 18.63789 23.45034 21.04412
#
# Velocity S-wave (km/s) = 2.80988 3.15184 2.98576
# Velocity P-wave (km/s) = 4.04129 4.43143 4.24085
#
# Compressibility (1/GPa) = 0.07297827
#
# Stress axis : x y z
#
# Youngs Moduli (GPa) = 39.28551 28.96339 62.72263
#
# Poissons Ratio (x) = 0.00522 -0.17433
# Poissons Ratio (y) = 0.00709 0.25541
# Poissons Ratio (z) = -0.10919 0.11794
#
# Static dielectric constant tensor:
#      x y z
#    x 2.017860 0.000000 0.000000 
#    y 0.000000 1.909030 0.000000 
#    z 0.000000 0.000000 1.929020 
# 
# From -- ./inp_files/9795.got.cif
#   From: 2010.05.17/outbox.cif.g08.bks.cpg/sg45_5_cif.got.tgz:9795.got - 2010.06.03 19:51:22.
