data_PCOD9376503
_publ_section_title
;
Structure prediction by ZEFSAII (Michael W. Deem and Ramdas Pophale) SiO2 
 PCOD9376503
Probable space group: I B A 2
;
_chemical_formula_sum "Si O2"
_cell_formula_units_Z 40
_cell_length_a 18.750506
_cell_length_b 9.265189
_cell_length_c 8.637554
_cell_angle_alpha 90.000000
_cell_angle_beta 90.000000
_cell_angle_gamma 90.000000
_cell_volume 1500.576188
_symmetry_space_group_name_H-M "I B A 2"
_symmetry_group_IT_number 45
_symmetry_cell_setting 'orthorhombic'
loop_
_space_group_symop_operation_xyz
x,y,z
-x,-y,z
-x,y,1/2+z
x,-y,1/2+z
1/2+x,1/2+y,1/2+z
1/2-x,1/2-y,1/2+z
1/2-x,1/2+y,z
1/2+x,1/2-y,z
loop_
_atom_site_type_symbol
_atom_site_label
_atom_site_fract_x
_atom_site_fract_y
_atom_site_fract_z
Si Si1 0.062562 0.106476 0.528380
Si Si2 0.172755 0.610360 0.353563
Si Si3 0.459862 0.858088 0.073577
Si Si4 0.630394 0.609445 0.733945
Si Si5 0.767593 0.347330 0.032637
O O1 0.130355 0.109100 0.417054
O O2 0.025296 0.257764 0.527953
O O3 0.086487 0.032283 0.685473
O O4 0.000000 0.000000 0.469332
O O5 0.094404 0.615577 0.431006
O O6 0.173654 0.656442 0.172414
O O7 0.202929 0.452072 0.398608
O O8 0.225630 0.718649 0.446282
O O9 0.412065 0.754264 0.183909
O O10 0.500000 0.000000 0.134125
O O11 0.703406 0.596355 0.643417
#
# Coordination Sequence:
#
# PCOD9376503 Si02
#       5
#     8   8   8   8   8
#     4  10  20  38  63  92 127 166 212 260 314 382
#     4  11  25  44  69  97 132 173 219 270 325 386
#     4  10  24  41  62  97 134 168 209 262 327 387
#     4  10  22  41  66  94 125 168 217 265 317 380
#     4  11  24  44  67  98 131 171 222 271 324 385
#
# _framework density 26.656427000000001
#
# number of rings (size 3 to 8) (size 9 to 14) (size 15 to 20)
#    0.000    1.600    0.000    4.200    0.000   12.000 
#    0.000    2.000    0.000    0.000    0.000    0.000 
#    0.000    0.000    0.000    0.000    0.000    0.000 
#
# Total GULP energy -111913.542856 kJ/mol
# GULP energy per Si atom -5595.677143 kJ/mol
# Density = 2.659576 g / cm^3
# Si number density = 26.656427 Si / 1000 Ang^3
#
#
#
# Elastic Constant Matrix: (Units=GPa)
#
#
# Indices 1 2 3 4 5 6 
#
# 1 133.1089 47.3606 21.7436 0.0000 0.0000 0.0000
# 2 47.3606 92.4870 1.7549 0.0000 0.0000 0.0000
# 3 21.7436 1.7549 105.2283 0.0000 0.0000 0.0000
# 4 0.0000 0.0000 0.0000 20.0290 0.0000 0.0000
# 5 0.0000 0.0000 0.0000 0.0000 36.0809 0.0000
# 6 0.0000 0.0000 0.0000 0.0000 0.0000 15.5470
#
#
#
# Elastic Compliance Matrix: (Units=1/GPa)
#
#
# Indices 1 2 3 4 5 6 
#
# 1 0.009549 -0.004854 -0.001892 0.000000 0.000000 0.000000
# 2 -0.004854 0.013283 0.000781 0.000000 0.000000 0.000000
# 3 -0.001892 0.000781 0.009881 0.000000 0.000000 0.000000
# 4 0.000000 0.000000 0.000000 0.049928 0.000000 0.000000
# 5 0.000000 0.000000 0.000000 0.000000 0.027716 0.000000
# 6 0.000000 0.000000 0.000000 0.000000 0.000000 0.064321
#
#
# Mechanical properties :
#
#
# Convention : Reuss Voigt Hill
#
# Bulk Modulus (GPa) = 48.11428 52.50472 50.30950
# Shear Modulus (GPa) = 25.83522 31.66236 28.74879
#
# Velocity S-wave (km/s) = 3.11656 3.45018 3.28761
# Velocity P-wave (km/s) = 5.57132 5.96752 5.77282
#
# Compressibility (1/GPa) = 0.02078385
#
# Stress axis : x y z
#
# Youngs Moduli (GPa) = 104.72598 75.28404 101.20337
#
# Poissons Ratio (x) = 0.36541 0.19149
# Poissons Ratio (y) = 0.50832 -0.07908
# Poissons Ratio (z) = 0.19816 -0.05883
#
# Static dielectric constant tensor:
#      x y z
#    x 2.076610 0.000000 0.000000 
#    y 0.000000 2.096420 0.000000 
#    z 0.000000 0.000000 2.048930 
# 
# From -- ./inp_files/2442.got.cif
#   From: 2010.05.17/outbox.cif.g08.bks.cpg/sg45_2_cif.got.tgz:2442.got - 2010.06.03 19:51:22.
