data_PCOD9376706
_publ_section_title
;
Structure prediction by ZEFSAII (Michael W. Deem and Ramdas Pophale) SiO2 
 PCOD9376706
Probable space group: I B A 2
;
_chemical_formula_sum "Si O2"
_cell_formula_units_Z 48
_cell_length_a 23.693315
_cell_length_b 8.868472
_cell_length_c 8.715361
_cell_angle_alpha 90.000000
_cell_angle_beta 90.000000
_cell_angle_gamma 90.000000
_cell_volume 1831.302163
_symmetry_space_group_name_H-M "I B A 2"
_symmetry_group_IT_number 45
_symmetry_cell_setting 'orthorhombic'
loop_
_space_group_symop_operation_xyz
x,y,z
-x,-y,z
-x,y,1/2+z
x,-y,1/2+z
1/2+x,1/2+y,1/2+z
1/2-x,1/2-y,1/2+z
1/2-x,1/2+y,z
1/2+x,1/2-y,z
loop_
_atom_site_type_symbol
_atom_site_label
_atom_site_fract_x
_atom_site_fract_y
_atom_site_fract_z
Si Si1 0.425760 0.087353 0.825260
Si Si2 0.231995 0.402061 0.663535
Si Si3 0.301867 0.805652 0.975118
Si Si4 0.652371 0.345387 0.351486
Si Si5 0.966247 0.307941 0.490077
Si Si6 0.604726 0.562160 0.567322
O O1 0.365684 0.170548 0.845460
O O2 0.469128 0.165403 0.944676
O O3 0.449264 0.123511 0.656095
O O4 0.431847 0.912190 0.868370
O O5 0.246995 0.294612 0.520586
O O6 0.208051 0.550881 0.584435
O O7 0.192453 0.338561 0.796042
O O8 0.289794 0.402924 0.770317
O O9 0.353168 0.701399 0.024910
O O10 0.638626 0.415998 0.514789
O O11 0.604133 0.430533 0.250049
O O12 0.951908 0.131433 0.498434
#
# Coordination Sequence:
#
# PCOD9376706 Si02
#       6
#     8   8   8   8   8   8
#     4  10  21  38  61  86 122 160 202 259 317 376
#     4  11  22  40  60  87 122 159 206 256 316 387
#     4  11  23  39  62  89 122 161 203 260 320 382
#     4  10  22  40  59  85 119 159 204 256 314 377
#     4  10  21  38  59  90 120 156 207 255 312 380
#     4  10  23  39  59  87 117 157 206 253 313 382
#
# _framework density 26.21086
#
# number of rings (size 3 to 8) (size 9 to 14) (size 15 to 20)
#    0.000    1.667    0.000    6.000    0.000    8.667 
#    0.000    3.333    0.000    0.000    0.000    0.000 
#    0.000    0.000    0.000    0.000    0.000    0.000 
#
# Total GULP energy -134043.836362 kJ/mol
# GULP energy per Si atom -5585.159848 kJ/mol
# Density = 2.615120 g / cm^3
# Si number density = 26.210860 Si / 1000 Ang^3
#
#
#
# Elastic Constant Matrix: (Units=GPa)
#
#
# Indices 1 2 3 4 5 6 
#
# 1 66.6079 10.3214 13.4106 0.0000 0.0000 0.0000
# 2 10.3214 62.1343 14.2702 0.0000 0.0000 0.0000
# 3 13.4106 14.2702 80.1973 0.0000 0.0000 0.0000
# 4 0.0000 0.0000 0.0000 40.6861 0.0000 0.0000
# 5 0.0000 0.0000 0.0000 0.0000 30.2175 0.0000
# 6 0.0000 0.0000 0.0000 0.0000 0.0000 47.4424
#
#
#
# Elastic Compliance Matrix: (Units=1/GPa)
#
#
# Indices 1 2 3 4 5 6 
#
# 1 0.015796 -0.002103 -0.002267 0.000000 0.000000 0.000000
# 2 -0.002103 0.017060 -0.002684 0.000000 0.000000 0.000000
# 3 -0.002267 -0.002684 0.013326 0.000000 0.000000 0.000000
# 4 0.000000 0.000000 0.000000 0.024578 0.000000 0.000000
# 5 0.000000 0.000000 0.000000 0.000000 0.033093 0.000000
# 6 0.000000 0.000000 0.000000 0.000000 0.000000 0.021078
#
#
# Mechanical properties :
#
#
# Convention : Reuss Voigt Hill
#
# Bulk Modulus (GPa) = 31.17884 31.66042 31.41963
# Shear Modulus (GPa) = 33.39325 35.06503 34.22914
#
# Velocity S-wave (km/s) = 3.57322 3.66157 3.61766
# Velocity P-wave (km/s) = 5.38006 5.47553 5.42801
#
# Compressibility (1/GPa) = 0.03207303
#
# Stress axis : x y z
#
# Youngs Moduli (GPa) = 63.30878 58.61685 75.04173
#
# Poissons Ratio (x) = 0.12328 0.17013
# Poissons Ratio (y) = 0.13315 0.20141
# Poissons Ratio (z) = 0.14353 0.15732
#
# Static dielectric constant tensor:
#      x y z
#    x 2.267070 0.000000 0.000000 
#    y 0.000000 2.103990 0.000000 
#    z 0.000000 0.000000 2.112310 
# 
# From -- ./inp_files/2731.got.cif
#   From: 2010.05.17/outbox.cif.g08.bks.cpg/sg45_2_cif.got.tgz:2731.got - 2010.06.03 19:51:22.
