data_PCOD9376472
_publ_section_title
;
Structure prediction by ZEFSAII (Michael W. Deem and Ramdas Pophale) SiO2 
 PCOD9376472
Probable space group: I B A 2
;
_chemical_formula_sum "Si O2"
_cell_formula_units_Z 64
_cell_length_a 24.080087
_cell_length_b 5.330891
_cell_length_c 20.513104
_cell_angle_alpha 90.000000
_cell_angle_beta 90.000000
_cell_angle_gamma 90.000000
_cell_volume 2633.232679
_symmetry_space_group_name_H-M "I B A 2"
_symmetry_group_IT_number 45
_symmetry_cell_setting 'orthorhombic'
loop_
_space_group_symop_operation_xyz
x,y,z
-x,-y,z
-x,y,1/2+z
x,-y,1/2+z
1/2+x,1/2+y,1/2+z
1/2-x,1/2-y,1/2+z
1/2-x,1/2+y,z
1/2+x,1/2-y,z
loop_
_atom_site_type_symbol
_atom_site_label
_atom_site_fract_x
_atom_site_fract_y
_atom_site_fract_z
Si Si1 0.625551 0.471943 0.299200
Si Si2 0.771914 0.917233 0.014440
Si Si3 0.399381 0.457674 0.992073
Si Si4 0.934985 0.453586 0.258695
Si Si5 0.395209 0.199204 0.114882
Si Si6 0.787750 0.881946 0.684655
Si Si7 0.936067 0.461926 0.496922
Si Si8 0.227618 0.923331 0.366511
O O1 0.582659 0.701195 0.296647
O O2 0.672426 0.555058 0.246331
O O3 0.664183 0.485422 0.363172
O O4 0.599508 0.202684 0.280523
O O5 0.737958 0.145926 0.045492
O O6 0.750368 0.883080 0.940070
O O7 0.835174 0.992290 0.004383
O O8 0.424008 0.401207 0.065861
O O9 0.427759 0.699017 0.963205
O O10 0.413701 0.198560 0.956778
O O11 0.922315 0.388316 0.182238
O O12 0.000000 0.500000 0.266689
O O13 0.335755 0.316115 0.132083
O O14 0.397996 0.971541 0.062595
O O15 0.749646 0.632920 0.682756
O O16 0.000000 0.500000 0.513374
O O17 0.263676 0.147980 0.336448
#
# Coordination Sequence:
#
# PCOD9376472 Si02
#       8
#     8   8   8   8   8   8   8   8
#     4  11  22  38  59  84 115 151 192 240 291 338
#     4  10  21  38  61  89 119 150 189 238 288 352
#     4  10  22  36  57  84 113 146 194 239 294 337
#     4  11  23  39  59  84 116 152 201 244 286 337
#     4   9  24  35  56  80 110 153 195 231 281 337
#     4  11  22  34  50  76 115 147 180 222 277 343
#     4  10  21  38  57  78 107 148 197 244 279 329
#     4  10  20  37  64  91 114 151 193 232 290 353
#
# _framework density 24.304728000000001
#
# number of rings (size 3 to 8) (size 9 to 14) (size 15 to 20)
#    0.750    1.000    0.000    4.875    5.250    1.000 
#    4.500    0.000    0.000    4.500    0.000    0.000 
#    0.000    0.000    0.000    0.000    0.000    0.000 
#
# Total GULP energy -178449.823344 kJ/mol
# GULP energy per Si atom -5576.556980 kJ/mol
# Density = 2.424941 g / cm^3
# Si number density = 24.304728 Si / 1000 Ang^3
#
#
#
# Elastic Constant Matrix: (Units=GPa)
#
#
# Indices 1 2 3 4 5 6 
#
# 1 97.7097 36.4667 11.5351 0.0000 0.0000 0.0000
# 2 36.4667 172.9046 12.5376 0.0000 0.0000 0.0000
# 3 11.5351 12.5376 60.2990 0.0000 0.0000 0.0000
# 4 0.0000 0.0000 0.0000 2.7009 0.0000 0.0000
# 5 0.0000 0.0000 0.0000 0.0000 20.9954 0.0000
# 6 0.0000 0.0000 0.0000 0.0000 0.0000 48.3445
#
#
#
# Elastic Compliance Matrix: (Units=1/GPa)
#
#
# Indices 1 2 3 4 5 6 
#
# 1 0.011276 -0.002256 -0.001688 0.000000 0.000000 0.000000
# 2 -0.002256 0.006323 -0.000883 0.000000 0.000000 0.000000
# 3 -0.001688 -0.000883 0.017091 0.000000 0.000000 0.000000
# 4 0.000000 0.000000 0.000000 0.370241 0.000000 0.000000
# 5 0.000000 0.000000 0.000000 0.000000 0.047629 0.000000
# 6 0.000000 0.000000 0.000000 0.000000 0.000000 0.020685
#
#
# Mechanical properties :
#
#
# Convention : Reuss Voigt Hill
#
# Bulk Modulus (GPa) = 39.94314 50.22135 45.08225
# Shear Modulus (GPa) = 10.17825 32.43308 21.30566
#
# Velocity S-wave (km/s) = 2.04862 3.65696 2.96396
# Velocity P-wave (km/s) = 4.69742 6.20799 5.50477
#
# Compressibility (1/GPa) = 0.02503559
#
# Stress axis : x y z
#
# Youngs Moduli (GPa) = 88.68759 158.14467 58.51171
#
# Poissons Ratio (x) = 0.35672 0.09877
# Poissons Ratio (y) = 0.20005 0.05168
# Poissons Ratio (z) = 0.14970 0.13968
#
# Static dielectric constant tensor:
#      x y z
#    x 1.874160 0.000000 0.000000 
#    y 0.000000 2.012390 0.000000 
#    z 0.000000 0.000000 2.198870 
# 
# From -- ./inp_files/10099.got.cif
#   From: 2010.05.17/outbox.cif.g08.bks.cpg/sg45_6_cif.got.tgz:10099.got - 2010.06.03 19:51:22.
