data_PCOD9376589
_publ_section_title
;
Structure prediction by ZEFSAII (Michael W. Deem and Ramdas Pophale) SiO2 
 PCOD9376589
Probable space group: I B A 2
;
_chemical_formula_sum "Si O2"
_cell_formula_units_Z 52
_cell_length_a 19.962343
_cell_length_b 13.608259
_cell_length_c 9.105085
_cell_angle_alpha 90.000000
_cell_angle_beta 90.000000
_cell_angle_gamma 90.000000
_cell_volume 2473.421232
_symmetry_space_group_name_H-M "I B A 2"
_symmetry_group_IT_number 45
_symmetry_cell_setting 'orthorhombic'
loop_
_space_group_symop_operation_xyz
x,y,z
-x,-y,z
-x,y,1/2+z
x,-y,1/2+z
1/2+x,1/2+y,1/2+z
1/2-x,1/2-y,1/2+z
1/2-x,1/2+y,z
1/2+x,1/2-y,z
loop_
_atom_site_type_symbol
_atom_site_label
_atom_site_fract_x
_atom_site_fract_y
_atom_site_fract_z
Si Si1 0.956699 0.817279 0.566430
Si Si2 0.195229 0.294041 0.305700
Si Si3 0.435009 0.882180 0.401103
Si Si4 0.000000 0.500000 0.147177
Si Si5 0.807693 0.837098 0.582433
Si Si6 0.101011 0.865458 0.645373
Si Si7 0.115090 0.011281 0.416198
O O1 0.960411 0.722941 0.460486
O O2 0.882470 0.805714 0.636899
O O3 0.944815 0.918526 0.476872
O O4 0.024466 0.828921 0.656408
O O5 0.141632 0.374483 0.354554
O O6 0.215033 0.238825 0.455616
O O7 0.255674 0.336686 0.212825
O O8 0.152018 0.215381 0.207982
O O9 0.445311 0.957185 0.535324
O O10 0.474839 0.916332 0.257431
O O11 0.820207 0.937323 0.491281
O O12 0.110153 0.902576 0.478784
O O13 0.112732 0.963374 0.744874
#
# Coordination Sequence:
#
# PCOD9376589 Si02
#       7
#     8   8   8   4   8   8   8
#     4   9  20  38  62  89 127 164 199 254 314 377
#     4  10  20  42  63  84 124 170 211 253 310 383
#     4  10  20  41  64  89 126 158 211 254 331 365
#     4  10  22  38  66  98 122 154 200 284 306 376
#     4   8  20  40  57  83 118 170 206 254 303 368
#     4  11  20  39  61  96 128 165 207 256 307 372
#     4   9  22  37  58  92 130 159 205 251 305 370
#
# _framework density 21.023512
#
# number of rings (size 3 to 8) (size 9 to 14) (size 15 to 20)
#    0.923    1.538    1.538    1.385    0.000    3.692 
#    2.769   12.308    0.000    0.000    0.000    0.000 
#    0.000    0.000    0.000    0.000    0.000    0.000 
#
# Total GULP energy -144886.330160 kJ/mol
# GULP energy per Si atom -5572.551160 kJ/mol
# Density = 2.097566 g / cm^3
# Si number density = 21.023512 Si / 1000 Ang^3
#
#
#
# Elastic Constant Matrix: (Units=GPa)
#
#
# Indices 1 2 3 4 5 6 
#
# 1 88.0843 20.8490 66.0457 0.0000 0.0000 0.0000
# 2 20.8490 51.1460 37.1875 0.0000 0.0000 0.0000
# 3 66.0457 37.1875 115.7688 0.0000 0.0000 0.0000
# 4 0.0000 0.0000 0.0000 28.7196 0.0000 0.0000
# 5 0.0000 0.0000 0.0000 0.0000 29.3272 0.0000
# 6 0.0000 0.0000 0.0000 0.0000 0.0000 10.3546
#
#
#
# Elastic Compliance Matrix: (Units=1/GPa)
#
#
# Indices 1 2 3 4 5 6 
#
# 1 0.019840 0.000185 -0.011378 0.000000 0.000000 0.000000
# 2 0.000185 0.025512 -0.008301 0.000000 0.000000 0.000000
# 3 -0.011378 -0.008301 0.017796 0.000000 0.000000 0.000000
# 4 0.000000 0.000000 0.000000 0.034819 0.000000 0.000000
# 5 0.000000 0.000000 0.000000 0.000000 0.034098 0.000000
# 6 0.000000 0.000000 0.000000 0.000000 0.000000 0.096575
#
#
# Mechanical properties :
#
#
# Convention : Reuss Voigt Hill
#
# Bulk Modulus (GPa) = 41.39032 55.90704 48.64868
# Shear Modulus (GPa) = 18.13689 22.40807 20.27248
#
# Velocity S-wave (km/s) = 2.94035 3.26829 3.10865
# Velocity P-wave (km/s) = 5.59088 6.39474 6.00627
#
# Compressibility (1/GPa) = 0.02416024
#
# Stress axis : x y z
#
# Youngs Moduli (GPa) = 50.40207 39.19790 56.19366
#
# Poissons Ratio (x) = -0.00727 0.63940
# Poissons Ratio (y) = -0.00934 0.46644
# Poissons Ratio (z) = 0.57350 0.32537
#
# Static dielectric constant tensor:
#      x y z
#    x 1.757000 0.000000 0.000000 
#    y 0.000000 1.787210 0.000000 
#    z 0.000000 0.000000 1.777960 
# 
# From -- ./inp_files/2318.got.cif
#   From: 2010.05.17/outbox.cif.g08.bks.cpg/sg45_2_cif.got.tgz:2318.got - 2010.06.03 19:51:22.
