data_PCOD9376175
_publ_section_title
;
Structure prediction by ZEFSAII (Michael W. Deem and Ramdas Pophale) SiO2 
 PCOD9376175
Probable space group: I B A 2
;
_chemical_formula_sum "Si O2"
_cell_formula_units_Z 64
_cell_length_a 17.251230
_cell_length_b 9.599678
_cell_length_c 21.690703
_cell_angle_alpha 90.000000
_cell_angle_beta 90.000000
_cell_angle_gamma 90.000000
_cell_volume 3592.116051
_symmetry_space_group_name_H-M "I B A 2"
_symmetry_group_IT_number 45
_symmetry_cell_setting 'orthorhombic'
loop_
_space_group_symop_operation_xyz
x,y,z
-x,-y,z
-x,y,1/2+z
x,-y,1/2+z
1/2+x,1/2+y,1/2+z
1/2-x,1/2-y,1/2+z
1/2-x,1/2+y,z
1/2+x,1/2-y,z
loop_
_atom_site_type_symbol
_atom_site_label
_atom_site_fract_x
_atom_site_fract_y
_atom_site_fract_z
Si Si1 0.670552 0.758607 0.366280
Si Si2 0.750040 0.467650 0.566976
Si Si3 0.169234 0.780393 0.510821
Si Si4 0.548419 0.363698 0.770988
Si Si5 0.908438 0.693912 0.216660
Si Si6 0.919656 0.569469 0.083939
Si Si7 0.321957 0.518828 0.198882
Si Si8 0.793651 0.549994 0.308610
O O1 0.658218 0.737821 0.438567
O O2 0.599049 0.702179 0.325446
O O3 0.744871 0.667849 0.344357
O O4 0.683651 0.920799 0.351316
O O5 0.760444 0.316758 0.536340
O O6 0.693500 0.565032 0.528409
O O7 0.840702 0.515812 0.568948
O O8 0.718265 0.469022 0.636395
O O9 0.096815 0.715309 0.548345
O O10 0.500000 0.500000 0.792122
O O11 0.488577 0.256082 0.741469
O O12 0.607506 0.419283 0.718875
O O13 0.919731 0.598999 0.156874
O O14 0.865546 0.616661 0.272439
O O15 0.854828 0.824516 0.195230
O O16 0.000000 0.500000 0.065376
O O17 0.261493 0.510724 0.254792
#
# Coordination Sequence:
#
# PCOD9376175 Si02
#       8
#     8   8   8   8   8   8   8   8
#     4  11  23  40  62  87 124 161 208 245 294 362
#     4  10  20  38  66  86 117 158 201 250 297 358
#     4  10  22  41  61  86 119 163 206 242 290 359
#     4   9  23  38  60  88 127 160 192 254 311 360
#     4  11  20  38  59  91 123 150 201 246 320 365
#     4  10  23  37  60  87 125 149 194 258 302 353
#     4  10  18  38  60  90 119 153 196 256 306 355
#     4  11  21  35  62  93 117 156 198 255 301 357
#
# _framework density 17.816796
#
# number of rings (size 3 to 8) (size 9 to 14) (size 15 to 20)
#    0.750    1.000    3.750    0.750    1.750    1.000 
#    2.250    0.000    2.750    0.000    0.000    0.000 
#    0.000    0.000    0.000    0.000    0.000    0.000 
#
# Total GULP energy -178425.473066 kJ/mol
# GULP energy per Si atom -5575.796033 kJ/mol
# Density = 1.777624 g / cm^3
# Si number density = 17.816796 Si / 1000 Ang^3
#
#
#
# Elastic Constant Matrix: (Units=GPa)
#
#
# Indices 1 2 3 4 5 6 
#
# 1 67.0661 2.9781 0.7332 0.0000 0.0000 0.0000
# 2 2.9781 26.4002 -7.7700 0.0000 0.0000 0.0000
# 3 0.7332 -7.7700 64.5647 0.0000 0.0000 0.0000
# 4 0.0000 0.0000 0.0000 13.9905 0.0000 0.0000
# 5 0.0000 0.0000 0.0000 0.0000 12.6378 0.0000
# 6 0.0000 0.0000 0.0000 0.0000 0.0000 21.8007
#
#
#
# Elastic Compliance Matrix: (Units=1/GPa)
#
#
# Indices 1 2 3 4 5 6 
#
# 1 0.014995 -0.001806 -0.000388 0.000000 0.000000 0.000000
# 2 -0.001806 0.039487 0.004773 0.000000 0.000000 0.000000
# 3 -0.000388 0.004773 0.016067 0.000000 0.000000 0.000000
# 4 0.000000 0.000000 0.000000 0.071477 0.000000 0.000000
# 5 0.000000 0.000000 0.000000 0.000000 0.079127 0.000000
# 6 0.000000 0.000000 0.000000 0.000000 0.000000 0.045870
#
#
# Mechanical properties :
#
#
# Convention : Reuss Voigt Hill
#
# Bulk Modulus (GPa) = 13.20869 16.65707 14.93288
# Shear Modulus (GPa) = 17.41547 20.49178 18.95362
#
# Velocity S-wave (km/s) = 3.12985 3.39505 3.26514
# Velocity P-wave (km/s) = 4.52670 4.97372 4.75546
#
# Compressibility (1/GPa) = 0.07570772
#
# Stress axis : x y z
#
# Youngs Moduli (GPa) = 66.68857 25.32490 62.23904
#
# Poissons Ratio (x) = 0.04573 0.02412
# Poissons Ratio (y) = 0.12041 -0.29704
# Poissons Ratio (z) = 0.02585 -0.12086
#
# Static dielectric constant tensor:
#      x y z
#    x 1.605930 0.000000 0.000000 
#    y 0.000000 1.621130 0.000000 
#    z 0.000000 0.000000 1.567900 
# 
# From -- ./inp_files/9249.got.cif
#   From: 2010.05.17/outbox.cif.g08.bks.cpg/sg45_5_cif.got.tgz:9249.got - 2010.06.03 19:51:22.
