data_PCOD9376145
_publ_section_title
;
Structure prediction by ZEFSAII (Michael W. Deem and Ramdas Pophale) SiO2 
 PCOD9376145
Probable space group: I B A 2
;
_chemical_formula_sum "Si O2"
_cell_formula_units_Z 64
_cell_length_a 13.171201
_cell_length_b 20.441428
_cell_length_c 8.981035
_cell_angle_alpha 90.000000
_cell_angle_beta 90.000000
_cell_angle_gamma 90.000000
_cell_volume 2418.037311
_symmetry_space_group_name_H-M "I B A 2"
_symmetry_group_IT_number 45
_symmetry_cell_setting 'orthorhombic'
loop_
_space_group_symop_operation_xyz
x,y,z
-x,-y,z
-x,y,1/2+z
x,-y,1/2+z
1/2+x,1/2+y,1/2+z
1/2-x,1/2-y,1/2+z
1/2-x,1/2+y,z
1/2+x,1/2-y,z
loop_
_atom_site_type_symbol
_atom_site_label
_atom_site_fract_x
_atom_site_fract_y
_atom_site_fract_z
Si Si1 0.238930 0.281672 0.173800
Si Si2 0.381832 0.769407 0.445847
Si Si3 0.041427 0.923966 0.372527
Si Si4 0.365631 0.133305 0.203765
Si Si5 0.641651 0.398377 0.184663
Si Si6 0.883944 0.493185 0.022427
Si Si7 0.756140 0.960174 0.742297
Si Si8 0.599272 0.232656 0.914376
O O1 0.170770 0.309892 0.311707
O O2 0.328767 0.260639 0.286650
O O3 0.309874 0.285385 0.022872
O O4 0.142773 0.254952 0.076863
O O5 0.408908 0.821317 0.574236
O O6 0.487603 0.741206 0.396053
O O7 0.083319 0.899703 0.529196
O O8 0.943443 0.889240 0.307268
O O9 0.142469 0.917355 0.267696
O O10 0.000000 0.000000 0.887216
O O11 0.243162 0.144512 0.193484
O O12 0.390802 0.060244 0.155937
O O13 0.402417 0.155943 0.364514
O O14 0.690030 0.470453 0.207649
O O15 0.820091 0.551775 0.103874
O O16 0.000000 0.500000 0.971597
O O17 0.809789 0.466508 0.892820
#
# Coordination Sequence:
#
# PCOD9376145 Si02
#       8
#     8   8   8   8   8   8   8   8
#     4   9  19  37  66  96 118 151 207 258 291 382
#     4  10  20  38  69  94 126 164 204 249 318 387
#     4  10  18  34  60  82 103 153 214 259 321 370
#     4  10  22  40  56  88 134 161 211 258 317 386
#     4  10  21  35  59  82 113 153 204 267 310 375
#     4  11  23  38  56  85 125 168 218 276 309 357
#     4  10  19  36  56  81 107 154 211 266 314 363
#     4  10  20  38  68  94 125 168 203 251 316 388
#
# _framework density 26.467746000000002
#
# number of rings (size 3 to 8) (size 9 to 14) (size 15 to 20)
#    0.000    2.000    2.500    3.000    1.750    3.000 
#    0.000    3.750   41.250    0.000    0.000    0.000 
#    0.000    0.000    0.000    0.000    0.000    0.000 
#
# Total GULP energy -178312.191338 kJ/mol
# GULP energy per Si atom -5572.255979 kJ/mol
# Density = 2.640750 g / cm^3
# Si number density = 26.467746 Si / 1000 Ang^3
#
#
#
# Elastic Constant Matrix: (Units=GPa)
#
#
# Indices 1 2 3 4 5 6 
#
# 1 175.2346 8.1953 46.3728 0.0000 -0.0001 0.0000
# 2 8.1953 50.3995 34.9579 0.0001 0.0000 0.0000
# 3 46.3728 34.9579 92.7176 0.0002 0.0000 0.0000
# 4 0.0000 0.0001 0.0002 16.4534 0.0000 0.0000
# 5 -0.0001 0.0000 0.0000 0.0000 59.2475 0.0000
# 6 0.0000 0.0000 0.0000 0.0000 0.0000 7.1126
#
#
#
# Elastic Compliance Matrix: (Units=1/GPa)
#
#
# Indices 1 2 3 4 5 6 
#
# 1 0.006679 0.001667 -0.003969 0.000000 0.000000 0.000000
# 2 0.001667 0.027284 -0.011121 0.000000 0.000000 0.000000
# 3 -0.003969 -0.011121 0.016963 0.000000 0.000000 0.000000
# 4 0.000000 0.000000 0.000000 0.060778 0.000000 0.000000
# 5 0.000000 0.000000 0.000000 0.000000 0.016878 0.000000
# 6 0.000000 0.000000 0.000000 0.000000 0.000000 0.140595
#
#
# Mechanical properties :
#
#
# Convention : Reuss Voigt Hill
#
# Bulk Modulus (GPa) = 41.52695 55.26708 48.39702
# Shear Modulus (GPa) = 16.44467 31.81774 24.13120
#
# Velocity S-wave (km/s) = 2.49531 3.47094 3.02275
# Velocity P-wave (km/s) = 4.90161 6.08190 5.52337
#
# Compressibility (1/GPa) = 0.02408075
#
# Stress axis : x y z
#
# Youngs Moduli (GPa) = 149.72288 36.65160 58.95023
#
# Poissons Ratio (x) = -0.06110 0.23397
# Poissons Ratio (y) = -0.24957 0.65557
# Poissons Ratio (z) = 0.59425 0.40759
#
# Static dielectric constant tensor:
#      x y z
#    x 2.064610 0.000000 0.000000 
#    y 0.000000 2.368900 0.000000 
#    z 0.000000 0.000000 2.007760 
# 
# From -- ./inp_files/1505.got.cif
#   From: 2010.05.17/outbox.cif.g08.bks.cpg/sg45_1_cif.got.tgz:1505.got - 2010.06.03 19:51:22.
