data_PCOD9376094
_publ_section_title
;
Structure prediction by ZEFSAII (Michael W. Deem and Ramdas Pophale) SiO2 
 PCOD9376094
Probable space group: I B A 2
;
_chemical_formula_sum "Si O2"
_cell_formula_units_Z 64
_cell_length_a 9.378224
_cell_length_b 20.859222
_cell_length_c 15.284384
_cell_angle_alpha 90.000000
_cell_angle_beta 90.000000
_cell_angle_gamma 90.000000
_cell_volume 2989.968742
_symmetry_space_group_name_H-M "I B A 2"
_symmetry_group_IT_number 45
_symmetry_cell_setting 'orthorhombic'
loop_
_space_group_symop_operation_xyz
x,y,z
-x,-y,z
-x,y,1/2+z
x,-y,1/2+z
1/2+x,1/2+y,1/2+z
1/2-x,1/2-y,1/2+z
1/2-x,1/2+y,z
1/2+x,1/2-y,z
loop_
_atom_site_type_symbol
_atom_site_label
_atom_site_fract_x
_atom_site_fract_y
_atom_site_fract_z
Si Si1 0.712245 0.375781 0.369500
Si Si2 0.782162 0.336731 0.563264
Si Si3 0.291899 0.859351 0.420181
Si Si4 0.430660 0.232388 0.041572
Si Si5 0.463087 0.289385 0.355265
Si Si6 0.668087 0.516116 0.338018
Si Si7 0.128223 0.551200 0.674637
Si Si8 0.980240 0.341437 0.285726
O O1 0.760762 0.341991 0.458717
O O2 0.555174 0.352905 0.344164
O O3 0.726236 0.451002 0.379830
O O4 0.813919 0.353054 0.292502
O O5 0.653000 0.289192 0.591276
O O6 0.788278 0.409711 0.598746
O O7 0.929911 0.299807 0.581946
O O8 0.320669 0.824702 0.512633
O O9 0.207161 0.925380 0.404186
O O10 0.445916 0.866121 0.376053
O O11 0.201498 0.808431 0.362389
O O12 0.489604 0.262305 0.950186
O O13 0.498748 0.234653 0.286065
O O14 0.500000 0.500000 0.323823
O O15 0.757418 0.526847 0.247531
O O16 0.000000 0.500000 0.653707
O O17 0.048201 0.611169 0.718171
#
# Coordination Sequence:
#
# PCOD9376094 Si02
#       8
#     8   8   8   8   8   8   8   8
#     4  11  20  37  68  93 122 161 213 262 310 370
#     4  11  23  41  65  95 128 171 201 264 324 372
#     4  10  18  32  61  92 121 152 202 264 301 356
#     4  10  19  38  61  92 128 153 207 261 309 362
#     4  10  17  33  61  95 122 148 202 262 311 358
#     4  11  23  41  64  92 125 171 211 258 316 372
#     4  11  25  45  60  86 133 170 214 256 315 390
#     4  10  19  36  61  87 118 160 203 263 305 358
#
# _framework density 21.404907000000001
#
# number of rings (size 3 to 8) (size 9 to 14) (size 15 to 20)
#    0.000    1.500    6.250    1.500    0.000    1.000 
#    6.750    1.875    0.000    0.000    0.000    0.000 
#    0.000    0.000    0.000    0.000    0.000    0.000 
#
# Total GULP energy -178191.552644 kJ/mol
# GULP energy per Si atom -5568.486020 kJ/mol
# Density = 2.135619 g / cm^3
# Si number density = 21.404907 Si / 1000 Ang^3
#
#
#
# Elastic Constant Matrix: (Units=GPa)
#
#
# Indices 1 2 3 4 5 6 
#
# 1 94.4446 24.7955 2.5021 0.0000 0.0000 0.0000
# 2 24.7955 134.7465 5.7899 0.0000 0.0000 0.0000
# 3 2.5021 5.7899 13.0207 0.0001 0.0000 0.0000
# 4 0.0000 0.0000 0.0001 24.1143 0.0000 0.0000
# 5 0.0000 0.0000 0.0000 0.0000 5.8616 0.0000
# 6 0.0000 0.0000 0.0000 0.0000 0.0000 35.4170
#
#
#
# Elastic Compliance Matrix: (Units=1/GPa)
#
#
# Indices 1 2 3 4 5 6 
#
# 1 0.011146 -0.001997 -0.001254 0.000000 0.000000 0.000000
# 2 -0.001997 0.007924 -0.003140 0.000000 0.000000 0.000000
# 3 -0.001254 -0.003140 0.078438 0.000000 0.000000 0.000000
# 4 0.000000 0.000000 0.000000 0.041469 0.000000 0.000000
# 5 0.000000 0.000000 0.000000 0.000000 0.170602 0.000000
# 6 0.000000 0.000000 0.000000 0.000000 0.000000 0.028235
#
#
# Mechanical properties :
#
#
# Convention : Reuss Voigt Hill
#
# Bulk Modulus (GPa) = 11.80275 34.26520 23.03397
# Shear Modulus (GPa) = 13.19830 27.02020 20.10925
#
# Velocity S-wave (km/s) = 2.48584 3.55679 3.06840
# Velocity P-wave (km/s) = 3.71015 5.73677 4.83093
#
# Compressibility (1/GPa) = 0.08472603
#
# Stress axis : x y z
#
# Youngs Moduli (GPa) = 89.72023 126.20281 12.74899
#
# Poissons Ratio (x) = 0.25204 0.01598
# Poissons Ratio (y) = 0.17918 0.04003
# Poissons Ratio (z) = 0.11248 0.39624
#
# Static dielectric constant tensor:
#      x y z
#    x 1.793010 0.000000 0.000000 
#    y 0.000000 1.792750 0.000000 
#    z 0.000000 0.000000 1.838440 
# 
# From -- ./inp_files/7794.got.cif
#   From: 2010.05.17/outbox.cif.g08.bks.cpg/sg45_4_cif.got.tgz:7794.got - 2010.06.03 19:51:22.
