data_PCOD9376782
_publ_section_title
;
Structure prediction by ZEFSAII (Michael W. Deem and Ramdas Pophale) SiO2 
 PCOD9376782
Probable space group: I B A 2
;
_chemical_formula_sum "Si O2"
_cell_formula_units_Z 64
_cell_length_a 21.559054
_cell_length_b 10.502229
_cell_length_c 13.775119
_cell_angle_alpha 90.000000
_cell_angle_beta 90.000000
_cell_angle_gamma 90.000000
_cell_volume 3118.936576
_symmetry_space_group_name_H-M "I B A 2"
_symmetry_group_IT_number 45
_symmetry_cell_setting 'orthorhombic'
loop_
_space_group_symop_operation_xyz
x,y,z
-x,-y,z
-x,y,1/2+z
x,-y,1/2+z
1/2+x,1/2+y,1/2+z
1/2-x,1/2-y,1/2+z
1/2-x,1/2+y,z
1/2+x,1/2-y,z
loop_
_atom_site_type_symbol
_atom_site_label
_atom_site_fract_x
_atom_site_fract_y
_atom_site_fract_z
Si Si1 0.105174 0.500140 0.446640
Si Si2 0.692283 0.425383 0.079381
Si Si3 0.793007 0.366141 0.814288
Si Si4 0.499941 0.181975 0.946846
Si Si5 0.552032 0.394937 0.081590
Si Si6 0.807679 0.074640 0.814026
Si Si7 0.052092 0.895075 0.812123
Si Si8 0.792903 0.366024 0.578970
O O1 0.148567 0.428240 0.369485
O O2 0.056078 0.599854 0.401667
O O3 0.148701 0.571963 0.523646
O O4 0.056150 0.400441 0.491826
O O5 0.620606 0.437164 0.050308
O O6 0.693776 0.426826 0.196703
O O7 0.734769 0.544602 0.051030
O O8 0.714741 0.282889 0.051911
O O9 0.785357 0.217250 0.841437
O O10 0.734908 0.455557 0.842325
O O11 0.801232 0.371548 0.696620
O O12 0.468357 0.269112 0.866545
O O13 0.531485 0.268933 0.027302
O O14 0.500000 0.500000 0.061823
O O15 0.554176 0.373125 0.196861
O O16 0.879323 0.062552 0.843220
O O17 0.000000 0.000000 0.831894
#
# Coordination Sequence:
#
# PCOD9376782 Si02
#       8
#     8   8   8   8   8   8   8   8
#     4  11  24  38  60  88 121 166 206 244 313 368
#     4   9  19  38  62  87 118 158 202 252 308 363
#     4  10  21  40  62  88 124 161 206 260 306 366
#     4  11  23  40  58  90 125 157 206 254 298 375
#     4  10  21  40  64  88 119 159 202 254 312 367
#     4   9  19  38  62  87 118 158 202 252 308 363
#     4  10  21  40  64  88 119 159 202 254 312 367
#     4  10  21  40  62  88 124 161 206 260 306 366
#
# _framework density 20.519815000000001
#
# number of rings (size 3 to 8) (size 9 to 14) (size 15 to 20)
#    0.000    2.000    2.500    0.375    0.000    4.000 
#    4.500    7.500    0.000    0.000    0.000    0.000 
#    0.000    0.000    0.000    0.000    0.000    0.000 
#
# Total GULP energy -178695.107900 kJ/mol
# GULP energy per Si atom -5584.222122 kJ/mol
# Density = 2.047311 g / cm^3
# Si number density = 20.519815 Si / 1000 Ang^3
#
#
#
# Elastic Constant Matrix: (Units=GPa)
#
#
# Indices 1 2 3 4 5 6 
#
# 1 185.4162 94.8446 17.8541 0.0000 0.0000 0.0000
# 2 94.8446 137.2183 22.0382 0.0000 0.0000 0.0000
# 3 17.8541 22.0382 64.4842 0.0000 0.0000 0.0000
# 4 0.0000 0.0000 0.0000 -509.4445 0.0000 0.0000
# 5 0.0000 0.0000 0.0000 0.0000 11.4265 0.0000
# 6 0.0000 0.0000 0.0000 0.0000 0.0000 52.5699
#
#
#
# Elastic Compliance Matrix: (Units=1/GPa)
#
#
# Indices 1 2 3 4 5 6 
#
# 1 0.008351 -0.005714 -0.000359 0.000000 0.000000 0.000000
# 2 -0.005714 0.011621 -0.002389 0.000000 0.000000 0.000000
# 3 -0.000359 -0.002389 0.016424 0.000000 0.000000 0.000000
# 4 0.000000 0.000000 0.000000 -0.001963 0.000000 0.000000
# 5 0.000000 0.000000 0.000000 0.000000 0.087516 0.000000
# 6 0.000000 0.000000 0.000000 0.000000 0.000000 0.019022
#
#
# Mechanical properties :
#
#
# Convention : Reuss Voigt Hill
#
# Bulk Modulus (GPa) = 51.36196 72.95471 62.15833
# Shear Modulus (GPa) = 30.41598 -72.26417 -20.92409
#
# Velocity S-wave (km/s) = 3.85421 -5.94081 -3.19674
# Velocity P-wave (km/s) = 6.70010 3.38041 4.09049
#
# Compressibility (1/GPa) = 0.01946966
#
# Stress axis : x y z
#
# Youngs Moduli (GPa) = 119.74734 86.04961 60.88739
#
# Poissons Ratio (x) = 0.49172 0.02187
# Poissons Ratio (y) = 0.68429 0.14549
# Poissons Ratio (z) = 0.04301 0.20561
#
# Static dielectric constant tensor:
#      x y z
#    x 1.731210 0.000000 0.000000 
#    y 0.000000 1.749770 0.000000 
#    z 0.000000 0.000000 1.776980 
# 
# From -- ./inp_files/6827.got.cif
#   From: 2010.05.17/outbox.cif.g08.bks.cpg/sg45_4_cif.got.tgz:6827.got - 2010.06.03 19:51:22.
