data_PCOD9376463
_publ_section_title
;
Structure prediction by ZEFSAII (Michael W. Deem and Ramdas Pophale) SiO2 
 PCOD9376463
Probable space group: I B A 2
;
_chemical_formula_sum "Si O2"
_cell_formula_units_Z 60
_cell_length_a 18.582230
_cell_length_b 11.785642
_cell_length_c 12.932436
_cell_angle_alpha 90.000000
_cell_angle_beta 90.000000
_cell_angle_gamma 90.000000
_cell_volume 2832.248881
_symmetry_space_group_name_H-M "I B A 2"
_symmetry_group_IT_number 45
_symmetry_cell_setting 'orthorhombic'
loop_
_space_group_symop_operation_xyz
x,y,z
-x,-y,z
-x,y,1/2+z
x,-y,1/2+z
1/2+x,1/2+y,1/2+z
1/2-x,1/2-y,1/2+z
1/2-x,1/2+y,z
1/2+x,1/2-y,z
loop_
_atom_site_type_symbol
_atom_site_label
_atom_site_fract_x
_atom_site_fract_y
_atom_site_fract_z
Si Si1 0.120763 0.588374 0.755920
Si Si2 0.855412 0.344601 0.296139
Si Si3 0.407863 0.886564 0.020987
Si Si4 0.235493 0.009433 0.335084
Si Si5 0.429551 0.148964 0.963396
Si Si6 0.500000 0.500000 0.849569
Si Si7 0.108122 0.891392 0.215344
Si Si8 0.373184 0.395224 0.985319
O O1 0.101082 0.454359 0.755705
O O2 0.120675 0.632064 0.638141
O O3 0.198686 0.580023 0.816191
O O4 0.067951 0.646396 0.837750
O O5 0.869650 0.331773 0.419709
O O6 0.772046 0.379513 0.286234
O O7 0.872478 0.238704 0.228032
O O8 0.490535 0.844586 0.011577
O O9 0.403402 0.023071 0.998666
O O10 0.201694 0.051076 0.443779
O O11 0.168944 0.961281 0.274194
O O12 0.380171 0.258030 0.986534
O O13 0.534276 0.407806 0.774563
O O14 0.437935 0.442626 0.916013
O O15 0.109360 0.933554 0.099968
#
# Coordination Sequence:
#
# PCOD9376463 Si02
#       8
#     8   8   8   8   8   4   8   8
#     4   9  21  39  58  88 136 162 211 275 317 390
#     4   9  21  38  62  91 125 163 219 263 320 405
#     4  10  20  37  61  91 127 171 204 275 334 377
#     4   9  24  39  60  91 128 162 220 265 314 390
#     4  10  22  35  60  93 124 162 220 262 322 401
#     4  10  24  44  62  96 124 162 222 272 314 392
#     4  11  22  42  67  89 126 172 211 269 326 385
#     4  11  23  42  66  90 128 174 217 268 329 391
#
# _framework density 21.184578999999999
#
# number of rings (size 3 to 8) (size 9 to 14) (size 15 to 20)
#    0.800    1.333    0.000    2.000    3.733    6.400 
#    0.000    5.333    0.000    0.000    0.000    0.000 
#    0.000    0.000    0.000    0.000    0.000    0.000 
#
# Total GULP energy -167039.923831 kJ/mol
# GULP energy per Si atom -5567.997461 kJ/mol
# Density = 2.113636 g / cm^3
# Si number density = 21.184579 Si / 1000 Ang^3
#
#
#
# Elastic Constant Matrix: (Units=GPa)
#
#
# Indices 1 2 3 4 5 6 
#
# 1 60.0853 5.2385 17.4302 0.0000 0.0000 0.0000
# 2 5.2385 21.8311 13.0401 0.0000 0.0000 0.0000
# 3 17.4302 13.0401 108.3239 0.0000 0.0000 0.0000
# 4 0.0000 0.0000 0.0000 25.1830 0.0000 0.0000
# 5 0.0000 0.0000 0.0000 0.0000 54.6158 0.0000
# 6 0.0000 0.0000 0.0000 0.0000 0.0000 -32.8500
#
#
#
# Elastic Compliance Matrix: (Units=1/GPa)
#
#
# Indices 1 2 3 4 5 6 
#
# 1 0.017608 -0.002729 -0.002505 0.000000 0.000000 0.000000
# 2 -0.002729 0.049778 -0.005553 0.000000 0.000000 0.000000
# 3 -0.002505 -0.005553 0.010303 0.000000 0.000000 0.000000
# 4 0.000000 0.000000 0.000000 0.039709 0.000000 0.000000
# 5 0.000000 0.000000 0.000000 0.000000 0.018310 0.000000
# 6 0.000000 0.000000 0.000000 0.000000 0.000000 -0.030441
#
#
# Mechanical properties :
#
#
# Convention : Reuss Voigt Hill
#
# Bulk Modulus (GPa) = 17.82056 29.07310 23.44683
# Shear Modulus (GPa) = 34.35359 19.69183 27.02271
#
# Velocity S-wave (km/s) = 4.03132 3.05214 3.57541
# Velocity P-wave (km/s) = 5.48626 5.11608 5.30440
#
# Compressibility (1/GPa) = 0.05611497
#
# Stress axis : x y z
#
# Youngs Moduli (GPa) = 56.79390 20.08916 97.05814
#
# Poissons Ratio (x) = 0.05482 0.24310
# Poissons Ratio (y) = 0.15499 0.53899
# Poissons Ratio (z) = 0.14225 0.11156
#
# Static dielectric constant tensor:
#      x y z
#    x 1.782680 0.000000 0.000000 
#    y 0.000000 1.707430 0.000000 
#    z 0.000000 0.000000 1.770800 
# 
# From -- ./inp_files/4683.got.cif
#   From: 2010.05.17/outbox.cif.g08.bks.cpg/sg45_3_cif.got.tgz:4683.got - 2010.06.03 19:51:22.
