data_PCOD9376800
_publ_section_title
;
Structure prediction by ZEFSAII (Michael W. Deem and Ramdas Pophale) SiO2 
 PCOD9376800
Probable space group: I B A 2
;
_chemical_formula_sum "Si O2"
_cell_formula_units_Z 48
_cell_length_a 10.047560
_cell_length_b 8.316303
_cell_length_c 24.483735
_cell_angle_alpha 90.000000
_cell_angle_beta 90.000000
_cell_angle_gamma 90.000000
_cell_volume 2045.825478
_symmetry_space_group_name_H-M "I B A 2"
_symmetry_group_IT_number 45
_symmetry_cell_setting 'orthorhombic'
loop_
_space_group_symop_operation_xyz
x,y,z
-x,-y,z
-x,y,1/2+z
x,-y,1/2+z
1/2+x,1/2+y,1/2+z
1/2-x,1/2-y,1/2+z
1/2-x,1/2+y,z
1/2+x,1/2-y,z
loop_
_atom_site_type_symbol
_atom_site_label
_atom_site_fract_x
_atom_site_fract_y
_atom_site_fract_z
Si Si1 0.204525 0.299382 0.709390
Si Si2 0.148360 0.435258 0.879864
Si Si3 0.110600 0.860279 0.565704
Si Si4 0.131319 0.108292 0.939358
Si Si5 0.838321 0.448909 0.628618
Si Si6 0.645050 0.522218 0.285425
O O1 0.145982 0.199005 0.759353
O O2 0.115646 0.422098 0.674766
O O3 0.250913 0.168836 0.666097
O O4 0.327764 0.398052 0.735499
O O5 0.233175 0.510267 0.929684
O O6 0.237454 0.483616 0.827674
O O7 0.000000 0.500000 0.874268
O O8 0.082003 0.686086 0.593727
O O9 0.125150 0.830064 0.501289
O O10 0.244968 0.943598 0.589071
O O11 0.000000 0.000000 0.574608
O O12 0.135913 0.249024 0.894790
O O13 0.000000 0.000000 0.932504
O O14 0.500000 0.500000 0.309788
#
# Coordination Sequence:
#
# PCOD9376800 Si02
#       6
#     8   8   8   8   8   8
#     4   9  21  39  63  95 132 173 220 274 339 413
#     4  12  26  44  69 101 135 180 235 293 359 426
#     4  10  21  40  66  96 135 181 229 282 341 410
#     4  11  24  44  69 100 141 185 233 291 354 422
#     4   9  19  39  63  97 133 171 220 273 337 406
#     4  11  24  44  68  97 134 176 224 285 351 421
#
# _framework density 23.462410999999999
#
# number of rings (size 3 to 8) (size 9 to 14) (size 15 to 20)
#    0.000    1.667    0.000    3.500    0.000   11.333 
#    0.000   12.500    0.000    0.000    0.000    0.000 
#    0.000    0.000    0.000    0.000    0.000    0.000 
#
# Total GULP energy -134013.450675 kJ/mol
# GULP energy per Si atom -5583.893778 kJ/mol
# Density = 2.340901 g / cm^3
# Si number density = 23.462411 Si / 1000 Ang^3
#
#
#
# Elastic Constant Matrix: (Units=GPa)
#
#
# Indices 1 2 3 4 5 6 
#
# 1 148.8394 50.1708 54.7223 0.0000 0.0000 0.0000
# 2 50.1708 160.9656 72.4339 0.0000 0.0000 0.0000
# 3 54.7223 72.4339 143.6716 0.0000 0.0000 0.0000
# 4 0.0000 0.0000 0.0000 53.8825 0.0000 0.0000
# 5 0.0000 0.0000 0.0000 0.0000 10.1779 0.0000
# 6 0.0000 0.0000 0.0000 0.0000 0.0000 28.0441
#
#
#
# Elastic Compliance Matrix: (Units=1/GPa)
#
#
# Indices 1 2 3 4 5 6 
#
# 1 0.008071 -0.001465 -0.002336 0.000000 0.000000 0.000000
# 2 -0.001465 0.008301 -0.003627 0.000000 0.000000 0.000000
# 3 -0.002336 -0.003627 0.009679 0.000000 0.000000 0.000000
# 4 0.000000 0.000000 0.000000 0.018559 0.000000 0.000000
# 5 0.000000 0.000000 0.000000 0.000000 0.098252 0.000000
# 6 0.000000 0.000000 0.000000 0.000000 0.000000 0.035658
#
#
# Mechanical properties :
#
#
# Convention : Reuss Voigt Hill
#
# Bulk Modulus (GPa) = 89.31980 89.79231 89.55605
# Shear Modulus (GPa) = 25.36689 36.83088 31.09888
#
# Velocity S-wave (km/s) = 3.29168 3.96635 3.64466
# Velocity P-wave (km/s) = 7.25251 7.70257 7.48093
#
# Compressibility (1/GPa) = 0.01119573
#
# Stress axis : x y z
#
# Youngs Moduli (GPa) = 123.89884 120.46304 103.31893
#
# Poissons Ratio (x) = 0.17643 0.24133
# Poissons Ratio (y) = 0.18146 0.37478
# Poissons Ratio (z) = 0.28940 0.43697
#
# Static dielectric constant tensor:
#      x y z
#    x 1.864440 0.000000 0.000000 
#    y 0.000000 1.943500 0.000000 
#    z 0.000000 0.000000 1.889100 
# 
# From -- ./inp_files/9670.got.cif
#   From: 2010.05.17/outbox.cif.g08.bks.cpg/sg45_5_cif.got.tgz:9670.got - 2010.06.03 19:51:22.
