data_PCOD9376702
_publ_section_title
;
Structure prediction by ZEFSAII (Michael W. Deem and Ramdas Pophale) SiO2 
 PCOD9376702
Probable space group: I B A 2
;
_chemical_formula_sum "Si O2"
_cell_formula_units_Z 40
_cell_length_a 11.723077
_cell_length_b 18.158996
_cell_length_c 7.461887
_cell_angle_alpha 90.000000
_cell_angle_beta 90.000000
_cell_angle_gamma 90.000000
_cell_volume 1588.481344
_symmetry_space_group_name_H-M "I B A 2"
_symmetry_group_IT_number 45
_symmetry_cell_setting 'orthorhombic'
loop_
_space_group_symop_operation_xyz
x,y,z
-x,-y,z
-x,y,1/2+z
x,-y,1/2+z
1/2+x,1/2+y,1/2+z
1/2-x,1/2-y,1/2+z
1/2-x,1/2+y,z
1/2+x,1/2-y,z
loop_
_atom_site_type_symbol
_atom_site_label
_atom_site_fract_x
_atom_site_fract_y
_atom_site_fract_z
Si Si1 0.142523 0.556101 0.115410
Si Si2 0.352717 0.372020 0.507014
Si Si3 0.099121 0.844744 0.913922
Si Si4 0.841390 0.394522 0.521013
Si Si5 0.630636 0.184257 0.364032
O O1 0.135379 0.593410 0.309864
O O2 0.116088 0.470403 0.113061
O O3 0.273430 0.556845 0.038115
O O4 0.087418 0.612710 0.974509
O O5 0.477210 0.383385 0.429983
O O6 0.367244 0.342179 0.706375
O O7 0.268165 0.318006 0.399281
O O8 0.084874 0.758141 0.953195
O O9 0.203115 0.881574 0.020182
O O10 0.885000 0.330525 0.653777
#
# Coordination Sequence:
#
# PCOD9376702 Si02
#       5
#     8   8   8   8   8
#     4   9  20  36  55  89 117 156 193 242 305 357
#     4   9  21  35  53  85 119 151 201 236 299 354
#     4  11  21  36  58  87 122 160 198 248 300 364
#     4  11  19  35  60  84 122 156 192 245 304 366
#     4  10  21  38  57  86 120 158 199 248 296 366
#
# _framework density 25.181284000000002
#
# number of rings (size 3 to 8) (size 9 to 14) (size 15 to 20)
#    1.200    0.800    2.000    2.400    0.000    0.800 
#    3.600    4.000    0.000    0.000    0.000   11.200 
#    0.000    0.000    0.000    0.000    0.000    0.000 
#
# Total GULP energy -111610.700220 kJ/mol
# GULP energy per Si atom -5580.535011 kJ/mol
# Density = 2.512397 g / cm^3
# Si number density = 25.181284 Si / 1000 Ang^3
#
#
#
# Elastic Constant Matrix: (Units=GPa)
#
#
# Indices 1 2 3 4 5 6 
#
# 1 126.4772 8.1866 31.6146 0.0000 0.0000 0.0000
# 2 8.1866 87.1731 2.7247 0.0000 0.0000 0.0000
# 3 31.6146 2.7247 100.6075 0.0002 0.0000 -0.0002
# 4 0.0000 0.0000 0.0002 30.1079 0.0000 -0.0001
# 5 0.0000 0.0000 0.0000 0.0000 35.3581 0.0000
# 6 0.0000 0.0000 -0.0002 -0.0001 0.0000 9.0563
#
#
#
# Elastic Compliance Matrix: (Units=1/GPa)
#
#
# Indices 1 2 3 4 5 6 
#
# 1 0.008626 -0.000726 -0.002691 0.000000 0.000000 0.000000
# 2 -0.000726 0.011542 -0.000084 0.000000 0.000000 0.000000
# 3 -0.002691 -0.000084 0.010788 0.000000 0.000000 0.000000
# 4 0.000000 0.000000 0.000000 0.033214 0.000000 0.000000
# 5 0.000000 0.000000 0.000000 0.000000 0.028282 0.000000
# 6 0.000000 0.000000 0.000000 0.000000 0.000000 0.110421
#
#
# Mechanical properties :
#
#
# Convention : Reuss Voigt Hill
#
# Bulk Modulus (GPa) = 41.74834 44.36773 43.05804
# Shear Modulus (GPa) = 22.95055 33.01992 27.98523
#
# Velocity S-wave (km/s) = 3.02224 3.62510 3.33731
# Velocity P-wave (km/s) = 5.36597 5.93122 5.65566
#
# Compressibility (1/GPa) = 0.02395305
#
# Stress axis : x y z
#
# Youngs Moduli (GPa) = 115.92578 86.63821 92.69973
#
# Poissons Ratio (x) = 0.06290 0.24946
# Poissons Ratio (y) = 0.08416 0.00783
# Poissons Ratio (z) = 0.31196 0.00732
#
# Static dielectric constant tensor:
#      x y z
#    x 2.157080 0.000000 0.000000 
#    y 0.000000 1.978820 0.000000 
#    z 0.000000 0.000000 1.938330 
# 
# From -- ./inp_files/1656.got.cif
#   From: 2010.05.17/outbox.cif.g08.bks.cpg/sg45_1_cif.got.tgz:1656.got - 2010.06.03 19:51:22.
