data_PCOD9376481
_publ_section_title
;
Structure prediction by ZEFSAII (Michael W. Deem and Ramdas Pophale) SiO2 
 PCOD9376481
Probable space group: I B A 2
;
_chemical_formula_sum "Si O2"
_cell_formula_units_Z 40
_cell_length_a 11.281524
_cell_length_b 13.697141
_cell_length_c 9.456195
_cell_angle_alpha 90.000000
_cell_angle_beta 90.000000
_cell_angle_gamma 90.000000
_cell_volume 1461.214986
_symmetry_space_group_name_H-M "I B A 2"
_symmetry_group_IT_number 45
_symmetry_cell_setting 'orthorhombic'
loop_
_space_group_symop_operation_xyz
x,y,z
-x,-y,z
-x,y,1/2+z
x,-y,1/2+z
1/2+x,1/2+y,1/2+z
1/2-x,1/2-y,1/2+z
1/2-x,1/2+y,z
1/2+x,1/2-y,z
loop_
_atom_site_type_symbol
_atom_site_label
_atom_site_fract_x
_atom_site_fract_y
_atom_site_fract_z
Si Si1 0.391914 0.807564 0.391030
Si Si2 0.495030 0.336417 0.707745
Si Si3 0.172707 0.494202 0.519647
Si Si4 0.309901 0.213616 0.578811
Si Si5 0.822727 0.006847 0.270743
O O1 0.503077 0.753814 0.316180
O O2 0.415510 0.914534 0.455398
O O3 0.308131 0.807293 0.249440
O O4 0.310928 0.755805 0.511626
O O5 0.421180 0.289237 0.579099
O O6 0.402256 0.411213 0.778272
O O7 0.605119 0.408483 0.689095
O O8 0.161131 0.610103 0.508029
O O9 0.204819 0.478573 0.683473
O O10 0.289610 0.466135 0.429163
#
# Coordination Sequence:
#
# PCOD9376481 Si02
#       5
#     8   8   8   8   8
#     4  10  20  38  58  89 135 181 227 285 345 429
#     4   9  21  36  54  87 140 172 214 291 360 400
#     4  12  20  37  66 100 129 184 234 284 347 430
#     4  10  20  38  58  89 135 181 227 285 345 429
#     4  11  21  36  62  95 139 171 226 295 357 407
#
# _framework density 27.374479999999998
#
# number of rings (size 3 to 8) (size 9 to 14) (size 15 to 20)
#    1.200    0.400    6.000    0.000    0.000    3.200 
#    0.000    0.000    0.000    0.000    0.000    8.400 
#    0.000    0.000    0.000    0.000    0.000    0.000 
#
# Total GULP energy -111593.867379 kJ/mol
# GULP energy per Si atom -5579.693369 kJ/mol
# Density = 2.731217 g / cm^3
# Si number density = 27.374480 Si / 1000 Ang^3
#
#
#
# Elastic Constant Matrix: (Units=GPa)
#
#
# Indices 1 2 3 4 5 6 
#
# 1 48.1674 12.9117 -1.6020 0.0000 0.0000 0.0000
# 2 12.9117 173.8928 26.5991 0.0000 0.0000 0.0000
# 3 -1.6020 26.5991 109.1802 0.0000 0.0000 0.0000
# 4 0.0000 0.0000 0.0000 56.4081 0.0000 0.0000
# 5 0.0000 0.0000 0.0000 0.0000 30.7449 0.0000
# 6 0.0000 0.0000 0.0000 0.0000 0.0000 47.6506
#
#
#
# Elastic Compliance Matrix: (Units=1/GPa)
#
#
# Indices 1 2 3 4 5 6 
#
# 1 0.021237 -0.001687 0.000723 0.000000 0.000000 0.000000
# 2 -0.001687 0.006107 -0.001513 0.000000 0.000000 0.000000
# 3 0.000723 -0.001513 0.009538 0.000000 0.000000 0.000000
# 4 0.000000 0.000000 0.000000 0.017728 0.000000 0.000000
# 5 0.000000 0.000000 0.000000 0.000000 0.032526 0.000000
# 6 0.000000 0.000000 0.000000 0.000000 0.000000 0.020986
#
#
# Mechanical properties :
#
#
# Convention : Reuss Voigt Hill
#
# Bulk Modulus (GPa) = 31.32031 45.22865 38.27448
# Shear Modulus (GPa) = 40.41378 46.51616 43.46497
#
# Velocity S-wave (km/s) = 3.84647 4.12667 3.98903
# Velocity P-wave (km/s) = 5.58511 6.26610 5.93538
#
# Compressibility (1/GPa) = 0.03192817
#
# Stress axis : x y z
#
# Youngs Moduli (GPa) = 47.08702 163.73728 104.84046
#
# Poissons Ratio (x) = 0.27630 -0.07577
# Poissons Ratio (y) = 0.07946 0.15859
# Poissons Ratio (z) = -0.03403 0.24768
#
# Static dielectric constant tensor:
#      x y z
#    x 2.246520 0.000000 0.000000 
#    y 0.000000 2.165980 0.000000 
#    z 0.000000 0.000000 2.038320 
# 
# From -- ./inp_files/1616.got.cif
#   From: 2010.05.17/outbox.cif.g08.bks.cpg/sg45_1_cif.got.tgz:1616.got - 2010.06.03 19:51:22.
