data_PCOD9376980
_publ_section_title
;
Structure prediction by ZEFSAII (Michael W. Deem and Ramdas Pophale) SiO2 
 PCOD9376980
Probable space group: I B A 2
;
_chemical_formula_sum "Si O2"
_cell_formula_units_Z 60
_cell_length_a 13.540812
_cell_length_b 28.112488
_cell_length_c 8.452020
_cell_angle_alpha 90.000000
_cell_angle_beta 90.000000
_cell_angle_gamma 90.000000
_cell_volume 3217.395926
_symmetry_space_group_name_H-M "I B A 2"
_symmetry_group_IT_number 45
_symmetry_cell_setting 'orthorhombic'
loop_
_space_group_symop_operation_xyz
x,y,z
-x,-y,z
-x,y,1/2+z
x,-y,1/2+z
1/2+x,1/2+y,1/2+z
1/2-x,1/2-y,1/2+z
1/2-x,1/2+y,z
1/2+x,1/2-y,z
loop_
_atom_site_type_symbol
_atom_site_label
_atom_site_fract_x
_atom_site_fract_y
_atom_site_fract_z
Si Si1 0.000000 0.500000 0.699940
Si Si2 0.282651 0.857548 0.076329
Si Si3 0.860112 0.173839 0.347422
Si Si4 0.049685 0.795599 0.653375
Si Si5 0.254175 0.272339 0.822765
Si Si6 0.906211 0.564849 0.935897
Si Si7 0.960331 0.350210 0.815210
Si Si8 0.913544 0.709750 0.603523
O O1 0.087114 0.477049 0.806280
O O2 0.049724 0.540046 0.591253
O O3 0.204530 0.858002 0.223150
O O4 0.386770 0.851572 0.167550
O O5 0.260094 0.813555 0.956419
O O6 0.306494 0.905591 0.975264
O O7 0.897734 0.168382 0.529448
O O8 0.795652 0.222093 0.363941
O O9 0.963046 0.180810 0.254713
O O10 0.132022 0.773026 0.769365
O O11 0.989077 0.752685 0.568047
O O12 0.195531 0.279083 0.658249
O O13 0.986257 0.602051 0.867766
O O14 0.044371 0.314207 0.761541
O O15 0.908589 0.328255 0.966177
#
# Coordination Sequence:
#
# PCOD9376980 Si02
#       8
#     4   8   8   8   8   8   8   8
#     4  10  22  40  60  86 126 152 186 234 332 368
#     4  12  23  37  56  84 117 157 212 240 299 367
#     4  11  23  37  54  77 115 159 212 261 302 348
#     4  11  23  38  51  76 114 168 203 263 312 324
#     4  11  22  35  52  78 112 157 209 259 296 343
#     4  11  21  37  59  86 119 159 180 243 296 385
#     4  12  19  33  53  83 109 147 196 242 286 357
#     4  11  20  32  53  75 109 151 209 249 292 346
#
# _framework density 18.648620999999999
#
# number of rings (size 3 to 8) (size 9 to 14) (size 15 to 20)
#    0.000    0.800    4.000    5.600    0.000    3.200 
#    0.000    0.000    0.000    0.000    0.000    0.000 
#    0.000   12.800    0.000    0.000    0.000    0.000 
#
# Total GULP energy -167164.410960 kJ/mol
# GULP energy per Si atom -5572.147032 kJ/mol
# Density = 1.860618 g / cm^3
# Si number density = 18.648621 Si / 1000 Ang^3
#
#
#
# Elastic Constant Matrix: (Units=GPa)
#
#
# Indices 1 2 3 4 5 6 
#
# 1 104.9212 16.8743 28.6821 0.0003 -0.0002 -0.0001
# 2 16.8743 53.2002 27.0138 -0.0014 0.0000 0.0002
# 3 28.6821 27.0138 91.9288 -0.0040 0.0023 0.0008
# 4 0.0003 -0.0014 -0.0040 33.9133 0.0002 0.0003
# 5 -0.0002 0.0000 0.0023 0.0002 40.2648 -0.0002
# 6 -0.0001 0.0002 0.0008 0.0003 -0.0002 22.6215
#
#
#
# Elastic Compliance Matrix: (Units=1/GPa)
#
#
# Indices 1 2 3 4 5 6 
#
# 1 0.010594 -0.001977 -0.002724 0.000000 0.000000 0.000000
# 2 -0.001977 0.022462 -0.005984 0.000000 0.000000 0.000000
# 3 -0.002724 -0.005984 0.013486 0.000001 -0.000001 0.000000
# 4 0.000000 0.000000 0.000001 0.029487 0.000000 0.000000
# 5 0.000000 0.000000 -0.000001 0.000000 0.024836 0.000000
# 6 0.000000 0.000000 0.000000 0.000000 0.000000 0.044206
#
#
# Mechanical properties :
#
#
# Convention : Reuss Voigt Hill
#
# Bulk Modulus (GPa) = 39.72621 43.91006 41.81813
# Shear Modulus (GPa) = 28.59892 31.19192 29.89542
#
# Velocity S-wave (km/s) = 3.92033 4.09420 4.00820
# Velocity P-wave (km/s) = 6.46844 6.77842 6.62524
#
# Compressibility (1/GPa) = 0.02517230
#
# Stress axis : x y z
#
# Youngs Moduli (GPa) = 94.39626 44.51880 74.14870
#
# Poissons Ratio (x) = 0.08800 0.20201
# Poissons Ratio (y) = 0.18660 0.44370
# Poissons Ratio (z) = 0.25717 0.26640
#
# Static dielectric constant tensor:
#      x y z
#    x 1.674890 0.000000 0.000000 
#    y 0.000000 1.679340 0.000000 
#    z 0.000000 0.000000 1.716640 
# 
# From -- ./inp_files/1489.got.cif
#   From: 2010.05.17/outbox.cif.g08.bks.cpg/sg45_1_cif.got.tgz:1489.got - 2010.06.03 19:51:22.
