data_PCOD9376595
_publ_section_title
;
Structure prediction by ZEFSAII (Michael W. Deem and Ramdas Pophale) SiO2 
 PCOD9376595
Probable space group: I B A 2
;
_chemical_formula_sum "Si O2"
_cell_formula_units_Z 48
_cell_length_a 11.102653
_cell_length_b 21.687565
_cell_length_c 8.693915
_cell_angle_alpha 90.000000
_cell_angle_beta 90.000000
_cell_angle_gamma 90.000000
_cell_volume 2093.403521
_symmetry_space_group_name_H-M "I B A 2"
_symmetry_group_IT_number 45
_symmetry_cell_setting 'orthorhombic'
loop_
_space_group_symop_operation_xyz
x,y,z
-x,-y,z
-x,y,1/2+z
x,-y,1/2+z
1/2+x,1/2+y,1/2+z
1/2-x,1/2-y,1/2+z
1/2-x,1/2+y,z
1/2+x,1/2-y,z
loop_
_atom_site_type_symbol
_atom_site_label
_atom_site_fract_x
_atom_site_fract_y
_atom_site_fract_z
Si Si1 0.000000 0.000000 0.268320
Si Si2 0.500000 0.000000 0.146213
Si Si3 0.836255 0.217623 0.206460
Si Si4 0.842977 0.895207 0.207939
Si Si5 0.912855 0.227080 0.844938
Si Si6 0.805992 0.090631 0.374376
Si Si7 0.835646 0.463999 0.385609
O O1 0.930365 0.052516 0.359810
O O2 0.096139 0.038678 0.174059
O O3 0.431891 0.047568 0.253005
O O4 0.596225 0.034826 0.043476
O O5 0.705196 0.245936 0.255062
O O6 0.813551 0.145495 0.251758
O O7 0.948191 0.247844 0.307323
O O8 0.877286 0.225557 0.026750
O O9 0.922509 0.840350 0.267435
O O10 0.763140 0.913431 0.355056
O O11 0.786671 0.879499 0.042946
O O12 0.711360 0.034226 0.360470
#
# Coordination Sequence:
#
# PCOD9376595 Si02
#       7
#     4   4   8   8   8   8   8
#     4  10  22  34  72 100 146 174 222 276 364 410
#     4  10  20  42  56  88 136 186 224 274 330 428
#     4  12  27  50  76 105 143 188 246 307 370 439
#     4  11  22  40  65 102 138 179 229 289 356 423
#     4  12  27  50  76 105 143 188 246 307 370 439
#     4  11  22  40  65 102 138 179 229 289 356 423
#     4  10  22  38  64  92 140 180 233 281 354 421
#
# _framework density 22.929167
#
# number of rings (size 3 to 8) (size 9 to 14) (size 15 to 20)
#    0.000    1.000    3.333    3.500    2.333    1.333 
#    6.000    0.000    0.000    0.000    0.000    0.000 
#    0.000    0.000    0.000    0.000    0.000    0.000 
#
# Total GULP energy -133635.672707 kJ/mol
# GULP energy per Si atom -5568.153029 kJ/mol
# Density = 2.287698 g / cm^3
# Si number density = 22.929167 Si / 1000 Ang^3
#
#
#
# Elastic Constant Matrix: (Units=GPa)
#
#
# Indices 1 2 3 4 5 6 
#
# 1 93.3179 22.2509 6.6036 0.0004 -0.0008 0.0001
# 2 22.2509 52.6939 7.2554 0.0006 -0.0014 0.0000
# 3 6.6036 7.2554 124.1471 0.0010 -0.0022 0.0004
# 4 0.0004 0.0006 0.0010 11.1591 -0.0010 0.0001
# 5 -0.0008 -0.0014 -0.0022 -0.0010 -30.9385 -0.0006
# 6 0.0001 0.0000 0.0004 0.0001 -0.0006 12.5673
#
#
#
# Elastic Compliance Matrix: (Units=1/GPa)
#
#
# Indices 1 2 3 4 5 6 
#
# 1 0.011930 -0.004991 -0.000343 0.000000 0.000000 0.000000
# 2 -0.004991 0.021219 -0.000975 -0.000001 -0.000001 0.000000
# 3 -0.000343 -0.000975 0.008130 -0.000001 -0.000001 0.000000
# 4 0.000000 -0.000001 -0.000001 0.089613 -0.000003 -0.000001
# 5 0.000000 -0.000001 -0.000001 -0.000003 -0.032322 -0.000001
# 6 0.000000 0.000000 0.000000 -0.000001 -0.000001 0.079572
#
#
# Mechanical properties :
#
#
# Convention : Reuss Voigt Hill
#
# Bulk Modulus (GPa) = 34.88783 38.04208 36.46495
# Shear Modulus (GPa) = 24.96097 14.16085 19.56091
#
# Velocity S-wave (km/s) = 3.30299 2.48783 2.92396
# Velocity P-wave (km/s) = 5.45847 4.98794 5.22850
#
# Compressibility (1/GPa) = 0.02866329
#
# Stress axis : x y z
#
# Youngs Moduli (GPa) = 83.82039 47.12749 122.99884
#
# Poissons Ratio (x) = 0.23519 0.04218
# Poissons Ratio (y) = 0.41831 0.11988
# Poissons Ratio (z) = 0.02875 0.04593
#
# Static dielectric constant tensor:
#      x y z
#    x 1.956480 0.000000 0.000000 
#    y 0.000000 1.858900 0.000000 
#    z 0.000000 0.000000 1.922500 
# 
# From -- ./inp_files/1369.got.cif
#   From: 2010.05.17/outbox.cif.g08.bks.cpg/sg45_1_cif.got.tgz:1369.got - 2010.06.03 19:51:22.
