data_PCOD9376134
_publ_section_title
;
Structure prediction by ZEFSAII (Michael W. Deem and Ramdas Pophale) SiO2 
 PCOD9376134
Probable space group: I B A 2
;
_chemical_formula_sum "Si O2"
_cell_formula_units_Z 44
_cell_length_a 16.464579
_cell_length_b 12.335460
_cell_length_c 8.944169
_cell_angle_alpha 90.000000
_cell_angle_beta 90.000000
_cell_angle_gamma 90.000000
_cell_volume 1816.544228
_symmetry_space_group_name_H-M "I B A 2"
_symmetry_group_IT_number 45
_symmetry_cell_setting 'orthorhombic'
loop_
_space_group_symop_operation_xyz
x,y,z
-x,-y,z
-x,y,1/2+z
x,-y,1/2+z
1/2+x,1/2+y,1/2+z
1/2-x,1/2-y,1/2+z
1/2-x,1/2+y,z
1/2+x,1/2-y,z
loop_
_atom_site_type_symbol
_atom_site_label
_atom_site_fract_x
_atom_site_fract_y
_atom_site_fract_z
Si Si1 0.422288 0.870817 0.078330
Si Si2 0.772742 0.377333 0.362963
Si Si3 0.646381 0.555428 0.273823
Si Si4 0.715805 0.240844 0.594619
Si Si5 0.000000 0.500000 0.827143
Si Si6 0.603221 0.638843 0.581551
O O1 0.444443 0.747593 0.120843
O O2 0.433019 0.950177 0.217136
O O3 0.334169 0.885173 0.002146
O O4 0.478638 0.905152 0.941354
O O5 0.719883 0.484452 0.344689
O O6 0.714531 0.276030 0.419319
O O7 0.823143 0.343954 0.214304
O O8 0.685611 0.647524 0.170705
O O9 0.596128 0.608193 0.408122
O O10 0.595614 0.468224 0.179224
O O11 0.804023 0.181754 0.602061
#
# Coordination Sequence:
#
# PCOD9376134 Si02
#       6
#     8   8   8   8   4   8
#     4  10  22  43  59  90 105 159 195 260 289 338
#     4  10  21  32  57  84 127 150 194 218 298 345
#     4  11  19  34  53  90 127 156 177 226 274 380
#     4  10  18  33  48  87 124 161 182 218 266 383
#     4  10  24  44  66  76 114 142 218 262 294 320
#     4  10  22  35  58  85 126 154 193 219 294 348
#
# _framework density 24.221816
#
# number of rings (size 3 to 8) (size 9 to 14) (size 15 to 20)
#    0.000    1.818    5.455    0.000    5.091    0.000 
#    0.000    5.455    0.000    3.273    0.000    0.000 
#    0.000    0.000    0.000    0.000    0.000    0.000 
#
# Total GULP energy -122500.614341 kJ/mol
# GULP energy per Si atom -5568.209743 kJ/mol
# Density = 2.416669 g / cm^3
# Si number density = 24.221816 Si / 1000 Ang^3
#
#
#
# Elastic Constant Matrix: (Units=GPa)
#
#
# Indices 1 2 3 4 5 6 
#
# 1 13.0682 10.3225 3.2372 0.0000 0.0000 0.0000
# 2 10.3225 124.9561 30.6304 0.0000 0.0000 0.0000
# 3 3.2372 30.6304 91.2032 0.0000 0.0000 0.0000
# 4 0.0000 0.0000 0.0000 46.2920 0.0000 0.0000
# 5 0.0000 0.0000 0.0000 0.0000 -4.5109 0.0000
# 6 0.0000 0.0000 0.0000 0.0000 0.0000 4.8557
#
#
#
# Elastic Compliance Matrix: (Units=1/GPa)
#
#
# Indices 1 2 3 4 5 6 
#
# 1 0.081903 -0.006596 -0.000692 0.000000 0.000000 0.000000
# 2 -0.006596 0.009252 -0.002873 0.000000 0.000000 0.000000
# 3 -0.000692 -0.002873 0.011954 0.000000 0.000000 0.000000
# 4 0.000000 0.000000 0.000000 0.021602 0.000000 0.000000
# 5 0.000000 0.000000 0.000000 0.000000 -0.221684 0.000000
# 6 0.000000 0.000000 0.000000 0.000000 0.000000 0.205944
#
#
# Mechanical properties :
#
#
# Convention : Reuss Voigt Hill
#
# Bulk Modulus (GPa) = 12.07920 35.28974 23.68447
# Shear Modulus (GPa) = 31.86948 21.66318 26.76633
#
# Velocity S-wave (km/s) = 3.63124 2.99384 3.32784
# Velocity P-wave (km/s) = 4.75173 5.15284 4.95635
#
# Compressibility (1/GPa) = 0.08278692
#
# Stress axis : x y z
#
# Youngs Moduli (GPa) = 12.20952 108.08445 83.65386
#
# Poissons Ratio (x) = 0.71297 0.05786
# Poissons Ratio (y) = 0.08054 0.24035
# Poissons Ratio (z) = 0.00845 0.31054
#
# Static dielectric constant tensor:
#      x y z
#    x 2.086390 0.000000 0.000000 
#    y 0.000000 1.989270 0.000000 
#    z 0.000000 0.000000 2.014580 
# 
# From -- ./inp_files/1339.got.cif
#   From: 2010.05.17/outbox.cif.g08.bks.cpg/sg45_1_cif.got.tgz:1339.got - 2010.06.03 19:51:22.
