data_PCOD9376565
_publ_section_title
;
Structure prediction by ZEFSAII (Michael W. Deem and Ramdas Pophale) SiO2 
 PCOD9376565
Probable space group: I B A 2
;
_chemical_formula_sum "Si O2"
_cell_formula_units_Z 60
_cell_length_a 9.228276
_cell_length_b 16.807468
_cell_length_c 19.034878
_cell_angle_alpha 90.000000
_cell_angle_beta 90.000000
_cell_angle_gamma 90.000000
_cell_volume 2952.384833
_symmetry_space_group_name_H-M "I B A 2"
_symmetry_group_IT_number 45
_symmetry_cell_setting 'orthorhombic'
loop_
_space_group_symop_operation_xyz
x,y,z
-x,-y,z
-x,y,1/2+z
x,-y,1/2+z
1/2+x,1/2+y,1/2+z
1/2-x,1/2-y,1/2+z
1/2-x,1/2+y,z
1/2+x,1/2-y,z
loop_
_atom_site_type_symbol
_atom_site_label
_atom_site_fract_x
_atom_site_fract_y
_atom_site_fract_z
Si Si1 0.165640 0.817445 0.909420
Si Si2 0.334705 0.176595 0.016090
Si Si3 0.456880 0.907975 0.918560
Si Si4 0.794998 0.415421 0.814403
Si Si5 0.097502 0.924438 0.449406
Si Si6 0.571792 0.174238 0.671114
Si Si7 0.500000 0.000000 0.213989
Si Si8 0.188304 0.253148 0.256960
O O1 0.292033 0.883729 0.907647
O O2 0.144239 0.781595 0.832287
O O3 0.016293 0.854922 0.934535
O O4 0.208942 0.748724 0.964659
O O5 0.370487 0.199676 0.095030
O O6 0.481361 0.140690 0.983649
O O7 0.213236 0.108060 0.005759
O O8 0.556333 0.884886 0.851948
O O9 0.500000 0.000000 0.928863
O O10 0.687118 0.439542 0.876847
O O11 0.736391 0.338902 0.773094
O O12 0.858743 0.482478 0.763032
O O13 0.000000 0.000000 0.469536
O O14 0.527108 0.081183 0.671670
O O15 0.702726 0.190603 0.723822
O O16 0.439035 0.225037 0.702697
#
# Coordination Sequence:
#
# PCOD9376565 Si02
#       8
#     8   8   8   8   8   8   4   8
#     4  12  22  40  73  95 133 170 227 280 327 393
#     4  11  26  43  65  97 133 182 219 270 340 404
#     4  11  22  38  69  95 127 175 227 267 328 397
#     4  10  20  40  65 100 130 164 225 270 337 386
#     4  11  24  39  65 103 135 164 222 284 333 382
#     4  11  27  44  69  95 141 173 228 268 344 403
#     4  10  22  44  70  94 132 182 218 268 338 420
#     4  11  23  41  67 101 127 176 222 283 323 401
#
# _framework density 20.322552999999999
#
# number of rings (size 3 to 8) (size 9 to 14) (size 15 to 20)
#    0.000    1.067    3.333    4.800    6.533    0.000 
#    0.000    0.000    2.933    0.000    0.000    0.000 
#    0.000    0.000    0.000    0.000    0.000    0.000 
#
# Total GULP energy -167524.511019 kJ/mol
# GULP energy per Si atom -5584.150367 kJ/mol
# Density = 2.027630 g / cm^3
# Si number density = 20.322553 Si / 1000 Ang^3
#
#
#
# Elastic Constant Matrix: (Units=GPa)
#
#
# Indices 1 2 3 4 5 6 
#
# 1 93.6615 28.7062 19.2663 0.0000 0.0000 0.0000
# 2 28.7062 88.8589 21.3542 0.0000 0.0000 0.0000
# 3 19.2663 21.3542 76.1211 0.0000 0.0000 0.0000
# 4 0.0000 0.0000 0.0000 2.8522 0.0000 0.0000
# 5 0.0000 0.0000 0.0000 0.0000 15.9580 0.0000
# 6 0.0000 0.0000 0.0000 0.0000 0.0000 34.8429
#
#
#
# Elastic Compliance Matrix: (Units=1/GPa)
#
#
# Indices 1 2 3 4 5 6 
#
# 1 0.012161 -0.003419 -0.002119 0.000000 0.000000 0.000000
# 2 -0.003419 0.013029 -0.002790 0.000000 0.000000 0.000000
# 3 -0.002119 -0.002790 0.014456 0.000000 0.000000 0.000000
# 4 0.000000 0.000000 0.000000 0.350611 0.000000 0.000000
# 5 0.000000 0.000000 0.000000 0.000000 0.062664 0.000000
# 6 0.000000 0.000000 0.000000 0.000000 0.000000 0.028700
#
#
# Mechanical properties :
#
#
# Convention : Reuss Voigt Hill
#
# Bulk Modulus (GPa) = 43.49700 44.14386 43.82043
# Shear Modulus (GPa) = 9.88261 23.35161 16.61711
#
# Velocity S-wave (km/s) = 2.20759 3.39344 2.86259
# Velocity P-wave (km/s) = 5.28656 6.09284 5.70396
#
# Compressibility (1/GPa) = 0.02299009
#
# Stress axis : x y z
#
# Youngs Moduli (GPa) = 82.23318 76.75300 69.17672
#
# Poissons Ratio (x) = 0.26245 0.14656
# Poissons Ratio (y) = 0.28119 0.19297
# Poissons Ratio (z) = 0.17422 0.21410
#
# Static dielectric constant tensor:
#      x y z
#    x 1.709660 0.000000 0.000000 
#    y 0.000000 1.772080 0.000000 
#    z 0.000000 0.000000 1.741020 
# 
# From -- ./inp_files/7687.got.cif
#   From: 2010.05.17/outbox.cif.g08.bks.cpg/sg45_4_cif.got.tgz:7687.got - 2010.06.03 19:51:22.
