data_PCOD9376120
_publ_section_title
;
Structure prediction by ZEFSAII (Michael W. Deem and Ramdas Pophale) SiO2 
 PCOD9376120
Probable space group: I B A 2
;
_chemical_formula_sum "Si O2"
_cell_formula_units_Z 48
_cell_length_a 6.828316
_cell_length_b 20.077804
_cell_length_c 12.414378
_cell_angle_alpha 90.000000
_cell_angle_beta 90.000000
_cell_angle_gamma 90.000000
_cell_volume 1701.981309
_symmetry_space_group_name_H-M "I B A 2"
_symmetry_group_IT_number 45
_symmetry_cell_setting 'orthorhombic'
loop_
_space_group_symop_operation_xyz
x,y,z
-x,-y,z
-x,y,1/2+z
x,-y,1/2+z
1/2+x,1/2+y,1/2+z
1/2-x,1/2-y,1/2+z
1/2-x,1/2+y,z
1/2+x,1/2-y,z
loop_
_atom_site_type_symbol
_atom_site_label
_atom_site_fract_x
_atom_site_fract_y
_atom_site_fract_z
Si Si1 0.332102 0.309916 0.121580
Si Si2 0.736631 0.511753 0.857863
Si Si3 0.236631 0.988247 0.615620
Si Si4 0.218581 0.342133 0.578284
Si Si5 0.832102 0.190084 0.351903
Si Si6 0.718582 0.842133 0.395198
O O1 0.548891 0.337675 0.106439
O O2 0.355542 0.229978 0.115302
O O3 0.249848 0.327056 0.236741
O O4 0.205768 0.338191 0.024636
O O5 0.500000 0.500000 0.859118
O O6 0.785969 0.482399 0.736741
O O7 0.828523 0.586193 0.851480
O O8 0.783922 0.500000 0.986741
O O9 0.328523 0.913807 0.622002
O O10 0.000000 0.000000 0.614364
O O11 0.205768 0.338191 0.448847
O O12 0.855542 0.270022 0.358181
O O13 0.048890 0.162325 0.367044
#
# Coordination Sequence:
#
# PCOD9376120 Si02
#       6
#     8   8   8   8   8   8
#     4  10  18  31  49  71 105 136 161 202 250 302
#     4  10  19  31  48  71  99 130 167 210 248 287
#     4  10  19  31  48  71  99 130 167 210 248 287
#     4  10  21  32  49  79 104 130 167 203 252 306
#     4  10  18  31  49  71 105 136 161 202 250 302
#     4  10  21  32  49  79 104 130 167 203 252 306
#
# _framework density 28.202427
#
# number of rings (size 3 to 8) (size 9 to 14) (size 15 to 20)
#    0.000    2.000    0.000    7.000    0.000    4.000 
#    0.000    0.000    0.000    0.000    0.000   42.000 
#    0.000  122.667    0.000    0.000    0.000    0.000 
#
# Total GULP energy -133899.347228 kJ/mol
# GULP energy per Si atom -5579.139468 kJ/mol
# Density = 2.813824 g / cm^3
# Si number density = 28.202427 Si / 1000 Ang^3
#
#
#
# Elastic Constant Matrix: (Units=GPa)
#
#
# Indices 1 2 3 4 5 6 
#
# 1 85.4156 -6.7062 24.0401 0.0000 0.0000 0.0000
# 2 -6.7062 136.8390 68.4125 0.0000 0.0000 0.0000
# 3 24.0401 68.4125 349.4018 -0.0001 0.0000 0.0000
# 4 0.0000 0.0000 -0.0001 -5.1232 0.0000 0.0000
# 5 0.0000 0.0000 0.0000 0.0000 0.6286 0.0000
# 6 0.0000 0.0000 0.0000 0.0000 0.0000 26.3413
#
#
#
# Elastic Compliance Matrix: (Units=1/GPa)
#
#
# Indices 1 2 3 4 5 6 
#
# 1 0.012091 0.001118 -0.001051 0.000000 0.000000 0.000000
# 2 0.001118 0.008204 -0.001683 0.000000 0.000000 0.000000
# 3 -0.001051 -0.001683 0.003264 0.000000 0.000000 0.000000
# 4 0.000000 0.000000 0.000000 -0.195191 -0.000005 0.000000
# 5 0.000000 0.000000 0.000000 -0.000005 1.590958 0.000000
# 6 0.000000 0.000000 0.000000 0.000000 0.000000 0.037963
#
#
# Mechanical properties :
#
#
# Convention : Reuss Voigt Hill
#
# Bulk Modulus (GPa) = 49.19631 82.57214 65.88423
# Shear Modulus (GPa) = 3.40763 36.76333 20.08548
#
# Velocity S-wave (km/s) = 1.10041 3.61439 2.67158
# Velocity P-wave (km/s) = 4.36994 6.83816 5.73833
#
# Compressibility (1/GPa) = 0.02032673
#
# Stress axis : x y z
#
# Youngs Moduli (GPa) = 82.70633 121.88879 306.38020
#
# Poissons Ratio (x) = -0.13626 0.32194
# Poissons Ratio (y) = -0.09246 0.51573
# Poissons Ratio (z) = 0.08691 0.20517
#
# Static dielectric constant tensor:
#      x y z
#    x 2.324960 0.000000 0.000000 
#    y 0.000000 2.141160 0.000000 
#    z 0.000000 0.000000 2.265480 
# 
# From -- ./inp_files/3698.got.cif
#   From: 2010.05.17/outbox.cif.g08.bks.cpg/sg45_2_cif.got.tgz:3698.got - 2010.06.03 19:51:22.
