data_PCOD9376349
_publ_section_title
;
Structure prediction by ZEFSAII (Michael W. Deem and Ramdas Pophale) SiO2 
 PCOD9376349
Probable space group: I B A 2
;
_chemical_formula_sum "Si O2"
_cell_formula_units_Z 44
_cell_length_a 12.686232
_cell_length_b 23.343318
_cell_length_c 8.948301
_cell_angle_alpha 90.000000
_cell_angle_beta 90.000000
_cell_angle_gamma 90.000000
_cell_volume 2649.938653
_symmetry_space_group_name_H-M "I B A 2"
_symmetry_group_IT_number 45
_symmetry_cell_setting 'orthorhombic'
loop_
_space_group_symop_operation_xyz
x,y,z
-x,-y,z
-x,y,1/2+z
x,-y,1/2+z
1/2+x,1/2+y,1/2+z
1/2-x,1/2-y,1/2+z
1/2-x,1/2+y,z
1/2+x,1/2-y,z
loop_
_atom_site_type_symbol
_atom_site_label
_atom_site_fract_x
_atom_site_fract_y
_atom_site_fract_z
Si Si1 0.352256 0.665845 0.392500
Si Si2 0.408196 0.787195 0.230687
Si Si3 0.500000 0.500000 0.616983
Si Si4 0.382575 0.198068 0.378883
Si Si5 0.177171 0.181004 0.743802
Si Si6 0.455639 0.583292 0.863074
O O1 0.393571 0.723401 0.305461
O O2 0.225355 0.661085 0.367148
O O3 0.359612 0.673574 0.572281
O O4 0.427111 0.611921 0.353100
O O5 0.509285 0.819144 0.298569
O O6 0.301984 0.822118 0.262318
O O7 0.409316 0.785566 0.050423
O O8 0.433947 0.540365 0.726373
O O9 0.556676 0.544936 0.509152
O O10 0.353214 0.255918 0.293134
O O11 0.121156 0.136250 0.850426
#
# Coordination Sequence:
#
# PCOD9376349 Si02
#       6
#     8   8   4   8   8   8
#     4  10  20  33  52  73 108 141 169 210 261 304
#     4  10  20  32  48  78 108 142 174 200 246 328
#     4  10  24  34  56  74 102 126 188 218 264 302
#     4  10  20  32  48  78 108 142 174 200 246 328
#     4  10  20  33  52  73 108 141 169 210 261 304
#     4  11  20  38  52  80 100 136 168 225 262 306
#
# _framework density 16.604158000000002
#
# number of rings (size 3 to 8) (size 9 to 14) (size 15 to 20)
#    0.000    1.818    3.636    1.091    2.545    1.455 
#    0.000    0.000    0.000    0.000    0.000    7.636 
#    0.000    0.000    0.000    0.000    0.000    0.000 
#
# Total GULP energy -122486.170691 kJ/mol
# GULP energy per Si atom -5567.553213 kJ/mol
# Density = 1.656637 g / cm^3
# Si number density = 16.604158 Si / 1000 Ang^3
#
#
#
# Elastic Constant Matrix: (Units=GPa)
#
#
# Indices 1 2 3 4 5 6 
#
# 1 105.9014 18.4485 33.8401 -0.0001 0.0000 0.0000
# 2 18.4485 48.2220 10.4258 -0.0001 0.0001 -0.0001
# 3 33.8401 10.4258 61.0481 -0.0001 0.0002 -0.0008
# 4 -0.0001 -0.0001 -0.0001 22.7562 0.0000 0.0000
# 5 0.0000 0.0001 0.0002 0.0000 18.6561 0.0002
# 6 0.0000 -0.0001 -0.0008 0.0000 0.0002 -23.3725
#
#
#
# Elastic Compliance Matrix: (Units=1/GPa)
#
#
# Indices 1 2 3 4 5 6 
#
# 1 0.011949 -0.003260 -0.006067 0.000000 0.000000 0.000000
# 2 -0.003260 0.022422 -0.002022 0.000000 0.000000 0.000000
# 3 -0.006067 -0.002022 0.020089 0.000000 0.000000 -0.000001
# 4 0.000000 0.000000 0.000000 0.043944 0.000000 0.000000
# 5 0.000000 0.000000 0.000000 0.000000 0.053602 0.000000
# 6 0.000000 0.000000 -0.000001 0.000000 0.000000 -0.042785
#
#
# Mechanical properties :
#
#
# Convention : Reuss Voigt Hill
#
# Bulk Modulus (GPa) = 31.48425 37.84448 34.66437
# Shear Modulus (GPa) = 35.08631 13.77178 24.42904
#
# Velocity S-wave (km/s) = 4.60184 2.88309 3.83986
# Velocity P-wave (km/s) = 6.87304 5.82448 6.37037
#
# Compressibility (1/GPa) = 0.03176191
#
# Stress axis : x y z
#
# Youngs Moduli (GPa) = 83.68708 44.59958 49.77868
#
# Poissons Ratio (x) = 0.14538 0.30201
# Poissons Ratio (y) = 0.27280 0.10067
# Poissons Ratio (z) = 0.50773 0.09019
#
# Static dielectric constant tensor:
#      x y z
#    x 1.686830 0.000000 0.000000 
#    y 0.000000 1.543750 0.000000 
#    z 0.000000 0.000000 1.595780 
# 
# From -- ./inp_files/1328.got.cif
#   From: 2010.05.17/outbox.cif.g08.bks.cpg/sg45_1_cif.got.tgz:1328.got - 2010.06.03 19:51:22.
