data_PCOD9376014
_publ_section_title
;
Structure prediction by ZEFSAII (Michael W. Deem and Ramdas Pophale) SiO2 
 PCOD9376014
Probable space group: I M M 2
;
_chemical_formula_sum "Si O2"
_cell_formula_units_Z 32
_cell_length_a 24.000000
_cell_length_b 9.000000
_cell_length_c 15.000000
_cell_angle_alpha 90.000000
_cell_angle_beta 90.000000
_cell_angle_gamma 90.000000
_cell_volume 3240.000000
_symmetry_space_group_name_H-M "I M M 2"
_symmetry_group_IT_number 44
_symmetry_cell_setting 'orthorhombic'
loop_
_space_group_symop_operation_xyz
x,y,z
-x,-y,z
-x,y,z
x,-y,z
1/2+x,1/2+y,1/2+z
1/2-x,1/2-y,1/2+z
1/2-x,1/2+y,1/2+z
1/2+x,1/2-y,1/2+z
loop_
_atom_site_type_symbol
_atom_site_label
_atom_site_fract_x
_atom_site_fract_y
_atom_site_fract_z
Si Si1 0.435091 0.669774 0.078840
Si Si2 0.937085 0.173135 0.209674
Si Si3 0.274182 0.327153 0.125210
Si Si4 0.347733 0.824159 0.592865
Si Si5 0.157411 0.174992 0.902404
Si Si6 0.607297 0.679305 0.893428
Si Si7 0.228345 0.172695 0.410224
Si Si8 0.374393 0.175020 0.228382
O O1 0.500000 0.659655 0.060306
O O2 0.413854 0.500000 0.094445
O O3 0.422698 0.767223 0.164170
O O4 0.407631 0.737834 0.990477
O O5 0.897858 0.279356 0.154975
O O6 0.933340 0.215837 0.313498
O O7 0.000000 0.180779 0.177907
O O8 0.918388 0.000000 0.202547
O O9 0.280349 0.500000 0.151772
O O10 0.210626 0.276953 0.137729
O O11 0.318605 0.230675 0.177584
O O12 0.281158 0.320498 0.017504
O O13 0.354895 0.743783 0.498598
O O14 0.343236 0.000000 0.577015
O O15 0.221285 0.222779 0.884185
O O16 0.122313 0.247772 0.823882
O O17 0.151090 0.000000 0.903590
O O18 0.605608 0.500000 0.904054
O O19 0.670126 0.717432 0.867207
O O20 0.241795 0.000000 0.389483
O O21 0.373757 0.000000 0.238152
#
# Coordination Sequence:
#
# PCOD9376014 Si02
#       8
#     8   8   8   8   8   8   8   8
#     4  10  20  38  63  87 117 160 204 244 291 346
#     4  10  21  37  59  89 121 156 202 247 290 348
#     4   9  18  35  57  83 116 152 192 239 288 348
#     4  10  22  41  62  85 116 153 197 248 302 352
#     4  11  23  39  60  85 118 153 195 246 299 358
#     4   9  17  33  58  88 120 156 196 238 283 341
#     4   9  17  33  56  85 121 155 191 236 287 343
#     4  12  24  37  57  86 122 159 197 242 295 351
#
# _framework density 9.8765429999999999
#
# number of rings (size 3 to 8) (size 9 to 14) (size 15 to 20)
#    0.000    2.000    1.250    3.750    1.750    4.500 
#    0.000    1.250    0.000    5.250    0.000    0.000 
#    0.000    0.000    0.000    0.000    0.000    0.000 
#
# Total GULP energy -178589.442519 kJ/mol
# GULP energy per Si atom -5580.920079 kJ/mol
# Density = 0.985406 g / cm^3
# Si number density = 9.876543 Si / 1000 Ang^3
#
#
#
# Elastic Constant Matrix: (Units=GPa)
#
#
# Indices 1 2 3 4 5 6 
#
# 1 46.6141 9.0322 17.0221 0.0000 0.0000 0.0000
# 2 9.0322 58.4650 3.4628 0.0000 0.0000 0.0000
# 3 17.0221 3.4628 19.6072 0.0000 0.0000 0.0000
# 4 0.0000 0.0000 0.0000 21.2043 0.0000 0.0000
# 5 0.0000 0.0000 0.0000 0.0000 22.1533 0.0000
# 6 0.0000 0.0000 0.0000 0.0000 0.0000 20.7810
#
#
#
# Elastic Compliance Matrix: (Units=1/GPa)
#
#
# Indices 1 2 3 4 5 6 
#
# 1 0.032042 -0.003338 -0.027228 0.000000 0.000000 0.000000
# 2 -0.003338 0.017633 -0.000217 0.000000 0.000000 0.000000
# 3 -0.027228 -0.000217 0.074679 0.000000 0.000000 0.000000
# 4 0.000000 0.000000 0.000000 0.047160 0.000000 0.000000
# 5 0.000000 0.000000 0.000000 0.000000 0.045140 0.000000
# 6 0.000000 0.000000 0.000000 0.000000 0.000000 0.048121
#
#
# Mechanical properties :
#
#
# Convention : Reuss Voigt Hill
#
# Bulk Modulus (GPa) = 15.92646 20.41340 18.16993
# Shear Modulus (GPa) = 14.39806 19.17235 16.78521
#
# Velocity S-wave (km/s) = 2.70275 3.11883 2.91821
# Velocity P-wave (km/s) = 4.22138 4.82972 4.53576
#
# Compressibility (1/GPa) = 0.06278858
#
# Stress axis : x y z
#
# Youngs Moduli (GPa) = 31.20864 56.71284 13.39073
#
# Poissons Ratio (x) = 0.18928 0.36461
# Poissons Ratio (y) = 0.10416 0.00290
# Poissons Ratio (z) = 0.84976 0.01229
#
# Static dielectric constant tensor:
#      x y z
#    x 1.737220 0.000000 0.000000 
#    y 0.000000 1.666810 0.000000 
#    z 0.000000 0.000000 1.707580 
# 
# From -- ./inp_files/16802.got.cif
#   From: 2010.05.17/outbox.ucp.g08.bks.cvg/sg44_9_cif.got.tgz:16802.got - 2010.06.11 16:32:36.
