data_PCOD9376067
_publ_section_title
;
Structure prediction by ZEFSAII (Michael W. Deem and Ramdas Pophale) SiO2 
 PCOD9376067
Probable space group: I B A 2
;
_chemical_formula_sum "Si O2"
_cell_formula_units_Z 40
_cell_length_a 22.333871
_cell_length_b 5.286134
_cell_length_c 13.587520
_cell_angle_alpha 90.000000
_cell_angle_beta 90.000000
_cell_angle_gamma 90.000000
_cell_volume 1604.140367
_symmetry_space_group_name_H-M "I B A 2"
_symmetry_group_IT_number 45
_symmetry_cell_setting 'orthorhombic'
loop_
_space_group_symop_operation_xyz
x,y,z
-x,-y,z
-x,y,1/2+z
x,-y,1/2+z
1/2+x,1/2+y,1/2+z
1/2-x,1/2-y,1/2+z
1/2-x,1/2+y,z
1/2+x,1/2-y,z
loop_
_atom_site_type_symbol
_atom_site_label
_atom_site_fract_x
_atom_site_fract_y
_atom_site_fract_z
Si Si1 0.393929 0.033294 0.903440
Si Si2 0.221150 0.331474 0.979141
Si Si3 0.963769 0.738615 0.571074
Si Si4 0.799855 0.194963 0.785247
Si Si5 0.144640 0.691955 0.212297
O O1 0.352564 0.263796 0.865971
O O2 0.399206 0.861741 0.806408
O O3 0.349624 0.871971 0.974586
O O4 0.448489 0.154008 0.959840
O O5 0.254115 0.574757 0.022177
O O6 0.255975 0.831174 0.862910
O O7 0.899387 0.748250 0.623126
O O8 0.000000 0.500000 0.614929
O O9 0.000000 0.000000 0.577517
O O10 0.814867 0.938047 0.728889
O O11 0.815054 0.434227 0.712987
#
# Coordination Sequence:
#
# PCOD9376067 Si02
#       5
#     8   8   8   8   8
#     4   9  23  39  70  90 136 172 224 274 354 404
#     4  10  16  32  65  95 127 167 209 264 331 422
#     4  12  28  45  63  98 134 178 239 296 333 401
#     4   9  18  37  66  94 124 174 207 268 340 425
#     4  10  21  41  64  89 132 172 222 281 343 397
#
# _framework density 24.935473999999999
#
# number of rings (size 3 to 8) (size 9 to 14) (size 15 to 20)
#    1.200    0.800    2.000    1.200    2.800    0.800 
#    0.000    0.000   17.600    0.000    0.000    0.000 
#    0.000    0.000    0.000    0.000    0.000    0.000 
#
# Total GULP energy -111507.697112 kJ/mol
# GULP energy per Si atom -5575.384856 kJ/mol
# Density = 2.487872 g / cm^3
# Si number density = 24.935474 Si / 1000 Ang^3
#
#
#
# Elastic Constant Matrix: (Units=GPa)
#
#
# Indices 1 2 3 4 5 6 
#
# 1 77.5044 37.7880 27.6721 0.0000 0.0000 0.0000
# 2 37.7880 187.4263 28.3008 0.0000 0.0000 0.0000
# 3 27.6721 28.3008 74.4480 0.0000 0.0000 0.0000
# 4 0.0000 0.0000 0.0000 8.1928 0.0000 0.0000
# 5 0.0000 0.0000 0.0000 0.0000 40.9559 0.0000
# 6 0.0000 0.0000 0.0000 0.0000 0.0000 43.2320
#
#
#
# Elastic Compliance Matrix: (Units=1/GPa)
#
#
# Indices 1 2 3 4 5 6 
#
# 1 0.015871 -0.002450 -0.004968 0.000000 0.000000 0.000000
# 2 -0.002450 0.006038 -0.001385 0.000000 0.000000 0.000000
# 3 -0.004968 -0.001385 0.015805 0.000000 0.000000 0.000000
# 4 0.000000 0.000000 0.000000 0.122059 0.000000 0.000000
# 5 0.000000 0.000000 0.000000 0.000000 0.024416 0.000000
# 6 0.000000 0.000000 0.000000 0.000000 0.000000 0.023131
#
#
# Mechanical properties :
#
#
# Convention : Reuss Voigt Hill
#
# Bulk Modulus (GPa) = 49.72806 58.54452 54.13629
# Shear Modulus (GPa) = 21.58629 34.85066 28.21848
#
# Velocity S-wave (km/s) = 2.94545 3.74255 3.36766
# Velocity P-wave (km/s) = 5.61725 6.49653 6.07283
#
# Compressibility (1/GPa) = 0.02010937
#
# Stress axis : x y z
#
# Youngs Moduli (GPa) = 63.00985 165.60594 63.27034
#
# Poissons Ratio (x) = 0.40567 0.31432
# Poissons Ratio (y) = 0.15435 0.08763
# Poissons Ratio (z) = 0.31302 0.22936
#
# Static dielectric constant tensor:
#      x y z
#    x 1.970230 0.000000 0.000000 
#    y 0.000000 2.166890 0.000000 
#    z 0.000000 0.000000 2.061790 
# 
# From -- ./inp_files/7010.got.cif
#   From: 2010.05.17/outbox.cif.g08.bks.cpg/sg45_4_cif.got.tgz:7010.got - 2010.06.03 19:51:22.
