data_PCOD9376456
_publ_section_title
;
Structure prediction by ZEFSAII (Michael W. Deem and Ramdas Pophale) SiO2 
 PCOD9376456
Probable space group: I B A 2
;
_chemical_formula_sum "Si O2"
_cell_formula_units_Z 48
_cell_length_a 8.763128
_cell_length_b 30.678813
_cell_length_c 8.741955
_cell_angle_alpha 90.000000
_cell_angle_beta 90.000000
_cell_angle_gamma 90.000000
_cell_volume 2350.207859
_symmetry_space_group_name_H-M "I B A 2"
_symmetry_group_IT_number 45
_symmetry_cell_setting 'orthorhombic'
loop_
_space_group_symop_operation_xyz
x,y,z
-x,-y,z
-x,y,1/2+z
x,-y,1/2+z
1/2+x,1/2+y,1/2+z
1/2-x,1/2-y,1/2+z
1/2-x,1/2+y,z
1/2+x,1/2-y,z
loop_
_atom_site_type_symbol
_atom_site_label
_atom_site_fract_x
_atom_site_fract_y
_atom_site_fract_z
Si Si1 0.557401 0.885973 0.852880
Si Si2 0.265710 0.120247 0.531029
Si Si3 0.216631 0.717460 0.560858
Si Si4 0.596522 0.209964 0.403629
Si Si5 0.644605 0.531030 0.085240
Si Si6 0.346117 0.020872 0.867855
O O1 0.618881 0.886127 0.677587
O O2 0.623363 0.841672 0.925887
O O3 0.613726 0.930960 0.925054
O O4 0.375496 0.884060 0.882916
O O5 0.205866 0.169672 0.545333
O O6 0.140403 0.082055 0.540445
O O7 0.319168 0.758371 0.520322
O O8 0.146113 0.720300 0.730502
O O9 0.081172 0.716916 0.436731
O O10 0.500000 0.500000 0.059989
O O11 0.701404 0.526776 0.258072
O O12 0.788852 0.512022 0.994543
O O13 0.500000 0.000000 0.797249
#
# Coordination Sequence:
#
# PCOD9376456 Si02
#       6
#     8   8   8   8   8   8
#     4   9  19  34  58  86 111 146 203 250 280 342
#     4   9  19  36  58  83 117 151 197 247 292 353
#     4  10  20  37  61  86 117 158 197 249 299 360
#     4  10  20  37  59  85 119 153 198 247 303 353
#     4  11  23  38  56  86 124 154 190 251 308 351
#     4  11  21  37  62  85 112 156 207 243 286 360
#
# _framework density 20.423725999999998
#
# number of rings (size 3 to 8) (size 9 to 14) (size 15 to 20)
#    0.000    2.000    1.667    2.000    2.333    1.333 
#    3.000    0.000    0.000    0.000    0.000    0.000 
#    0.000    0.000    0.000    0.000    0.000    0.000 
#
# Total GULP energy -133774.399080 kJ/mol
# GULP energy per Si atom -5573.933295 kJ/mol
# Density = 2.037724 g / cm^3
# Si number density = 20.423726 Si / 1000 Ang^3
#
#
#
# Elastic Constant Matrix: (Units=GPa)
#
#
# Indices 1 2 3 4 5 6 
#
# 1 60.2246 52.5821 9.8472 0.0000 -0.0001 0.0000
# 2 52.5821 164.9739 31.9346 0.0002 -0.0001 0.0000
# 3 9.8472 31.9346 29.4399 0.0014 0.0001 0.0002
# 4 0.0000 0.0002 0.0014 24.5678 -0.0001 0.0000
# 5 -0.0001 -0.0001 0.0001 -0.0001 21.0497 0.0001
# 6 0.0000 0.0000 0.0002 0.0000 0.0001 38.9982
#
#
#
# Elastic Compliance Matrix: (Units=1/GPa)
#
#
# Indices 1 2 3 4 5 6 
#
# 1 0.023009 -0.007397 0.000328 0.000000 0.000000 0.000000
# 2 -0.007397 0.010051 -0.008428 0.000000 0.000000 0.000000
# 3 0.000328 -0.008428 0.043000 -0.000002 0.000000 0.000000
# 4 0.000000 0.000000 -0.000002 0.040704 0.000000 0.000000
# 5 0.000000 0.000000 0.000000 0.000000 0.047507 0.000000
# 6 0.000000 0.000000 0.000000 0.000000 0.000000 0.025642
#
#
# Mechanical properties :
#
#
# Convention : Reuss Voigt Hill
#
# Bulk Modulus (GPa) = 22.19014 49.26290 35.72652
# Shear Modulus (GPa) = 21.19274 27.60811 24.40042
#
# Velocity S-wave (km/s) = 3.22476 3.68063 3.46021
# Velocity P-wave (km/s) = 4.97533 6.49888 5.78746
#
# Compressibility (1/GPa) = 0.04506506
#
# Stress axis : x y z
#
# Youngs Moduli (GPa) = 43.46044 99.49504 23.25573
#
# Poissons Ratio (x) = 0.73599 -0.00762
# Poissons Ratio (y) = 0.32149 0.19600
# Poissons Ratio (z) = -0.01424 0.83856
#
# Static dielectric constant tensor:
#      x y z
#    x 1.703910 0.000000 0.000000 
#    y 0.000000 1.753680 0.000000 
#    z 0.000000 0.000000 1.731650 
# 
# From -- ./inp_files/1058.got.cif
#   From: 2010.05.17/outbox.cif.g08.bks.cpg/sg45_1_cif.got.tgz:1058.got - 2010.06.03 19:51:22.
