data_PCOD9376561
_publ_section_title
;
Structure prediction by ZEFSAII (Michael W. Deem and Ramdas Pophale) SiO2 
 PCOD9376561
Probable space group: I B A 2
;
_chemical_formula_sum "Si O2"
_cell_formula_units_Z 64
_cell_length_a 5.205356
_cell_length_b 30.150593
_cell_length_c 17.353376
_cell_angle_alpha 90.000000
_cell_angle_beta 90.000000
_cell_angle_gamma 90.000000
_cell_volume 2723.518137
_symmetry_space_group_name_H-M "I B A 2"
_symmetry_group_IT_number 45
_symmetry_cell_setting 'orthorhombic'
loop_
_space_group_symop_operation_xyz
x,y,z
-x,-y,z
-x,y,1/2+z
x,-y,1/2+z
1/2+x,1/2+y,1/2+z
1/2-x,1/2-y,1/2+z
1/2-x,1/2+y,z
1/2+x,1/2-y,z
loop_
_atom_site_type_symbol
_atom_site_label
_atom_site_fract_x
_atom_site_fract_y
_atom_site_fract_z
Si Si1 0.523910 0.450906 0.004540
Si Si2 0.842084 0.369508 0.932162
Si Si3 0.124980 0.611330 0.277969
Si Si4 0.371152 0.271161 0.624400
Si Si5 0.881013 0.151877 0.205428
Si Si6 0.915912 0.221373 0.441990
Si Si7 0.656347 0.045352 0.655077
Si Si8 0.843375 0.614053 0.062171
O O1 0.500000 0.500000 0.970048
O O2 0.609945 0.457768 0.094553
O O3 0.255098 0.426358 0.010400
O O4 0.695397 0.413893 0.961406
O O5 0.656456 0.328009 0.911999
O O6 0.034912 0.383804 0.865152
O O7 0.013030 0.353176 0.005220
O O8 0.407833 0.628355 0.257793
O O9 0.149345 0.560932 0.244102
O O10 0.899347 0.641637 0.238729
O O11 0.562765 0.228565 0.632340
O O12 0.506684 0.300063 0.690068
O O13 0.424305 0.283407 0.535262
O O14 0.874336 0.133437 0.117049
O O15 0.685382 0.255500 0.420091
O O16 0.529811 0.089370 0.619991
O O17 0.500000 0.000000 0.647211
#
# Coordination Sequence:
#
# PCOD9376561 Si02
#       8
#     8   8   8   8   8   8   8   8
#     4  11  21  40  72 103 135 180 242 296 348 418
#     4  11  27  43  66 106 143 189 237 305 364 439
#     4  11  26  44  65  97 141 186 226 279 361 433
#     4  10  21  37  64 100 128 159 222 295 349 405
#     4  11  23  43  66  96 128 181 229 283 346 420
#     4  10  24  42  69 102 135 179 237 300 366 426
#     4  10  20  40  62  97 131 177 233 285 340 420
#     4  10  22  38  71  91 132 176 238 289 343 406
#
# _framework density 23.499016000000001
#
# number of rings (size 3 to 8) (size 9 to 14) (size 15 to 20)
#    0.000    1.500    2.500    1.500   12.250    0.000 
#    2.250    3.750    0.000    0.000    0.000    0.000 
#    0.000    0.000    0.000    0.000    0.000    0.000 
#
# Total GULP energy -178238.551269 kJ/mol
# GULP energy per Si atom -5569.954727 kJ/mol
# Density = 2.344553 g / cm^3
# Si number density = 23.499016 Si / 1000 Ang^3
#
#
#
# Elastic Constant Matrix: (Units=GPa)
#
#
# Indices 1 2 3 4 5 6 
#
# 1 85.0593 22.7071 16.6229 0.0000 0.0000 0.0000
# 2 22.7071 79.7936 35.5088 0.0000 0.0000 0.0000
# 3 16.6229 35.5088 70.8256 0.0000 0.0000 0.0000
# 4 0.0000 0.0000 0.0000 -5.5070 0.0000 0.0000
# 5 0.0000 0.0000 0.0000 0.0000 39.5624 0.0000
# 6 0.0000 0.0000 0.0000 0.0000 0.0000 35.6021
#
#
#
# Elastic Compliance Matrix: (Units=1/GPa)
#
#
# Indices 1 2 3 4 5 6 
#
# 1 0.012849 -0.002979 -0.001522 0.000000 0.000000 0.000000
# 2 -0.002979 0.016822 -0.007735 0.000000 0.000000 0.000000
# 3 -0.001522 -0.007735 0.018354 0.000000 0.000000 0.000000
# 4 0.000000 0.000000 0.000000 -0.181586 0.000000 0.000000
# 5 0.000000 0.000000 0.000000 0.000000 0.025277 0.000000
# 6 0.000000 0.000000 0.000000 0.000000 0.000000 0.028088
#
#
# Mechanical properties :
#
#
# Convention : Reuss Voigt Hill
#
# Bulk Modulus (GPa) = 42.45613 42.81735 42.63674
# Shear Modulus (GPa) = -104.44484 24.65414 -39.89535
#
# Velocity S-wave (km/s) = -6.67405 3.24258 -4.12484
# Velocity P-wave (km/s) = 6.42528 5.68151 2.12186
#
# Compressibility (1/GPa) = 0.02355372
#
# Stress axis : x y z
#
# Youngs Moduli (GPa) = 77.82537 59.44556 54.48339
#
# Poissons Ratio (x) = 0.17710 0.08293
# Poissons Ratio (y) = 0.23186 0.42141
# Poissons Ratio (z) = 0.11846 0.45979
#
# Static dielectric constant tensor:
#      x y z
#    x 1.924150 0.000000 0.000000 
#    y 0.000000 2.229820 0.000000 
#    z 0.000000 0.000000 2.000310 
# 
# From -- ./inp_files/7382.got.cif
#   From: 2010.05.17/outbox.cif.g08.bks.cpg/sg45_4_cif.got.tgz:7382.got - 2010.06.03 19:51:22.
