data_PCOD9376976
_publ_section_title
;
Structure prediction by ZEFSAII (Michael W. Deem and Ramdas Pophale) SiO2 
 PCOD9376976
Probable space group: I B A 2
;
_chemical_formula_sum "Si O2"
_cell_formula_units_Z 44
_cell_length_a 10.365688
_cell_length_b 15.381027
_cell_length_c 11.636569
_cell_angle_alpha 90.000000
_cell_angle_beta 90.000000
_cell_angle_gamma 90.000000
_cell_volume 1855.275529
_symmetry_space_group_name_H-M "I B A 2"
_symmetry_group_IT_number 45
_symmetry_cell_setting 'orthorhombic'
loop_
_space_group_symop_operation_xyz
x,y,z
-x,-y,z
-x,y,1/2+z
x,-y,1/2+z
1/2+x,1/2+y,1/2+z
1/2-x,1/2-y,1/2+z
1/2-x,1/2+y,z
1/2+x,1/2-y,z
loop_
_atom_site_type_symbol
_atom_site_label
_atom_site_fract_x
_atom_site_fract_y
_atom_site_fract_z
Si Si1 0.269248 0.260094 0.145370
Si Si2 0.444268 0.403789 0.380797
Si Si3 0.031939 0.896859 0.126281
Si Si4 0.000000 0.500000 0.600660
Si Si5 0.010374 0.325800 0.249306
Si Si6 0.332648 0.117733 0.954181
O O1 0.325221 0.355902 0.117479
O O2 0.369261 0.216711 0.236898
O O3 0.125175 0.271679 0.188741
O O4 0.289094 0.193577 0.040719
O O5 0.500000 0.500000 0.391223
O O6 0.474242 0.362287 0.505313
O O7 0.502450 0.373172 0.259384
O O8 0.289240 0.403981 0.374191
O O9 0.000000 0.000000 0.125381
O O10 0.983863 0.416968 0.681779
O O11 0.881727 0.531961 0.520307
O O12 0.050832 0.344615 0.379135
#
# Coordination Sequence:
#
# PCOD9376976 Si02
#       6
#     8   8   8   4   8   8
#     4  11  25  44  70 105 145 190 240 302 362 439
#     4  10  22  39  69 103 142 181 243 307 362 433
#     4  10  22  41  67 109 141 185 241 304 364 431
#     4  10  26  44  72 104 138 194 238 304 370 452
#     4  11  25  47  73 103 146 188 247 299 368 443
#     4  11  24  46  70 101 147 193 240 303 378 436
#
# _framework density 23.716152999999998
#
# number of rings (size 3 to 8) (size 9 to 14) (size 15 to 20)
#    0.000    1.455    1.818    1.636    7.636    2.909 
#    0.000    1.818    0.000    0.000    0.000    0.000 
#    0.000    0.000    0.000    0.000    0.000    0.000 
#
# Total GULP energy -122648.214269 kJ/mol
# GULP energy per Si atom -5574.918830 kJ/mol
# Density = 2.366217 g / cm^3
# Si number density = 23.716153 Si / 1000 Ang^3
#
#
#
# Elastic Constant Matrix: (Units=GPa)
#
#
# Indices 1 2 3 4 5 6 
#
# 1 63.7606 39.5718 6.6343 -0.0001 0.0000 0.0000
# 2 39.5718 128.4741 14.7075 0.0004 0.0001 0.0001
# 3 6.6343 14.7075 126.0933 0.0009 0.0002 0.0002
# 4 -0.0001 0.0004 0.0009 -69.1041 -0.0001 0.0000
# 5 0.0000 0.0001 0.0002 -0.0001 26.3397 0.0000
# 6 0.0000 0.0001 0.0002 0.0000 0.0000 20.8487
#
#
#
# Elastic Compliance Matrix: (Units=1/GPa)
#
#
# Indices 1 2 3 4 5 6 
#
# 1 0.019404 -0.005939 -0.000328 0.000000 0.000000 0.000000
# 2 -0.005939 0.009707 -0.000820 0.000000 0.000000 0.000000
# 3 -0.000328 -0.000820 0.008044 0.000000 0.000000 0.000000
# 4 0.000000 0.000000 0.000000 -0.014471 0.000000 0.000000
# 5 0.000000 0.000000 0.000000 0.000000 0.037965 0.000000
# 6 0.000000 0.000000 0.000000 0.000000 0.000000 0.047965
#
#
# Mechanical properties :
#
#
# Convention : Reuss Voigt Hill
#
# Bulk Modulus (GPa) = 43.51577 48.90615 46.21096
# Shear Modulus (GPa) = 38.32963 12.77782 25.55372
#
# Velocity S-wave (km/s) = 4.02454 2.32368 3.28606
# Velocity P-wave (km/s) = 6.32331 5.27878 5.82451
#
# Compressibility (1/GPa) = 0.02298017
#
# Stress axis : x y z
#
# Youngs Moduli (GPa) = 51.53637 103.02036 124.32372
#
# Poissons Ratio (x) = 0.61184 0.04080
# Poissons Ratio (y) = 0.30608 0.10191
# Poissons Ratio (z) = 0.01691 0.08445
#
# Static dielectric constant tensor:
#      x y z
#    x 1.909190 0.000000 0.000000 
#    y 0.000000 2.107160 0.000000 
#    z 0.000000 0.000000 1.943340 
# 
# From -- ./inp_files/3655.got.cif
#   From: 2010.05.17/outbox.cif.g08.bks.cpg/sg45_2_cif.got.tgz:3655.got - 2010.06.03 19:51:22.
