data_PCOD9376423
_publ_section_title
;
Structure prediction by ZEFSAII (Michael W. Deem and Ramdas Pophale) SiO2 
 PCOD9376423
Probable space group: I B A 2
;
_chemical_formula_sum "Si O2"
_cell_formula_units_Z 64
_cell_length_a 12.789522
_cell_length_b 26.952970
_cell_length_c 9.460739
_cell_angle_alpha 90.000000
_cell_angle_beta 90.000000
_cell_angle_gamma 90.000000
_cell_volume 3261.264347
_symmetry_space_group_name_H-M "I B A 2"
_symmetry_group_IT_number 45
_symmetry_cell_setting 'orthorhombic'
loop_
_space_group_symop_operation_xyz
x,y,z
-x,-y,z
-x,y,1/2+z
x,-y,1/2+z
1/2+x,1/2+y,1/2+z
1/2-x,1/2-y,1/2+z
1/2-x,1/2+y,z
1/2+x,1/2-y,z
loop_
_atom_site_type_symbol
_atom_site_label
_atom_site_fract_x
_atom_site_fract_y
_atom_site_fract_z
Si Si1 0.001607 0.750000 0.819280
Si Si2 0.075016 0.953475 0.201472
Si Si3 0.626812 0.803183 0.067934
Si Si4 0.924985 0.546525 0.937086
Si Si5 0.075123 0.587088 0.153331
Si Si6 0.373188 0.303184 0.570625
Si Si7 0.924878 0.912912 0.985228
Si Si8 0.750000 0.991867 0.069279
O O1 0.073477 0.783580 0.715299
O O2 0.930292 0.720411 0.705696
O O3 0.073476 0.716420 0.923261
O O4 0.930293 0.779590 0.932864
O O5 0.064561 0.911081 0.317688
O O6 0.191379 0.973491 0.181394
O O7 0.000000 0.000000 0.241815
O O8 0.031378 0.932068 0.055298
O O9 0.611349 0.862191 0.083575
O O10 0.750000 0.791245 0.069279
O O11 0.808623 0.526509 0.957166
O O12 0.000000 0.500000 0.896740
O O13 0.968625 0.567931 0.083260
O O14 0.935439 0.588919 0.820871
O O15 0.159716 0.543813 0.127012
O O16 0.388650 0.362192 0.554985
O O17 0.840287 0.956189 0.011547
#
# Coordination Sequence:
#
# PCOD9376423 Si02
#       8
#     8   8   8   8   8   8   8   8
#     4  10  24  42  68  92 124 156 200 258 320 374
#     4  10  21  36  56  83 122 163 202 247 295 351
#     4  11  22  43  66  94 123 160 202 255 314 374
#     4  10  21  36  56  83 122 163 202 247 295 351
#     4  11  21  37  59  86 119 158 202 249 294 358
#     4  11  22  43  66  94 123 160 202 255 314 374
#     4  11  21  37  59  86 119 158 202 249 294 358
#     4  10  20  36  56  86 118 164 200 244 294 352
#
# _framework density 19.624290999999999
#
# number of rings (size 3 to 8) (size 9 to 14) (size 15 to 20)
#    0.000    1.500    1.250    5.250    0.000    2.000 
#    4.500    0.000    5.500    0.000    0.000    0.000 
#    0.000    0.000    0.000    0.000    0.000    0.000 
#
# Total GULP energy -178620.498205 kJ/mol
# GULP energy per Si atom -5581.890569 kJ/mol
# Density = 1.957963 g / cm^3
# Si number density = 19.624291 Si / 1000 Ang^3
#
#
#
# Elastic Constant Matrix: (Units=GPa)
#
#
# Indices 1 2 3 4 5 6 
#
# 1 112.0223 47.7437 51.5579 0.0001 -0.0001 0.0001
# 2 47.7437 80.3566 55.6625 0.0002 0.0000 0.0000
# 3 51.5579 55.6625 135.2664 0.0012 -0.0007 0.0000
# 4 0.0001 0.0002 0.0012 29.0024 -0.0001 0.0000
# 5 -0.0001 0.0000 -0.0007 -0.0001 20.6361 0.0000
# 6 0.0001 0.0000 0.0000 0.0000 0.0000 20.3027
#
#
#
# Elastic Compliance Matrix: (Units=1/GPa)
#
#
# Indices 1 2 3 4 5 6 
#
# 1 0.012481 -0.005763 -0.002386 0.000000 0.000000 0.000000
# 2 -0.005763 0.020067 -0.006061 0.000000 0.000000 0.000000
# 3 -0.002386 -0.006061 0.010796 0.000000 0.000000 0.000000
# 4 0.000000 0.000000 0.000000 0.034480 0.000000 0.000000
# 5 0.000000 0.000000 0.000000 0.000000 0.048459 0.000000
# 6 0.000000 0.000000 0.000000 0.000000 0.000000 0.049254
#
#
# Mechanical properties :
#
#
# Convention : Reuss Voigt Hill
#
# Bulk Modulus (GPa) = 67.00254 70.84151 68.92203
# Shear Modulus (GPa) = 23.93124 25.50032 24.71578
#
# Velocity S-wave (km/s) = 3.49588 3.60867 3.55272
# Velocity P-wave (km/s) = 7.10716 7.31714 7.21291
#
# Compressibility (1/GPa) = 0.01492481
#
# Stress axis : x y z
#
# Youngs Moduli (GPa) = 80.12176 49.83299 92.62418
#
# Poissons Ratio (x) = 0.28719 0.22098
# Poissons Ratio (y) = 0.46174 0.56140
# Poissons Ratio (z) = 0.19115 0.30204
#
# Static dielectric constant tensor:
#      x y z
#    x 1.664510 0.000000 0.000000 
#    y 0.000000 1.673280 0.000000 
#    z 0.000000 0.000000 1.714990 
# 
# From -- ./inp_files/1501.got.cif
#   From: 2010.05.17/outbox.cif.g08.bks.cpg/sg45_1_cif.got.tgz:1501.got - 2010.06.03 19:51:22.
