data_PCOD9376144
_publ_section_title
;
Structure prediction by ZEFSAII (Michael W. Deem and Ramdas Pophale) SiO2 
 PCOD9376144
Probable space group: I B A 2
;
_chemical_formula_sum "Si O2"
_cell_formula_units_Z 64
_cell_length_a 7.942468
_cell_length_b 17.129281
_cell_length_c 21.041114
_cell_angle_alpha 90.000000
_cell_angle_beta 90.000000
_cell_angle_gamma 90.000000
_cell_volume 2862.617599
_symmetry_space_group_name_H-M "I B A 2"
_symmetry_group_IT_number 45
_symmetry_cell_setting 'orthorhombic'
loop_
_space_group_symop_operation_xyz
x,y,z
-x,-y,z
-x,y,1/2+z
x,-y,1/2+z
1/2+x,1/2+y,1/2+z
1/2-x,1/2-y,1/2+z
1/2-x,1/2+y,z
1/2+x,1/2-y,z
loop_
_atom_site_type_symbol
_atom_site_label
_atom_site_fract_x
_atom_site_fract_y
_atom_site_fract_z
Si Si1 0.376023 0.405868 0.250000
Si Si2 0.048267 0.192114 0.861570
Si Si3 0.014434 0.314196 0.251436
Si Si4 0.820420 0.284791 0.956013
Si Si5 0.677222 0.953564 0.194650
Si Si6 0.952834 0.817868 0.146207
Si Si7 0.228276 0.698749 0.572918
Si Si8 0.568960 0.085489 0.560637
O O1 0.471173 0.382077 0.314923
O O2 0.204494 0.350627 0.250330
O O3 0.297921 0.489309 0.233940
O O4 0.506637 0.388804 0.192595
O O5 0.223306 0.178318 0.897049
O O6 0.034876 0.266916 0.814694
O O7 0.933617 0.219507 0.920239
O O8 0.004216 0.250741 0.196198
O O9 0.873381 0.377736 0.234960
O O10 0.710668 0.228886 0.001831
O O11 0.875806 0.356677 0.002761
O O12 0.700614 0.931439 0.119098
O O13 0.500000 0.000000 0.189806
O O14 0.794772 0.777079 0.113950
O O15 0.085452 0.828435 0.089113
O O16 0.090675 0.633827 0.589127
O O17 0.500000 0.000000 0.539289
#
# Coordination Sequence:
#
# PCOD9376144 Si02
#       8
#     8   8   8   8   8   8   8   8
#     4  10  20  35  62  94 129 166 213 283 328 402
#     4  11  23  39  60  91 128 170 232 265 325 397
#     4  10  18  34  59  88 125 166 208 278 323 400
#     4  12  23  42  62  92 127 178 227 276 321 411
#     4   9  17  35  59  94 129 152 212 273 350 389
#     4  11  19  32  58  95 121 158 215 270 346 381
#     4  12  20  36  63  93 123 168 219 284 333 405
#     4  11  22  39  65  96 129 169 221 288 340 413
#
# _framework density 22.357158999999999
#
# number of rings (size 3 to 8) (size 9 to 14) (size 15 to 20)
#    0.000    1.250    6.250    1.500    0.000    0.000 
#    2.250    0.000    0.000   15.750    0.000    0.000 
#    0.000    0.000    0.000    0.000    0.000    0.000 
#
# Total GULP energy -178200.018597 kJ/mol
# GULP energy per Si atom -5568.750581 kJ/mol
# Density = 2.230627 g / cm^3
# Si number density = 22.357159 Si / 1000 Ang^3
#
#
#
# Elastic Constant Matrix: (Units=GPa)
#
#
# Indices 1 2 3 4 5 6 
#
# 1 30.2877 20.5174 30.2478 0.0000 0.0000 0.0000
# 2 20.5174 134.8087 40.8272 0.0000 0.0000 0.0000
# 3 30.2478 40.8272 132.7913 0.0000 0.0000 0.0000
# 4 0.0000 0.0000 0.0000 33.8224 0.0000 0.0000
# 5 0.0000 0.0000 0.0000 0.0000 41.6270 0.0000
# 6 0.0000 0.0000 0.0000 0.0000 0.0000 32.0157
#
#
#
# Elastic Compliance Matrix: (Units=1/GPa)
#
#
# Indices 1 2 3 4 5 6 
#
# 1 0.044706 -0.004102 -0.008922 0.000000 0.000000 0.000000
# 2 -0.004102 0.008556 -0.001696 0.000000 0.000000 0.000000
# 3 -0.008922 -0.001696 0.010084 0.000000 0.000000 0.000000
# 4 0.000000 0.000000 0.000000 0.029566 0.000000 0.000000
# 5 0.000000 0.000000 0.000000 0.000000 0.024023 0.000000
# 6 0.000000 0.000000 0.000000 0.000000 0.000000 0.031235
#
#
# Mechanical properties :
#
#
# Convention : Reuss Voigt Hill
#
# Bulk Modulus (GPa) = 29.49364 53.45252 41.47308
# Shear Modulus (GPa) = 26.46728 35.24602 30.85665
#
# Velocity S-wave (km/s) = 3.44443 3.97482 3.71909
# Velocity P-wave (km/s) = 5.38883 6.71014 6.08545
#
# Compressibility (1/GPa) = 0.03390562
#
# Stress axis : x y z
#
# Youngs Moduli (GPa) = 22.36843 116.87814 99.16261
#
# Poissons Ratio (x) = 0.47943 0.88474
# Poissons Ratio (y) = 0.09175 0.16820
# Poissons Ratio (z) = 0.19957 0.19825
#
# Static dielectric constant tensor:
#      x y z
#    x 1.999100 0.000000 0.000000 
#    y 0.000000 1.885960 0.000000 
#    z 0.000000 0.000000 1.817940 
# 
# From -- ./inp_files/8965.got.cif
#   From: 2010.05.17/outbox.cif.g08.bks.cpg/sg45_5_cif.got.tgz:8965.got - 2010.06.03 19:51:22.
