data_PCOD9376612
_publ_section_title
;
Structure prediction by ZEFSAII (Michael W. Deem and Ramdas Pophale) SiO2 
 PCOD9376612
Probable space group: I B A 2
;
_chemical_formula_sum "Si O2"
_cell_formula_units_Z 40
_cell_length_a 10.315245
_cell_length_b 16.637651
_cell_length_c 9.167741
_cell_angle_alpha 90.000000
_cell_angle_beta 90.000000
_cell_angle_gamma 90.000000
_cell_volume 1573.380970
_symmetry_space_group_name_H-M "I B A 2"
_symmetry_group_IT_number 45
_symmetry_cell_setting 'orthorhombic'
loop_
_space_group_symop_operation_xyz
x,y,z
-x,-y,z
-x,y,1/2+z
x,-y,1/2+z
1/2+x,1/2+y,1/2+z
1/2-x,1/2-y,1/2+z
1/2-x,1/2+y,z
1/2+x,1/2-y,z
loop_
_atom_site_type_symbol
_atom_site_label
_atom_site_fract_x
_atom_site_fract_y
_atom_site_fract_z
Si Si1 0.859630 0.036391 0.968560
Si Si2 0.222658 0.893983 0.659383
Si Si3 0.050077 0.813628 0.128530
Si Si4 0.998915 0.298880 0.878425
Si Si5 0.981557 0.596038 0.136385
O O1 0.807616 0.070823 0.818666
O O2 0.120028 0.102941 0.594899
O O3 0.000000 0.000000 0.934195
O O4 0.782119 0.963870 0.038617
O O5 0.106183 0.831919 0.627653
O O6 0.371944 0.871808 0.659349
O O7 0.072784 0.768111 0.280346
O O8 0.079150 0.758413 0.988800
O O9 0.916040 0.357612 0.772086
O O10 0.068186 0.363017 0.987699
O O11 0.000000 0.500000 0.139537
#
# Coordination Sequence:
#
# PCOD9376612 Si02
#       5
#     8   8   8   8   8
#     4  10  21  39  67 102 131 164 207 278 332 393
#     4  11  24  38  69  97 127 177 214 262 331 386
#     4  10  20  43  67  97 132 154 216 273 337 387
#     4  10  23  43  66  89 132 174 203 284 322 370
#     4  11  26  45  64  89 132 175 228 262 312 401
#
# _framework density 25.422958999999999
#
# number of rings (size 3 to 8) (size 9 to 14) (size 15 to 20)
#    0.000    1.600    2.000    2.400    8.400    1.600 
#    0.000    0.000    0.000    0.000    0.000    0.000 
#    0.000    0.000    0.000    0.000    0.000    0.000 
#
# Total GULP energy -111676.527609 kJ/mol
# GULP energy per Si atom -5583.826380 kJ/mol
# Density = 2.536510 g / cm^3
# Si number density = 25.422959 Si / 1000 Ang^3
#
#
#
# Elastic Constant Matrix: (Units=GPa)
#
#
# Indices 1 2 3 4 5 6 
#
# 1 65.5937 -0.7099 1.2434 0.0000 0.0000 0.0000
# 2 -0.7099 113.7392 36.1676 0.0001 0.0000 0.0000
# 3 1.2434 36.1676 154.9771 0.0003 0.0000 -0.0001
# 4 0.0000 0.0001 0.0003 47.2170 0.0000 0.0000
# 5 0.0000 0.0000 0.0000 0.0000 22.1293 0.0000
# 6 0.0000 0.0000 -0.0001 0.0000 0.0000 1.5346
#
#
#
# Elastic Compliance Matrix: (Units=1/GPa)
#
#
# Indices 1 2 3 4 5 6 
#
# 1 0.015250 0.000145 -0.000156 0.000000 0.000000 0.000000
# 2 0.000145 0.009498 -0.002218 0.000000 0.000000 0.000000
# 3 -0.000156 -0.002218 0.006971 0.000000 0.000000 0.000000
# 4 0.000000 0.000000 0.000000 0.021179 0.000000 0.000001
# 5 0.000000 0.000000 0.000000 0.000000 0.045189 0.000000
# 6 0.000000 0.000000 0.000000 0.000001 0.000000 0.651616
#
#
# Mechanical properties :
#
#
# Convention : Reuss Voigt Hill
#
# Bulk Modulus (GPa) = 36.68209 45.30134 40.99171
# Shear Modulus (GPa) = 6.55094 34.01679 20.28387
#
# Velocity S-wave (km/s) = 1.60698 3.66188 2.82770
# Velocity P-wave (km/s) = 4.23122 5.97804 5.17881
#
# Compressibility (1/GPa) = 0.02726126
#
# Stress axis : x y z
#
# Youngs Moduli (GPa) = 65.57425 105.28338 143.44335
#
# Poissons Ratio (x) = -0.01525 0.02240
# Poissons Ratio (y) = -0.00950 0.31813
# Poissons Ratio (z) = 0.01024 0.23350
#
# Static dielectric constant tensor:
#      x y z
#    x 2.123220 0.000000 0.000000 
#    y 0.000000 2.015510 0.000000 
#    z 0.000000 0.000000 2.110810 
# 
# From -- ./inp_files/1248.got.cif
#   From: 2010.05.17/outbox.cif.g08.bks.cpg/sg45_1_cif.got.tgz:1248.got - 2010.06.03 19:51:22.
