data_PCOD9376708
_publ_section_title
;
Structure prediction by ZEFSAII (Michael W. Deem and Ramdas Pophale) SiO2 
 PCOD9376708
Probable space group: I B A 2
;
_chemical_formula_sum "Si O2"
_cell_formula_units_Z 60
_cell_length_a 14.600920
_cell_length_b 23.112268
_cell_length_c 8.755372
_cell_angle_alpha 90.000000
_cell_angle_beta 90.000000
_cell_angle_gamma 90.000000
_cell_volume 2954.591128
_symmetry_space_group_name_H-M "I B A 2"
_symmetry_group_IT_number 45
_symmetry_cell_setting 'orthorhombic'
loop_
_space_group_symop_operation_xyz
x,y,z
-x,-y,z
-x,y,1/2+z
x,-y,1/2+z
1/2+x,1/2+y,1/2+z
1/2-x,1/2-y,1/2+z
1/2-x,1/2+y,z
1/2+x,1/2-y,z
loop_
_atom_site_type_symbol
_atom_site_label
_atom_site_fract_x
_atom_site_fract_y
_atom_site_fract_z
Si Si1 0.317206 0.611533 0.060540
Si Si2 0.124021 0.659270 0.989297
Si Si3 0.252287 0.885127 0.911134
Si Si4 0.626128 0.724656 0.431922
Si Si5 0.868255 0.978038 0.522006
Si Si6 0.449043 0.840875 0.828495
Si Si7 0.000000 0.000000 0.772581
Si Si8 0.708529 0.724796 0.093447
O O1 0.219975 0.625486 0.978928
O O2 0.288633 0.618278 0.239097
O O3 0.387766 0.659849 0.995201
O O4 0.351282 0.546824 0.030830
O O5 0.073818 0.650930 0.151662
O O6 0.150622 0.726930 0.002673
O O7 0.051082 0.639756 0.865238
O O8 0.360648 0.871506 0.905937
O O9 0.225046 0.944980 0.990739
O O10 0.203313 0.836282 0.011821
O O11 0.552976 0.773814 0.387782
O O12 0.681339 0.722216 0.270393
O O13 0.688475 0.752580 0.565506
O O14 0.929531 0.964026 0.669272
O O15 0.935012 0.963400 0.381670
#
# Coordination Sequence:
#
# PCOD9376708 Si02
#       8
#     8   8   8   8   8   8   4   8
#     4  10  21  38  60  82 117 153 190 235 292 344
#     4   9  19  36  54  83 115 150 190 233 275 333
#     4  10  21  38  60  82 117 153 190 235 292 344
#     4   9  18  33  54  80 112 148 190 232 281 335
#     4  11  22  44  61  86 116 146 187 240 294 343
#     4   9  19  36  54  83 115 150 190 233 275 333
#     4  10  24  42  64  82 114 146 192 238 284 348
#     4   9  18  33  54  80 112 148 190 232 281 335
#
# _framework density 20.307378
#
# number of rings (size 3 to 8) (size 9 to 14) (size 15 to 20)
#    0.000    2.400    1.333    2.400    1.867    5.333 
#    4.800    0.667    0.000    3.200    0.000    0.000 
#    0.000    0.000    0.000    0.000    0.000    0.000 
#
# Total GULP energy -167099.221741 kJ/mol
# GULP energy per Si atom -5569.974058 kJ/mol
# Density = 2.026116 g / cm^3
# Si number density = 20.307378 Si / 1000 Ang^3
#
#
#
# Elastic Constant Matrix: (Units=GPa)
#
#
# Indices 1 2 3 4 5 6 
#
# 1 40.0389 1.6840 5.5655 0.0000 0.0000 0.0000
# 2 1.6840 88.6156 7.1265 0.0001 0.0000 0.0000
# 3 5.5655 7.1265 36.8846 0.0007 -0.0001 0.0000
# 4 0.0000 0.0001 0.0007 16.3235 0.0000 0.0000
# 5 0.0000 0.0000 -0.0001 0.0000 27.6871 0.0000
# 6 0.0000 0.0000 0.0000 0.0000 0.0000 7.9548
#
#
#
# Elastic Compliance Matrix: (Units=1/GPa)
#
#
# Indices 1 2 3 4 5 6 
#
# 1 0.025514 -0.000178 -0.003815 0.000000 0.000000 0.000000
# 2 -0.000178 0.011464 -0.002188 0.000000 0.000000 0.000000
# 3 -0.003815 -0.002188 0.028110 -0.000001 0.000000 0.000000
# 4 0.000000 0.000000 -0.000001 0.061261 0.000000 0.000000
# 5 0.000000 0.000000 0.000000 0.000000 0.036118 0.000000
# 6 0.000000 0.000000 0.000000 0.000000 0.000000 0.125710
#
#
# Mechanical properties :
#
#
# Convention : Reuss Voigt Hill
#
# Bulk Modulus (GPa) = 18.96644 21.58789 20.27716
# Shear Modulus (GPa) = 15.71758 20.47062 18.09410
#
# Velocity S-wave (km/s) = 2.78507 3.17841 2.98822
# Velocity P-wave (km/s) = 4.43871 4.91155 4.68110
#
# Compressibility (1/GPa) = 0.05272472
#
# Stress axis : x y z
#
# Youngs Moduli (GPa) = 39.19484 87.22922 35.57451
#
# Poissons Ratio (x) = 0.01553 0.13573
# Poissons Ratio (y) = 0.00698 0.07784
# Poissons Ratio (z) = 0.14954 0.19087
#
# Static dielectric constant tensor:
#      x y z
#    x 1.736880 0.000000 0.000000 
#    y 0.000000 1.750360 0.000000 
#    z 0.000000 0.000000 1.757370 
# 
# From -- ./inp_files/1889.got.cif
#   From: 2010.05.17/outbox.cif.g08.bks.cpg/sg45_1_cif.got.tgz:1889.got - 2010.06.03 19:51:22.
