data_PCOD9376003
_publ_section_title
;
Structure prediction by ZEFSAII (Michael W. Deem and Ramdas Pophale) SiO2 
 PCOD9376003
Probable space group: I M M 2
;
_chemical_formula_sum "Si O2"
_cell_formula_units_Z 32
_cell_length_a 18.000000
_cell_length_b 21.000000
_cell_length_c 9.000000
_cell_angle_alpha 90.000000
_cell_angle_beta 90.000000
_cell_angle_gamma 90.000000
_cell_volume 3402.000000
_symmetry_space_group_name_H-M "I M M 2"
_symmetry_group_IT_number 44
_symmetry_cell_setting 'orthorhombic'
loop_
_space_group_symop_operation_xyz
x,y,z
-x,-y,z
-x,y,z
x,-y,z
1/2+x,1/2+y,1/2+z
1/2-x,1/2-y,1/2+z
1/2-x,1/2+y,1/2+z
1/2+x,1/2-y,1/2+z
loop_
_atom_site_type_symbol
_atom_site_label
_atom_site_fract_x
_atom_site_fract_y
_atom_site_fract_z
Si Si1 0.637122 0.179508 0.892390
Si Si2 0.812560 0.646447 0.846125
Si Si3 0.194646 0.206184 0.784591
Si Si4 0.152564 0.078395 0.305711
Si Si5 0.087694 0.182528 0.519487
Si Si6 0.418423 0.806110 0.595608
Si Si7 0.911033 0.424833 0.624267
Si Si8 0.912616 0.838929 0.049433
O O1 0.721879 0.188320 0.834237
O O2 0.587013 0.160430 0.752514
O O3 0.605746 0.247279 0.951805
O O4 0.628429 0.122531 0.008197
O O5 0.804604 0.716273 0.767898
O O6 0.735138 0.607750 0.837723
O O7 0.874699 0.600673 0.775753
O O8 0.848810 0.669415 0.000918
O O9 0.154809 0.178106 0.639161
O O10 0.138172 0.179748 0.909650
O O11 0.099570 0.120602 0.414686
O O12 0.124887 0.104948 0.145107
O O13 0.150171 0.000000 0.317160
O O14 0.000000 0.183537 0.568520
O O15 0.500000 0.814738 0.523355
O O16 0.411865 0.730352 0.629721
O O17 0.896073 0.500000 0.601709
O O18 0.000000 0.415416 0.621363
O O19 0.000000 0.852858 0.017427
#
# Coordination Sequence:
#
# PCOD9376003 Si02
#       8
#     8   8   8   8   8   8   8   8
#     4  12  22  38  65  93 128 164 207 264 312 368
#     4  11  21  39  62  92 127 163 207 263 315 377
#     4  11  23  38  66  95 126 157 207 266 321 366
#     4  12  25  41  63  91 128 174 215 260 315 374
#     4  12  24  41  65  95 127 166 213 265 317 371
#     4  10  20  35  60  93 124 157 203 262 318 367
#     4  11  24  41  63  94 132 173 212 253 312 386
#     4  10  21  38  60  90 123 159 208 262 314 373
#
# _framework density 9.4062319999999993
#
# number of rings (size 3 to 8) (size 9 to 14) (size 15 to 20)
#    0.000    0.875    3.750    4.125    1.750    2.000 
#    0.000    3.750    0.000    4.500    0.000    0.000 
#    0.000    0.000    0.000    0.000    0.000    0.000 
#
# Total GULP energy -178315.676658 kJ/mol
# GULP energy per Si atom -5572.364896 kJ/mol
# Density = 0.938482 g / cm^3
# Si number density = 9.406232 Si / 1000 Ang^3
#
#
#
# Elastic Constant Matrix: (Units=GPa)
#
#
# Indices 1 2 3 4 5 6 
#
# 1 138.0751 48.3390 14.1986 0.0000 0.0000 0.0000
# 2 48.3390 144.0884 38.6663 0.0000 0.0000 0.0000
# 3 14.1986 38.6663 40.1043 0.0000 0.0000 0.0000
# 4 0.0000 0.0000 0.0000 24.6359 0.0000 0.0000
# 5 0.0000 0.0000 0.0000 0.0000 28.0608 0.0000
# 6 0.0000 0.0000 0.0000 0.0000 0.0000 32.6109
#
#
#
# Elastic Compliance Matrix: (Units=1/GPa)
#
#
# Indices 1 2 3 4 5 6 
#
# 1 0.008210 -0.002663 -0.000339 0.000000 0.000000 0.000000
# 2 -0.002663 0.010227 -0.008917 0.000000 0.000000 0.000000
# 3 -0.000339 -0.008917 0.033652 0.000000 0.000000 0.000000
# 4 0.000000 0.000000 0.000000 0.040591 0.000000 0.000000
# 5 0.000000 0.000000 0.000000 0.000000 0.035637 0.000000
# 6 0.000000 0.000000 0.000000 0.000000 0.000000 0.030665
#
#
# Mechanical properties :
#
#
# Convention : Reuss Voigt Hill
#
# Bulk Modulus (GPa) = 35.39781 58.29730 46.84755
# Shear Modulus (GPa) = 26.00973 31.79912 28.90442
#
# Velocity S-wave (km/s) = 3.72234 4.11581 3.92401
# Velocity P-wave (km/s) = 6.10994 7.32410 6.74440
#
# Compressibility (1/GPa) = 0.02825034
#
# Stress axis : x y z
#
# Youngs Moduli (GPa) = 121.80759 97.78486 29.71582
#
# Poissons Ratio (x) = 0.26043 0.01007
# Poissons Ratio (y) = 0.32441 0.26497
# Poissons Ratio (z) = 0.04127 0.87194
#
# Static dielectric constant tensor:
#      x y z
#    x 1.659360 0.000000 0.000000 
#    y 0.000000 1.601600 0.000000 
#    z 0.000000 0.000000 1.739720 
# 
# From -- ./inp_files/8454.got.cif
#   From: 2010.05.17/outbox.ucp.g08.bks.cvg/sg44_5_cif.got.tgz:8454.got - 2010.06.11 16:32:36.
