data_PCOD9376504
_publ_section_title
;
Structure prediction by ZEFSAII (Michael W. Deem and Ramdas Pophale) SiO2 
 PCOD9376504
Probable space group: I B A 2
;
_chemical_formula_sum "Si O2"
_cell_formula_units_Z 56
_cell_length_a 10.740474
_cell_length_b 19.888996
_cell_length_c 10.115822
_cell_angle_alpha 90.000000
_cell_angle_beta 90.000000
_cell_angle_gamma 90.000000
_cell_volume 2160.914021
_symmetry_space_group_name_H-M "I B A 2"
_symmetry_group_IT_number 45
_symmetry_cell_setting 'orthorhombic'
loop_
_space_group_symop_operation_xyz
x,y,z
-x,-y,z
-x,y,1/2+z
x,-y,1/2+z
1/2+x,1/2+y,1/2+z
1/2-x,1/2-y,1/2+z
1/2-x,1/2+y,z
1/2+x,1/2-y,z
loop_
_atom_site_type_symbol
_atom_site_label
_atom_site_fract_x
_atom_site_fract_y
_atom_site_fract_z
Si Si1 0.308405 0.610119 0.663920
Si Si2 0.190666 0.266765 0.467108
Si Si3 0.726752 0.532590 0.643374
Si Si4 0.500000 0.500000 0.447275
Si Si5 0.647694 0.376897 0.364869
Si Si6 0.615802 0.263352 0.746501
Si Si7 0.941273 0.359622 0.806721
Si Si8 0.000000 0.500000 0.692825
O O1 0.313373 0.535531 0.722333
O O2 0.286116 0.606990 0.506612
O O3 0.421363 0.661067 0.698179
O O4 0.186007 0.641422 0.725416
O O5 0.126475 0.202532 0.389980
O O6 0.319762 0.271441 0.388832
O O7 0.203926 0.253856 0.620802
O O8 0.105589 0.332636 0.448067
O O9 0.617471 0.529025 0.534426
O O10 0.720498 0.598932 0.734475
O O11 0.871743 0.514562 0.612149
O O12 0.542097 0.433255 0.372804
O O13 0.528672 0.199255 0.754857
O O14 0.988739 0.434365 0.785823
#
# Coordination Sequence:
#
# PCOD9376504 Si02
#       8
#     8   8   8   4   8   8   8   4
#     4   8  20  40  59  91 133 166 215 284 335 397
#     4  10  23  40  64  95 129 172 223 280 337 406
#     4  10  20  39  65  93 129 174 219 268 339 405
#     4  10  22  38  62  96 134 176 224 278 338 408
#     4  10  20  38  63  92 129 173 221 279 334 400
#     4  10  21  41  65  91 127 172 219 270 337 404
#     4  10  21  40  64  91 129 174 218 274 348 416
#     4  10  22  42  64  96 138 172 218 288 350 412
#
# _framework density 25.914961000000002
#
# number of rings (size 3 to 8) (size 9 to 14) (size 15 to 20)
#    0.000    2.286    0.000    1.286    0.000    9.143 
#    0.000   30.000    0.000    1.714    0.000    0.000 
#    0.000    0.000    0.000    0.000    0.000    0.000 
#
# Total GULP energy -156049.972325 kJ/mol
# GULP energy per Si atom -5573.213297 kJ/mol
# Density = 2.585598 g / cm^3
# Si number density = 25.914961 Si / 1000 Ang^3
#
#
#
# Elastic Constant Matrix: (Units=GPa)
#
#
# Indices 1 2 3 4 5 6 
#
# 1 82.6573 29.3927 6.1830 0.0000 0.0000 0.0000
# 2 29.3927 173.0023 8.1068 -0.0002 0.0000 0.0000
# 3 6.1830 8.1068 71.7402 -0.0003 -0.0001 0.0000
# 4 0.0000 -0.0002 -0.0003 40.2863 -0.0001 0.0000
# 5 0.0000 0.0000 -0.0001 -0.0001 16.7840 0.0000
# 6 0.0000 0.0000 0.0000 0.0000 0.0000 42.6743
#
#
#
# Elastic Compliance Matrix: (Units=1/GPa)
#
#
# Indices 1 2 3 4 5 6 
#
# 1 0.012930 -0.002156 -0.000871 0.000000 0.000000 0.000000
# 2 -0.002156 0.006171 -0.000511 0.000000 0.000000 0.000000
# 3 -0.000871 -0.000511 0.014072 0.000000 0.000000 0.000000
# 4 0.000000 0.000000 0.000000 0.024822 0.000000 0.000000
# 5 0.000000 0.000000 0.000000 0.000000 0.059581 0.000000
# 6 0.000000 0.000000 0.000000 0.000000 0.000000 0.023433
#
#
# Mechanical properties :
#
#
# Convention : Reuss Voigt Hill
#
# Bulk Modulus (GPa) = 38.31986 46.08499 42.20243
# Shear Modulus (GPa) = 31.89106 38.86340 35.37723
#
# Velocity S-wave (km/s) = 3.51180 3.87673 3.69877
# Velocity P-wave (km/s) = 5.59129 6.15309 5.87891
#
# Compressibility (1/GPa) = 0.02609613
#
# Stress axis : x y z
#
# Youngs Moduli (GPa) = 77.33994 162.06059 71.06294
#
# Poissons Ratio (x) = 0.34940 0.06188
# Poissons Ratio (y) = 0.16674 0.03635
# Poissons Ratio (z) = 0.06734 0.08289
#
# Static dielectric constant tensor:
#      x y z
#    x 2.180080 0.000000 0.000000 
#    y 0.000000 2.194890 0.000000 
#    z 0.000000 0.000000 1.989340 
# 
# From -- ./inp_files/3812.got.cif
#   From: 2010.05.17/outbox.cif.g08.bks.cpg/sg45_2_cif.got.tgz:3812.got - 2010.06.03 19:51:22.
