data_PCOD9376803
_publ_section_title
;
Structure prediction by ZEFSAII (Michael W. Deem and Ramdas Pophale) SiO2 
 PCOD9376803
Probable space group: I B A 2
;
_chemical_formula_sum "Si O2"
_cell_formula_units_Z 64
_cell_length_a 27.910481
_cell_length_b 8.230744
_cell_length_c 12.104988
_cell_angle_alpha 90.000000
_cell_angle_beta 90.000000
_cell_angle_gamma 90.000000
_cell_volume 2780.806554
_symmetry_space_group_name_H-M "I B A 2"
_symmetry_group_IT_number 45
_symmetry_cell_setting 'orthorhombic'
loop_
_space_group_symop_operation_xyz
x,y,z
-x,-y,z
-x,y,1/2+z
x,-y,1/2+z
1/2+x,1/2+y,1/2+z
1/2-x,1/2-y,1/2+z
1/2-x,1/2+y,z
1/2+x,1/2-y,z
loop_
_atom_site_type_symbol
_atom_site_label
_atom_site_fract_x
_atom_site_fract_y
_atom_site_fract_z
Si Si1 0.432184 0.833106 0.665460
Si Si2 0.189451 0.741789 0.553611
Si Si3 0.561800 0.667597 0.939459
Si Si4 0.271405 0.535617 0.435545
Si Si5 0.051736 0.185514 0.977201
Si Si6 0.957856 0.290987 0.704505
Si Si7 0.381931 0.107626 0.374533
Si Si8 0.190642 0.332591 0.311573
O O1 0.417876 0.761960 0.546272
O O2 0.484316 0.763691 0.703723
O O3 0.389677 0.811065 0.754268
O O4 0.443936 0.025899 0.669291
O O5 0.233696 0.639653 0.505168
O O6 0.201603 0.926038 0.524432
O O7 0.146416 0.697351 0.471844
O O8 0.184223 0.695842 0.681157
O O9 0.504957 0.671893 0.964260
O O10 0.574926 0.477645 0.927921
O O11 0.564868 0.752205 0.821469
O O12 0.239786 0.427918 0.348332
O O13 0.305600 0.659135 0.371006
O O14 0.065160 0.360259 0.923710
O O15 0.062252 0.180065 0.107260
O O16 0.352158 0.945368 0.355586
#
# Coordination Sequence:
#
# PCOD9376803 Si02
#       8
#     8   8   8   8   8   8   8   8
#     4  10  23  39  61  93 125 170 232 283 339 402
#     4  10  21  40  68  98 137 178 221 277 341 409
#     4  10  22  41  67  88 122 180 231 285 347 402
#     4   9  20  42  69 103 132 174 238 262 321 432
#     4  10  23  40  63  92 131 169 230 287 341 415
#     4  10  22  39  66  86 121 175 232 280 336 411
#     4  11  24  41  60  98 144 168 225 285 346 403
#     4  10  21  40  72 100 140 185 213 283 342 397
#
# _framework density 23.014904000000001
#
# number of rings (size 3 to 8) (size 9 to 14) (size 15 to 20)
#    0.000    2.000    1.250    0.750    5.250    2.000 
#    4.500    1.250    0.000    0.000    0.000    0.000 
#    0.000    0.000    0.000    0.000    0.000    0.000 
#
# Total GULP energy -178601.786374 kJ/mol
# GULP energy per Si atom -5581.305824 kJ/mol
# Density = 2.296252 g / cm^3
# Si number density = 23.014904 Si / 1000 Ang^3
#
#
#
# Elastic Constant Matrix: (Units=GPa)
#
#
# Indices 1 2 3 4 5 6 
#
# 1 53.8055 33.0825 23.5343 0.0000 0.0000 0.0000
# 2 33.0825 101.5046 57.1024 0.0000 0.0000 0.0000
# 3 23.5343 57.1024 146.4148 0.0000 0.0000 0.0000
# 4 0.0000 0.0000 0.0000 34.5383 0.0000 0.0000
# 5 0.0000 0.0000 0.0000 0.0000 27.9423 0.0000
# 6 0.0000 0.0000 0.0000 0.0000 0.0000 32.0445
#
#
#
# Elastic Compliance Matrix: (Units=1/GPa)
#
#
# Indices 1 2 3 4 5 6 
#
# 1 0.023358 -0.007047 -0.001006 0.000000 0.000000 0.000000
# 2 -0.007047 0.014747 -0.004619 0.000000 0.000000 0.000000
# 3 -0.001006 -0.004619 0.008793 0.000000 0.000000 0.000000
# 4 0.000000 0.000000 0.000000 0.028953 0.000000 0.000000
# 5 0.000000 0.000000 0.000000 0.000000 0.035788 0.000000
# 6 0.000000 0.000000 0.000000 0.000000 0.000000 0.031207
#
#
# Mechanical properties :
#
#
# Convention : Reuss Voigt Hill
#
# Bulk Modulus (GPa) = 46.39387 58.79593 52.59490
# Shear Modulus (GPa) = 28.51039 31.43871 29.97455
#
# Velocity S-wave (km/s) = 3.52345 3.69997 3.61279
# Velocity P-wave (km/s) = 6.06258 6.62234 6.34863
#
# Compressibility (1/GPa) = 0.02155457
#
# Stress axis : x y z
#
# Youngs Moduli (GPa) = 42.81106 67.81144 113.72788
#
# Poissons Ratio (x) = 0.47786 0.11444
# Poissons Ratio (y) = 0.30169 0.52526
# Poissons Ratio (z) = 0.04308 0.31319
#
# Static dielectric constant tensor:
#      x y z
#    x 1.949040 0.000000 0.000000 
#    y 0.000000 1.918980 0.000000 
#    z 0.000000 0.000000 1.855280 
# 
# From -- ./inp_files/4967.got.cif
#   From: 2010.05.17/outbox.cif.g08.bks.cpg/sg45_3_cif.got.tgz:4967.got - 2010.06.03 19:51:22.
