data_PCOD9376887
_publ_section_title
;
Structure prediction by ZEFSAII (Michael W. Deem and Ramdas Pophale) SiO2 
 PCOD9376887
Probable space group: I B A 2
;
_chemical_formula_sum "Si O2"
_cell_formula_units_Z 40
_cell_length_a 21.329090
_cell_length_b 8.031130
_cell_length_c 8.914931
_cell_angle_alpha 90.000000
_cell_angle_beta 90.000000
_cell_angle_gamma 90.000000
_cell_volume 1527.098213
_symmetry_space_group_name_H-M "I B A 2"
_symmetry_group_IT_number 45
_symmetry_cell_setting 'orthorhombic'
loop_
_space_group_symop_operation_xyz
x,y,z
-x,-y,z
-x,y,1/2+z
x,-y,1/2+z
1/2+x,1/2+y,1/2+z
1/2-x,1/2-y,1/2+z
1/2-x,1/2+y,z
1/2+x,1/2-y,z
loop_
_atom_site_type_symbol
_atom_site_label
_atom_site_fract_x
_atom_site_fract_y
_atom_site_fract_z
Si Si1 0.058288 0.393266 0.406320
Si Si2 0.447361 0.368603 0.129015
Si Si3 0.615097 0.556757 0.848216
Si Si4 0.229595 0.138739 0.740833
Si Si5 0.808569 0.427462 0.032288
O O1 0.034980 0.305801 0.560750
O O2 0.081281 0.232822 0.305763
O O3 0.123660 0.472622 0.462473
O O4 0.000000 0.500000 0.350499
O O5 0.500000 0.500000 0.092654
O O6 0.427981 0.401741 0.297505
O O7 0.388068 0.426780 0.026382
O O8 0.682037 0.511360 0.783856
O O9 0.192731 0.298999 0.674869
O O10 0.274775 0.084036 0.605865
O O11 0.270307 0.151852 0.893043
#
# Coordination Sequence:
#
# PCOD9376887 Si02
#       5
#     8   8   8   8   8
#     4  10  24  49  69 112 154 197 256 329 389 462
#     4  10  21  43  72 101 138 204 252 298 377 477
#     4  10  21  44  76 103 142 201 254 308 383 475
#     4  12  24  48  79 111 158 200 269 319 404 472
#     4  12  25  48  74 115 151 208 255 333 393 476
#
# _framework density 26.193470000000001
#
# number of rings (size 3 to 8) (size 9 to 14) (size 15 to 20)
#    1.200    0.000    2.000    5.400    0.000    0.000 
#   18.000    0.000    0.000    1.200    0.000    0.000 
#    0.000    0.000    0.000    0.000    0.000    0.000 
#
# Total GULP energy -111570.724986 kJ/mol
# GULP energy per Si atom -5578.536249 kJ/mol
# Density = 2.613385 g / cm^3
# Si number density = 26.193470 Si / 1000 Ang^3
#
#
#
# Elastic Constant Matrix: (Units=GPa)
#
#
# Indices 1 2 3 4 5 6 
#
# 1 143.1743 49.3406 29.8508 0.0000 0.0000 0.0000
# 2 49.3406 74.2393 17.9242 0.0000 0.0000 0.0000
# 3 29.8508 17.9242 108.2546 0.0000 0.0000 0.0000
# 4 0.0000 0.0000 0.0000 47.7765 0.0000 0.0000
# 5 0.0000 0.0000 0.0000 0.0000 28.5091 0.0000
# 6 0.0000 0.0000 0.0000 0.0000 0.0000 43.2042
#
#
#
# Elastic Compliance Matrix: (Units=1/GPa)
#
#
# Indices 1 2 3 4 5 6 
#
# 1 0.009321 -0.005806 -0.001609 0.000000 0.000000 0.000000
# 2 -0.005806 0.017648 -0.001321 0.000000 0.000000 0.000000
# 3 -0.001609 -0.001321 0.009900 0.000000 0.000000 0.000000
# 4 0.000000 0.000000 0.000000 0.020931 0.000000 0.000000
# 5 0.000000 0.000000 0.000000 0.000000 0.035077 0.000000
# 6 0.000000 0.000000 0.000000 0.000000 0.000000 0.023146
#
#
# Mechanical properties :
#
#
# Convention : Reuss Voigt Hill
#
# Bulk Modulus (GPa) = 51.55619 57.76661 54.66140
# Shear Modulus (GPa) = 35.72458 39.13480 37.42969
#
# Velocity S-wave (km/s) = 3.69707 3.86951 3.78427
# Velocity P-wave (km/s) = 6.16036 6.48582 6.32518
#
# Compressibility (1/GPa) = 0.01939631
#
# Stress axis : x y z
#
# Youngs Moduli (GPa) = 107.28560 56.66388 101.01194
#
# Poissons Ratio (x) = 0.32901 0.16251
# Poissons Ratio (y) = 0.62294 0.13343
# Poissons Ratio (z) = 0.17260 0.07485
#
# Static dielectric constant tensor:
#      x y z
#    x 2.139140 0.000000 0.000000 
#    y 0.000000 2.182090 0.000000 
#    z 0.000000 0.000000 1.999100 
# 
# From -- ./inp_files/2457.got.cif
#   From: 2010.05.17/outbox.cif.g08.bks.cpg/sg45_2_cif.got.tgz:2457.got - 2010.06.03 19:51:22.
