data_PCOD9376100
_publ_section_title
;
Structure prediction by ZEFSAII (Michael W. Deem and Ramdas Pophale) SiO2 
 PCOD9376100
Probable space group: I B A 2
;
_chemical_formula_sum "Si O2"
_cell_formula_units_Z 48
_cell_length_a 14.542413
_cell_length_b 10.391516
_cell_length_c 12.570389
_cell_angle_alpha 90.000000
_cell_angle_beta 90.000000
_cell_angle_gamma 90.000000
_cell_volume 1899.608492
_symmetry_space_group_name_H-M "I B A 2"
_symmetry_group_IT_number 45
_symmetry_cell_setting 'orthorhombic'
loop_
_space_group_symop_operation_xyz
x,y,z
-x,-y,z
-x,y,1/2+z
x,-y,1/2+z
1/2+x,1/2+y,1/2+z
1/2-x,1/2-y,1/2+z
1/2-x,1/2+y,z
1/2+x,1/2-y,z
loop_
_atom_site_type_symbol
_atom_site_label
_atom_site_fract_x
_atom_site_fract_y
_atom_site_fract_z
Si Si1 0.404707 0.036441 0.232500
Si Si2 0.232698 0.034704 0.588353
Si Si3 0.863225 0.823711 0.774121
Si Si4 0.846894 0.714657 0.319250
Si Si5 0.148039 0.232133 0.066740
Si Si6 0.994379 0.865642 0.443798
O O1 0.314064 0.020976 0.162431
O O2 0.407183 0.183518 0.263740
O O3 0.500000 0.000000 0.176854
O O4 0.391440 0.928233 0.323859
O O5 0.190685 0.907236 0.537996
O O6 0.158291 0.104954 0.663949
O O7 0.285829 0.151209 0.530798
O O8 0.762638 0.802302 0.825747
O O9 0.936192 0.895801 0.846039
O O10 0.859900 0.760642 0.195627
O O11 0.899087 0.809809 0.399367
O O12 0.048447 0.238753 0.013915
O O13 0.000000 0.000000 0.506332
#
# Coordination Sequence:
#
# PCOD9376100 Si02
#       6
#     8   8   8   8   8   8
#     4  10  17  37  69 102 130 170 235 274 342 412
#     4  10  20  43  70  99 134 184 218 282 350 407
#     4  10  21  40  71  97 133 178 225 284 344 412
#     4  10  23  43  72  97 136 185 223 283 346 406
#     4  10  23  43  69 102 138 180 230 277 350 405
#     4  12  26  41  64 101 138 178 234 283 335 416
#
# _framework density 25.268363999999998
#
# number of rings (size 3 to 8) (size 9 to 14) (size 15 to 20)
#    0.000    2.000    5.000    1.000    2.333    3.333 
#    0.000    5.000   11.000    0.000    0.000    0.000 
#    0.000    0.000    0.000    0.000    0.000    0.000 
#
# Total GULP energy -134194.755707 kJ/mol
# GULP energy per Si atom -5591.448154 kJ/mol
# Density = 2.521085 g / cm^3
# Si number density = 25.268364 Si / 1000 Ang^3
#
#
#
# Elastic Constant Matrix: (Units=GPa)
#
#
# Indices 1 2 3 4 5 6 
#
# 1 124.7971 23.4598 17.6664 0.0000 0.0000 0.0000
# 2 23.4598 140.5062 21.1730 0.0000 0.0000 0.0000
# 3 17.6664 21.1730 58.2831 0.0000 0.0000 0.0000
# 4 0.0000 0.0000 0.0000 20.7390 0.0000 0.0000
# 5 0.0000 0.0000 0.0000 0.0000 37.8076 0.0000
# 6 0.0000 0.0000 0.0000 0.0000 0.0000 39.5860
#
#
#
# Elastic Compliance Matrix: (Units=1/GPa)
#
#
# Indices 1 2 3 4 5 6 
#
# 1 0.008528 -0.001094 -0.002188 0.000000 0.000000 0.000000
# 2 -0.001094 0.007670 -0.002455 0.000000 0.000000 0.000000
# 3 -0.002188 -0.002455 0.018712 0.000000 0.000000 0.000000
# 4 0.000000 0.000000 0.000000 0.048218 0.000000 0.000000
# 5 0.000000 0.000000 0.000000 0.000000 0.026450 0.000000
# 6 0.000000 0.000000 0.000000 0.000000 0.000000 0.025261
#
#
# Mechanical properties :
#
#
# Convention : Reuss Voigt Hill
#
# Bulk Modulus (GPa) = 42.66627 49.79830 46.23228
# Shear Modulus (GPa) = 32.44115 37.04568 34.74341
#
# Velocity S-wave (km/s) = 3.58699 3.83311 3.71209
# Velocity P-wave (km/s) = 5.83757 6.27223 6.05880
#
# Compressibility (1/GPa) = 0.02343772
#
# Stress axis : x y z
#
# Youngs Moduli (GPa) = 117.25548 130.38298 53.44057
#
# Poissons Ratio (x) = 0.14268 0.11690
# Poissons Ratio (y) = 0.12831 0.13117
# Poissons Ratio (z) = 0.25650 0.32003
#
# Static dielectric constant tensor:
#      x y z
#    x 1.976810 0.000000 0.000000 
#    y 0.000000 2.016000 0.000000 
#    z 0.000000 0.000000 2.042650 
# 
# From -- ./inp_files/6481.got.cif
#   From: 2010.05.17/outbox.cif.g08.bks.cpg/sg45_4_cif.got.tgz:6481.got - 2010.06.03 19:51:22.
