data_PCOD9376919
_publ_section_title
;
Structure prediction by ZEFSAII (Michael W. Deem and Ramdas Pophale) SiO2 
 PCOD9376919
Probable space group: I B A 2
;
_chemical_formula_sum "Si O2"
_cell_formula_units_Z 48
_cell_length_a 11.034084
_cell_length_b 25.645800
_cell_length_c 8.841619
_cell_angle_alpha 90.000000
_cell_angle_beta 90.000000
_cell_angle_gamma 90.000000
_cell_volume 2501.982878
_symmetry_space_group_name_H-M "I B A 2"
_symmetry_group_IT_number 45
_symmetry_cell_setting 'orthorhombic'
loop_
_space_group_symop_operation_xyz
x,y,z
-x,-y,z
-x,y,1/2+z
x,-y,1/2+z
1/2+x,1/2+y,1/2+z
1/2-x,1/2-y,1/2+z
1/2-x,1/2+y,z
1/2+x,1/2-y,z
loop_
_atom_site_type_symbol
_atom_site_label
_atom_site_fract_x
_atom_site_fract_y
_atom_site_fract_z
Si Si1 0.000000 0.500000 0.286391
Si Si2 0.136176 0.237451 0.871365
Si Si3 0.663483 0.540383 0.174343
Si Si4 0.732242 0.865501 0.840998
Si Si5 0.885467 0.268292 0.718455
Si Si6 0.000000 0.000000 0.438817
Si Si7 0.345119 0.953104 0.549954
O O1 0.049612 0.545056 0.176014
O O2 0.102663 0.479427 0.397949
O O3 0.160383 0.175149 0.877218
O O4 0.261987 0.256769 0.791477
O O5 0.013638 0.247648 0.778695
O O6 0.123597 0.261029 0.038696
O O7 0.731650 0.593492 0.210917
O O8 0.599781 0.524425 0.330169
O O9 0.746237 0.492443 0.118600
O O10 0.559920 0.543077 0.047081
O O11 0.627582 0.827985 0.776278
O O12 0.698647 0.897421 0.991874
#
# Coordination Sequence:
#
# PCOD9376919 Si02
#       7
#     4   8   8   8   8   4   8
#     4  10  22  34  66  86 144 178 210 282 320 392
#     4  10  23  46  71 101 138 177 242 307 352 423
#     4  11  20  42  59 100 138 173 225 270 328 435
#     4  10  24  40  72  98 136 190 226 276 382 402
#     4  10  23  46  71 101 138 177 242 307 352 423
#     4  10  22  34  66  86 144 178 210 282 320 392
#     4  11  20  42  59 100 138 173 225 270 328 435
#
# _framework density 19.184784000000001
#
# number of rings (size 3 to 8) (size 9 to 14) (size 15 to 20)
#    1.000    0.667    3.333    1.000    0.000    2.667 
#    0.000    0.000    0.000    0.000    0.000    0.000 
#    0.000    0.000    0.000    0.000    0.000    0.000 
#
# Total GULP energy -133674.663840 kJ/mol
# GULP energy per Si atom -5569.777660 kJ/mol
# Density = 1.914112 g / cm^3
# Si number density = 19.184784 Si / 1000 Ang^3
#
#
#
# Elastic Constant Matrix: (Units=GPa)
#
#
# Indices 1 2 3 4 5 6 
#
# 1 81.6055 -9.8109 13.5106 -0.0005 -0.0011 -0.0001
# 2 -9.8109 26.8363 -28.1413 -0.0011 -0.0007 0.0000
# 3 13.5106 -28.1413 80.0216 -0.0009 -0.0042 -0.0002
# 4 -0.0005 -0.0011 -0.0009 31.8844 -0.0001 0.0000
# 5 -0.0011 -0.0007 -0.0042 -0.0001 30.3303 0.0003
# 6 -0.0001 0.0000 -0.0002 0.0000 0.0003 38.0514
#
#
#
# Elastic Compliance Matrix: (Units=1/GPa)
#
#
# Indices 1 2 3 4 5 6 
#
# 1 0.012851 0.003838 -0.000820 0.000000 0.000000 0.000000
# 2 0.003838 0.060179 0.020515 0.000003 0.000004 0.000000
# 3 -0.000820 0.020515 0.019850 0.000001 0.000003 0.000000
# 4 0.000000 0.000003 0.000001 0.031363 0.000000 0.000000
# 5 0.000000 0.000004 0.000003 0.000000 0.032970 0.000000
# 6 0.000000 0.000000 0.000000 0.000000 0.000000 0.026280
#
#
# Mechanical properties :
#
#
# Convention : Reuss Voigt Hill
#
# Bulk Modulus (GPa) = 7.14554 15.50891 11.32723
# Shear Modulus (GPa) = 27.31113 34.24689 30.77901
#
# Velocity S-wave (km/s) = 3.77713 4.22964 4.00977
# Velocity P-wave (km/s) = 4.77022 5.65284 5.23018
#
# Compressibility (1/GPa) = 0.13994743
#
# Stress axis : x y z
#
# Youngs Moduli (GPa) = 77.81323 16.61708 50.37880
#
# Poissons Ratio (x) = -0.06378 0.04130
# Poissons Ratio (y) = -0.29868 -1.03353
# Poissons Ratio (z) = 0.06380 -0.34090
#
# Static dielectric constant tensor:
#      x y z
#    x 1.783210 0.000000 0.000000 
#    y 0.000000 1.681750 0.000000 
#    z 0.000000 0.000000 1.657940 
# 
# From -- ./inp_files/1405.got.cif
#   From: 2010.05.17/outbox.cif.g08.bks.cpg/sg45_1_cif.got.tgz:1405.got - 2010.06.03 19:51:22.
