data_PCOD9376029
_publ_section_title
;
Structure prediction by ZEFSAII (Michael W. Deem and Ramdas Pophale) SiO2 
 PCOD9376029
Probable space group: I M M 2
;
_chemical_formula_sum "Si O2"
_cell_formula_units_Z 32
_cell_length_a 24.000000
_cell_length_b 15.000000
_cell_length_c 9.000000
_cell_angle_alpha 90.000000
_cell_angle_beta 90.000000
_cell_angle_gamma 90.000000
_cell_volume 3240.000000
_symmetry_space_group_name_H-M "I M M 2"
_symmetry_group_IT_number 44
_symmetry_cell_setting 'orthorhombic'
loop_
_space_group_symop_operation_xyz
x,y,z
-x,-y,z
-x,y,z
x,-y,z
1/2+x,1/2+y,1/2+z
1/2-x,1/2-y,1/2+z
1/2-x,1/2+y,1/2+z
1/2+x,1/2-y,1/2+z
loop_
_atom_site_type_symbol
_atom_site_label
_atom_site_fract_x
_atom_site_fract_y
_atom_site_fract_z
Si Si1 0.397890 0.600634 0.529560
Si Si2 0.840205 0.401139 0.373871
Si Si3 0.567031 0.232616 0.351796
Si Si4 0.565220 0.600472 0.849072
Si Si5 0.125670 0.230876 0.540871
Si Si6 0.772911 0.145023 0.032968
Si Si7 0.242306 0.825904 0.389590
Si Si8 0.849523 0.398803 0.025376
O O1 0.419955 0.500000 0.518779
O O2 0.429169 0.670351 0.427439
O O3 0.404759 0.631623 0.699767
O O4 0.331784 0.599846 0.501793
O O5 0.864788 0.500000 0.386323
O O6 0.874333 0.322067 0.448068
O O7 0.781798 0.401405 0.464914
O O8 0.835046 0.379141 0.198706
O O9 0.500000 0.210982 0.329815
O O10 0.606619 0.241864 0.205602
O O11 0.602415 0.165046 0.458054
O O12 0.500000 0.599548 0.818686
O O13 0.584412 0.500000 0.880596
O O14 0.579530 0.663309 0.983596
O O15 0.185047 0.183435 0.489453
O O16 0.767865 0.163187 0.211871
O O17 0.773069 0.234891 0.935979
O O18 0.289929 0.894543 0.440265
O O19 0.870399 0.500000 0.017163
#
# Coordination Sequence:
#
# PCOD9376029 Si02
#       8
#     8   8   8   8   8   8   8   8
#     4  11  23  40  64  91 124 168 217 266 323 386
#     4  10  23  40  64  97 131 169 212 267 333 398
#     4  12  27  45  67  95 132 179 228 278 332 393
#     4  10  21  40  64  91 126 168 218 270 322 389
#     4  11  23  40  67  96 130 174 216 270 332 403
#     4  11  21  36  62  97 132 172 208 258 322 404
#     4  11  21  37  64  96 135 167 210 262 330 390
#     4  11  24  43  68  98 132 173 222 276 336 397
#
# _framework density 9.8765429999999999
#
# number of rings (size 3 to 8) (size 9 to 14) (size 15 to 20)
#    0.000    1.125    2.500    4.875    1.750    4.500 
#    0.000    0.625    0.000    2.625    0.000    0.000 
#    0.000    0.000    0.000    0.000    0.000    0.000 
#
# Total GULP energy -178356.657328 kJ/mol
# GULP energy per Si atom -5573.645541 kJ/mol
# Density = 0.985406 g / cm^3
# Si number density = 9.876543 Si / 1000 Ang^3
#
#
#
# Elastic Constant Matrix: (Units=GPa)
#
#
# Indices 1 2 3 4 5 6 
#
# 1 88.9224 16.8749 41.4161 0.0000 0.0000 0.0000
# 2 16.8749 74.4879 45.8391 0.0000 0.0000 0.0000
# 3 41.4161 45.8391 114.8072 0.0000 0.0000 0.0000
# 4 0.0000 0.0000 0.0000 -0.2587 0.0000 0.0000
# 5 0.0000 0.0000 0.0000 0.0000 27.1620 0.0000
# 6 0.0000 0.0000 0.0000 0.0000 0.0000 -35.5358
#
#
#
# Elastic Compliance Matrix: (Units=1/GPa)
#
#
# Indices 1 2 3 4 5 6 
#
# 1 0.013517 -0.000081 -0.004844 0.000000 0.000000 0.000000
# 2 -0.000081 0.017799 -0.007077 0.000000 0.000000 0.000000
# 3 -0.004844 -0.007077 0.013283 0.000000 0.000000 0.000000
# 4 0.000000 0.000000 0.000000 -3.865791 0.000000 0.000000
# 5 0.000000 0.000000 0.000000 0.000000 0.036816 0.000000
# 6 0.000000 0.000000 0.000000 0.000000 0.000000 -0.028141
#
#
# Mechanical properties :
#
#
# Convention : Reuss Voigt Hill
#
# Bulk Modulus (GPa) = 48.55656 54.05310 51.30483
# Shear Modulus (GPa) = -1.32218 9.87934 4.27858
#
# Velocity S-wave (km/s) = -0.81903 2.23881 1.47334
# Velocity P-wave (km/s) = 4.87244 5.84010 5.37808
#
# Compressibility (1/GPa) = 0.02059454
#
# Stress axis : x y z
#
# Youngs Moduli (GPa) = 73.97969 56.18415 75.28267
#
# Poissons Ratio (x) = 0.00458 0.36465
# Poissons Ratio (y) = 0.00603 0.53278
# Poissons Ratio (z) = 0.35834 0.39762
#
# Static dielectric constant tensor:
#      x y z
#    x 1.710080 0.000000 0.000000 
#    y 0.000000 1.875570 0.000000 
#    z 0.000000 0.000000 1.711440 
# 
# From -- ./inp_files/9456.got.cif
#   From: 2010.05.17/outbox.ucp.g08.bks.cvg/sg44_5_cif.got.tgz:9456.got - 2010.06.11 16:32:36.
