data_PCOD9376162
_publ_section_title
;
Structure prediction by ZEFSAII (Michael W. Deem and Ramdas Pophale) SiO2 
 PCOD9376162
Probable space group: I B A 2
;
_chemical_formula_sum "Si O2"
_cell_formula_units_Z 44
_cell_length_a 14.964934
_cell_length_b 13.047735
_cell_length_c 11.084133
_cell_angle_alpha 90.000000
_cell_angle_beta 90.000000
_cell_angle_gamma 90.000000
_cell_volume 2164.271107
_symmetry_space_group_name_H-M "I B A 2"
_symmetry_group_IT_number 45
_symmetry_cell_setting 'orthorhombic'
loop_
_space_group_symop_operation_xyz
x,y,z
-x,-y,z
-x,y,1/2+z
x,-y,1/2+z
1/2+x,1/2+y,1/2+z
1/2-x,1/2-y,1/2+z
1/2-x,1/2+y,z
1/2+x,1/2-y,z
loop_
_atom_site_type_symbol
_atom_site_label
_atom_site_fract_x
_atom_site_fract_y
_atom_site_fract_z
Si Si1 0.150544 0.139804 0.273460
Si Si2 0.568071 0.137286 0.549806
Si Si3 0.431929 0.137286 0.775335
Si Si4 0.500000 0.500000 0.662570
Si Si5 0.202848 0.500000 0.162570
Si Si6 0.150544 0.139804 0.551680
O O1 0.122609 0.257153 0.254854
O O2 0.064037 0.071760 0.241336
O O3 0.232503 0.093165 0.199209
O O4 0.173676 0.126401 0.412570
O O5 0.500000 0.129296 0.662570
O O6 0.530076 0.140995 0.412570
O O7 0.637130 0.043424 0.560430
O O8 0.622609 0.242847 0.570286
O O9 0.362870 0.043424 0.764711
O O10 0.435963 0.571760 0.583804
O O11 0.267497 0.406834 0.125931
#
# Coordination Sequence:
#
# PCOD9376162 Si02
#       6
#     8   8   8   4   8   8
#     4  10  21  38  61  91 124 161 209 255 308 366
#     4  11  24  43  65  92 127 165 208 256 308 370
#     4  11  24  43  65  92 127 165 208 256 308 370
#     4  10  18  36  62  88 122 160 208 256 306 364
#     4  11  23  39  63  92 126 164 205 255 313 367
#     4  10  21  38  61  91 124 161 209 255 308 366
#
# _framework density 20.330171
#
# number of rings (size 3 to 8) (size 9 to 14) (size 15 to 20)
#    0.000    1.455    1.818    3.273    0.000    4.364 
#    0.000    1.818    0.000    0.000    0.000    0.000 
#    0.000    0.000    0.000    0.000    0.000    0.000 
#
# Total GULP energy -122785.496028 kJ/mol
# GULP energy per Si atom -5581.158910 kJ/mol
# Density = 2.028390 g / cm^3
# Si number density = 20.330171 Si / 1000 Ang^3
#
#
#
# Elastic Constant Matrix: (Units=GPa)
#
#
# Indices 1 2 3 4 5 6 
#
# 1 77.4301 28.2135 70.9233 0.0000 0.0000 0.0000
# 2 28.2135 82.1534 21.8008 0.0000 0.0000 0.0000
# 3 70.9233 21.8008 117.2235 0.0000 0.0000 0.0000
# 4 0.0000 0.0000 0.0000 10.9891 0.0000 0.0000
# 5 0.0000 0.0000 0.0000 0.0000 16.1765 0.0000
# 6 0.0000 0.0000 0.0000 0.0000 0.0000 33.3091
#
#
#
# Elastic Compliance Matrix: (Units=1/GPa)
#
#
# Indices 1 2 3 4 5 6 
#
# 1 0.031616 -0.006082 -0.017997 0.000000 0.000000 0.000000
# 2 -0.006082 0.013974 0.001081 0.000000 0.000000 0.000000
# 3 -0.017997 0.001081 0.019219 0.000000 0.000000 0.000000
# 4 0.000000 0.000000 0.000000 0.091000 0.000000 0.000000
# 5 0.000000 0.000000 0.000000 0.000000 0.061818 0.000000
# 6 0.000000 0.000000 0.000000 0.000000 0.000000 0.030022
#
#
# Mechanical properties :
#
#
# Convention : Reuss Voigt Hill
#
# Bulk Modulus (GPa) = 53.15784 57.63137 55.39460
# Shear Modulus (GPa) = 16.67137 22.48623 19.57880
#
# Velocity S-wave (km/s) = 2.86672 3.32934 3.10666
# Velocity P-wave (km/s) = 6.09602 6.57180 6.33838
#
# Compressibility (1/GPa) = 0.01881190
#
# Stress axis : x y z
#
# Youngs Moduli (GPa) = 31.62971 71.56051 52.03296
#
# Poissons Ratio (x) = 0.43521 0.93646
# Poissons Ratio (y) = 0.19236 -0.05623
# Poissons Ratio (z) = 0.56925 -0.07734
#
# Static dielectric constant tensor:
#      x y z
#    x 1.714920 0.000000 0.000000 
#    y 0.000000 1.728380 0.000000 
#    z 0.000000 0.000000 1.702420 
# 
# From -- ./inp_files/4076.got.cif
#   From: 2010.05.17/outbox.cif.g08.bks.cpg/sg45_3_cif.got.tgz:4076.got - 2010.06.03 19:51:22.
