data_PCOD9376529
_publ_section_title
;
Structure prediction by ZEFSAII (Michael W. Deem and Ramdas Pophale) SiO2 
 PCOD9376529
Probable space group: I B A 2
;
_chemical_formula_sum "Si O2"
_cell_formula_units_Z 40
_cell_length_a 8.825281
_cell_length_b 18.187356
_cell_length_c 8.735789
_cell_angle_alpha 90.000000
_cell_angle_beta 90.000000
_cell_angle_gamma 90.000000
_cell_volume 1402.168628
_symmetry_space_group_name_H-M "I B A 2"
_symmetry_group_IT_number 45
_symmetry_cell_setting 'orthorhombic'
loop_
_space_group_symop_operation_xyz
x,y,z
-x,-y,z
-x,y,1/2+z
x,-y,1/2+z
1/2+x,1/2+y,1/2+z
1/2-x,1/2-y,1/2+z
1/2-x,1/2+y,z
1/2+x,1/2-y,z
loop_
_atom_site_type_symbol
_atom_site_label
_atom_site_fract_x
_atom_site_fract_y
_atom_site_fract_z
Si Si1 0.463024 0.618524 0.560030
Si Si2 0.301505 0.965704 0.922316
Si Si3 0.339732 0.106214 0.732398
Si Si4 0.220402 0.645837 0.185283
Si Si5 0.618394 0.242034 0.398744
O O1 0.373549 0.558443 0.457208
O O2 0.334890 0.630625 0.690691
O O3 0.624295 0.603736 0.632648
O O4 0.486568 0.695192 0.470222
O O5 0.361405 0.919193 0.777514
O O6 0.324476 0.048610 0.870788
O O7 0.381102 0.934918 0.074429
O O8 0.423162 0.182665 0.769411
O O9 0.258839 0.705540 0.317166
O O10 0.166045 0.690570 0.039025
#
# Coordination Sequence:
#
# PCOD9376529 Si02
#       5
#     8   8   8   8   8
#     4   9  23  35  57  90 123 163 200 250 307 360
#     4   9  21  37  56  92 123 168 188 257 303 385
#     4  10  20  39  56  90 124 163 199 236 320 364
#     4  11  21  39  58  87 128 158 215 246 314 361
#     4  11  21  38  60  86 122 168 206 255 296 378
#
# _framework density 28.527238000000001
#
# number of rings (size 3 to 8) (size 9 to 14) (size 15 to 20)
#    1.200    0.800    2.000    1.200    5.600    0.800 
#    3.600    0.000    0.000    0.000    0.000   44.800 
#    0.000    0.000    0.000    0.000    0.000    0.000 
#
# Total GULP energy -111934.349004 kJ/mol
# GULP energy per Si atom -5596.717450 kJ/mol
# Density = 2.846231 g / cm^3
# Si number density = 28.527238 Si / 1000 Ang^3
#
#
#
# Elastic Constant Matrix: (Units=GPa)
#
#
# Indices 1 2 3 4 5 6 
#
# 1 77.4792 35.9365 44.8618 0.0000 0.0000 0.0000
# 2 35.9365 185.1134 72.1931 0.0000 0.0000 0.0000
# 3 44.8618 72.1931 180.9666 -0.0001 0.0000 0.0000
# 4 0.0000 0.0000 -0.0001 69.5360 0.0000 0.0000
# 5 0.0000 0.0000 0.0000 0.0000 52.3595 0.0000
# 6 0.0000 0.0000 0.0000 0.0000 0.0000 38.9854
#
#
#
# Elastic Compliance Matrix: (Units=1/GPa)
#
#
# Indices 1 2 3 4 5 6 
#
# 1 0.015558 -0.001795 -0.003141 0.000000 0.000000 0.000000
# 2 -0.001795 0.006605 -0.002190 0.000000 0.000000 0.000000
# 3 -0.003141 -0.002190 0.007178 0.000000 0.000000 0.000000
# 4 0.000000 0.000000 0.000000 0.014381 0.000000 0.000000
# 5 0.000000 0.000000 0.000000 0.000000 0.019099 0.000000
# 6 0.000000 0.000000 0.000000 0.000000 0.000000 0.025651
#
#
# Mechanical properties :
#
#
# Convention : Reuss Voigt Hill
#
# Bulk Modulus (GPa) = 66.27326 83.28244 74.77785
# Shear Modulus (GPa) = 46.40286 51.54737 48.97511
#
# Velocity S-wave (km/s) = 4.03751 4.25544 4.14790
# Velocity P-wave (km/s) = 6.70949 7.30769 7.01497
#
# Compressibility (1/GPa) = 0.01508904
#
# Stress axis : x y z
#
# Youngs Moduli (GPa) = 64.27601 151.40915 139.31545
#
# Poissons Ratio (x) = 0.27185 0.43753
# Poissons Ratio (y) = 0.11541 0.30506
# Poissons Ratio (z) = 0.20186 0.33154
#
# Static dielectric constant tensor:
#      x y z
#    x 2.307360 0.000000 0.000000 
#    y 0.000000 2.116010 0.000000 
#    z 0.000000 0.000000 2.194640 
# 
# From -- ./inp_files/1652.got.cif
#   From: 2010.05.17/outbox.cif.g08.bks.cpg/sg45_1_cif.got.tgz:1652.got - 2010.06.03 19:51:22.
