data_PCOD9376530
_publ_section_title
;
Structure prediction by ZEFSAII (Michael W. Deem and Ramdas Pophale) SiO2 
 PCOD9376530
Probable space group: I B A 2
;
_chemical_formula_sum "Si O2"
_cell_formula_units_Z 32
_cell_length_a 11.214681
_cell_length_b 13.883427
_cell_length_c 8.803506
_cell_angle_alpha 90.000000
_cell_angle_beta 90.000000
_cell_angle_gamma 90.000000
_cell_volume 1370.690082
_symmetry_space_group_name_H-M "I B A 2"
_symmetry_group_IT_number 45
_symmetry_cell_setting 'orthorhombic'
loop_
_space_group_symop_operation_xyz
x,y,z
-x,-y,z
-x,y,1/2+z
x,-y,1/2+z
1/2+x,1/2+y,1/2+z
1/2-x,1/2-y,1/2+z
1/2-x,1/2+y,z
1/2+x,1/2-y,z
loop_
_atom_site_type_symbol
_atom_site_label
_atom_site_fract_x
_atom_site_fract_y
_atom_site_fract_z
Si Si1 0.404572 0.683303 0.172820
Si Si2 0.786926 0.435751 0.006686
Si Si3 0.625638 0.610593 0.005772
Si Si4 0.139200 0.387485 0.181376
O O1 0.506811 0.615908 0.103910
O O2 0.393450 0.670467 0.353066
O O3 0.437616 0.794602 0.137096
O O4 0.280796 0.645930 0.100379
O O5 0.856421 0.399352 0.861113
O O6 0.679551 0.507699 0.951629
O O7 0.868624 0.506520 0.108053
O O8 0.730037 0.643851 0.119362
#
# Coordination Sequence:
#
# PCOD9376530 Si02
#       4
#     8   8   8   8
#     4  12  21  38  64  91 126 163 208 265 319 375
#     4  10  20  39  58  93 124 156 213 254 319 366
#     4  10  22  36  59  95 121 159 206 262 312 368
#     4  10  22  38  64  90 124 165 206 264 315 382
#
# _framework density 23.345904999999998
#
# number of rings (size 3 to 8) (size 9 to 14) (size 15 to 20)
#    1.500    0.000    2.500    3.750    0.000    2.000 
#    0.000    0.000    0.000   12.000    0.000    0.000 
#    0.000    0.000    0.000    0.000    0.000    0.000 
#
# Total GULP energy -89226.913270 kJ/mol
# GULP energy per Si atom -5576.682079 kJ/mol
# Density = 2.329277 g / cm^3
# Si number density = 23.345905 Si / 1000 Ang^3
#
#
#
# Elastic Constant Matrix: (Units=GPa)
#
#
# Indices 1 2 3 4 5 6 
#
# 1 39.3623 -7.0266 1.0980 0.0000 0.0000 0.0000
# 2 -7.0266 117.2731 14.9740 0.0000 0.0000 0.0000
# 3 1.0980 14.9740 113.4264 0.0000 0.0000 0.0000
# 4 0.0000 0.0000 0.0000 1.2657 0.0000 0.0000
# 5 0.0000 0.0000 0.0000 0.0000 5.6931 0.0000
# 6 0.0000 0.0000 0.0000 0.0000 0.0000 -0.1338
#
#
#
# Elastic Compliance Matrix: (Units=1/GPa)
#
#
# Indices 1 2 3 4 5 6 
#
# 1 0.025703 0.001599 -0.000460 0.000000 0.000000 0.000000
# 2 0.001599 0.008773 -0.001174 0.000000 0.000000 0.000000
# 3 -0.000460 -0.001174 0.008976 0.000000 0.000000 0.000000
# 4 0.000000 0.000000 0.000000 0.790090 0.000000 0.000000
# 5 0.000000 0.000000 0.000000 0.000000 0.175650 0.000000
# 6 0.000000 0.000000 0.000000 0.000000 0.000000 -7.474799
#
#
# Mechanical properties :
#
#
# Convention : Reuss Voigt Hill
#
# Bulk Modulus (GPa) = 23.05089 32.01694 27.53391
# Shear Modulus (GPa) = -0.77506 18.76610 8.99552
#
# Velocity S-wave (km/s) = -0.57681 2.83826 1.96507
# Velocity P-wave (km/s) = 3.07432 4.94822 4.11925
#
# Compressibility (1/GPa) = 0.04338227
#
# Stress axis : x y z
#
# Youngs Moduli (GPa) = 38.90559 113.98929 111.41224
#
# Poissons Ratio (x) = -0.18224 0.05124
# Poissons Ratio (y) = -0.06220 0.13075
# Poissons Ratio (z) = 0.01789 0.13378
#
# Static dielectric constant tensor:
#      x y z
#    x 1.865780 0.000000 0.000000 
#    y 0.000000 1.940130 0.000000 
#    z 0.000000 0.000000 1.787880 
# 
# From -- ./inp_files/1179.got.cif
#   From: 2010.05.17/outbox.cif.g08.bks.cpg/sg45_1_cif.got.tgz:1179.got - 2010.06.03 19:51:22.
