data_PCOD9376298
_publ_section_title
;
Structure prediction by ZEFSAII (Michael W. Deem and Ramdas Pophale) SiO2 
 PCOD9376298
Probable space group: I B A 2
;
_chemical_formula_sum "Si O2"
_cell_formula_units_Z 48
_cell_length_a 8.322843
_cell_length_b 12.656615
_cell_length_c 19.448496
_cell_angle_alpha 90.000000
_cell_angle_beta 90.000000
_cell_angle_gamma 90.000000
_cell_volume 2048.685500
_symmetry_space_group_name_H-M "I B A 2"
_symmetry_group_IT_number 45
_symmetry_cell_setting 'orthorhombic'
loop_
_space_group_symop_operation_xyz
x,y,z
-x,-y,z
-x,y,1/2+z
x,-y,1/2+z
1/2+x,1/2+y,1/2+z
1/2-x,1/2-y,1/2+z
1/2-x,1/2+y,z
1/2+x,1/2-y,z
loop_
_atom_site_type_symbol
_atom_site_label
_atom_site_fract_x
_atom_site_fract_y
_atom_site_fract_z
Si Si1 0.823948 0.696759 0.660650
Si Si2 0.277380 0.906814 0.286088
Si Si3 0.000000 0.500000 0.668793
Si Si4 0.161343 0.559007 0.409610
Si Si5 0.496052 0.617050 0.113360
Si Si6 0.563629 0.762974 0.313968
Si Si7 0.500000 0.500000 0.481264
O O1 0.638364 0.678074 0.653702
O O2 0.868320 0.695291 0.740714
O O3 0.920095 0.597469 0.628771
O O4 0.854871 0.807727 0.624103
O O5 0.381195 0.804066 0.309372
O O6 0.099678 0.861607 0.302699
O O7 0.354931 0.949065 0.215125
O O8 0.316807 0.999303 0.337630
O O9 0.126745 0.679348 0.383763
O O10 0.333008 0.537155 0.446174
O O11 0.000000 0.500000 0.440439
O O12 0.500000 0.500000 0.144034
O O13 0.456469 0.595380 0.034016
#
# Coordination Sequence:
#
# PCOD9376298 Si02
#       7
#     8   8   4   8   8   8   4
#     4  11  21  44  70  96 145 178 230 316 358 438
#     4  10  19  37  57 101 135 168 222 271 362 446
#     4  10  20  38  70 102 148 176 226 286 390 440
#     4  10  21  46  67  95 144 184 225 302 362 430
#     4  10  27  46  66 103 135 186 256 290 357 441
#     4  10  21  35  65 104 128 173 224 281 386 424
#     4  10  26  50  62 104 136 190 268 288 342 456
#
# _framework density 23.429656999999999
#
# number of rings (size 3 to 8) (size 9 to 14) (size 15 to 20)
#    0.500    1.333    4.167    2.000    7.000    0.000 
#    9.000    0.000    0.000    0.000    0.000    0.000 
#    0.000    0.000    0.000    0.000    0.000    0.000 
#
# Total GULP energy -133616.637888 kJ/mol
# GULP energy per Si atom -5567.359912 kJ/mol
# Density = 2.337633 g / cm^3
# Si number density = 23.429657 Si / 1000 Ang^3
#
#
#
# Elastic Constant Matrix: (Units=GPa)
#
#
# Indices 1 2 3 4 5 6 
#
# 1 54.2396 6.0631 23.7470 0.0000 0.0000 0.0000
# 2 6.0631 103.0724 1.1145 0.0000 0.0000 0.0000
# 3 23.7470 1.1145 49.9384 0.0000 0.0000 0.0000
# 4 0.0000 0.0000 0.0000 15.0053 0.0000 0.0000
# 5 0.0000 0.0000 0.0000 0.0000 1.6453 0.0000
# 6 0.0000 0.0000 0.0000 0.0000 0.0000 50.1992
#
#
#
# Elastic Compliance Matrix: (Units=1/GPa)
#
#
# Indices 1 2 3 4 5 6 
#
# 1 0.023447 -0.001259 -0.011121 0.000000 0.000000 0.000000
# 2 -0.001259 0.009772 0.000381 0.000000 0.000000 0.000000
# 3 -0.011121 0.000381 0.025305 0.000000 0.000000 0.000000
# 4 0.000000 0.000000 0.000000 0.066643 0.000000 0.000000
# 5 0.000000 0.000000 0.000000 0.000000 0.607781 0.000000
# 6 0.000000 0.000000 0.000000 0.000000 0.000000 0.019921
#
#
# Mechanical properties :
#
#
# Convention : Reuss Voigt Hill
#
# Bulk Modulus (GPa) = 28.96567 29.89997 29.43282
# Shear Modulus (GPa) = 6.34216 25.12501 15.73359
#
# Velocity S-wave (km/s) = 1.64705 3.27824 2.59419
# Velocity P-wave (km/s) = 4.00084 5.20754 4.64355
#
# Compressibility (1/GPa) = 0.03452363
#
# Stress axis : x y z
#
# Youngs Moduli (GPa) = 42.65018 102.33470 39.51835
#
# Poissons Ratio (x) = 0.12884 0.43950
# Poissons Ratio (y) = 0.05370 -0.01504
# Poissons Ratio (z) = 0.47433 -0.03895
#
# Static dielectric constant tensor:
#      x y z
#    x 2.087870 0.000000 0.000000 
#    y 0.000000 2.107390 0.000000 
#    z 0.000000 0.000000 1.879950 
# 
# From -- ./inp_files/8822.got.cif
#   From: 2010.05.17/outbox.cif.g08.bks.cpg/sg45_5_cif.got.tgz:8822.got - 2010.06.03 19:51:22.
