data_PCOD9376569
_publ_section_title
;
Structure prediction by ZEFSAII (Michael W. Deem and Ramdas Pophale) SiO2 
 PCOD9376569
Probable space group: I B A 2
;
_chemical_formula_sum "Si O2"
_cell_formula_units_Z 48
_cell_length_a 18.427188
_cell_length_b 9.266099
_cell_length_c 12.763025
_cell_angle_alpha 90.000000
_cell_angle_beta 90.000000
_cell_angle_gamma 90.000000
_cell_volume 2179.262885
_symmetry_space_group_name_H-M "I B A 2"
_symmetry_group_IT_number 45
_symmetry_cell_setting 'orthorhombic'
loop_
_space_group_symop_operation_xyz
x,y,z
-x,-y,z
-x,y,1/2+z
x,-y,1/2+z
1/2+x,1/2+y,1/2+z
1/2-x,1/2-y,1/2+z
1/2-x,1/2+y,z
1/2+x,1/2-y,z
loop_
_atom_site_type_symbol
_atom_site_label
_atom_site_fract_x
_atom_site_fract_y
_atom_site_fract_z
Si Si1 0.592677 0.094519 0.390370
Si Si2 0.682948 0.131882 0.573513
Si Si3 0.869638 0.100486 0.183729
Si Si4 0.944224 0.270055 0.361710
Si Si5 0.791735 0.401244 0.728921
Si Si6 0.843679 0.173017 0.555596
O O1 0.620690 0.058260 0.505833
O O2 0.529100 0.211809 0.389525
O O3 0.661739 0.148950 0.326410
O O4 0.573220 0.939383 0.341189
O O5 0.652775 0.292219 0.589302
O O6 0.763021 0.115798 0.523399
O O7 0.691491 0.062084 0.687784
O O8 0.928564 0.170853 0.260575
O O9 0.793773 0.098741 0.247708
O O10 0.881765 0.946261 0.130078
O O11 0.894945 0.215644 0.459003
O O12 0.818134 0.303452 0.631379
#
# Coordination Sequence:
#
# PCOD9376569 Si02
#       6
#     8   8   8   8   8   8
#     4  11  23  39  65  95 130 173 213 266 317 394
#     4  10  20  40  65  93 125 171 221 262 318 379
#     4  10  22  40  66  95 128 166 216 275 320 381
#     4  11  23  41  61  99 132 168 218 257 329 392
#     4  10  20  40  65  93 125 171 221 262 318 379
#     4  10  22  40  66  95 128 166 216 275 320 381
#
# _framework density 22.025797000000001
#
# number of rings (size 3 to 8) (size 9 to 14) (size 15 to 20)
#    0.000    1.667    3.333    1.000    0.000    2.667 
#    0.000    5.000    0.000    0.000    0.000    0.000 
#    0.000    0.000    0.000    0.000    0.000    0.000 
#
# Total GULP energy -133762.650916 kJ/mol
# GULP energy per Si atom -5573.443788 kJ/mol
# Density = 2.197567 g / cm^3
# Si number density = 22.025797 Si / 1000 Ang^3
#
#
#
# Elastic Constant Matrix: (Units=GPa)
#
#
# Indices 1 2 3 4 5 6 
#
# 1 107.9734 15.2880 46.2455 0.0000 0.0000 0.0000
# 2 15.2880 68.6740 12.6151 0.0000 0.0000 0.0000
# 3 46.2455 12.6151 54.3532 0.0000 0.0000 0.0000
# 4 0.0000 0.0000 0.0000 30.5569 0.0000 0.0000
# 5 0.0000 0.0000 0.0000 0.0000 19.3619 0.0000
# 6 0.0000 0.0000 0.0000 0.0000 0.0000 27.8957
#
#
#
# Elastic Compliance Matrix: (Units=1/GPa)
#
#
# Indices 1 2 3 4 5 6 
#
# 1 0.014639 -0.001014 -0.012220 0.000000 0.000000 0.000000
# 2 -0.001014 0.015280 -0.002684 0.000000 0.000000 0.000000
# 3 -0.012220 -0.002684 0.029418 0.000000 0.000000 0.000000
# 4 0.000000 0.000000 0.000000 0.032726 0.000000 0.000000
# 5 0.000000 0.000000 0.000000 0.000000 0.051648 0.000000
# 6 0.000000 0.000000 0.000000 0.000000 0.000000 0.035848
#
#
# Mechanical properties :
#
#
# Convention : Reuss Voigt Hill
#
# Bulk Modulus (GPa) = 36.36096 42.14418 39.25257
# Shear Modulus (GPa) = 22.66941 26.01970 24.34456
#
# Velocity S-wave (km/s) = 3.21163 3.44077 3.32817
# Velocity P-wave (km/s) = 5.50426 5.91276 5.71217
#
# Compressibility (1/GPa) = 0.02750203
#
# Stress axis : x y z
#
# Youngs Moduli (GPa) = 68.31076 65.44384 33.99265
#
# Poissons Ratio (x) = 0.06637 0.41539
# Poissons Ratio (y) = 0.06928 0.09122
# Poissons Ratio (z) = 0.83475 0.17563
#
# Static dielectric constant tensor:
#      x y z
#    x 1.852660 0.000000 0.000000 
#    y 0.000000 1.855380 0.000000 
#    z 0.000000 0.000000 1.809220 
# 
# From -- ./inp_files/6745.got.cif
#   From: 2010.05.17/outbox.cif.g08.bks.cpg/sg45_4_cif.got.tgz:6745.got - 2010.06.03 19:51:22.
