data_PCOD9376046
_publ_section_title
;
Structure prediction by ZEFSAII (Michael W. Deem and Ramdas Pophale) SiO2 
 PCOD9376046
Probable space group: I B A 2
;
_chemical_formula_sum "Si O2"
_cell_formula_units_Z 48
_cell_length_a 6.783472
_cell_length_b 32.876101
_cell_length_c 8.109620
_cell_angle_alpha 90.000000
_cell_angle_beta 90.000000
_cell_angle_gamma 90.000000
_cell_volume 1808.559692
_symmetry_space_group_name_H-M "I B A 2"
_symmetry_group_IT_number 45
_symmetry_cell_setting 'orthorhombic'
loop_
_space_group_symop_operation_xyz
x,y,z
-x,-y,z
-x,y,1/2+z
x,-y,1/2+z
1/2+x,1/2+y,1/2+z
1/2-x,1/2-y,1/2+z
1/2-x,1/2+y,z
1/2+x,1/2-y,z
loop_
_atom_site_type_symbol
_atom_site_label
_atom_site_fract_x
_atom_site_fract_y
_atom_site_fract_z
Si Si1 0.696118 0.297405 0.097230
Si Si2 0.288136 0.617706 0.006702
Si Si3 0.247570 0.033702 0.094423
Si Si4 0.694401 0.949529 0.473765
Si Si5 0.585805 0.214881 0.244716
Si Si6 0.849937 0.368245 0.634371
O O1 0.599168 0.341453 0.064524
O O2 0.574022 0.258874 0.159024
O O3 0.859082 0.299446 0.243275
O O4 0.805481 0.287049 0.921489
O O5 0.372247 0.572635 0.029212
O O6 0.084508 0.623291 0.110596
O O7 0.223492 0.621352 0.817360
O O8 0.267413 0.041184 0.286065
O O9 0.461851 0.042043 0.010550
O O10 0.200451 0.986343 0.070729
O O11 0.734864 0.902584 0.514940
O O12 0.679144 0.180219 0.126596
#
# Coordination Sequence:
#
# PCOD9376046 Si02
#       6
#     8   8   8   8   8   8
#     4  10  20  33  50  70  95 125 159 197 238 282
#     4   9  16  26  39  57  81 111 145 182 223 269
#     4  10  16  22  33  50  75 107 141 177 216 264
#     4  10  16  22  33  50  75 107 141 177 216 264
#     4  10  20  33  50  70  95 125 159 197 238 282
#     4   9  16  26  39  57  81 111 145 182 223 269
#
# _framework density 26.540458999999998
#
# number of rings (size 3 to 8) (size 9 to 14) (size 15 to 20)
#    0.000    2.333    0.000    8.000    0.000    4.000 
#    0.000    0.000    0.000    0.000    0.000    0.000 
#    0.000    1.333    0.000   14.000    0.000   10.333 
#
# Total GULP energy -134081.258563 kJ/mol
# GULP energy per Si atom -5586.719107 kJ/mol
# Density = 2.648005 g / cm^3
# Si number density = 26.540459 Si / 1000 Ang^3
#
#
#
# Elastic Constant Matrix: (Units=GPa)
#
#
# Indices 1 2 3 4 5 6 
#
# 1 49.8485 -9.7206 -17.7661 0.0000 0.0000 0.0000
# 2 -9.7206 194.5442 40.3408 -0.0003 -0.0002 0.0000
# 3 -17.7661 40.3408 124.9946 -0.0009 -0.0003 -0.0002
# 4 0.0000 -0.0003 -0.0009 47.7272 -0.0005 -0.0002
# 5 0.0000 -0.0002 -0.0003 -0.0005 1.5334 -0.0001
# 6 0.0000 0.0000 -0.0002 -0.0002 -0.0001 37.6159
#
#
#
# Elastic Compliance Matrix: (Units=1/GPa)
#
#
# Indices 1 2 3 4 5 6 
#
# 1 0.021170 0.000465 0.002859 0.000000 0.000001 0.000000
# 2 0.000465 0.005519 -0.001715 0.000000 0.000000 0.000000
# 3 0.002859 -0.001715 0.008960 0.000000 0.000002 0.000000
# 4 0.000000 0.000000 0.000000 0.020952 0.000007 0.000000
# 5 0.000001 0.000000 0.000002 0.000007 0.652145 0.000002
# 6 0.000000 0.000000 0.000000 0.000000 0.000002 0.026585
#
#
# Mechanical properties :
#
#
# Convention : Reuss Voigt Hill
#
# Bulk Modulus (GPa) = 25.72854 43.89950 34.81402
# Shear Modulus (GPa) = 6.71078 41.14419 23.92748
#
# Velocity S-wave (km/s) = 1.59185 3.94159 3.00584
# Velocity P-wave (km/s) = 3.61853 6.10666 5.01922
#
# Compressibility (1/GPa) = 0.03886735
#
# Stress axis : x y z
#
# Youngs Moduli (GPa) = 47.23579 181.18871 111.60393
#
# Poissons Ratio (x) = -0.08424 -0.31908
# Poissons Ratio (y) = -0.02196 0.19142
# Poissons Ratio (z) = -0.13505 0.31077
#
# Static dielectric constant tensor:
#      x y z
#    x 2.313130 0.000000 0.000000 
#    y 0.000000 2.177350 0.000000 
#    z 0.000000 0.000000 1.963610 
# 
# From -- ./inp_files/1465.got.cif
#   From: 2010.05.17/outbox.cif.g08.bks.cpg/sg45_1_cif.got.tgz:1465.got - 2010.06.03 19:51:22.
