data_PCOD9376172
_publ_section_title
;
Structure prediction by ZEFSAII (Michael W. Deem and Ramdas Pophale) SiO2 
 PCOD9376172
Probable space group: I B A 2
;
_chemical_formula_sum "Si O2"
_cell_formula_units_Z 44
_cell_length_a 11.048706
_cell_length_b 12.558786
_cell_length_c 13.334805
_cell_angle_alpha 90.000000
_cell_angle_beta 90.000000
_cell_angle_gamma 90.000000
_cell_volume 1850.315329
_symmetry_space_group_name_H-M "I B A 2"
_symmetry_group_IT_number 45
_symmetry_cell_setting 'orthorhombic'
loop_
_space_group_symop_operation_xyz
x,y,z
-x,-y,z
-x,y,1/2+z
x,-y,1/2+z
1/2+x,1/2+y,1/2+z
1/2-x,1/2-y,1/2+z
1/2-x,1/2+y,z
1/2+x,1/2-y,z
loop_
_atom_site_type_symbol
_atom_site_label
_atom_site_fract_x
_atom_site_fract_y
_atom_site_fract_z
Si Si1 0.245217 0.836016 0.651980
Si Si2 0.909029 0.599514 0.282504
Si Si3 0.022952 0.203839 0.702142
Si Si4 0.500000 0.500000 0.828262
Si Si5 0.137041 0.462241 0.062181
Si Si6 0.753149 0.057464 0.872680
O O1 0.102170 0.811849 0.639224
O O2 0.357823 0.752081 0.648595
O O3 0.254677 0.879377 0.767928
O O4 0.282422 0.933363 0.581018
O O5 0.979083 0.710045 0.287184
O O6 0.803352 0.560930 0.354538
O O7 0.000000 0.500000 0.290339
O O8 0.862131 0.596127 0.168409
O O9 0.050100 0.092368 0.755408
O O10 0.606423 0.547015 0.893867
O O11 0.183517 0.396869 0.967633
O O12 0.000000 0.500000 0.043834
#
# Coordination Sequence:
#
# PCOD9376172 Si02
#       6
#     8   8   8   4   8   8
#     4  10  22  39  69  94 124 170 206 266 320 370
#     4  10  18  37  67  92 117 159 217 261 304 373
#     4  11  20  42  62  93 129 164 210 257 320 377
#     4  10  24  38  60  90 136 170 202 254 324 384
#     4  10  19  37  66  94 120 154 220 260 305 374
#     4  10  20  39  63  94 124 167 209 262 316 375
#
# _framework density 23.779733
#
# number of rings (size 3 to 8) (size 9 to 14) (size 15 to 20)
#    0.000    1.818    5.455    1.636    0.000    0.000 
#    0.000   17.273    0.000    0.000    0.000    0.000 
#    0.000    0.000    0.000    0.000    0.000    0.000 
#
# Total GULP energy -122759.239040 kJ/mol
# GULP energy per Si atom -5579.965411 kJ/mol
# Density = 2.372561 g / cm^3
# Si number density = 23.779733 Si / 1000 Ang^3
#
#
#
# Elastic Constant Matrix: (Units=GPa)
#
#
# Indices 1 2 3 4 5 6 
#
# 1 145.6884 -6.7424 14.5504 0.0000 0.0000 0.0000
# 2 -6.7424 71.3396 -12.9713 0.0000 0.0000 0.0000
# 3 14.5504 -12.9713 93.6141 0.0000 0.0000 0.0000
# 4 0.0000 0.0000 0.0000 3.6827 0.0000 0.0000
# 5 0.0000 0.0000 0.0000 0.0000 6.5827 0.0000
# 6 0.0000 0.0000 0.0000 0.0000 0.0000 36.3675
#
#
#
# Elastic Compliance Matrix: (Units=1/GPa)
#
#
# Indices 1 2 3 4 5 6 
#
# 1 0.006988 0.000475 -0.001020 0.000000 0.000000 0.000000
# 2 0.000475 0.014412 0.001923 0.000000 0.000000 0.000000
# 3 -0.001020 0.001923 0.011107 0.000000 0.000000 0.000000
# 4 0.000000 0.000000 0.000000 0.271539 0.000000 0.000000
# 5 0.000000 0.000000 0.000000 0.000000 0.151913 0.000000
# 6 0.000000 0.000000 0.000000 0.000000 0.000000 0.027497
#
#
# Mechanical properties :
#
#
# Convention : Reuss Voigt Hill
#
# Bulk Modulus (GPa) = 28.35870 33.36839 30.86354
# Shear Modulus (GPa) = 10.15322 30.38029 20.26676
#
# Velocity S-wave (km/s) = 2.06857 3.57819 2.92253
# Velocity P-wave (km/s) = 4.20199 5.57978 4.93917
#
# Compressibility (1/GPa) = 0.03526255
#
# Stress axis : x y z
#
# Youngs Moduli (GPa) = 143.10567 69.38653 90.03159
#
# Poissons Ratio (x) = -0.03295 0.09186
# Poissons Ratio (y) = -0.06796 -0.17314
# Poissons Ratio (z) = 0.14601 -0.13344
#
# Static dielectric constant tensor:
#      x y z
#    x 1.958410 0.000000 0.000000 
#    y 0.000000 1.963190 0.000000 
#    z 0.000000 0.000000 1.868530 
# 
# From -- ./inp_files/6081.got.cif
#   From: 2010.05.17/outbox.cif.g08.bks.cpg/sg45_4_cif.got.tgz:6081.got - 2010.06.03 19:51:22.
