data_PCOD9376688
_publ_section_title
;
Structure prediction by ZEFSAII (Michael W. Deem and Ramdas Pophale) SiO2 
 PCOD9376688
Probable space group: I B A 2
;
_chemical_formula_sum "Si O2"
_cell_formula_units_Z 64
_cell_length_a 19.352894
_cell_length_b 18.920129
_cell_length_c 8.810651
_cell_angle_alpha 90.000000
_cell_angle_beta 90.000000
_cell_angle_gamma 90.000000
_cell_volume 3226.101371
_symmetry_space_group_name_H-M "I B A 2"
_symmetry_group_IT_number 45
_symmetry_cell_setting 'orthorhombic'
loop_
_space_group_symop_operation_xyz
x,y,z
-x,-y,z
-x,y,1/2+z
x,-y,1/2+z
1/2+x,1/2+y,1/2+z
1/2-x,1/2-y,1/2+z
1/2-x,1/2+y,z
1/2+x,1/2-y,z
loop_
_atom_site_type_symbol
_atom_site_label
_atom_site_fract_x
_atom_site_fract_y
_atom_site_fract_z
Si Si1 0.076867 0.139992 0.893260
Si Si2 0.074489 0.291886 0.725063
Si Si3 0.159745 0.929341 0.653287
Si Si4 0.421499 0.637254 0.389729
Si Si5 0.718706 0.178111 0.319958
Si Si6 0.226322 0.674641 0.185366
Si Si7 0.932314 0.294113 0.858472
Si Si8 0.666727 0.411841 0.648122
O O1 0.082519 0.217276 0.815423
O O2 0.101245 0.088017 0.761006
O O3 0.999069 0.128239 0.949541
O O4 0.130732 0.122577 0.024252
O O5 0.147577 0.330817 0.742417
O O6 0.064671 0.286446 0.542268
O O7 0.004204 0.323251 0.794608
O O8 0.099915 0.925284 0.778617
O O9 0.227115 0.892638 0.723812
O O10 0.176685 0.007623 0.597579
O O11 0.423895 0.712536 0.304652
O O12 0.361195 0.638087 0.514468
O O13 0.741216 0.254091 0.253923
O O14 0.726724 0.179575 0.502091
O O15 0.636385 0.166899 0.301554
O O16 0.768103 0.121627 0.235889
#
# Coordination Sequence:
#
# PCOD9376688 Si02
#       8
#     8   8   8   8   8   8   8   8
#     4  11  22  40  58  84 122 166 199 247 294 360
#     4  10  21  37  62  87 118 147 200 249 304 359
#     4  12  25  36  59  85 120 165 205 246 304 364
#     4  11  23  36  57  86 119 158 208 239 293 365
#     4  11  22  39  63  83 119 156 203 251 308 358
#     4  11  21  40  60  88 114 161 198 254 304 364
#     4  10  21  37  60  90 114 151 195 251 301 362
#     4  12  23  41  55  85 122 162 206 251 298 362
#
# _framework density 19.838186
#
# number of rings (size 3 to 8) (size 9 to 14) (size 15 to 20)
#    0.000    1.000    5.000    2.250    5.250    4.000 
#    0.000    0.000    0.000    0.750    0.000    3.500 
#    0.000    0.000    0.000    0.000    0.000    0.000 
#
# Total GULP energy -178477.661849 kJ/mol
# GULP energy per Si atom -5577.426933 kJ/mol
# Density = 1.979303 g / cm^3
# Si number density = 19.838186 Si / 1000 Ang^3
#
#
#
# Elastic Constant Matrix: (Units=GPa)
#
#
# Indices 1 2 3 4 5 6 
#
# 1 182.0753 43.1038 38.5460 0.0000 0.0000 0.0000
# 2 43.1038 42.4812 2.2104 0.0000 0.0000 0.0000
# 3 38.5460 2.2104 39.2826 0.0000 0.0000 0.0000
# 4 0.0000 0.0000 0.0000 12.5168 0.0000 0.0000
# 5 0.0000 0.0000 0.0000 0.0000 38.4797 0.0000
# 6 0.0000 0.0000 0.0000 0.0000 0.0000 17.5765
#
#
#
# Elastic Compliance Matrix: (Units=1/GPa)
#
#
# Indices 1 2 3 4 5 6 
#
# 1 0.009552 -0.009231 -0.008853 0.000000 0.000000 0.000000
# 2 -0.009231 0.032530 0.007228 0.000000 0.000000 0.000000
# 3 -0.008853 0.007228 0.033737 0.000000 0.000000 0.000000
# 4 0.000000 0.000000 0.000000 0.079893 0.000000 0.000000
# 5 0.000000 0.000000 0.000000 0.000000 0.025988 0.000000
# 6 0.000000 0.000000 0.000000 0.000000 0.000000 0.056894
#
#
# Mechanical properties :
#
#
# Convention : Reuss Voigt Hill
#
# Bulk Modulus (GPa) = 18.48240 47.95105 33.21672
# Shear Modulus (GPa) = 17.96346 25.71319 21.83832
#
# Velocity S-wave (km/s) = 3.01242 3.60411 3.32146
# Velocity P-wave (km/s) = 4.62994 6.44539 5.61157
#
# Compressibility (1/GPa) = 0.05410553
#
# Stress axis : x y z
#
# Youngs Moduli (GPa) = 104.69161 30.74065 29.64092
#
# Poissons Ratio (x) = 0.28377 0.26242
# Poissons Ratio (y) = 0.96643 -0.21423
# Poissons Ratio (z) = 0.92687 -0.22218
#
# Static dielectric constant tensor:
#      x y z
#    x 1.729610 0.000000 0.000000 
#    y 0.000000 1.686280 0.000000 
#    z 0.000000 0.000000 1.796820 
# 
# From -- ./inp_files/2219.got.cif
#   From: 2010.05.17/outbox.cif.g08.bks.cpg/sg45_2_cif.got.tgz:2219.got - 2010.06.03 19:51:22.
