data_PCOD9376741
_publ_section_title
;
Structure prediction by ZEFSAII (Michael W. Deem and Ramdas Pophale) SiO2 
 PCOD9376741
Probable space group: I B A 2
;
_chemical_formula_sum "Si O2"
_cell_formula_units_Z 60
_cell_length_a 24.306548
_cell_length_b 5.106258
_cell_length_c 24.106719
_cell_angle_alpha 90.000000
_cell_angle_beta 90.000000
_cell_angle_gamma 90.000000
_cell_volume 2992.017607
_symmetry_space_group_name_H-M "I B A 2"
_symmetry_group_IT_number 45
_symmetry_cell_setting 'orthorhombic'
loop_
_space_group_symop_operation_xyz
x,y,z
-x,-y,z
-x,y,1/2+z
x,-y,1/2+z
1/2+x,1/2+y,1/2+z
1/2-x,1/2-y,1/2+z
1/2-x,1/2+y,z
1/2+x,1/2-y,z
loop_
_atom_site_type_symbol
_atom_site_label
_atom_site_fract_x
_atom_site_fract_y
_atom_site_fract_z
Si Si1 0.435819 0.979886 0.907100
Si Si2 0.385852 0.526858 0.459376
Si Si3 0.281913 0.206758 0.006382
Si Si4 0.712707 0.790551 0.138289
Si Si5 0.537357 0.754004 0.288757
Si Si6 0.093699 0.807028 0.176786
Si Si7 0.936895 0.903881 0.074476
Si Si8 0.000000 0.500000 0.111917
O O1 0.399112 0.768020 0.940067
O O2 0.435860 0.873001 0.844239
O O3 0.500000 0.000000 0.924732
O O4 0.414911 0.272586 0.917461
O O5 0.326176 0.652631 0.467847
O O6 0.409858 0.529065 0.521809
O O7 0.229359 0.399238 0.997875
O O8 0.297085 0.223266 0.071642
O O9 0.746210 0.527446 0.151658
O O10 0.653636 0.816103 0.167569
O O11 0.500000 0.500000 0.302070
O O12 0.579620 0.660797 0.241191
O O13 0.500000 0.000000 0.268764
O O14 0.039577 0.659343 0.153611
O O15 0.093248 0.050055 0.133061
O O16 0.951261 0.599913 0.071069
O O17 0.000000 0.000000 0.078694
#
# Coordination Sequence:
#
# PCOD9376741 Si02
#       8
#     8   8   8   8   8   8   8   4
#     4  11  24  40  60  89 125 168 208 248 308 379
#     4  12  23  39  62  87 124 165 205 255 315 376
#     4  10  21  39  60  87 118 160 210 259 307 371
#     4  10  23  39  60  88 127 167 210 257 314 378
#     4  11  23  42  65  91 125 166 214 257 306 381
#     4  11  22  39  63  93 128 167 215 265 316 388
#     4  10  22  34  53  93 128 162 192 251 323 388
#     4  10  22  34  58  94 132 162 204 252 340 376
#
# _framework density 20.053359
#
# number of rings (size 3 to 8) (size 9 to 14) (size 15 to 20)
#    0.000    1.333    2.000    4.800    6.533    1.067 
#    0.000    0.000    0.000    4.800    0.000    0.000 
#    0.000    0.000    0.000    0.000    0.000    0.000 
#
# Total GULP energy -167001.943288 kJ/mol
# GULP energy per Si atom -5566.731443 kJ/mol
# Density = 2.000772 g / cm^3
# Si number density = 20.053359 Si / 1000 Ang^3
#
#
#
# Elastic Constant Matrix: (Units=GPa)
#
#
# Indices 1 2 3 4 5 6 
#
# 1 53.3196 -1.9124 20.6611 0.0000 0.0000 0.0000
# 2 -1.9124 76.9555 16.6670 0.0000 0.0000 0.0000
# 3 20.6611 16.6670 77.9781 0.0000 0.0000 0.0000
# 4 0.0000 0.0000 0.0000 -4.5150 0.0000 0.0000
# 5 0.0000 0.0000 0.0000 0.0000 -14.8749 0.0000
# 6 0.0000 0.0000 0.0000 0.0000 0.0000 20.9477
#
#
#
# Elastic Compliance Matrix: (Units=1/GPa)
#
#
# Indices 1 2 3 4 5 6 
#
# 1 0.021142 0.001823 -0.005991 0.000000 0.000000 0.000000
# 2 0.001823 0.013782 -0.003429 0.000000 0.000000 0.000000
# 3 -0.005991 -0.003429 0.015144 0.000000 0.000000 0.000000
# 4 0.000000 0.000000 0.000000 -0.221486 0.000000 0.000000
# 5 0.000000 0.000000 0.000000 0.000000 -0.067227 0.000000
# 6 0.000000 0.000000 0.000000 0.000000 0.000000 0.047738
#
#
# Mechanical properties :
#
#
# Convention : Reuss Voigt Hill
#
# Bulk Modulus (GPa) = 28.67447 31.00939 29.84193
# Shear Modulus (GPa) = -30.47155 11.83408 -9.31873
#
# Velocity S-wave (km/s) = -3.90234 2.43189 -2.15802
# Velocity P-wave (km/s) = 2.44421 4.83554 2.95028
#
# Compressibility (1/GPa) = 0.03487423
#
# Stress axis : x y z
#
# Youngs Moduli (GPa) = 47.29960 72.55610 66.03068
#
# Poissons Ratio (x) = -0.13227 0.39562
# Poissons Ratio (y) = -0.08623 0.22641
# Poissons Ratio (z) = 0.28339 0.24879
#
# Static dielectric constant tensor:
#      x y z
#    x 1.827570 0.000000 0.000000 
#    y 0.000000 1.197100 0.000000 
#    z 0.000000 0.000000 1.733570 
# 
# From -- ./inp_files/9843.got.cif
#   From: 2010.05.17/outbox.cif.g08.bks.cpg/sg45_5_cif.got.tgz:9843.got - 2010.06.03 19:51:22.
