data_PCOD9376583
_publ_section_title
;
Structure prediction by ZEFSAII (Michael W. Deem and Ramdas Pophale) SiO2 
 PCOD9376583
Probable space group: I B A 2
;
_chemical_formula_sum "Si O2"
_cell_formula_units_Z 40
_cell_length_a 12.657780
_cell_length_b 14.846999
_cell_length_c 8.818145
_cell_angle_alpha 90.000000
_cell_angle_beta 90.000000
_cell_angle_gamma 90.000000
_cell_volume 1657.194404
_symmetry_space_group_name_H-M "I B A 2"
_symmetry_group_IT_number 45
_symmetry_cell_setting 'orthorhombic'
loop_
_space_group_symop_operation_xyz
x,y,z
-x,-y,z
-x,y,1/2+z
x,-y,1/2+z
1/2+x,1/2+y,1/2+z
1/2-x,1/2-y,1/2+z
1/2-x,1/2+y,z
1/2+x,1/2-y,z
loop_
_atom_site_type_symbol
_atom_site_label
_atom_site_fract_x
_atom_site_fract_y
_atom_site_fract_z
Si Si1 0.500000 0.500000 0.145250
Si Si2 0.500000 0.000000 0.644558
Si Si3 0.711038 0.124298 0.932423
Si Si4 0.789253 0.283850 0.762432
Si Si5 0.959076 0.377573 0.893705
Si Si6 0.844976 0.060047 0.403477
O O1 0.584435 0.547456 0.253163
O O2 0.430801 0.565223 0.038113
O O3 0.431720 0.930129 0.546879
O O4 0.572652 0.942084 0.754172
O O5 0.723548 0.178956 0.091824
O O6 0.750177 0.183981 0.791661
O O7 0.584972 0.119697 0.908354
O O8 0.773962 0.029873 0.932191
O O9 0.725603 0.352803 0.872145
O O10 0.906731 0.286848 0.838349
#
# Coordination Sequence:
#
# PCOD9376583 Si02
#       6
#     4   4   8   8   8   8
#     4  10  24  44  78 108 144 200 240 304 350 432
#     4  10  20  40  74 102 136 190 224 292 366 426
#     4  12  29  48  75 111 146 195 243 301 364 438
#     4  12  29  48  75 111 146 195 243 301 364 438
#     4  11  24  44  72 109 146 184 240 303 370 425
#     4  11  24  51  76 106 146 193 250 295 366 426
#
# _framework density 24.137177999999999
#
# number of rings (size 3 to 8) (size 9 to 14) (size 15 to 20)
#    0.000    0.800    4.000    2.400    5.600    3.200 
#    0.000    0.000    0.000    0.000    0.000    0.000 
#    0.000    0.000    0.000    0.000    0.000    0.000 
#
# Total GULP energy -111740.884599 kJ/mol
# GULP energy per Si atom -5587.044230 kJ/mol
# Density = 2.408224 g / cm^3
# Si number density = 24.137178 Si / 1000 Ang^3
#
#
#
# Elastic Constant Matrix: (Units=GPa)
#
#
# Indices 1 2 3 4 5 6 
#
# 1 106.5327 23.6406 23.4746 0.0000 0.0000 0.0000
# 2 23.6406 60.1793 7.8689 0.0000 0.0000 0.0000
# 3 23.4746 7.8689 125.1962 0.0000 0.0000 0.0000
# 4 0.0000 0.0000 0.0000 29.1041 0.0000 0.0000
# 5 0.0000 0.0000 0.0000 0.0000 40.4516 0.0000
# 6 0.0000 0.0000 0.0000 0.0000 0.0000 21.7825
#
#
#
# Elastic Compliance Matrix: (Units=1/GPa)
#
#
# Indices 1 2 3 4 5 6 
#
# 1 0.010650 -0.003955 -0.001748 0.000000 0.000000 0.000000
# 2 -0.003955 0.018223 -0.000404 0.000000 0.000000 0.000000
# 3 -0.001748 -0.000404 0.008341 0.000000 0.000000 0.000000
# 4 0.000000 0.000000 0.000000 0.034359 0.000000 0.000000
# 5 0.000000 0.000000 0.000000 0.000000 0.024721 0.000000
# 6 0.000000 0.000000 0.000000 0.000000 0.000000 0.045908
#
#
# Mechanical properties :
#
#
# Convention : Reuss Voigt Hill
#
# Bulk Modulus (GPa) = 40.00051 44.65292 42.32672
# Shear Modulus (GPa) = 30.72201 34.06260 32.39230
#
# Velocity S-wave (km/s) = 3.57152 3.76068 3.66732
# Velocity P-wave (km/s) = 5.79791 6.11529 5.95871
#
# Compressibility (1/GPa) = 0.02499968
#
# Stress axis : x y z
#
# Youngs Moduli (GPa) = 93.89968 54.87428 119.89481
#
# Poissons Ratio (x) = 0.21703 0.20961
# Poissons Ratio (y) = 0.37137 0.04842
# Poissons Ratio (z) = 0.16416 0.02216
#
# Static dielectric constant tensor:
#      x y z
#    x 1.989390 0.000000 0.000000 
#    y 0.000000 1.998230 0.000000 
#    z 0.000000 0.000000 1.970120 
# 
# From -- ./inp_files/1278.got.cif
#   From: 2010.05.17/outbox.cif.g08.bks.cpg/sg45_1_cif.got.tgz:1278.got - 2010.06.03 19:51:22.
