data_PCOD9376713
_publ_section_title
;
Structure prediction by ZEFSAII (Michael W. Deem and Ramdas Pophale) SiO2 
 PCOD9376713
Probable space group: I B A 2
;
_chemical_formula_sum "Si O2"
_cell_formula_units_Z 48
_cell_length_a 16.691586
_cell_length_b 9.471327
_cell_length_c 13.769734
_cell_angle_alpha 90.000000
_cell_angle_beta 90.000000
_cell_angle_gamma 90.000000
_cell_volume 2176.877478
_symmetry_space_group_name_H-M "I B A 2"
_symmetry_group_IT_number 45
_symmetry_cell_setting 'orthorhombic'
loop_
_space_group_symop_operation_xyz
x,y,z
-x,-y,z
-x,y,1/2+z
x,-y,1/2+z
1/2+x,1/2+y,1/2+z
1/2-x,1/2-y,1/2+z
1/2-x,1/2+y,z
1/2+x,1/2-y,z
loop_
_atom_site_type_symbol
_atom_site_label
_atom_site_fract_x
_atom_site_fract_y
_atom_site_fract_z
Si Si1 0.076476 0.402361 0.559600
Si Si2 0.130159 0.154435 0.208239
Si Si3 0.206561 0.641645 0.561283
Si Si4 0.076476 0.402361 0.333014
Si Si5 0.630159 0.654435 0.184376
Si Si6 0.793439 0.358356 0.331331
O O1 0.155124 0.498793 0.576699
O O2 0.075772 0.361944 0.446307
O O3 0.077586 0.266617 0.626449
O O4 0.000000 0.500000 0.577605
O O5 0.157128 0.229144 0.108326
O O6 0.077586 0.266616 0.266166
O O7 0.210436 0.134680 0.273745
O O8 0.094859 1.000000 0.196307
O O9 0.289564 0.634681 0.618869
O O10 0.218232 0.660791 0.446307
O O11 0.155125 0.498792 0.315915
O O12 0.000000 0.500000 0.315010
O O13 0.657128 0.729145 0.284288
#
# Coordination Sequence:
#
# PCOD9376713 Si02
#       6
#     8   8   8   8   8   8
#     4  10  22  42  66  89 121 167 211 252 306 373
#     4  11  22  36  60  93 126 160 205 259 311 365
#     4  10  21  38  60  89 128 170 208 248 301 369
#     4  10  22  42  66  89 121 167 211 252 306 373
#     4  11  22  36  60  93 126 160 205 259 311 365
#     4  10  21  38  60  89 128 170 208 248 301 369
#
# _framework density 22.049932999999999
#
# number of rings (size 3 to 8) (size 9 to 14) (size 15 to 20)
#    0.000    1.667    0.000    6.000    0.000    8.000 
#    0.000    3.333    0.000    6.000    0.000    0.000 
#    0.000    0.000    0.000    0.000    0.000    0.000 
#
# Total GULP energy -134493.990297 kJ/mol
# GULP energy per Si atom -5603.916262 kJ/mol
# Density = 2.199975 g / cm^3
# Si number density = 22.049933 Si / 1000 Ang^3
#
#
#
# Elastic Constant Matrix: (Units=GPa)
#
#
# Indices 1 2 3 4 5 6 
#
# 1 73.1824 30.9567 28.0991 0.0000 0.0000 0.0000
# 2 30.9567 166.9339 68.4752 0.0000 0.0000 0.0000
# 3 28.0991 68.4752 147.7649 0.0000 0.0000 0.0000
# 4 0.0000 0.0000 0.0000 16.9425 0.0000 0.0000
# 5 0.0000 0.0000 0.0000 0.0000 12.0066 0.0000
# 6 0.0000 0.0000 0.0000 0.0000 0.0000 -10.9645
#
#
#
# Elastic Compliance Matrix: (Units=1/GPa)
#
#
# Indices 1 2 3 4 5 6 
#
# 1 0.015277 -0.002027 -0.001966 0.000000 0.000000 0.000000
# 2 -0.002027 0.007665 -0.003167 0.000000 0.000000 0.000000
# 3 -0.001966 -0.003167 0.008609 0.000000 0.000000 0.000000
# 4 0.000000 0.000000 0.000000 0.059023 0.000000 0.000000
# 5 0.000000 0.000000 0.000000 0.000000 0.083288 0.000000
# 6 0.000000 0.000000 0.000000 0.000000 0.000000 -0.091203
#
#
# Mechanical properties :
#
#
# Convention : Reuss Voigt Hill
#
# Bulk Modulus (GPa) = 58.03074 71.43814 64.73444
# Shear Modulus (GPa) = 48.67595 20.95361 34.81478
#
# Velocity S-wave (km/s) = 4.70354 3.08601 3.97786
# Velocity P-wave (km/s) = 7.47480 6.72061 7.10772
#
# Compressibility (1/GPa) = 0.01723225
#
# Stress axis : x y z
#
# Youngs Moduli (GPa) = 65.45980 130.46031 116.15992
#
# Poissons Ratio (x) = 0.26438 0.22836
# Poissons Ratio (y) = 0.13266 0.36785
# Poissons Ratio (z) = 0.12869 0.41313
#
# Static dielectric constant tensor:
#      x y z
#    x 1.828070 0.000000 0.000000 
#    y 0.000000 1.789060 0.000000 
#    z 0.000000 0.000000 1.783310 
# 
# From -- ./inp_files/6755.got.cif
#   From: 2010.05.17/outbox.cif.g08.bks.cpg/sg45_4_cif.got.tgz:6755.got - 2010.06.03 19:51:22.
