data_PCOD9376299
_publ_section_title
;
Structure prediction by ZEFSAII (Michael W. Deem and Ramdas Pophale) SiO2 
 PCOD9376299
Probable space group: I B A 2
;
_chemical_formula_sum "Si O2"
_cell_formula_units_Z 56
_cell_length_a 19.960560
_cell_length_b 10.692981
_cell_length_c 12.258302
_cell_angle_alpha 90.000000
_cell_angle_beta 90.000000
_cell_angle_gamma 90.000000
_cell_volume 2616.386100
_symmetry_space_group_name_H-M "I B A 2"
_symmetry_group_IT_number 45
_symmetry_cell_setting 'orthorhombic'
loop_
_space_group_symop_operation_xyz
x,y,z
-x,-y,z
-x,y,1/2+z
x,-y,1/2+z
1/2+x,1/2+y,1/2+z
1/2-x,1/2-y,1/2+z
1/2-x,1/2+y,z
1/2+x,1/2-y,z
loop_
_atom_site_type_symbol
_atom_site_label
_atom_site_fract_x
_atom_site_fract_y
_atom_site_fract_z
Si Si1 0.680807 0.167470 0.809430
Si Si2 0.143059 0.473892 0.610436
Si Si3 0.500000 0.000000 0.131990
Si Si4 0.299523 0.197324 0.731661
Si Si5 0.388347 0.370571 0.459769
Si Si6 0.000000 0.000000 0.821484
Si Si7 0.943051 0.768770 0.190626
Si Si8 0.256221 0.957983 0.441273
O O1 0.635477 0.080855 0.732170
O O2 0.738158 0.208380 0.722400
O O3 0.635007 0.267104 0.871114
O O4 0.722298 0.095817 0.902778
O O5 0.068255 0.480601 0.564857
O O6 0.181708 0.604579 0.633220
O O7 0.189445 0.406361 0.524869
O O8 0.480015 0.867184 0.190640
O O9 0.371609 0.258206 0.753463
O O10 0.268878 0.116958 0.830040
O O11 0.438246 0.464292 0.399274
O O12 0.422708 0.309902 0.566651
O O13 0.318191 0.440190 0.486431
O O14 0.015599 0.879569 0.746522
#
# Coordination Sequence:
#
# PCOD9376299 Si02
#       8
#     8   8   4   8   8   4   8   8
#     4  10  19  37  60  88 122 164 219 275 324 397
#     4  10  20  36  58  87 122 161 210 270 331 385
#     4  10  22  40  64  92 124 170 218 266 328 396
#     4   9  20  36  58  87 118 159 211 265 325 385
#     4  11  24  41  64  94 129 174 223 276 341 413
#     4  12  26  44  64  94 134 176 222 276 344 418
#     4  11  23  44  66  93 134 177 222 279 340 410
#     4  10  21  37  61  91 124 166 218 275 336 401
#
# _framework density 21.403569000000001
#
# number of rings (size 3 to 8) (size 9 to 14) (size 15 to 20)
#    0.000    1.714    0.000    4.714    0.000    4.571 
#    0.000   16.429    0.000    0.000    0.000    0.000 
#    0.000    0.000    0.000    0.000    0.000    0.000 
#
# Total GULP energy -155949.884176 kJ/mol
# GULP energy per Si atom -5569.638721 kJ/mol
# Density = 2.135485 g / cm^3
# Si number density = 21.403569 Si / 1000 Ang^3
#
#
#
# Elastic Constant Matrix: (Units=GPa)
#
#
# Indices 1 2 3 4 5 6 
#
# 1 135.0706 38.3768 51.3838 0.0000 0.0000 0.0000
# 2 38.3768 79.7560 19.0283 0.0000 0.0000 0.0000
# 3 51.3838 19.0283 58.3247 0.0000 0.0000 0.0000
# 4 0.0000 0.0000 0.0000 0.1008 0.0000 0.0000
# 5 0.0000 0.0000 0.0000 0.0000 28.4690 0.0000
# 6 0.0000 0.0000 0.0000 0.0000 0.0000 32.6190
#
#
#
# Elastic Compliance Matrix: (Units=1/GPa)
#
#
# Indices 1 2 3 4 5 6 
#
# 1 0.011983 -0.003521 -0.009408 0.000000 0.000000 0.000000
# 2 -0.003521 0.014631 -0.001671 0.000000 0.000000 0.000000
# 3 -0.009408 -0.001671 0.025979 0.000000 0.000000 0.000000
# 4 0.000000 0.000000 0.000000 9.924342 0.000000 0.000000
# 5 0.000000 0.000000 0.000000 0.000000 0.035126 0.000000
# 6 0.000000 0.000000 0.000000 0.000000 0.000000 0.030657
#
#
# Mechanical properties :
#
#
# Convention : Reuss Voigt Hill
#
# Bulk Modulus (GPa) = 42.74933 54.52549 48.63741
# Shear Modulus (GPa) = 0.49605 23.19524 11.84564
#
# Velocity S-wave (km/s) = 0.48194 3.29554 2.35509
# Velocity P-wave (km/s) = 4.50844 6.32543 5.49259
#
# Compressibility (1/GPa) = 0.02339218
#
# Stress axis : x y z
#
# Youngs Moduli (GPa) = 83.45050 68.34638 38.49230
#
# Poissons Ratio (x) = 0.24067 0.36215
# Poissons Ratio (y) = 0.29386 0.06433
# Poissons Ratio (z) = 0.78512 0.11422
#
# Static dielectric constant tensor:
#      x y z
#    x 1.824910 0.000000 0.000000 
#    y 0.000000 1.981330 0.000000 
#    z 0.000000 0.000000 1.785290 
# 
# From -- ./inp_files/3792.got.cif
#   From: 2010.05.17/outbox.cif.g08.bks.cpg/sg45_2_cif.got.tgz:3792.got - 2010.06.03 19:51:22.
