data_PCOD9376812
_publ_section_title
;
Structure prediction by ZEFSAII (Michael W. Deem and Ramdas Pophale) SiO2 
 PCOD9376812
Probable space group: I B A 2
;
_chemical_formula_sum "Si O2"
_cell_formula_units_Z 60
_cell_length_a 21.786390
_cell_length_b 8.228179
_cell_length_c 14.664584
_cell_angle_alpha 90.000000
_cell_angle_beta 90.000000
_cell_angle_gamma 90.000000
_cell_volume 2628.807301
_symmetry_space_group_name_H-M "I B A 2"
_symmetry_group_IT_number 45
_symmetry_cell_setting 'orthorhombic'
loop_
_space_group_symop_operation_xyz
x,y,z
-x,-y,z
-x,y,1/2+z
x,-y,1/2+z
1/2+x,1/2+y,1/2+z
1/2-x,1/2-y,1/2+z
1/2-x,1/2+y,z
1/2+x,1/2-y,z
loop_
_atom_site_type_symbol
_atom_site_label
_atom_site_fract_x
_atom_site_fract_y
_atom_site_fract_z
Si Si1 0.113006 0.732266 0.396010
Si Si2 0.248182 0.887695 0.907878
Si Si3 0.981111 0.264721 0.097313
Si Si4 0.200378 0.866933 0.112193
Si Si5 0.380771 0.128900 0.211855
Si Si6 0.592426 0.428017 0.074560
Si Si7 0.793841 0.644974 0.278896
Si Si8 0.500000 0.000000 0.437485
O O1 0.180792 0.669488 0.420269
O O2 0.119575 0.769535 0.289253
O O3 0.097754 0.871587 0.468959
O O4 0.058662 0.594505 0.394869
O O5 0.204875 0.820119 0.825173
O O6 0.259601 0.065723 0.866754
O O7 0.219761 0.870687 0.007048
O O8 0.948335 0.373724 0.172351
O O9 0.051476 0.216475 0.116608
O O10 0.945129 0.094969 0.086115
O O11 0.974032 0.360679 0.003597
O O12 0.162560 0.701420 0.132811
O O13 0.253206 0.862986 0.187776
O O14 0.157348 0.027755 0.118856
O O15 0.352152 0.966199 0.254120
#
# Coordination Sequence:
#
# PCOD9376812 Si02
#       8
#     8   8   8   8   8   8   8   4
#     4  10  21  41  60  93 126 178 220 296 329 424
#     4  11  25  39  66  95 146 174 227 280 359 408
#     4   9  20  42  60  96 120 175 218 282 330 419
#     4  11  23  40  68  98 136 183 220 285 348 408
#     4  10  23  39  65  91 140 164 229 277 340 408
#     4   9  20  39  68  86 126 169 231 260 346 401
#     4  11  23  42  60 105 133 180 228 279 338 439
#     4  10  22  38  66  86 130 162 238 274 362 394
#
# _framework density 22.824038999999999
#
# number of rings (size 3 to 8) (size 9 to 14) (size 15 to 20)
#    0.000    1.867    2.667    0.800    5.600    3.733 
#    2.400   10.667    0.000    0.000    0.000    0.000 
#    0.000    0.000    0.000    0.000    0.000    0.000 
#
# Total GULP energy -167112.449050 kJ/mol
# GULP energy per Si atom -5570.414968 kJ/mol
# Density = 2.277209 g / cm^3
# Si number density = 22.824039 Si / 1000 Ang^3
#
#
#
# Elastic Constant Matrix: (Units=GPa)
#
#
# Indices 1 2 3 4 5 6 
#
# 1 94.3592 30.2777 55.6697 0.0000 0.0000 0.0000
# 2 30.2777 33.7640 1.5115 0.0000 0.0000 0.0000
# 3 55.6697 1.5115 102.2441 0.0000 0.0000 0.0000
# 4 0.0000 0.0000 0.0000 1003.0618 0.0000 0.0000
# 5 0.0000 0.0000 0.0000 0.0000 -47.3368 0.0000
# 6 0.0000 0.0000 0.0000 0.0000 0.0000 20.6680
#
#
#
# Elastic Compliance Matrix: (Units=1/GPa)
#
#
# Indices 1 2 3 4 5 6 
#
# 1 0.026085 -0.022771 -0.013866 0.000000 0.000000 0.000000
# 2 -0.022771 0.049515 0.011666 0.000000 0.000000 0.000000
# 3 -0.013866 0.011666 0.017158 0.000000 0.000000 0.000000
# 4 0.000000 0.000000 0.000000 0.000997 0.000000 0.000000
# 5 0.000000 0.000000 0.000000 0.000000 -0.021125 0.000000
# 6 0.000000 0.000000 0.000000 0.000000 0.000000 0.048384
#
#
# Mechanical properties :
#
#
# Convention : Reuss Voigt Hill
#
# Bulk Modulus (GPa) = 23.35568 45.03168 34.19368
# Shear Modulus (GPa) = 26.99384 204.80584 115.89984
#
# Velocity S-wave (km/s) = 3.44276 9.48300 7.13372
# Velocity P-wave (km/s) = 5.10477 11.81845 9.10314
#
# Compressibility (1/GPa) = 0.04281614
#
# Stress axis : x y z
#
# Youngs Moduli (GPa) = 38.33590 20.19598 58.28222
#
# Poissons Ratio (x) = 0.45988 0.80815
# Poissons Ratio (y) = 0.87295 -0.67994
# Poissons Ratio (z) = 0.53157 -0.23561
#
# Static dielectric constant tensor:
#      x y z
#    x 1.955050 0.000000 0.000000 
#    y 0.000000 -0.924940 0.000000 
#    z 0.000000 0.000000 1.863610 
# 
# From -- ./inp_files/7037.got.cif
#   From: 2010.05.17/outbox.cif.g08.bks.cpg/sg45_4_cif.got.tgz:7037.got - 2010.06.03 19:51:22.
