data_PCOD9376971
_publ_section_title
;
Structure prediction by ZEFSAII (Michael W. Deem and Ramdas Pophale) SiO2 
 PCOD9376971
Probable space group: I B A 2
;
_chemical_formula_sum "Si O2"
_cell_formula_units_Z 52
_cell_length_a 8.558177
_cell_length_b 23.893233
_cell_length_c 12.510225
_cell_angle_alpha 90.000000
_cell_angle_beta 90.000000
_cell_angle_gamma 90.000000
_cell_volume 2558.122298
_symmetry_space_group_name_H-M "I B A 2"
_symmetry_group_IT_number 45
_symmetry_cell_setting 'orthorhombic'
loop_
_space_group_symop_operation_xyz
x,y,z
-x,-y,z
-x,y,1/2+z
x,-y,1/2+z
1/2+x,1/2+y,1/2+z
1/2-x,1/2-y,1/2+z
1/2-x,1/2+y,z
1/2+x,1/2-y,z
loop_
_atom_site_type_symbol
_atom_site_label
_atom_site_fract_x
_atom_site_fract_y
_atom_site_fract_z
Si Si1 0.776431 0.504005 0.932970
Si Si2 0.243735 0.063190 0.644944
Si Si3 0.000000 0.000000 0.786964
Si Si4 0.925647 0.230530 0.703208
Si Si5 0.350918 0.197925 0.340179
Si Si6 0.789559 0.812161 0.571555
Si Si7 0.959397 0.415830 0.839277
O O1 0.624957 0.523994 0.869579
O O2 0.815288 0.438651 0.911689
O O3 0.904946 0.543212 0.877882
O O4 0.772091 0.515977 0.057331
O O5 0.094516 0.043912 0.714361
O O6 0.218227 0.121232 0.584043
O O7 0.392325 0.071921 0.721815
O O8 0.788841 0.191785 0.752702
O O9 0.833907 0.283215 0.652418
O O10 0.041433 0.251295 0.797502
O O11 0.038742 0.206081 0.611749
O O12 0.264761 0.205707 0.453425
O O13 0.469383 0.145590 0.348711
#
# Coordination Sequence:
#
# PCOD9376971 Si02
#       7
#     8   8   4   8   8   8   8
#     4  10  22  41  63  90 128 164 213 263 320 382
#     4  11  22  41  65  92 130 169 215 261 322 385
#     4  10  24  40  62  94 130 160 216 266 320 380
#     4  10  24  40  66  95 129 165 213 268 322 386
#     4  11  21  43  66  94 133 163 214 270 318 392
#     4  11  22  40  66  93 126 169 213 257 330 380
#     4  10  22  39  64  92 123 170 210 261 319 382
#
# _framework density 20.32741
#
# number of rings (size 3 to 8) (size 9 to 14) (size 15 to 20)
#    0.000    1.538    3.077    1.385    2.154    4.923 
#    0.000    0.000   16.923    0.000    0.000    0.000 
#    0.000    0.000    0.000    0.000    0.000    0.000 
#
# Total GULP energy -144918.377674 kJ/mol
# GULP energy per Si atom -5573.783757 kJ/mol
# Density = 2.028114 g / cm^3
# Si number density = 20.327410 Si / 1000 Ang^3
#
#
#
# Elastic Constant Matrix: (Units=GPa)
#
#
# Indices 1 2 3 4 5 6 
#
# 1 92.2478 11.2540 39.7120 0.0000 0.0000 0.0000
# 2 11.2540 46.7247 29.4428 0.0000 0.0000 0.0000
# 3 39.7120 29.4428 88.5154 0.0001 0.0000 0.0000
# 4 0.0000 0.0000 0.0001 23.9785 0.0000 0.0000
# 5 0.0000 0.0000 0.0000 0.0000 37.4316 0.0000
# 6 0.0000 0.0000 0.0000 0.0000 0.0000 9.8830
#
#
#
# Elastic Compliance Matrix: (Units=1/GPa)
#
#
# Indices 1 2 3 4 5 6 
#
# 1 0.013454 0.000712 -0.006273 0.000000 0.000000 0.000000
# 2 0.000712 0.027115 -0.009339 0.000000 0.000000 0.000000
# 3 -0.006273 -0.009339 0.017218 0.000000 0.000000 0.000000
# 4 0.000000 0.000000 0.000000 0.041704 0.000000 0.000000
# 5 0.000000 0.000000 0.000000 0.000000 0.026715 0.000000
# 6 0.000000 0.000000 0.000000 0.000000 0.000000 0.101184
#
#
# Mechanical properties :
#
#
# Convention : Reuss Voigt Hill
#
# Bulk Modulus (GPa) = 35.72930 43.14505 39.43718
# Shear Modulus (GPa) = 18.76039 24.06389 21.41214
#
# Velocity S-wave (km/s) = 3.04124 3.44439 3.24908
# Velocity P-wave (km/s) = 5.47241 6.09012 5.78951
#
# Compressibility (1/GPa) = 0.02798823
#
# Stress axis : x y z
#
# Youngs Moduli (GPa) = 74.32766 36.87974 58.07810
#
# Poissons Ratio (x) = -0.02627 0.36432
# Poissons Ratio (y) = -0.05295 0.54238
# Poissons Ratio (z) = 0.46626 0.34442
#
# Static dielectric constant tensor:
#      x y z
#    x 1.762340 0.000000 0.000000 
#    y 0.000000 1.740680 0.000000 
#    z 0.000000 0.000000 1.735500 
# 
# From -- ./inp_files/3318.got.cif
#   From: 2010.05.17/outbox.cif.g08.bks.cpg/sg45_2_cif.got.tgz:3318.got - 2010.06.03 19:51:22.
