data_PCOD9376817
_publ_section_title
;
Structure prediction by ZEFSAII (Michael W. Deem and Ramdas Pophale) SiO2 
 PCOD9376817
Probable space group: I B A 2
;
_chemical_formula_sum "Si O2"
_cell_formula_units_Z 52
_cell_length_a 8.800830
_cell_length_b 12.072204
_cell_length_c 24.906512
_cell_angle_alpha 90.000000
_cell_angle_beta 90.000000
_cell_angle_gamma 90.000000
_cell_volume 2646.202707
_symmetry_space_group_name_H-M "I B A 2"
_symmetry_group_IT_number 45
_symmetry_cell_setting 'orthorhombic'
loop_
_space_group_symop_operation_xyz
x,y,z
-x,-y,z
-x,y,1/2+z
x,-y,1/2+z
1/2+x,1/2+y,1/2+z
1/2-x,1/2-y,1/2+z
1/2-x,1/2+y,z
1/2+x,1/2-y,z
loop_
_atom_site_type_symbol
_atom_site_label
_atom_site_fract_x
_atom_site_fract_y
_atom_site_fract_z
Si Si1 0.306762 0.906262 0.889260
Si Si2 0.307176 0.593087 0.805457
Si Si3 0.500000 0.500000 0.213010
Si Si4 0.931625 0.253360 0.845479
Si Si5 0.420670 0.895895 0.005426
Si Si6 0.433725 0.615273 0.108353
Si Si7 0.669161 0.763828 0.052375
O O1 0.181155 0.808344 0.886705
O O2 0.460302 0.849182 0.867869
O O3 0.349225 0.938635 0.949640
O O4 0.247598 0.003694 0.850137
O O5 0.360767 0.536982 0.750624
O O6 0.176536 0.686236 0.802312
O O7 0.457595 0.657993 0.824442
O O8 0.437922 0.593278 0.172012
O O9 0.500000 0.000000 0.034038
O O10 0.563034 0.810266 0.004310
O O11 0.284462 0.831433 0.033705
O O12 0.500000 0.500000 0.084939
O O13 0.550746 0.711813 0.093945
O O14 0.274632 0.645312 0.081215
#
# Coordination Sequence:
#
# PCOD9376817 Si02
#       7
#     8   8   4   8   8   8   8
#     4  11  21  39  58  92 128 164 205 257 298 385
#     4  11  21  41  59  91 128 162 208 261 300 384
#     4  10  22  40  66  86 124 164 212 258 332 368
#     4  10  22  36  63  81 131 166 205 246 310 353
#     4  11  22  36  63  91 122 162 206 248 327 374
#     4   9  21  40  63  86 121 153 212 265 318 368
#     4  10  21  41  63  88 124 159 206 271 314 377
#
# _framework density 19.650801000000001
#
# number of rings (size 3 to 8) (size 9 to 14) (size 15 to 20)
#    0.462    1.231    1.538    3.231    0.000    2.462 
#    0.000    4.615    6.769    0.000    0.000    0.000 
#    0.000    0.000    0.000    0.000    0.000    0.000 
#
# Total GULP energy -144828.389257 kJ/mol
# GULP energy per Si atom -5570.322664 kJ/mol
# Density = 1.960608 g / cm^3
# Si number density = 19.650801 Si / 1000 Ang^3
#
#
#
# Elastic Constant Matrix: (Units=GPa)
#
#
# Indices 1 2 3 4 5 6 
#
# 1 131.1680 37.6220 38.4240 0.0000 0.0000 0.0000
# 2 37.6220 71.9900 27.7861 0.0000 0.0000 0.0000
# 3 38.4240 27.7861 87.4191 0.0000 0.0000 0.0000
# 4 0.0000 0.0000 0.0000 25.5743 0.0000 0.0000
# 5 0.0000 0.0000 0.0000 0.0000 12.5300 0.0000
# 6 0.0000 0.0000 0.0000 0.0000 0.0000 58.7084
#
#
#
# Elastic Compliance Matrix: (Units=1/GPa)
#
#
# Indices 1 2 3 4 5 6 
#
# 1 0.009610 -0.003866 -0.002995 0.000000 0.000000 0.000000
# 2 -0.003866 0.017389 -0.003828 0.000000 0.000000 0.000000
# 3 -0.002995 -0.003828 0.013972 0.000000 0.000000 0.000000
# 4 0.000000 0.000000 0.000000 0.039102 0.000000 0.000000
# 5 0.000000 0.000000 0.000000 0.000000 0.079809 0.000000
# 6 0.000000 0.000000 0.000000 0.000000 0.000000 0.017033
#
#
# Mechanical properties :
#
#
# Convention : Reuss Voigt Hill
#
# Bulk Modulus (GPa) = 51.03849 55.36014 53.19931
# Shear Modulus (GPa) = 24.41122 31.81220 28.11171
#
# Velocity S-wave (km/s) = 3.52838 4.02789 3.78638
# Velocity P-wave (km/s) = 6.52904 7.06151 6.80049
#
# Compressibility (1/GPa) = 0.01959306
#
# Stress axis : x y z
#
# Youngs Moduli (GPa) = 104.05706 57.50871 71.57054
#
# Poissons Ratio (x) = 0.22234 0.21436
# Poissons Ratio (y) = 0.40231 0.27395
# Poissons Ratio (z) = 0.31166 0.22012
#
# Static dielectric constant tensor:
#      x y z
#    x 1.687280 0.000000 0.000000 
#    y 0.000000 1.748600 0.000000 
#    z 0.000000 0.000000 1.687080 
# 
# From -- ./inp_files/9946.got.cif
#   From: 2010.05.17/outbox.cif.g08.bks.cpg/sg45_5_cif.got.tgz:9946.got - 2010.06.03 19:51:22.
