data_PCOD9376218
_publ_section_title
;
Structure prediction by ZEFSAII (Michael W. Deem and Ramdas Pophale) SiO2 
 PCOD9376218
Probable space group: I B A 2
;
_chemical_formula_sum "Si O2"
_cell_formula_units_Z 64
_cell_length_a 27.794635
_cell_length_b 15.227344
_cell_length_c 8.628541
_cell_angle_alpha 90.000000
_cell_angle_beta 90.000000
_cell_angle_gamma 90.000000
_cell_volume 3651.930478
_symmetry_space_group_name_H-M "I B A 2"
_symmetry_group_IT_number 45
_symmetry_cell_setting 'orthorhombic'
loop_
_space_group_symop_operation_xyz
x,y,z
-x,-y,z
-x,y,1/2+z
x,-y,1/2+z
1/2+x,1/2+y,1/2+z
1/2-x,1/2-y,1/2+z
1/2-x,1/2+y,z
1/2+x,1/2-y,z
loop_
_atom_site_type_symbol
_atom_site_label
_atom_site_fract_x
_atom_site_fract_y
_atom_site_fract_z
Si Si1 0.946405 0.594940 0.697250
Si Si2 0.216814 0.404075 0.068707
Si Si3 0.446405 0.094940 0.567194
Si Si4 0.328923 0.594340 0.568277
Si Si5 0.671077 0.405660 0.196166
Si Si6 0.216814 0.595925 0.195736
Si Si7 0.134882 0.280000 0.568413
Si Si8 0.365118 0.220000 0.696031
O O1 0.930216 0.500000 0.632222
O O2 0.910054 0.669537 0.641429
O O3 0.000000 0.610043 0.632222
O O4 0.947823 0.590573 0.882222
O O5 0.272838 0.391067 0.112457
O O6 0.212598 0.402468 0.882222
O O7 0.202601 0.500000 0.132222
O O8 0.182590 0.331500 0.142351
O O9 0.410054 0.169537 0.623015
O O10 0.330071 0.590364 0.382222
O O11 0.344303 0.500000 0.632222
O O12 0.359513 0.678630 0.618026
O O13 0.727162 0.391067 0.151987
O O14 0.640487 0.321370 0.146418
O O15 0.182590 0.668500 0.122092
O O16 0.131535 0.283422 0.382222
#
# Coordination Sequence:
#
# PCOD9376218 Si02
#       8
#     8   8   8   8   8   8   8   8
#     4  11  22  38  58  81 107 136 166 206 255 308
#     4  10  19  32  49  74 105 140 176 214 256 303
#     4  11  22  38  58  81 107 136 166 206 255 308
#     4   9  20  35  52  73 103 139 177 217 258 300
#     4   9  20  35  52  73 103 139 177 217 258 300
#     4  10  19  32  49  74 105 140 176 214 256 303
#     4  11  21  34  52  77 105 137 174 214 256 306
#     4  11  21  34  52  77 105 137 174 214 256 306
#
# _framework density 17.524978999999998
#
# number of rings (size 3 to 8) (size 9 to 14) (size 15 to 20)
#    0.000    1.750    0.000    6.000    0.000    3.000 
#    0.000    0.000    0.000    0.750    0.000    5.250 
#    0.000    0.000    0.000    0.000    0.000    0.000 
#
# Total GULP energy -178784.394420 kJ/mol
# GULP energy per Si atom -5587.012326 kJ/mol
# Density = 1.748509 g / cm^3
# Si number density = 17.524979 Si / 1000 Ang^3
#
#
#
# Elastic Constant Matrix: (Units=GPa)
#
#
# Indices 1 2 3 4 5 6 
#
# 1 72.9829 83.0233 36.3484 0.0000 0.0000 0.0000
# 2 83.0233 178.1178 52.6369 0.0000 0.0000 0.0000
# 3 36.3484 52.6369 91.8689 0.0000 0.0000 0.0000
# 4 0.0000 0.0000 0.0000 28.0444 0.0000 0.0000
# 5 0.0000 0.0000 0.0000 0.0000 22.9565 0.0000
# 6 0.0000 0.0000 0.0000 0.0000 0.0000 29.5978
#
#
#
# Elastic Compliance Matrix: (Units=1/GPa)
#
#
# Indices 1 2 3 4 5 6 
#
# 1 0.030811 -0.012952 -0.004770 0.000000 0.000000 0.000000
# 2 -0.012952 0.012203 -0.001867 0.000000 0.000000 0.000000
# 3 -0.004770 -0.001867 0.013842 0.000000 0.000000 0.000000
# 4 0.000000 0.000000 0.000000 0.035658 0.000000 0.000000
# 5 0.000000 0.000000 0.000000 0.000000 0.043561 0.000000
# 6 0.000000 0.000000 0.000000 0.000000 0.000000 0.033786
#
#
# Mechanical properties :
#
#
# Convention : Reuss Voigt Hill
#
# Bulk Modulus (GPa) = 56.56613 76.33186 66.44900
# Shear Modulus (GPa) = 23.26316 27.51714 25.39015
#
# Velocity S-wave (km/s) = 3.64734 3.96683 3.81044
# Velocity P-wave (km/s) = 7.07707 8.03938 7.57353
#
# Compressibility (1/GPa) = 0.01767842
#
# Stress axis : x y z
#
# Youngs Moduli (GPa) = 32.45579 81.94552 72.24311
#
# Poissons Ratio (x) = 1.06136 0.34457
# Poissons Ratio (y) = 0.42037 0.13491
# Poissons Ratio (z) = 0.15480 0.15302
#
# Static dielectric constant tensor:
#      x y z
#    x 1.583230 0.000000 0.000000 
#    y 0.000000 1.597280 0.000000 
#    z 0.000000 0.000000 1.588890 
# 
# From -- ./inp_files/1994.got.cif
#   From: 2010.05.17/outbox.cif.g08.bks.cpg/sg45_1_cif.got.tgz:1994.got - 2010.06.03 19:51:22.
