data_PCOD9376615
_publ_section_title
;
Structure prediction by ZEFSAII (Michael W. Deem and Ramdas Pophale) SiO2 
 PCOD9376615
Probable space group: I B A 2
;
_chemical_formula_sum "Si O2"
_cell_formula_units_Z 44
_cell_length_a 17.475782
_cell_length_b 9.287375
_cell_length_c 11.555162
_cell_angle_alpha 90.000000
_cell_angle_beta 90.000000
_cell_angle_gamma 90.000000
_cell_volume 1875.450641
_symmetry_space_group_name_H-M "I B A 2"
_symmetry_group_IT_number 45
_symmetry_cell_setting 'orthorhombic'
loop_
_space_group_symop_operation_xyz
x,y,z
-x,-y,z
-x,y,1/2+z
x,-y,1/2+z
1/2+x,1/2+y,1/2+z
1/2-x,1/2-y,1/2+z
1/2-x,1/2+y,z
1/2+x,1/2-y,z
loop_
_atom_site_type_symbol
_atom_site_label
_atom_site_fract_x
_atom_site_fract_y
_atom_site_fract_z
Si Si1 0.635142 0.710031 0.956920
Si Si2 0.800736 0.988259 0.620818
Si Si3 0.901932 0.234516 0.687700
Si Si4 0.128981 0.450952 0.647240
Si Si5 0.500000 0.500000 0.452149
Si Si6 0.930135 0.818427 0.757210
O O1 0.630492 0.734123 0.819987
O O2 0.563022 0.611756 0.996848
O O3 0.703852 0.610299 0.005462
O O4 0.629767 0.857004 0.029404
O O5 0.844499 0.140100 0.611150
O O6 0.717655 0.015352 0.672152
O O7 0.856331 0.898750 0.705677
O O8 0.910794 0.395100 0.641277
O O9 0.985550 0.163897 0.699007
O O10 0.090536 0.349040 0.743631
O O11 0.446345 0.390838 0.379245
#
# Coordination Sequence:
#
# PCOD9376615 Si02
#       6
#     8   8   8   8   4   8
#     4  10  24  42  69  99 131 180 233 269 337 410
#     4  11  22  43  67  97 136 185 228 272 342 417
#     4  11  22  45  67  97 139 177 232 287 330 401
#     4  11  25  41  65 106 146 171 221 289 355 398
#     4  10  20  44  72 102 124 184 248 268 330 422
#     4  10  20  43  69  96 129 181 230 275 329 400
#
# _framework density 23.461027999999999
#
# number of rings (size 3 to 8) (size 9 to 14) (size 15 to 20)
#    0.000    1.455    3.636    2.727    5.091    1.455 
#    6.545    5.455    0.000    0.000    0.000    0.000 
#    0.000    0.000    0.000    0.000    0.000    0.000 
#
# Total GULP energy -122825.398456 kJ/mol
# GULP energy per Si atom -5582.972657 kJ/mol
# Density = 2.340763 g / cm^3
# Si number density = 23.461028 Si / 1000 Ang^3
#
#
#
# Elastic Constant Matrix: (Units=GPa)
#
#
# Indices 1 2 3 4 5 6 
#
# 1 95.0651 5.0419 -6.1482 0.0000 0.0000 0.0000
# 2 5.0419 147.0360 15.9553 0.0000 0.0000 0.0000
# 3 -6.1482 15.9553 60.7754 0.0000 0.0000 0.0000
# 4 0.0000 0.0000 0.0000 34.8615 0.0000 0.0000
# 5 0.0000 0.0000 0.0000 0.0000 16.0821 0.0000
# 6 0.0000 0.0000 0.0000 0.0000 0.0000 42.1577
#
#
#
# Elastic Compliance Matrix: (Units=1/GPa)
#
#
# Indices 1 2 3 4 5 6 
#
# 1 0.010623 -0.000495 0.001205 0.000000 0.000000 0.000000
# 2 -0.000495 0.007024 -0.001894 0.000000 0.000000 0.000000
# 3 0.001205 -0.001894 0.017073 0.000000 0.000000 0.000000
# 4 0.000000 0.000000 0.000000 0.028685 0.000000 0.000000
# 5 0.000000 0.000000 0.000000 0.000000 0.062181 0.000000
# 6 0.000000 0.000000 0.000000 0.000000 0.000000 0.023720
#
#
# Mechanical properties :
#
#
# Convention : Reuss Voigt Hill
#
# Bulk Modulus (GPa) = 30.91069 36.95273 33.93171
# Shear Modulus (GPa) = 30.77703 37.82208 34.29955
#
# Velocity S-wave (km/s) = 3.62586 4.01948 3.82773
# Velocity P-wave (km/s) = 5.54374 6.10954 5.83351
#
# Compressibility (1/GPa) = 0.03235127
#
# Stress axis : x y z
#
# Youngs Moduli (GPa) = 94.13301 142.37820 58.57169
#
# Poissons Ratio (x) = 0.07048 -0.07056
# Poissons Ratio (y) = 0.04660 0.11093
# Poissons Ratio (z) = -0.11340 0.26966
#
# Static dielectric constant tensor:
#      x y z
#    x 1.943250 0.000000 0.000000 
#    y 0.000000 1.897210 0.000000 
#    z 0.000000 0.000000 1.962910 
# 
# From -- ./inp_files/6710.got.cif
#   From: 2010.05.17/outbox.cif.g08.bks.cpg/sg45_4_cif.got.tgz:6710.got - 2010.06.03 19:51:22.
