data_PCOD9376790
_publ_section_title
;
Structure prediction by ZEFSAII (Michael W. Deem and Ramdas Pophale) SiO2 
 PCOD9376790
Probable space group: I B A 2
;
_chemical_formula_sum "Si O2"
_cell_formula_units_Z 60
_cell_length_a 26.861165
_cell_length_b 7.959675
_cell_length_c 13.050929
_cell_angle_alpha 90.000000
_cell_angle_beta 90.000000
_cell_angle_gamma 90.000000
_cell_volume 2790.368799
_symmetry_space_group_name_H-M "I B A 2"
_symmetry_group_IT_number 45
_symmetry_cell_setting 'orthorhombic'
loop_
_space_group_symop_operation_xyz
x,y,z
-x,-y,z
-x,y,1/2+z
x,-y,1/2+z
1/2+x,1/2+y,1/2+z
1/2-x,1/2-y,1/2+z
1/2-x,1/2+y,z
1/2+x,1/2-y,z
loop_
_atom_site_type_symbol
_atom_site_label
_atom_site_fract_x
_atom_site_fract_y
_atom_site_fract_z
Si Si1 0.024271 0.726219 0.985090
Si Si2 0.000000 0.500000 0.164918
Si Si3 0.923222 0.078424 0.455200
Si Si4 0.815163 0.721931 0.308388
Si Si5 0.831335 0.081966 0.606102
Si Si6 0.776929 0.062923 0.402614
Si Si7 0.583735 0.959712 0.818208
Si Si8 0.637958 0.313659 0.775379
O O1 0.050522 0.580479 0.918360
O O2 0.968884 0.789549 0.953411
O O3 0.056076 0.896029 0.982621
O O4 0.021174 0.648924 0.096728
O O5 0.955922 0.577906 0.230686
O O6 0.879968 0.125562 0.536872
O O7 0.899090 0.070471 0.342489
O O8 0.815667 0.778689 0.189644
O O9 0.776607 0.585346 0.351415
O O10 0.870442 0.664056 0.329569
O O11 0.799600 0.885475 0.370917
O O12 0.786146 0.071097 0.524181
O O13 0.845958 0.912217 0.671360
O O14 0.812007 0.196895 0.343724
O O15 0.609499 0.135740 0.783605
#
# Coordination Sequence:
#
# PCOD9376790 Si02
#       8
#     8   4   8   8   8   8   8   8
#     4  11  23  39  60  92 132 168 217 270 321 383
#     4  12  24  38  60  94 130 172 218 264 322 382
#     4  10  21  40  64  90 126 174 216 266 325 384
#     4  11  24  43  67  95 129 168 214 264 328 393
#     4  10  21  41  66  93 127 168 216 266 322 397
#     4  10  23  43  66  97 129 165 214 270 329 393
#     4  12  24  41  65  94 131 170 213 270 322 381
#     4  10  21  40  64  91 125 163 212 266 324 386
#
# _framework density 21.502534000000001
#
# number of rings (size 3 to 8) (size 9 to 14) (size 15 to 20)
#    0.000    1.333    0.000    6.800    0.000    3.200 
#    0.000    6.667    0.000    0.000    0.000    0.000 
#    0.000    0.000    0.000    0.000    0.000    0.000 
#
# Total GULP energy -167314.815931 kJ/mol
# GULP energy per Si atom -5577.160531 kJ/mol
# Density = 2.145359 g / cm^3
# Si number density = 21.502534 Si / 1000 Ang^3
#
#
#
# Elastic Constant Matrix: (Units=GPa)
#
#
# Indices 1 2 3 4 5 6 
#
# 1 119.6656 50.1602 64.4777 0.0000 0.0000 0.0000
# 2 50.1602 105.9265 29.6570 0.0000 0.0000 0.0000
# 3 64.4777 29.6570 103.7846 0.0000 0.0000 0.0000
# 4 0.0000 0.0000 0.0000 14.2156 0.0000 0.0000
# 5 0.0000 0.0000 0.0000 0.0000 12.2662 0.0000
# 6 0.0000 0.0000 0.0000 0.0000 0.0000 41.8896
#
#
#
# Elastic Compliance Matrix: (Units=1/GPa)
#
#
# Indices 1 2 3 4 5 6 
#
# 1 0.014436 -0.004701 -0.007625 0.000000 0.000000 0.000000
# 2 -0.004701 0.011792 -0.000449 0.000000 0.000000 0.000000
# 3 -0.007625 -0.000449 0.014501 0.000000 0.000000 0.000000
# 4 0.000000 0.000000 0.000000 0.070345 0.000000 0.000000
# 5 0.000000 0.000000 0.000000 0.000000 0.081525 0.000000
# 6 0.000000 0.000000 0.000000 0.000000 0.000000 0.023872
#
#
# Mechanical properties :
#
#
# Convention : Reuss Voigt Hill
#
# Bulk Modulus (GPa) = 65.88273 68.66295 67.27284
# Shear Modulus (GPa) = 20.23626 26.01306 23.12466
#
# Velocity S-wave (km/s) = 3.07108 3.48194 3.28295
# Velocity P-wave (km/s) = 6.57886 6.94025 6.76197
#
# Compressibility (1/GPa) = 0.01517848
#
# Stress axis : x y z
#
# Youngs Moduli (GPa) = 69.27319 84.80076 68.96153
#
# Poissons Ratio (x) = 0.39865 0.52583
# Poissons Ratio (y) = 0.32565 0.03098
# Poissons Ratio (z) = 0.52821 0.03809
#
# Static dielectric constant tensor:
#      x y z
#    x 1.883920 0.000000 0.000000 
#    y 0.000000 1.838960 0.000000 
#    z 0.000000 0.000000 1.778320 
# 
# From -- ./inp_files/4887.got.cif
#   From: 2010.05.17/outbox.cif.g08.bks.cpg/sg45_3_cif.got.tgz:4887.got - 2010.06.03 19:51:22.
