data_PCOD9376942
_publ_section_title
;
Structure prediction by ZEFSAII (Michael W. Deem and Ramdas Pophale) SiO2 
 PCOD9376942
Probable space group: I B A 2
;
_chemical_formula_sum "Si O2"
_cell_formula_units_Z 44
_cell_length_a 18.497400
_cell_length_b 13.794522
_cell_length_c 8.942743
_cell_angle_alpha 90.000000
_cell_angle_beta 90.000000
_cell_angle_gamma 90.000000
_cell_volume 2281.855265
_symmetry_space_group_name_H-M "I B A 2"
_symmetry_group_IT_number 45
_symmetry_cell_setting 'orthorhombic'
loop_
_space_group_symop_operation_xyz
x,y,z
-x,-y,z
-x,y,1/2+z
x,-y,1/2+z
1/2+x,1/2+y,1/2+z
1/2-x,1/2-y,1/2+z
1/2-x,1/2+y,z
1/2+x,1/2-y,z
loop_
_atom_site_type_symbol
_atom_site_label
_atom_site_fract_x
_atom_site_fract_y
_atom_site_fract_z
Si Si1 0.215862 0.373568 0.701020
Si Si2 0.267066 0.925292 0.043029
Si Si3 0.627435 0.712842 0.048896
Si Si4 0.000000 0.000000 0.831787
Si Si5 0.647675 0.232310 0.208454
Si Si6 0.465772 0.637458 0.083442
O O1 0.229488 0.463470 0.591049
O O2 0.150982 0.301760 0.654782
O O3 0.286441 0.306662 0.688336
O O4 0.210059 0.409666 0.871213
O O5 0.188979 0.871270 0.057908
O O6 0.321712 0.869464 0.153919
O O7 0.549736 0.667694 0.084949
O O8 0.625876 0.757208 0.881325
O O9 0.047732 0.932702 0.724961
O O10 0.954890 0.928413 0.937675
O O11 0.583752 0.269928 0.102545
#
# Coordination Sequence:
#
# PCOD9376942 Si02
#       6
#     8   8   8   4   8   8
#     4  10  22  38  60  84 115 153 193 235 285 338
#     4  10  22  38  60  84 115 153 193 235 285 338
#     4  10  22  39  58  86 118 152 190 237 283 340
#     4  10  24  34  56  90 118 154 184 228 300 334
#     4  10  22  39  58  86 118 152 190 237 283 340
#     4  11  22  38  57  88 118 150 191 236 283 346
#
# _framework density 19.282554999999999
#
# number of rings (size 3 to 8) (size 9 to 14) (size 15 to 20)
#    0.000    1.818    1.818    1.091    7.636    1.455 
#    0.000    0.909    0.000    4.364    0.000    0.000 
#    0.000    0.000    0.000    0.000    0.000    0.000 
#
# Total GULP energy -122858.043846 kJ/mol
# GULP energy per Si atom -5584.456538 kJ/mol
# Density = 1.923867 g / cm^3
# Si number density = 19.282555 Si / 1000 Ang^3
#
#
#
# Elastic Constant Matrix: (Units=GPa)
#
#
# Indices 1 2 3 4 5 6 
#
# 1 59.1690 2.7521 19.4998 0.0000 0.0000 0.0000
# 2 2.7521 67.9431 33.8819 0.0000 0.0000 0.0000
# 3 19.4998 33.8819 80.3636 0.0000 0.0000 0.0000
# 4 0.0000 0.0000 0.0000 34.3284 0.0000 0.0000
# 5 0.0000 0.0000 0.0000 0.0000 13.9362 0.0000
# 6 0.0000 0.0000 0.0000 0.0000 0.0000 6.5895
#
#
#
# Elastic Compliance Matrix: (Units=1/GPa)
#
#
# Indices 1 2 3 4 5 6 
#
# 1 0.018560 0.001892 -0.005301 0.000000 0.000000 0.000000
# 2 0.001892 0.018829 -0.008398 0.000000 0.000000 0.000000
# 3 -0.005301 -0.008398 0.017270 0.000000 0.000000 0.000000
# 4 0.000000 0.000000 0.000000 0.029130 0.000000 0.000000
# 5 0.000000 0.000000 0.000000 0.000000 0.071755 0.000000
# 6 0.000000 0.000000 0.000000 0.000000 0.000000 0.151757
#
#
# Mechanical properties :
#
#
# Convention : Reuss Voigt Hill
#
# Bulk Modulus (GPa) = 32.21076 35.52704 33.86890
# Shear Modulus (GPa) = 14.65140 21.06028 17.85584
#
# Velocity S-wave (km/s) = 2.75949 3.30842 3.04634
# Velocity P-wave (km/s) = 5.18593 5.74966 5.47506
#
# Compressibility (1/GPa) = 0.03104552
#
# Stress axis : x y z
#
# Youngs Moduli (GPa) = 53.88001 53.10869 57.90320
#
# Poissons Ratio (x) = -0.10047 0.30695
# Poissons Ratio (y) = -0.10193 0.48625
# Poissons Ratio (z) = 0.28562 0.44599
#
# Static dielectric constant tensor:
#      x y z
#    x 1.671240 0.000000 0.000000 
#    y 0.000000 1.656370 0.000000 
#    z 0.000000 0.000000 1.705650 
# 
# From -- ./inp_files/1666.got.cif
#   From: 2010.05.17/outbox.cif.g08.bks.cpg/sg45_1_cif.got.tgz:1666.got - 2010.06.03 19:51:22.
