data_PCOD9376112
_publ_section_title
;
Structure prediction by ZEFSAII (Michael W. Deem and Ramdas Pophale) SiO2 
 PCOD9376112
Probable space group: I B A 2
;
_chemical_formula_sum "Si O2"
_cell_formula_units_Z 56
_cell_length_a 24.686100
_cell_length_b 17.391500
_cell_length_c 5.573101
_cell_angle_alpha 90.000000
_cell_angle_beta 90.000000
_cell_angle_gamma 90.000000
_cell_volume 2392.690023
_symmetry_space_group_name_H-M "I B A 2"
_symmetry_group_IT_number 45
_symmetry_cell_setting 'orthorhombic'
loop_
_space_group_symop_operation_xyz
x,y,z
-x,-y,z
-x,y,1/2+z
x,-y,1/2+z
1/2+x,1/2+y,1/2+z
1/2-x,1/2-y,1/2+z
1/2-x,1/2+y,z
1/2+x,1/2-y,z
loop_
_atom_site_type_symbol
_atom_site_label
_atom_site_fract_x
_atom_site_fract_y
_atom_site_fract_z
Si Si1 0.621142 0.257441 0.591850
Si Si2 0.070831 0.957893 0.591671
Si Si3 0.436502 0.110166 0.091899
Si Si4 0.797876 0.956889 0.091677
Si Si5 0.737200 0.205259 0.591568
Si Si6 0.911617 0.202345 0.591861
Si Si7 0.063588 0.383927 0.091902
O O1 0.568611 0.203079 0.591892
O O2 0.672094 0.200743 0.591716
O O3 0.620496 0.303646 0.344400
O O4 0.620524 0.303601 0.839382
O O5 0.136574 0.950832 0.591682
O O6 0.048681 0.870303 0.591736
O O7 0.057313 0.999985 0.341646
O O8 0.412278 0.086280 0.344693
O O9 0.500391 0.093634 0.091900
O O10 0.412281 0.086272 0.839106
O O11 0.768237 0.874893 0.091651
O O12 0.783433 0.999996 0.341684
O O13 0.749980 0.249966 0.341492
O O14 0.931885 0.290834 0.591909
#
# Coordination Sequence:
#
# PCOD9376112 Si02
#       7
#     8   8   8   8   8   8   8
#     4  10  19  30  47  69  92 118 148 191 242 291
#     4  10  19  30  44  61  83 117 162 201 231 278
#     4   8  14  25  40  63  86 112 144 173 222 292
#     4  10  21  36  51  68  97 138 175 208 254 310
#     4  12  23  35  53  77 104 131 169 221 263 296
#     4  10  18  30  46  68  94 118 150 193 246 293
#     4   8  14  24  41  62  85 114 141 175 224 288
#
# _framework density 23.404620000000001
#
# number of rings (size 3 to 8) (size 9 to 14) (size 15 to 20)
#    0.000    2.286    0.000    4.286    0.000    2.286 
#    0.000    0.000    0.000    0.000    0.000   48.000 
#    0.000    0.000    0.000   61.714    0.000    0.000 
#
# Total GULP energy -156072.027624 kJ/mol
# GULP energy per Si atom -5574.000987 kJ/mol
# Density = 2.335135 g / cm^3
# Si number density = 23.404620 Si / 1000 Ang^3
#
#
#
# Elastic Constant Matrix: (Units=GPa)
#
#
# Indices 1 2 3 4 5 6 
#
# 1 55.4686 22.2274 27.8426 0.0000 0.0000 0.0000
# 2 22.2274 162.5172 75.2800 0.0000 0.0000 0.0000
# 3 27.8426 75.2800 314.6433 0.0000 0.0000 0.0000
# 4 0.0000 0.0000 0.0000 50.6910 0.0000 0.0000
# 5 0.0000 0.0000 0.0000 0.0000 40.6963 0.0000
# 6 0.0000 0.0000 0.0000 0.0000 0.0000 87.6442
#
#
#
# Elastic Compliance Matrix: (Units=1/GPa)
#
#
# Indices 1 2 3 4 5 6 
#
# 1 0.019483 -0.002099 -0.001222 0.000000 0.000000 0.000000
# 2 -0.002099 0.007146 -0.001524 0.000000 0.000000 0.000000
# 3 -0.001222 -0.001524 0.003651 0.000000 0.000000 0.000000
# 4 0.000000 0.000000 0.000000 0.019727 0.000000 0.000000
# 5 0.000000 0.000000 0.000000 0.000000 0.024572 0.000000
# 6 0.000000 0.000000 0.000000 0.000000 0.000000 0.011410
#
#
# Mechanical properties :
#
#
# Convention : Reuss Voigt Hill
#
# Bulk Modulus (GPa) = 48.56602 87.03658 67.80130
# Shear Modulus (GPa) = 48.76066 62.95825 55.85946
#
# Velocity S-wave (km/s) = 4.56935 5.19214 4.89067
# Velocity P-wave (km/s) = 6.97383 8.55646 7.80536
#
# Compressibility (1/GPa) = 0.02059053
#
# Stress axis : x y z
#
# Youngs Moduli (GPa) = 51.32807 139.93481 273.90030
#
# Poissons Ratio (x) = 0.29367 0.33468
# Poissons Ratio (y) = 0.10772 0.41744
# Poissons Ratio (z) = 0.06272 0.21327
#
# Static dielectric constant tensor:
#      x y z
#    x 1.868780 0.000000 0.000000 
#    y 0.000000 1.904430 0.000000 
#    z 0.000000 0.000000 1.919260 
# 
# From -- ./inp_files/677.got.cif
#   From: 2010.05.17/outbox.cif.g08.bks.cpg/sg45_1_cif.got.tgz:677.got - 2010.06.03 19:51:22.
