data_PCOD9376509
_publ_section_title
;
Structure prediction by ZEFSAII (Michael W. Deem and Ramdas Pophale) SiO2 
 PCOD9376509
Probable space group: I B A 2
;
_chemical_formula_sum "Si O2"
_cell_formula_units_Z 48
_cell_length_a 5.340487
_cell_length_b 19.254584
_cell_length_c 18.916403
_cell_angle_alpha 90.000000
_cell_angle_beta 90.000000
_cell_angle_gamma 90.000000
_cell_volume 1945.152071
_symmetry_space_group_name_H-M "I B A 2"
_symmetry_group_IT_number 45
_symmetry_cell_setting 'orthorhombic'
loop_
_space_group_symop_operation_xyz
x,y,z
-x,-y,z
-x,y,1/2+z
x,-y,1/2+z
1/2+x,1/2+y,1/2+z
1/2-x,1/2-y,1/2+z
1/2-x,1/2+y,z
1/2+x,1/2-y,z
loop_
_atom_site_type_symbol
_atom_site_label
_atom_site_fract_x
_atom_site_fract_y
_atom_site_fract_z
Si Si1 0.873282 0.399029 0.457300
Si Si2 0.941719 0.784735 0.162154
Si Si3 0.647714 0.434389 0.679498
Si Si4 0.998367 0.778113 0.995936
Si Si5 0.000000 0.500000 0.061398
Si Si6 0.000000 0.000000 0.897744
Si Si7 0.121167 0.423366 0.318235
O O1 0.667734 0.345542 0.484532
O O2 0.718168 0.469825 0.444740
O O3 0.059253 0.427883 0.517764
O O4 0.975136 0.382132 0.378874
O O5 0.185623 0.745747 0.192993
O O6 0.974582 0.867847 0.165377
O O7 0.951332 0.766234 0.078772
O O8 0.500000 0.500000 0.711997
O O9 0.847009 0.405034 0.736844
O O10 0.783519 0.469798 0.612880
O O11 0.211008 0.722892 0.967708
O O12 0.895411 0.936700 0.851344
O O13 0.000000 0.500000 0.316891
#
# Coordination Sequence:
#
# PCOD9376509 Si02
#       7
#     8   8   8   8   4   4   8
#     4  11  23  40  64  97 132 166 221 283 342 409
#     4  10  24  45  66  96 143 190 221 281 362 420
#     4  12  26  40  70 103 135 176 239 293 338 419
#     4  10  23  41  65  93 132 180 224 273 337 408
#     4  12  24  36  64 106 126 158 226 294 334 394
#     4  10  20  38  64  90 130 170 202 266 356 394
#     4  10  21  40  61  93 136 171 209 274 357 403
#
# _framework density 24.676732999999999
#
# number of rings (size 3 to 8) (size 9 to 14) (size 15 to 20)
#    0.000    1.333    5.833    0.000    5.833    1.333 
#    0.000    1.667    0.000    0.000    0.000    0.000 
#    0.000    0.000    0.000    0.000    0.000    0.000 
#
# Total GULP energy -133744.703771 kJ/mol
# GULP energy per Si atom -5572.695990 kJ/mol
# Density = 2.462057 g / cm^3
# Si number density = 24.676733 Si / 1000 Ang^3
#
#
#
# Elastic Constant Matrix: (Units=GPa)
#
#
# Indices 1 2 3 4 5 6 
#
# 1 65.2392 6.5063 -1.9672 0.0000 0.0000 0.0000
# 2 6.5063 84.8596 4.3908 0.0000 0.0000 0.0000
# 3 -1.9672 4.3908 47.6980 0.0000 0.0000 0.0000
# 4 0.0000 0.0000 0.0000 12.7304 0.0000 0.0000
# 5 0.0000 0.0000 0.0000 0.0000 18.4671 0.0000
# 6 0.0000 0.0000 0.0000 0.0000 0.0000 40.9643
#
#
#
# Elastic Compliance Matrix: (Units=1/GPa)
#
#
# Indices 1 2 3 4 5 6 
#
# 1 0.015473 -0.001225 0.000751 0.000000 0.000000 0.000000
# 2 -0.001225 0.011938 -0.001149 0.000000 0.000000 0.000000
# 3 0.000751 -0.001149 0.021102 0.000000 0.000000 0.000000
# 4 0.000000 0.000000 0.000000 0.078552 0.000000 0.000000
# 5 0.000000 0.000000 0.000000 0.000000 0.054150 0.000000
# 6 0.000000 0.000000 0.000000 0.000000 0.000000 0.024411
#
#
# Mechanical properties :
#
#
# Convention : Reuss Voigt Hill
#
# Bulk Modulus (GPa) = 22.09201 23.96186 23.02693
# Shear Modulus (GPa) = 22.32515 27.02349 24.67432
#
# Velocity S-wave (km/s) = 3.01109 3.31282 3.16555
# Velocity P-wave (km/s) = 4.58922 4.93603 4.76578
#
# Compressibility (1/GPa) = 0.04526523
#
# Stress axis : x y z
#
# Youngs Moduli (GPa) = 64.62859 83.76906 47.38883
#
# Poissons Ratio (x) = 0.10263 -0.03559
# Poissons Ratio (y) = 0.07918 0.05447
# Poissons Ratio (z) = -0.04853 0.09629
#
# Static dielectric constant tensor:
#      x y z
#    x 2.157360 0.000000 0.000000 
#    y 0.000000 2.079730 0.000000 
#    z 0.000000 0.000000 2.041380 
# 
# From -- ./inp_files/8672.got.cif
#   From: 2010.05.17/outbox.cif.g08.bks.cpg/sg45_5_cif.got.tgz:8672.got - 2010.06.03 19:51:22.
