data_PCOD9376108
_publ_section_title
;
Structure prediction by ZEFSAII (Michael W. Deem and Ramdas Pophale) SiO2 
 PCOD9376108
Probable space group: I B A 2
;
_chemical_formula_sum "Si O2"
_cell_formula_units_Z 52
_cell_length_a 19.396098
_cell_length_b 14.946625
_cell_length_c 9.330423
_cell_angle_alpha 90.000000
_cell_angle_beta 90.000000
_cell_angle_gamma 90.000000
_cell_volume 2704.947507
_symmetry_space_group_name_H-M "I B A 2"
_symmetry_group_IT_number 45
_symmetry_cell_setting 'orthorhombic'
loop_
_space_group_symop_operation_xyz
x,y,z
-x,-y,z
-x,y,1/2+z
x,-y,1/2+z
1/2+x,1/2+y,1/2+z
1/2-x,1/2-y,1/2+z
1/2-x,1/2+y,z
1/2+x,1/2-y,z
loop_
_atom_site_type_symbol
_atom_site_label
_atom_site_fract_x
_atom_site_fract_y
_atom_site_fract_z
Si Si1 0.795782 0.845122 0.546720
Si Si2 0.139556 0.428268 0.341689
Si Si3 0.500000 0.000000 0.314369
Si Si4 0.802292 0.694579 0.787141
Si Si5 0.778561 0.481785 0.107760
Si Si6 0.960643 0.307042 0.227269
Si Si7 0.420821 0.743548 0.413595
O O1 0.793187 0.781514 0.686542
O O2 0.736244 0.810651 0.438261
O O3 0.782291 0.946677 0.594872
O O4 0.867624 0.833593 0.459504
O O5 0.070735 0.478806 0.395623
O O6 0.159963 0.463809 0.186467
O O7 0.200034 0.453800 0.449074
O O8 0.126259 0.323276 0.349757
O O9 0.489796 0.092258 0.229831
O O10 0.773333 0.608908 0.698834
O O11 0.885283 0.687369 0.800339
O O12 0.013839 0.240913 0.307871
O O13 0.949919 0.278025 0.064939
#
# Coordination Sequence:
#
# PCOD9376108 Si02
#       7
#     8   8   4   8   8   8   8
#     4  11  23  38  61  86 128 160 209 260 307 382
#     4  11  20  34  53  83 123 156 203 238 299 385
#     4  10  18  28  50  78 114 160 182 224 298 358
#     4  11  23  40  57  92 119 165 207 251 316 377
#     4  12  21  38  56  83 126 160 207 253 304 373
#     4  10  20  35  54  80 125 151 200 239 300 381
#     4  10  22  37  54  88 118 161 197 244 307 376
#
# _framework density 19.224032999999999
#
# number of rings (size 3 to 8) (size 9 to 14) (size 15 to 20)
#    0.000    1.231    6.154    0.923    0.000   11.692 
#    0.000    0.000    0.000    0.000    0.000   22.615 
#    0.000    0.000    0.000    0.000    0.000    0.000 
#
# Total GULP energy -145009.240078 kJ/mol
# GULP energy per Si atom -5577.278465 kJ/mol
# Density = 1.918028 g / cm^3
# Si number density = 19.224033 Si / 1000 Ang^3
#
#
#
# Elastic Constant Matrix: (Units=GPa)
#
#
# Indices 1 2 3 4 5 6 
#
# 1 57.1429 25.2962 11.1719 0.0000 0.0000 0.0000
# 2 25.2962 59.4306 -14.1652 0.0000 0.0000 0.0000
# 3 11.1719 -14.1652 34.6602 0.0000 0.0000 0.0000
# 4 0.0000 0.0000 0.0000 20.8065 0.0000 0.0000
# 5 0.0000 0.0000 0.0000 0.0000 22.6797 0.0000
# 6 0.0000 0.0000 0.0000 0.0000 0.0000 33.6926
#
#
#
# Elastic Compliance Matrix: (Units=1/GPa)
#
#
# Indices 1 2 3 4 5 6 
#
# 1 0.027087 -0.015079 -0.014894 0.000000 0.000000 0.000000
# 2 -0.015079 0.027037 0.015910 0.000000 0.000000 0.000000
# 3 -0.014894 0.015910 0.040154 0.000000 0.000000 0.000000
# 4 0.000000 0.000000 0.000000 0.048062 0.000000 0.000000
# 5 0.000000 0.000000 0.000000 0.000000 0.044092 0.000000
# 6 0.000000 0.000000 0.000000 0.000000 0.000000 0.029680
#
#
# Mechanical properties :
#
#
# Convention : Reuss Voigt Hill
#
# Bulk Modulus (GPa) = 15.11652 21.75995 18.43823
# Shear Modulus (GPa) = 18.77658 24.03116 21.40387
#
# Velocity S-wave (km/s) = 3.12865 3.53945 3.34037
# Velocity P-wave (km/s) = 4.57511 5.29597 4.94869
#
# Compressibility (1/GPa) = 0.06615278
#
# Stress axis : x y z
#
# Youngs Moduli (GPa) = 36.91790 36.98653 24.90386
#
# Poissons Ratio (x) = 0.55773 0.37091
# Poissons Ratio (y) = 0.55670 -0.39622
# Poissons Ratio (z) = 0.54984 -0.58846
#
# Static dielectric constant tensor:
#      x y z
#    x 1.723670 0.000000 0.000000 
#    y 0.000000 1.676870 0.000000 
#    z 0.000000 0.000000 1.673700 
# 
# From -- ./inp_files/1784.got.cif
#   From: 2010.05.17/outbox.cif.g08.bks.cpg/sg45_1_cif.got.tgz:1784.got - 2010.06.03 19:51:22.
