data_PCOD9376705
_publ_section_title
;
Structure prediction by ZEFSAII (Michael W. Deem and Ramdas Pophale) SiO2 
 PCOD9376705
Probable space group: I B A 2
;
_chemical_formula_sum "Si O2"
_cell_formula_units_Z 56
_cell_length_a 27.242856
_cell_length_b 16.412620
_cell_length_c 5.302273
_cell_angle_alpha 90.000000
_cell_angle_beta 90.000000
_cell_angle_gamma 90.000000
_cell_volume 2370.787528
_symmetry_space_group_name_H-M "I B A 2"
_symmetry_group_IT_number 45
_symmetry_cell_setting 'orthorhombic'
loop_
_space_group_symop_operation_xyz
x,y,z
-x,-y,z
-x,y,1/2+z
x,-y,1/2+z
1/2+x,1/2+y,1/2+z
1/2-x,1/2-y,1/2+z
1/2-x,1/2+y,z
1/2+x,1/2-y,z
loop_
_atom_site_type_symbol
_atom_site_label
_atom_site_fract_x
_atom_site_fract_y
_atom_site_fract_z
Si Si1 0.742160 0.203448 0.282100
Si Si2 0.192233 0.952282 0.391168
Si Si3 0.918148 0.769719 0.899876
Si Si4 0.573671 0.550065 0.372942
Si Si5 0.870441 0.292170 0.900434
Si Si6 0.624328 0.976744 0.897913
Si Si7 0.031019 0.401645 0.894813
O O1 0.758250 0.270941 0.489077
O O2 0.778046 0.128253 0.325023
O O3 0.686389 0.188084 0.364625
O O4 0.133280 0.939897 0.376498
O O5 0.203734 0.982214 0.672965
O O6 0.944105 0.856843 0.880048
O O7 0.883028 0.753752 0.658650
O O8 0.954085 0.692892 0.894333
O O9 0.889373 0.760043 0.164016
O O10 0.560221 0.498309 0.619916
O O11 0.893177 0.383408 0.900350
O O12 0.653351 0.999678 0.647609
O O13 0.578884 0.040499 0.896938
O O14 0.000020 0.415885 0.644833
#
# Coordination Sequence:
#
# PCOD9376705 Si02
#       7
#     8   8   8   8   8   8   8
#     4  12  25  41  64  93 127 176 225 271 335 381
#     4  10  21  38  59  89 119 158 212 264 321 381
#     4  12  24  45  66  98 129 167 224 271 338 404
#     4  10  21  39  67  94 121 160 208 275 330 396
#     4  12  24  42  64  93 134 181 220 278 317 394
#     4  12  23  43  61  97 136 176 234 258 325 391
#     4  12  26  44  69  99 138 177 224 277 326 397
#
# _framework density 23.620842
#
# number of rings (size 3 to 8) (size 9 to 14) (size 15 to 20)
#    0.000    0.571    2.857    6.000    0.000    5.143 
#    0.000    0.000    0.000    2.571    0.000    0.000 
#    0.000    0.000    0.000    0.000    0.000    0.000 
#
# Total GULP energy -156874.628102 kJ/mol
# GULP energy per Si atom -5602.665289 kJ/mol
# Density = 2.356708 g / cm^3
# Si number density = 23.620842 Si / 1000 Ang^3
#
#
#
# Elastic Constant Matrix: (Units=GPa)
#
#
# Indices 1 2 3 4 5 6 
#
# 1 52.4858 9.5432 1.1352 0.0000 0.0000 0.0000
# 2 9.5432 159.5651 19.4658 0.0000 0.0000 0.0000
# 3 1.1352 19.4658 161.1083 0.0000 0.0000 0.0000
# 4 0.0000 0.0000 0.0000 -3.5927 0.0000 0.0000
# 5 0.0000 0.0000 0.0000 0.0000 4.1369 0.0000
# 6 0.0000 0.0000 0.0000 0.0000 0.0000 22.8773
#
#
#
# Elastic Compliance Matrix: (Units=1/GPa)
#
#
# Indices 1 2 3 4 5 6 
#
# 1 0.019262 -0.001152 0.000004 0.000000 0.000000 0.000000
# 2 -0.001152 0.006430 -0.000769 0.000000 0.000000 0.000000
# 3 0.000004 -0.000769 0.006300 0.000000 0.000000 0.000000
# 4 0.000000 0.000000 0.000000 -0.278340 0.000000 0.000000
# 5 0.000000 0.000000 0.000000 0.000000 0.241724 0.000000
# 6 0.000000 0.000000 0.000000 0.000000 0.000000 0.043711
#
#
# Mechanical properties :
#
#
# Convention : Reuss Voigt Hill
#
# Bulk Modulus (GPa) = 35.51579 48.16083 41.83831
# Shear Modulus (GPa) = 95.58690 27.55198 61.56944
#
# Velocity S-wave (km/s) = 6.36828 3.41900 5.11100
# Velocity P-wave (km/s) = 8.31516 6.00163 7.25125
#
# Compressibility (1/GPa) = 0.02815649
#
# Stress axis : x y z
#
# Youngs Moduli (GPa) = 51.91503 155.52723 158.73358
#
# Poissons Ratio (x) = 0.17924 -0.00056
# Poissons Ratio (y) = 0.05983 0.12203
# Poissons Ratio (z) = -0.00018 0.11956
#
# Static dielectric constant tensor:
#      x y z
#    x 1.941040 0.000000 0.000000 
#    y 0.000000 1.964450 0.000000 
#    z 0.000000 0.000000 1.934340 
# 
# From -- ./inp_files/670.got.cif
#   From: 2010.05.17/outbox.cif.g08.bks.cpg/sg45_1_cif.got.tgz:670.got - 2010.06.03 19:51:22.
