data_PCOD9376240
_publ_section_title
;
Structure prediction by ZEFSAII (Michael W. Deem and Ramdas Pophale) SiO2 
 PCOD9376240
Probable space group: I B A 2
;
_chemical_formula_sum "Si O2"
_cell_formula_units_Z 60
_cell_length_a 25.427221
_cell_length_b 5.361608
_cell_length_c 21.544143
_cell_angle_alpha 90.000000
_cell_angle_beta 90.000000
_cell_angle_gamma 90.000000
_cell_volume 2937.130068
_symmetry_space_group_name_H-M "I B A 2"
_symmetry_group_IT_number 45
_symmetry_cell_setting 'orthorhombic'
loop_
_space_group_symop_operation_xyz
x,y,z
-x,-y,z
-x,y,1/2+z
x,-y,1/2+z
1/2+x,1/2+y,1/2+z
1/2-x,1/2-y,1/2+z
1/2-x,1/2+y,z
1/2+x,1/2-y,z
loop_
_atom_site_type_symbol
_atom_site_label
_atom_site_fract_x
_atom_site_fract_y
_atom_site_fract_z
Si Si1 0.931315 0.855444 0.915360
Si Si2 0.098841 0.012530 0.787286
Si Si3 0.118880 0.375780 0.455010
Si Si4 0.500000 0.500000 0.018766
Si Si5 0.219072 0.948795 0.335460
Si Si6 0.760293 0.574944 0.473167
Si Si7 0.058907 0.393143 0.577777
Si Si8 0.563789 0.991696 0.718334
O O1 0.904641 0.585010 0.909419
O O2 0.939782 0.956863 0.846527
O O3 0.898871 0.091321 0.943643
O O4 0.977153 0.813008 0.966002
O O5 0.159033 0.015600 0.813385
O O6 0.085541 0.761246 0.749561
O O7 0.088683 0.261550 0.748233
O O8 0.180579 0.403495 0.450560
O O9 0.099236 0.456398 0.523377
O O10 0.545239 0.601972 0.063990
O O11 0.254170 0.187497 0.315333
O O12 0.224213 0.935430 0.411064
O O13 0.746701 0.821930 0.509652
O O14 0.075877 0.481914 0.645005
O O15 0.000000 0.500000 0.569556
O O16 0.500000 0.000000 0.724888
#
# Coordination Sequence:
#
# PCOD9376240 Si02
#       8
#     8   8   8   4   8   8   8   8
#     4  11  22  35  59  90 132 152 201 252 325 380
#     4  12  24  42  62  97 131 173 213 268 324 392
#     4  11  21  38  64  95 122 162 203 264 318 385
#     4  10  22  36  62  90 124 164 208 256 320 370
#     4  10  19  35  62  89 122 161 203 254 321 398
#     4  10  19  33  57  87 119 154 195 246 319 385
#     4  10  22  42  64  90 126 172 222 258 305 374
#     4  11  27  42  65  86 131 182 228 259 306 377
#
# _framework density 20.428104999999999
#
# number of rings (size 3 to 8) (size 9 to 14) (size 15 to 20)
#    0.000    1.333    1.333    6.000    5.600    0.000 
#    0.000    0.000    0.000    4.800    0.000    0.000 
#    0.000    0.000    0.000    0.000    0.000    0.000 
#
# Total GULP energy -167161.850775 kJ/mol
# GULP energy per Si atom -5572.061693 kJ/mol
# Density = 2.038161 g / cm^3
# Si number density = 20.428105 Si / 1000 Ang^3
#
#
#
# Elastic Constant Matrix: (Units=GPa)
#
#
# Indices 1 2 3 4 5 6 
#
# 1 77.5216 23.7723 25.7598 0.0000 0.0000 0.0000
# 2 23.7723 140.6241 36.8765 0.0000 0.0000 0.0000
# 3 25.7598 36.8765 122.5602 0.0000 0.0000 0.0000
# 4 0.0000 0.0000 0.0000 21.3013 0.0000 0.0000
# 5 0.0000 0.0000 0.0000 0.0000 -39.5344 0.0000
# 6 0.0000 0.0000 0.0000 0.0000 0.0000 33.8816
#
#
#
# Elastic Compliance Matrix: (Units=1/GPa)
#
#
# Indices 1 2 3 4 5 6 
#
# 1 0.014260 -0.001764 -0.002466 0.000000 0.000000 0.000000
# 2 -0.001764 0.007938 -0.002018 0.000000 0.000000 0.000000
# 3 -0.002466 -0.002018 0.009285 0.000000 0.000000 0.000000
# 4 0.000000 0.000000 0.000000 0.046945 0.000000 0.000000
# 5 0.000000 0.000000 0.000000 0.000000 -0.025294 0.000000
# 6 0.000000 0.000000 0.000000 0.000000 0.000000 0.029515
#
#
# Mechanical properties :
#
#
# Convention : Reuss Voigt Hill
#
# Bulk Modulus (GPa) = 52.66750 57.05812 54.86281
# Shear Modulus (GPa) = 49.27354 20.08286 34.67820
#
# Velocity S-wave (km/s) = 4.91659 3.13884 4.12463
# Velocity P-wave (km/s) = 7.62026 6.41313 7.04260
#
# Compressibility (1/GPa) = 0.01898704
#
# Stress axis : x y z
#
# Youngs Moduli (GPa) = 70.12563 125.96864 107.70290
#
# Poissons Ratio (x) = 0.22219 0.26565
# Poissons Ratio (y) = 0.12369 0.21733
# Poissons Ratio (z) = 0.17296 0.25418
#
# Static dielectric constant tensor:
#      x y z
#    x 1.768880 0.000000 0.000000 
#    y 0.000000 1.982030 0.000000 
#    z 0.000000 0.000000 1.712350 
# 
# From -- ./inp_files/8719.got.cif
#   From: 2010.05.17/outbox.cif.g08.bks.cpg/sg45_5_cif.got.tgz:8719.got - 2010.06.03 19:51:22.
