data_PCOD9376837
_publ_section_title
;
Structure prediction by ZEFSAII (Michael W. Deem and Ramdas Pophale) SiO2 
 PCOD9376837
Probable space group: I B A 2
;
_chemical_formula_sum "Si O2"
_cell_formula_units_Z 40
_cell_length_a 5.456555
_cell_length_b 13.751371
_cell_length_c 22.397111
_cell_angle_alpha 90.000000
_cell_angle_beta 90.000000
_cell_angle_gamma 90.000000
_cell_volume 1680.569737
_symmetry_space_group_name_H-M "I B A 2"
_symmetry_group_IT_number 45
_symmetry_cell_setting 'orthorhombic'
loop_
_space_group_symop_operation_xyz
x,y,z
-x,-y,z
-x,y,1/2+z
x,-y,1/2+z
1/2+x,1/2+y,1/2+z
1/2-x,1/2-y,1/2+z
1/2-x,1/2+y,z
1/2+x,1/2-y,z
loop_
_atom_site_type_symbol
_atom_site_label
_atom_site_fract_x
_atom_site_fract_y
_atom_site_fract_z
Si Si1 0.750056 0.938696 0.604530
Si Si2 0.250014 0.562258 0.467034
Si Si3 0.261649 0.809623 0.852352
Si Si4 0.749831 0.436030 0.236257
Si Si5 0.750007 0.744539 0.640418
O O1 0.750599 0.904114 0.535859
O O2 0.750034 0.858467 0.657182
O O3 0.500000 0.000000 0.608982
O O4 0.000000 0.000000 0.609054
O O5 0.500000 0.500000 0.458424
O O6 0.247382 0.646531 0.418522
O O7 0.000000 0.500000 0.458765
O O8 0.519769 0.755394 0.843415
O O9 0.249555 0.892424 0.802436
O O10 0.500000 0.500000 0.231138
O O11 0.750074 0.339704 0.190398
O O12 0.000000 0.500000 0.231283
O O13 0.500011 0.750040 0.604318
#
# Coordination Sequence:
#
# PCOD9376837 Si02
#       5
#     8   8   8   8   8
#     4  10  23  43  69  99 137 178 222 275 335 403
#     4  10  21  41  67  98 133 174 217 264 334 415
#     4  12  24  41  67 100 134 173 221 280 341 402
#     4  12  26  46  69  96 134 181 229 284 337 397
#     4  12  26  43  66  97 134 174 229 281 333 397
#
# _framework density 23.801452999999999
#
# number of rings (size 3 to 8) (size 9 to 14) (size 15 to 20)
#    0.000    0.800    0.000    7.200    0.000    6.400 
#    0.000    0.000    0.000    0.000    0.000    0.000 
#    0.000    0.000    0.000    0.000    0.000    0.000 
#
# Total GULP energy -111417.011518 kJ/mol
# GULP energy per Si atom -5570.850576 kJ/mol
# Density = 2.374728 g / cm^3
# Si number density = 23.801453 Si / 1000 Ang^3
#
#
#
# Elastic Constant Matrix: (Units=GPa)
#
#
# Indices 1 2 3 4 5 6 
#
# 1 213.7592 50.2676 12.2808 0.0000 0.0000 0.0000
# 2 50.2676 134.7535 59.3785 0.0000 0.0000 0.0000
# 3 12.2808 59.3785 122.3718 0.0000 0.0000 0.0000
# 4 0.0000 0.0000 0.0000 64.7662 0.0000 0.0000
# 5 0.0000 0.0000 0.0000 0.0000 102.3665 0.0000
# 6 0.0000 0.0000 0.0000 0.0000 0.0000 56.1153
#
#
#
# Elastic Compliance Matrix: (Units=1/GPa)
#
#
# Indices 1 2 3 4 5 6 
#
# 1 0.005155 -0.002156 0.000529 0.000000 0.000000 0.000000
# 2 -0.002156 0.010341 -0.004801 0.000000 0.000000 0.000000
# 3 0.000529 -0.004801 0.010449 0.000000 0.000000 0.000000
# 4 0.000000 0.000000 0.000000 0.015440 0.000000 0.000000
# 5 0.000000 0.000000 0.000000 0.000000 0.009769 0.000000
# 6 0.000000 0.000000 0.000000 0.000000 0.000000 0.017820
#
#
# Mechanical properties :
#
#
# Convention : Reuss Voigt Hill
#
# Bulk Modulus (GPa) = 76.41036 79.41536 77.91286
# Shear Modulus (GPa) = 58.00942 67.91346 62.96144
#
# Velocity S-wave (km/s) = 4.94218 5.34745 5.14881
# Velocity P-wave (km/s) = 8.04610 8.45962 8.25545
#
# Compressibility (1/GPa) = 0.01308723
#
# Stress axis : x y z
#
# Youngs Moduli (GPa) = 193.99529 96.70357 95.70743
#
# Poissons Ratio (x) = 0.20848 -0.05061
# Poissons Ratio (y) = 0.41824 0.45952
# Poissons Ratio (z) = -0.10259 0.46431
#
# Static dielectric constant tensor:
#      x y z
#    x 2.024800 0.000000 0.000000 
#    y 0.000000 2.185460 0.000000 
#    z 0.000000 0.000000 1.840980 
# 
# From -- ./inp_files/9868.got.cif
#   From: 2010.05.17/outbox.cif.g08.bks.cpg/sg45_5_cif.got.tgz:9868.got - 2010.06.03 19:51:22.
