data_PCOD9376236
_publ_section_title
;
Structure prediction by ZEFSAII (Michael W. Deem and Ramdas Pophale) SiO2 
 PCOD9376236
Probable space group: I B A 2
;
_chemical_formula_sum "Si O2"
_cell_formula_units_Z 48
_cell_length_a 22.079252
_cell_length_b 5.541314
_cell_length_c 14.751853
_cell_angle_alpha 90.000000
_cell_angle_beta 90.000000
_cell_angle_gamma 90.000000
_cell_volume 1804.860717
_symmetry_space_group_name_H-M "I B A 2"
_symmetry_group_IT_number 45
_symmetry_cell_setting 'orthorhombic'
loop_
_space_group_symop_operation_xyz
x,y,z
-x,-y,z
-x,y,1/2+z
x,-y,1/2+z
1/2+x,1/2+y,1/2+z
1/2-x,1/2-y,1/2+z
1/2-x,1/2+y,z
1/2+x,1/2-y,z
loop_
_atom_site_type_symbol
_atom_site_label
_atom_site_fract_x
_atom_site_fract_y
_atom_site_fract_z
Si Si1 0.496209 0.248450 0.364700
Si Si2 0.101726 0.343159 0.217543
Si Si3 0.147387 0.020054 0.963131
Si Si4 0.754605 0.462563 0.112000
Si Si5 0.610698 0.015663 0.530723
Si Si6 0.132194 0.841990 0.271310
O O1 0.500000 0.500000 0.416038
O O2 0.551329 0.203825 0.293733
O O3 0.437918 0.295010 0.301183
O O4 0.500000 0.000000 0.421035
O O5 0.076372 0.458049 0.124349
O O6 0.146625 0.560554 0.249899
O O7 0.129174 0.071016 0.201496
O O8 0.204571 0.029044 0.030974
O O9 0.109186 0.267217 0.975440
O O10 0.109152 0.775790 0.982666
O O11 0.165617 0.042299 0.857979
O O12 0.746932 0.711538 0.164201
O O13 0.819239 0.477805 0.064108
#
# Coordination Sequence:
#
# PCOD9376236 Si02
#       6
#     8   8   8   8   8   8
#     4   8  16  30  50  72 100 134 168 208 264 318
#     4  10  19  33  55  80 107 142 184 226 277 337
#     4  10  19  33  55  79 107 145 186 228 278 335
#     4   8  16  30  50  70 100 140 178 218 272 324
#     4  10  19  33  55  79 107 145 186 228 278 335
#     4  10  19  33  55  80 107 142 184 226 277 337
#
# _framework density 26.594853000000001
#
# number of rings (size 3 to 8) (size 9 to 14) (size 15 to 20)
#    0.000    2.667    0.000    2.000    0.000    0.000 
#    0.000    0.000    0.000   90.000    0.000    0.000 
#    0.000    0.000    0.000    0.000    0.000    0.000 
#
# Total GULP energy -133796.029663 kJ/mol
# GULP energy per Si atom -5574.834569 kJ/mol
# Density = 2.653432 g / cm^3
# Si number density = 26.594853 Si / 1000 Ang^3
#
#
#
# Elastic Constant Matrix: (Units=GPa)
#
#
# Indices 1 2 3 4 5 6 
#
# 1 77.8103 27.7276 8.6597 0.0000 0.0000 0.0000
# 2 27.7276 292.6652 18.7309 0.0000 0.0000 0.0000
# 3 8.6597 18.7309 93.6264 0.0000 0.0000 0.0000
# 4 0.0000 0.0000 0.0000 49.1896 0.0000 0.0000
# 5 0.0000 0.0000 0.0000 0.0000 30.1308 0.0000
# 6 0.0000 0.0000 0.0000 0.0000 0.0000 47.0488
#
#
#
# Elastic Compliance Matrix: (Units=1/GPa)
#
#
# Indices 1 2 3 4 5 6 
#
# 1 0.013392 -0.001205 -0.000998 0.000000 0.000000 0.000000
# 2 -0.001205 0.003570 -0.000603 0.000000 0.000000 0.000000
# 3 -0.000998 -0.000603 0.010894 0.000000 0.000000 0.000000
# 4 0.000000 0.000000 0.000000 0.020330 0.000000 0.000000
# 5 0.000000 0.000000 0.000000 0.000000 0.033189 0.000000
# 6 0.000000 0.000000 0.000000 0.000000 0.000000 0.021255
#
#
# Mechanical properties :
#
#
# Convention : Reuss Voigt Hill
#
# Bulk Modulus (GPa) = 44.95412 63.81535 54.38474
# Shear Modulus (GPa) = 43.23257 52.53940 47.88599
#
# Velocity S-wave (km/s) = 4.03625 4.44954 4.24792
# Velocity P-wave (km/s) = 6.21786 7.10248 6.67484
#
# Compressibility (1/GPa) = 0.02224490
#
# Stress axis : x y z
#
# Youngs Moduli (GPa) = 74.67047 280.14301 91.79704
#
# Poissons Ratio (x) = 0.33756 0.09158
# Poissons Ratio (y) = 0.08997 0.05532
# Poissons Ratio (z) = 0.07449 0.16884
#
# Static dielectric constant tensor:
#      x y z
#    x 2.189120 0.000000 0.000000 
#    y 0.000000 2.237500 0.000000 
#    z 0.000000 0.000000 2.135320 
# 
# From -- ./inp_files/7111.got.cif
#   From: 2010.05.17/outbox.cif.g08.bks.cpg/sg45_4_cif.got.tgz:7111.got - 2010.06.03 19:51:22.
