data_PCOD9376608
_publ_section_title
;
Structure prediction by ZEFSAII (Michael W. Deem and Ramdas Pophale) SiO2 
 PCOD9376608
Probable space group: I B A 2
;
_chemical_formula_sum "Si O2"
_cell_formula_units_Z 56
_cell_length_a 31.693597
_cell_length_b 5.452551
_cell_length_c 12.690065
_cell_angle_alpha 90.000000
_cell_angle_beta 90.000000
_cell_angle_gamma 90.000000
_cell_volume 2192.982239
_symmetry_space_group_name_H-M "I B A 2"
_symmetry_group_IT_number 45
_symmetry_cell_setting 'orthorhombic'
loop_
_space_group_symop_operation_xyz
x,y,z
-x,-y,z
-x,y,1/2+z
x,-y,1/2+z
1/2+x,1/2+y,1/2+z
1/2-x,1/2-y,1/2+z
1/2-x,1/2+y,z
1/2+x,1/2-y,z
loop_
_atom_site_type_symbol
_atom_site_label
_atom_site_fract_x
_atom_site_fract_y
_atom_site_fract_z
Si Si1 0.772624 0.101970 0.188660
Si Si2 0.906637 0.565980 0.632754
Si Si3 0.351906 0.020904 0.960826
Si Si4 0.500000 0.000000 0.163585
Si Si5 0.000000 0.000000 0.304270
Si Si6 0.761091 0.611123 0.960101
Si Si7 0.852143 0.201944 0.760485
Si Si8 0.913119 0.157509 0.357080
O O1 0.739347 0.882571 0.213729
O O2 0.817226 0.991001 0.224703
O O3 0.770268 0.115146 0.060330
O O4 0.874986 0.688477 0.548348
O O5 0.955675 0.528112 0.601295
O O6 0.879774 0.327183 0.669580
O O7 0.911829 0.714359 0.741812
O O8 0.308644 0.904810 0.002809
O O9 0.335385 0.100629 0.844829
O O10 0.390211 0.834872 0.937466
O O11 0.507030 0.251518 0.233525
O O12 0.960186 0.069229 0.375567
O O13 0.754427 0.867021 0.902628
O O14 0.884724 0.076060 0.839577
#
# Coordination Sequence:
#
# PCOD9376608 Si02
#       8
#     8   8   8   4   4   8   8   8
#     4  10  23  41  68  97 130 185 236 286 351 424
#     4  10  22  44  68  98 140 188 237 297 362 434
#     4  11  26  43  67 109 142 187 249 308 368 437
#     4  10  20  42  72 104 134 190 242 286 358 448
#     4  10  20  46  72 100 142 188 240 284 374 422
#     4  10  23  42  65  95 135 186 231 292 356 422
#     4  11  24  43  70  99 140 189 240 294 368 434
#     4  10  24  43  72 102 141 192 236 306 361 449
#
# _framework density 25.536004999999999
#
# number of rings (size 3 to 8) (size 9 to 14) (size 15 to 20)
#    0.000    1.714    1.429    1.714   10.000    2.286 
#    2.571    0.000    0.000    0.000    0.000    0.000 
#    0.000    0.000    0.000    0.000    0.000    0.000 
#
# Total GULP energy -156351.972098 kJ/mol
# GULP energy per Si atom -5583.999003 kJ/mol
# Density = 2.547788 g / cm^3
# Si number density = 25.536005 Si / 1000 Ang^3
#
#
#
# Elastic Constant Matrix: (Units=GPa)
#
#
# Indices 1 2 3 4 5 6 
#
# 1 167.8964 21.2110 24.8366 0.0000 0.0000 0.0000
# 2 21.2110 122.1923 19.8219 0.0000 0.0000 0.0000
# 3 24.8366 19.8219 70.8940 0.0000 0.0000 0.0000
# 4 0.0000 0.0000 0.0000 14.8438 0.0000 0.0000
# 5 0.0000 0.0000 0.0000 0.0000 -1.2659 0.0000
# 6 0.0000 0.0000 0.0000 0.0000 0.0000 187.6513
#
#
#
# Elastic Compliance Matrix: (Units=1/GPa)
#
#
# Indices 1 2 3 4 5 6 
#
# 1 0.006351 -0.000777 -0.002008 0.000000 0.000000 0.000000
# 2 -0.000777 0.008668 -0.002151 0.000000 0.000000 0.000000
# 3 -0.002008 -0.002151 0.015410 0.000000 0.000000 0.000000
# 4 0.000000 0.000000 0.000000 0.067368 0.000000 0.000000
# 5 0.000000 0.000000 0.000000 0.000000 -0.789965 0.000000
# 6 0.000000 0.000000 0.000000 0.000000 0.000000 0.005329
#
#
# Mechanical properties :
#
#
# Convention : Reuss Voigt Hill
#
# Bulk Modulus (GPa) = 48.64425 54.74685 51.69555
# Shear Modulus (GPa) = -7.46141 59.92008 26.22933
#
# Velocity S-wave (km/s) = -1.71122 4.84932 3.20840
# Velocity P-wave (km/s) = 3.89696 7.26912 5.83208
#
# Compressibility (1/GPa) = 0.02055741
#
# Stress axis : x y z
#
# Youngs Moduli (GPa) = 157.45045 115.37163 64.89085
#
# Poissons Ratio (x) = 0.08962 0.13029
# Poissons Ratio (y) = 0.12230 0.13960
# Poissons Ratio (z) = 0.31614 0.24820
#
# Static dielectric constant tensor:
#      x y z
#    x 2.019550 0.000000 0.000000 
#    y 0.000000 2.301550 0.000000 
#    z 0.000000 0.000000 2.176360 
# 
# From -- ./inp_files/5300.got.cif
#   From: 2010.05.17/outbox.cif.g08.bks.cpg/sg45_3_cif.got.tgz:5300.got - 2010.06.03 19:51:22.
