data_PCOD9376535
_publ_section_title
;
Structure prediction by ZEFSAII (Michael W. Deem and Ramdas Pophale) SiO2 
 PCOD9376535
Probable space group: I B A 2
;
_chemical_formula_sum "Si O2"
_cell_formula_units_Z 36
_cell_length_a 5.545916
_cell_length_b 15.870783
_cell_length_c 16.089570
_cell_angle_alpha 90.000000
_cell_angle_beta 90.000000
_cell_angle_gamma 90.000000
_cell_volume 1416.172245
_symmetry_space_group_name_H-M "I B A 2"
_symmetry_group_IT_number 45
_symmetry_cell_setting 'orthorhombic'
loop_
_space_group_symop_operation_xyz
x,y,z
-x,-y,z
-x,y,1/2+z
x,-y,1/2+z
1/2+x,1/2+y,1/2+z
1/2-x,1/2-y,1/2+z
1/2-x,1/2+y,z
1/2+x,1/2-y,z
loop_
_atom_site_type_symbol
_atom_site_label
_atom_site_fract_x
_atom_site_fract_y
_atom_site_fract_z
Si Si1 0.000000 0.500000 0.416680
Si Si2 0.251341 0.023935 0.070052
Si Si3 0.942014 0.359008 0.783105
Si Si4 0.132162 0.215473 0.039818
Si Si5 0.941942 0.819910 0.227118
O O1 0.211067 0.524412 0.481882
O O2 0.065178 0.420417 0.360955
O O3 0.228149 0.120214 0.041930
O O4 0.500000 0.000000 0.115040
O O5 0.000000 0.000000 0.109872
O O6 0.949213 0.256956 0.793456
O O7 0.690224 0.369857 0.734628
O O8 0.201598 0.374017 0.739862
O O9 0.361338 0.268292 0.005834
O O10 0.082784 0.227893 0.139032
#
# Coordination Sequence:
#
# PCOD9376535 Si02
#       5
#     4   8   8   8   8
#     4  10  26  44  62  90 136 174 224 260 334 406
#     4  10  25  46  62  94 135 181 221 273 335 402
#     4  10  20  39  64  87 130 158 211 264 325 392
#     4  12  21  43  70  95 132 167 230 280 331 402
#     4  10  20  40  61  98 119 163 208 276 328 378
#
# _framework density 25.420639000000001
#
# number of rings (size 3 to 8) (size 9 to 14) (size 15 to 20)
#    0.667    0.889    4.444    1.333    3.111    0.000 
#   14.000    0.000    0.000    0.000    0.000    0.000 
#    0.000    0.000    0.000    0.000    0.000    0.000 
#
# Total GULP energy -100330.559203 kJ/mol
# GULP energy per Si atom -5573.919956 kJ/mol
# Density = 2.536278 g / cm^3
# Si number density = 25.420639 Si / 1000 Ang^3
#
#
#
# Elastic Constant Matrix: (Units=GPa)
#
#
# Indices 1 2 3 4 5 6 
#
# 1 288.5739 42.8918 20.3002 0.0000 0.0000 0.0000
# 2 42.8918 102.3441 15.9224 0.0000 0.0000 0.0000
# 3 20.3002 15.9224 49.1736 0.0000 0.0000 0.0000
# 4 0.0000 0.0000 0.0000 28.9897 0.0000 0.0000
# 5 0.0000 0.0000 0.0000 0.0000 17.6791 0.0000
# 6 0.0000 0.0000 0.0000 0.0000 0.0000 41.9492
#
#
#
# Elastic Compliance Matrix: (Units=1/GPa)
#
#
# Indices 1 2 3 4 5 6 
#
# 1 0.003751 -0.001402 -0.001095 0.000000 0.000000 0.000000
# 2 -0.001402 0.010813 -0.002923 0.000000 0.000000 0.000000
# 3 -0.001095 -0.002923 0.021734 0.000000 0.000000 0.000000
# 4 0.000000 0.000000 0.000000 0.034495 0.000000 0.000000
# 5 0.000000 0.000000 0.000000 0.000000 0.056564 0.000000
# 6 0.000000 0.000000 0.000000 0.000000 0.000000 0.023838
#
#
# Mechanical properties :
#
#
# Convention : Reuss Voigt Hill
#
# Bulk Modulus (GPa) = 39.27655 66.48006 52.87831
# Shear Modulus (GPa) = 29.32213 41.78874 35.55543
#
# Velocity S-wave (km/s) = 3.39997 4.05889 3.74396
# Velocity P-wave (km/s) = 5.55853 6.94081 6.28777
#
# Compressibility (1/GPa) = 0.02546048
#
# Stress axis : x y z
#
# Youngs Moduli (GPa) = 266.62140 92.48083 46.01013
#
# Poissons Ratio (x) = 0.12962 0.05036
# Poissons Ratio (y) = 0.37369 0.13447
# Poissons Ratio (z) = 0.29183 0.27029
#
# Static dielectric constant tensor:
#      x y z
#    x 2.130260 0.000000 0.000000 
#    y 0.000000 1.988220 0.000000 
#    z 0.000000 0.000000 2.011740 
# 
# From -- ./inp_files/8615.got.cif
#   From: 2010.05.17/outbox.cif.g08.bks.cpg/sg45_5_cif.got.tgz:8615.got - 2010.06.03 19:51:22.
