data_PCOD9376548
_publ_section_title
;
Structure prediction by ZEFSAII (Michael W. Deem and Ramdas Pophale) SiO2 
 PCOD9376548
Probable space group: I B A 2
;
_chemical_formula_sum "Si O2"
_cell_formula_units_Z 64
_cell_length_a 16.449194
_cell_length_b 17.193945
_cell_length_c 8.802018
_cell_angle_alpha 90.000000
_cell_angle_beta 90.000000
_cell_angle_gamma 90.000000
_cell_volume 2489.444269
_symmetry_space_group_name_H-M "I B A 2"
_symmetry_group_IT_number 45
_symmetry_cell_setting 'orthorhombic'
loop_
_space_group_symop_operation_xyz
x,y,z
-x,-y,z
-x,y,1/2+z
x,-y,1/2+z
1/2+x,1/2+y,1/2+z
1/2-x,1/2-y,1/2+z
1/2-x,1/2+y,z
1/2+x,1/2-y,z
loop_
_atom_site_type_symbol
_atom_site_label
_atom_site_fract_x
_atom_site_fract_y
_atom_site_fract_z
Si Si1 0.863555 0.481358 0.798860
Si Si2 0.226537 0.126984 0.725687
Si Si3 0.397561 0.836383 0.144949
Si Si4 0.017115 0.729521 0.935217
Si Si5 0.864284 0.379969 0.102698
Si Si6 0.035343 0.117603 0.261818
Si Si7 0.104250 0.049544 0.541427
Si Si8 0.673617 0.374684 0.050415
O O1 0.904935 0.429268 0.666817
O O2 0.357228 0.464467 0.559044
O O3 0.880213 0.569854 0.755324
O O4 0.881252 0.439892 0.959975
O O5 0.268816 0.044020 0.773701
O O6 0.174097 0.111605 0.578247
O O7 0.303539 0.179388 0.684225
O O8 0.176720 0.151019 0.873954
O O9 0.452342 0.806636 0.280557
O O10 0.009169 0.819299 0.888871
O O11 0.084011 0.697180 0.058939
O O12 0.932554 0.695220 0.991029
O O13 0.767176 0.364743 0.101164
O O14 0.075107 0.053467 0.369740
O O15 0.105321 0.159740 0.161529
O O16 0.967285 0.079091 0.154936
#
# Coordination Sequence:
#
# PCOD9376548 Si02
#       8
#     8   8   8   8   8   8   8   8
#     4   8  18  35  62 100 128 180 241 301 368 413
#     4   9  20  41  68 102 137 183 247 322 373 445
#     4   9  21  42  68  96 144 194 246 313 368 454
#     4  11  23  47  64 100 156 197 242 298 387 480
#     4  10  20  39  69  97 147 188 242 319 370 447
#     4  12  28  42  70 109 147 201 244 315 398 473
#     4  12  24  45  70 103 145 187 258 324 388 454
#     4  11  21  43  71 101 140 186 253 322 380 455
#
# _framework density 25.708549000000001
#
# number of rings (size 3 to 8) (size 9 to 14) (size 15 to 20)
#    0.750    1.000    2.500    2.625    1.750    2.500 
#    4.500    3.750    0.000    0.000    0.000    0.000 
#    0.000    0.000    0.000    0.000    0.000    0.000 
#
# Total GULP energy -178643.747863 kJ/mol
# GULP energy per Si atom -5582.617121 kJ/mol
# Density = 2.565003 g / cm^3
# Si number density = 25.708549 Si / 1000 Ang^3
#
#
#
# Elastic Constant Matrix: (Units=GPa)
#
#
# Indices 1 2 3 4 5 6 
#
# 1 134.4907 46.5550 77.2660 0.0000 0.0000 0.0000
# 2 46.5550 72.4009 29.7904 0.0000 0.0000 0.0000
# 3 77.2660 29.7904 101.5771 0.0000 0.0000 0.0000
# 4 0.0000 0.0000 0.0000 36.8621 0.0000 0.0000
# 5 0.0000 0.0000 0.0000 0.0000 52.3304 0.0000
# 6 0.0000 0.0000 0.0000 0.0000 0.0000 22.5201
#
#
#
# Elastic Compliance Matrix: (Units=1/GPa)
#
#
# Indices 1 2 3 4 5 6 
#
# 1 0.014981 -0.005623 -0.009747 0.000000 0.000000 0.000000
# 2 -0.005623 0.017818 -0.000948 0.000000 0.000000 0.000000
# 3 -0.009747 -0.000948 0.017537 0.000000 0.000000 0.000000
# 4 0.000000 0.000000 0.000000 0.027128 0.000000 0.000000
# 5 0.000000 0.000000 0.000000 0.000000 0.019109 0.000000
# 6 0.000000 0.000000 0.000000 0.000000 0.000000 0.044405
#
#
# Mechanical properties :
#
#
# Convention : Reuss Voigt Hill
#
# Bulk Modulus (GPa) = 56.49728 68.41016 62.45372
# Shear Modulus (GPa) = 27.85287 32.66634 30.25961
#
# Velocity S-wave (km/s) = 3.29509 3.56847 3.43450
# Velocity P-wave (km/s) = 6.04157 6.60654 6.33036
#
# Compressibility (1/GPa) = 0.01769997
#
# Stress axis : x y z
#
# Youngs Moduli (GPa) = 66.74915 56.12351 57.02257
#
# Poissons Ratio (x) = 0.31558 0.55579
# Poissons Ratio (y) = 0.37532 0.05408
# Poissons Ratio (z) = 0.65059 0.05323
#
# Static dielectric constant tensor:
#      x y z
#    x 2.056170 0.000000 0.000000 
#    y 0.000000 2.156570 0.000000 
#    z 0.000000 0.000000 1.988940 
# 
# From -- ./inp_files/2406.got.cif
#   From: 2010.05.17/outbox.cif.g08.bks.cpg/sg45_2_cif.got.tgz:2406.got - 2010.06.03 19:51:22.
