data_PCOD9376497
_publ_section_title
;
Structure prediction by ZEFSAII (Michael W. Deem and Ramdas Pophale) SiO2 
 PCOD9376497
Probable space group: I B A 2
;
_chemical_formula_sum "Si O2"
_cell_formula_units_Z 60
_cell_length_a 17.722794
_cell_length_b 17.826982
_cell_length_c 8.366716
_cell_angle_alpha 90.000000
_cell_angle_beta 90.000000
_cell_angle_gamma 90.000000
_cell_volume 2643.413131
_symmetry_space_group_name_H-M "I B A 2"
_symmetry_group_IT_number 45
_symmetry_cell_setting 'orthorhombic'
loop_
_space_group_symop_operation_xyz
x,y,z
-x,-y,z
-x,y,1/2+z
x,-y,1/2+z
1/2+x,1/2+y,1/2+z
1/2-x,1/2-y,1/2+z
1/2-x,1/2+y,z
1/2+x,1/2-y,z
loop_
_atom_site_type_symbol
_atom_site_label
_atom_site_fract_x
_atom_site_fract_y
_atom_site_fract_z
Si Si1 0.000000 0.500000 0.030910
Si Si2 0.766409 0.642328 0.618705
Si Si3 0.420624 0.251610 0.446492
Si Si4 0.258556 0.292000 0.304042
Si Si5 0.002074 0.166737 0.186673
Si Si6 0.917415 0.592523 0.786347
Si Si7 0.133078 0.053056 0.225205
Si Si8 0.150514 0.105636 0.584796
O O1 0.971844 0.432529 0.142681
O O2 0.931747 0.528855 0.919544
O O3 0.791728 0.672425 0.444207
O O4 0.738144 0.713550 0.723154
O O5 0.834504 0.602946 0.712807
O O6 0.696729 0.585914 0.607161
O O7 0.335920 0.273369 0.400145
O O8 0.445133 0.264799 0.627327
O O9 0.472349 0.313628 0.361426
O O10 0.436147 0.171152 0.370835
O O11 0.279381 0.349776 0.161935
O O12 0.053853 0.093047 0.186758
O O13 0.922407 0.158886 0.095412
O O14 0.157592 0.076316 0.404434
O O15 0.131319 0.964806 0.197926
#
# Coordination Sequence:
#
# PCOD9376497 Si02
#       8
#     4   8   8   8   8   8   8   8
#     4  10  22  46  66 100 128 168 220 288 334 410
#     4  11  23  43  67  95 132 174 220 278 335 403
#     4  10  20  38  62  93 123 172 218 276 319 388
#     4  10  22  42  63  92 130 169 225 273 328 400
#     4  11  21  37  62  89 131 171 225 271 322 376
#     4  10  23  42  70  95 132 167 221 276 349 395
#     4  12  24  39  61  92 133 175 223 271 331 399
#     4  11  25  39  61  91 133 181 225 272 328 388
#
# _framework density 22.697928000000001
#
# number of rings (size 3 to 8) (size 9 to 14) (size 15 to 20)
#    0.000    1.333    2.667    2.800    1.867    3.200 
#    2.400    4.000    0.000    0.000    0.000    0.000 
#    0.000    0.000    0.000    0.000    0.000    0.000 
#
# Total GULP energy -167599.913754 kJ/mol
# GULP energy per Si atom -5586.663792 kJ/mol
# Density = 2.264627 g / cm^3
# Si number density = 22.697928 Si / 1000 Ang^3
#
#
#
# Elastic Constant Matrix: (Units=GPa)
#
#
# Indices 1 2 3 4 5 6 
#
# 1 38.8231 13.5993 -1.7599 0.0000 0.0000 0.0000
# 2 13.5993 61.0466 3.3046 0.0000 0.0000 0.0000
# 3 -1.7599 3.3046 75.6050 0.0000 0.0000 0.0000
# 4 0.0000 0.0000 0.0000 33.1362 0.0000 0.0000
# 5 0.0000 0.0000 0.0000 0.0000 23.3724 0.0000
# 6 0.0000 0.0000 0.0000 0.0000 0.0000 26.5488
#
#
#
# Elastic Compliance Matrix: (Units=1/GPa)
#
#
# Indices 1 2 3 4 5 6 
#
# 1 0.028003 -0.006288 0.000927 0.000000 0.000000 0.000000
# 2 -0.006288 0.017832 -0.000926 0.000000 0.000000 0.000000
# 3 0.000927 -0.000926 0.013289 0.000000 0.000000 0.000000
# 4 0.000000 0.000000 0.000000 0.030179 0.000000 0.000000
# 5 0.000000 0.000000 0.000000 0.000000 0.042786 0.000000
# 6 0.000000 0.000000 0.000000 0.000000 0.000000 0.037666
#
#
# Mechanical properties :
#
#
# Convention : Reuss Voigt Hill
#
# Bulk Modulus (GPa) = 21.48300 22.86251 22.17276
# Shear Modulus (GPa) = 25.27239 27.30020 26.28629
#
# Velocity S-wave (km/s) = 3.34042 3.47185 3.40677
# Velocity P-wave (km/s) = 4.93590 5.11527 5.02639
#
# Compressibility (1/GPa) = 0.04654843
#
# Stress axis : x y z
#
# Youngs Moduli (GPa) = 35.71099 56.07942 75.25205
#
# Poissons Ratio (x) = 0.35264 -0.06974
# Poissons Ratio (y) = 0.22456 0.06967
# Poissons Ratio (z) = -0.03309 0.05192
#
# Static dielectric constant tensor:
#      x y z
#    x 1.825110 0.000000 0.000000 
#    y 0.000000 1.812250 0.000000 
#    z 0.000000 0.000000 1.918290 
# 
# From -- ./inp_files/2143.got.cif
#   From: 2010.05.17/outbox.cif.g08.bks.cpg/sg45_2_cif.got.tgz:2143.got - 2010.06.03 19:51:22.
