data_PCOD9376102
_publ_section_title
;
Structure prediction by ZEFSAII (Michael W. Deem and Ramdas Pophale) SiO2 
 PCOD9376102
Probable space group: I B A 2
;
_chemical_formula_sum "Si O2"
_cell_formula_units_Z 52
_cell_length_a 13.966219
_cell_length_b 11.638404
_cell_length_c 15.823467
_cell_angle_alpha 90.000000
_cell_angle_beta 90.000000
_cell_angle_gamma 90.000000
_cell_volume 2572.017517
_symmetry_space_group_name_H-M "I B A 2"
_symmetry_group_IT_number 45
_symmetry_cell_setting 'orthorhombic'
loop_
_space_group_symop_operation_xyz
x,y,z
-x,-y,z
-x,y,1/2+z
x,-y,1/2+z
1/2+x,1/2+y,1/2+z
1/2-x,1/2-y,1/2+z
1/2-x,1/2+y,z
1/2+x,1/2-y,z
loop_
_atom_site_type_symbol
_atom_site_label
_atom_site_fract_x
_atom_site_fract_y
_atom_site_fract_z
Si Si1 0.500000 0.000000 0.327380
Si Si2 0.110745 0.969855 0.524144
Si Si3 0.929279 0.300566 0.946296
Si Si4 0.291113 0.705363 0.572999
Si Si5 0.086145 0.698872 0.223250
Si Si6 0.580568 0.769895 0.596798
Si Si7 0.551980 0.388018 0.853597
O O1 0.557907 0.089209 0.386920
O O2 0.427217 0.077433 0.270988
O O3 0.116509 0.860301 0.583714
O O4 0.124969 0.928918 0.427277
O O5 0.159537 0.082432 0.558978
O O6 0.000000 0.000000 0.522441
O O7 0.826717 0.276513 0.989819
O O8 0.007732 0.306505 0.022241
O O9 0.967310 0.189642 0.895045
O O10 0.335529 0.778937 0.650470
O O11 0.181768 0.669849 0.587926
O O12 0.101084 0.802130 0.288945
O O13 0.981689 0.716487 0.180166
O O14 0.500000 0.500000 0.815901
#
# Coordination Sequence:
#
# PCOD9376102 Si02
#       7
#     4   8   8   8   8   8   8
#     4  10  22  40  60  78 128 168 196 242 318 360
#     4  10  17  38  62  89 116 152 213 249 295 357
#     4   9  19  39  60  84 112 163 207 240 295 357
#     4  11  21  37  63  91 121 155 207 255 302 362
#     4  10  22  37  60  86 123 163 196 248 310 369
#     4  10  22  36  61  95 116 157 210 248 305 363
#     4   9  16  33  63  84 110 150 198 252 294 346
#
# _framework density 20.217592
#
# number of rings (size 3 to 8) (size 9 to 14) (size 15 to 20)
#    0.000    2.154    6.154    0.000    2.154    4.923 
#    0.000   10.769   10.154    0.000    0.000    0.000 
#    0.000    0.000    0.000    0.000    0.000    0.000 
#
# Total GULP energy -144807.486578 kJ/mol
# GULP energy per Si atom -5569.518715 kJ/mol
# Density = 2.017158 g / cm^3
# Si number density = 20.217592 Si / 1000 Ang^3
#
#
#
# Elastic Constant Matrix: (Units=GPa)
#
#
# Indices 1 2 3 4 5 6 
#
# 1 66.6607 -9.5968 3.5350 0.0000 0.0000 0.0000
# 2 -9.5968 108.6487 27.3686 0.0000 0.0000 0.0000
# 3 3.5350 27.3686 45.5386 0.0000 0.0000 0.0000
# 4 0.0000 0.0000 0.0000 44.0168 0.0000 0.0000
# 5 0.0000 0.0000 0.0000 0.0000 -10.9365 0.0000
# 6 0.0000 0.0000 0.0000 0.0000 0.0000 18.1708
#
#
#
# Elastic Compliance Matrix: (Units=1/GPa)
#
#
# Indices 1 2 3 4 5 6 
#
# 1 0.015409 0.001959 -0.002373 0.000000 0.000000 0.000000
# 2 0.001959 0.011095 -0.006820 0.000000 0.000000 0.000000
# 3 -0.002373 -0.006820 0.026243 0.000000 0.000000 0.000000
# 4 0.000000 0.000000 0.000000 0.022719 0.000000 0.000000
# 5 0.000000 0.000000 0.000000 0.000000 -0.091437 0.000000
# 6 0.000000 0.000000 0.000000 0.000000 0.000000 0.055033
#
#
# Mechanical properties :
#
#
# Convention : Reuss Voigt Hill
#
# Bulk Modulus (GPa) = 26.12505 29.27351 27.69928
# Shear Modulus (GPa) = 75.42581 23.55297 49.48939
#
# Velocity S-wave (km/s) = 6.11457 3.41687 4.95293
# Velocity P-wave (km/s) = 7.92469 5.48428 6.81462
#
# Compressibility (1/GPa) = 0.03827744
#
# Stress axis : x y z
#
# Youngs Moduli (GPa) = 64.89617 90.13067 38.10605
#
# Poissons Ratio (x) = -0.17656 0.09044
# Poissons Ratio (y) = -0.12713 0.25989
# Poissons Ratio (z) = 0.15403 0.61470
#
# Static dielectric constant tensor:
#      x y z
#    x 1.834990 0.000000 0.000000 
#    y 0.000000 1.588690 0.000000 
#    z 0.000000 0.000000 1.817250 
# 
# From -- ./inp_files/8179.got.cif
#   From: 2010.05.17/outbox.cif.g08.bks.cpg/sg45_5_cif.got.tgz:8179.got - 2010.06.03 19:51:22.
