data_PCOD9376129
_publ_section_title
;
Structure prediction by ZEFSAII (Michael W. Deem and Ramdas Pophale) SiO2 
 PCOD9376129
Probable space group: I B A 2
;
_chemical_formula_sum "Si O2"
_cell_formula_units_Z 48
_cell_length_a 9.340064
_cell_length_b 16.160740
_cell_length_c 16.180856
_cell_angle_alpha 90.000000
_cell_angle_beta 90.000000
_cell_angle_gamma 90.000000
_cell_volume 2442.376363
_symmetry_space_group_name_H-M "I B A 2"
_symmetry_group_IT_number 45
_symmetry_cell_setting 'orthorhombic'
loop_
_space_group_symop_operation_xyz
x,y,z
-x,-y,z
-x,y,1/2+z
x,-y,1/2+z
1/2+x,1/2+y,1/2+z
1/2-x,1/2-y,1/2+z
1/2-x,1/2+y,z
1/2+x,1/2-y,z
loop_
_atom_site_type_symbol
_atom_site_label
_atom_site_fract_x
_atom_site_fract_y
_atom_site_fract_z
Si Si1 0.000000 0.500000 0.872460
Si Si2 0.918607 0.832614 0.567865
Si Si3 0.101116 0.760491 0.888470
Si Si4 0.500000 0.500000 0.496800
Si Si5 0.777986 0.197553 0.624904
Si Si6 0.146853 0.340538 0.800884
Si Si7 0.240460 0.397455 0.456262
O O1 0.924227 0.570851 0.818439
O O2 0.884921 0.458444 0.931982
O O3 0.951518 0.789261 0.478936
O O4 0.774600 0.789246 0.599126
O O5 0.918300 0.930790 0.551812
O O6 0.050414 0.809616 0.627872
O O7 0.204724 0.830225 0.851707
O O8 0.971295 0.726189 0.833089
O O9 0.208603 0.683006 0.901731
O O10 0.387378 0.446879 0.444847
O O11 0.695033 0.173730 0.707303
O O12 0.737905 0.135408 0.550169
#
# Coordination Sequence:
#
# PCOD9376129 Si02
#       7
#     4   8   8   4   8   8   8
#     4  10  22  36  56  84 112 146 190 232 282 330
#     4  10  20  37  58  82 109 150 191 226 273 341
#     4  10  20  36  59  82 114 156 192 224 278 344
#     4  10  18  32  56  82 106 134 188 240 266 312
#     4  10  21  36  56  81 112 147 188 229 281 337
#     4  11  21  37  58  86 116 147 187 240 285 327
#     4   9  20  36  55  82 110 149 191 224 275 340
#
# _framework density 19.652991
#
# number of rings (size 3 to 8) (size 9 to 14) (size 15 to 20)
#    0.000    2.000    0.000    5.000    0.000    3.333 
#    0.000    8.333    0.000   14.000    0.000    0.000 
#    0.000    0.000    0.000    0.000    0.000    0.000 
#
# Total GULP energy -133857.379488 kJ/mol
# GULP energy per Si atom -5577.390812 kJ/mol
# Density = 1.960826 g / cm^3
# Si number density = 19.652991 Si / 1000 Ang^3
#
#
#
# Elastic Constant Matrix: (Units=GPa)
#
#
# Indices 1 2 3 4 5 6 
#
# 1 78.5053 31.9368 20.9188 0.0000 0.0000 0.0000
# 2 31.9368 87.8735 -4.3094 0.0000 0.0000 0.0000
# 3 20.9188 -4.3094 56.6827 0.0000 0.0000 0.0000
# 4 0.0000 0.0000 0.0000 7.3315 0.0000 0.0000
# 5 0.0000 0.0000 0.0000 0.0000 26.2510 0.0000
# 6 0.0000 0.0000 0.0000 0.0000 0.0000 45.0881
#
#
#
# Elastic Compliance Matrix: (Units=1/GPa)
#
#
# Indices 1 2 3 4 5 6 
#
# 1 0.017258 -0.006609 -0.006871 0.000000 0.000000 0.000000
# 2 -0.006609 0.013954 0.003500 0.000000 0.000000 0.000000
# 3 -0.006871 0.003500 0.020444 0.000000 0.000000 0.000000
# 4 0.000000 0.000000 0.000000 0.136398 0.000000 0.000000
# 5 0.000000 0.000000 0.000000 0.000000 0.038094 0.000000
# 6 0.000000 0.000000 0.000000 0.000000 0.000000 0.022179
#
#
# Mechanical properties :
#
#
# Convention : Reuss Voigt Hill
#
# Bulk Modulus (GPa) = 31.55152 35.57266 33.56209
# Shear Modulus (GPa) = 17.93066 27.36847 22.64957
#
# Velocity S-wave (km/s) = 3.02381 3.73578 3.39849
# Velocity P-wave (km/s) = 5.31793 6.06200 5.70211
#
# Compressibility (1/GPa) = 0.03169420
#
# Stress axis : x y z
#
# Youngs Moduli (GPa) = 57.94537 71.66582 48.91397
#
# Poissons Ratio (x) = 0.47365 0.33611
# Poissons Ratio (y) = 0.38297 -0.17120
# Poissons Ratio (z) = 0.39817 -0.25083
#
# Static dielectric constant tensor:
#      x y z
#    x 1.724870 0.000000 0.000000 
#    y 0.000000 1.701740 0.000000 
#    z 0.000000 0.000000 1.680350 
# 
# From -- ./inp_files/5640.got.cif
#   From: 2010.05.17/outbox.cif.g08.bks.cpg/sg45_3_cif.got.tgz:5640.got - 2010.06.03 19:51:22.
