data_PCOD9376871
_publ_section_title
;
Structure prediction by ZEFSAII (Michael W. Deem and Ramdas Pophale) SiO2 
 PCOD9376871
Probable space group: I B A 2
;
_chemical_formula_sum "Si O2"
_cell_formula_units_Z 56
_cell_length_a 32.083919
_cell_length_b 5.677068
_cell_length_c 14.708702
_cell_angle_alpha 90.000000
_cell_angle_beta 90.000000
_cell_angle_gamma 90.000000
_cell_volume 2679.081076
_symmetry_space_group_name_H-M "I B A 2"
_symmetry_group_IT_number 45
_symmetry_cell_setting 'orthorhombic'
loop_
_space_group_symop_operation_xyz
x,y,z
-x,-y,z
-x,y,1/2+z
x,-y,1/2+z
1/2+x,1/2+y,1/2+z
1/2-x,1/2-y,1/2+z
1/2-x,1/2+y,z
1/2+x,1/2-y,z
loop_
_atom_site_type_symbol
_atom_site_label
_atom_site_fract_x
_atom_site_fract_y
_atom_site_fract_z
Si Si1 0.856860 0.499758 0.726890
Si Si2 0.916325 0.885127 0.815145
Si Si3 0.916370 0.114444 0.638741
Si Si4 0.335617 0.655195 0.582072
Si Si5 0.975207 0.250368 0.476916
Si Si6 0.774311 0.000249 0.226934
Si Si7 0.664421 0.345124 0.371779
O O1 0.886121 0.695758 0.770081
O O2 0.886174 0.303917 0.683768
O O3 0.832539 0.608875 0.642185
O O4 0.832505 0.390593 0.811538
O O5 0.938468 0.999729 0.726959
O O6 0.883569 0.064746 0.862778
O O7 0.946489 0.768144 0.887578
O O8 0.946561 0.231391 0.566353
O O9 0.883609 0.934902 0.591068
O O10 0.304391 0.489111 0.638223
O O11 0.325139 0.680627 0.476928
O O12 0.000000 0.500000 0.476943
O O13 0.000000 0.000000 0.476788
O O14 0.749988 0.750289 0.226887
O O15 0.804328 0.011316 0.315747
#
# Coordination Sequence:
#
# PCOD9376871 Si02
#       7
#     8   8   8   8   8   8   8
#     4  10  21  42  73 106 133 186 260 309 336 436
#     4  10  23  44  73 101 138 194 248 293 359 443
#     4  10  23  44  73 101 138 194 248 293 359 443
#     4  11  23  43  75 103 142 197 254 299 363 447
#     4  12  30  48  70 112 152 182 238 312 372 432
#     4  12  27  48  68 108 156 184 239 311 370 424
#     4  11  23  43  75 103 142 197 254 299 363 447
#
# _framework density 20.902688999999999
#
# number of rings (size 3 to 8) (size 9 to 14) (size 15 to 20)
#    0.000    1.143    5.714    0.857   10.000    1.714 
#    0.000    0.000    0.000    0.000    0.000    0.000 
#    0.000    0.000    0.000    0.000    0.000    0.000 
#
# Total GULP energy -156177.563215 kJ/mol
# GULP energy per Si atom -5577.770115 kJ/mol
# Density = 2.085511 g / cm^3
# Si number density = 20.902689 Si / 1000 Ang^3
#
#
#
# Elastic Constant Matrix: (Units=GPa)
#
#
# Indices 1 2 3 4 5 6 
#
# 1 80.2602 40.9840 67.1937 0.0000 0.0000 0.0000
# 2 40.9840 107.9942 61.8258 0.0000 0.0000 0.0000
# 3 67.1937 61.8258 236.1299 0.0000 0.0000 0.0000
# 4 0.0000 0.0000 0.0000 28.8210 0.0000 0.0000
# 5 0.0000 0.0000 0.0000 0.0000 28.4424 0.0000
# 6 0.0000 0.0000 0.0000 0.0000 0.0000 42.6464
#
#
#
# Elastic Compliance Matrix: (Units=1/GPa)
#
#
# Indices 1 2 3 4 5 6 
#
# 1 0.018123 -0.004617 -0.003948 0.000000 0.000000 0.000000
# 2 -0.004617 0.012069 -0.001846 0.000000 0.000000 0.000000
# 3 -0.003948 -0.001846 0.005842 0.000000 0.000000 0.000000
# 4 0.000000 0.000000 0.000000 0.034697 0.000000 0.000000
# 5 0.000000 0.000000 0.000000 0.000000 0.035159 0.000000
# 6 0.000000 0.000000 0.000000 0.000000 0.000000 0.023449
#
#
# Mechanical properties :
#
#
# Convention : Reuss Voigt Hill
#
# Bulk Modulus (GPa) = 65.74473 84.93236 75.33855
# Shear Modulus (GPa) = 32.21012 36.94066 34.57539
#
# Velocity S-wave (km/s) = 3.92976 4.20845 4.07149
# Velocity P-wave (km/s) = 7.21885 8.02092 7.63043
#
# Compressibility (1/GPa) = 0.01521034
#
# Stress axis : x y z
#
# Youngs Moduli (GPa) = 55.17984 82.85749 171.18073
#
# Poissons Ratio (x) = 0.38258 0.67583
# Poissons Ratio (y) = 0.25478 0.31601
# Poissons Ratio (z) = 0.21785 0.15296
#
# Static dielectric constant tensor:
#      x y z
#    x 1.793410 0.000000 0.000000 
#    y 0.000000 1.829930 0.000000 
#    z 0.000000 0.000000 1.721420 
# 
# From -- ./inp_files/7165.got.cif
#   From: 2010.05.17/outbox.cif.g08.bks.cpg/sg45_4_cif.got.tgz:7165.got - 2010.06.03 19:51:22.
