data_PCOD9376135
_publ_section_title
;
Structure prediction by ZEFSAII (Michael W. Deem and Ramdas Pophale) SiO2 
 PCOD9376135
Probable space group: I B A 2
;
_chemical_formula_sum "Si O2"
_cell_formula_units_Z 64
_cell_length_a 5.340102
_cell_length_b 28.450693
_cell_length_c 21.588694
_cell_angle_alpha 90.000000
_cell_angle_beta 90.000000
_cell_angle_gamma 90.000000
_cell_volume 3279.961700
_symmetry_space_group_name_H-M "I B A 2"
_symmetry_group_IT_number 45
_symmetry_cell_setting 'orthorhombic'
loop_
_space_group_symop_operation_xyz
x,y,z
-x,-y,z
-x,y,1/2+z
x,-y,1/2+z
1/2+x,1/2+y,1/2+z
1/2-x,1/2-y,1/2+z
1/2-x,1/2+y,z
1/2+x,1/2-y,z
loop_
_atom_site_type_symbol
_atom_site_label
_atom_site_fract_x
_atom_site_fract_y
_atom_site_fract_z
Si Si1 0.743201 0.027192 0.198970
Si Si2 0.720267 0.740173 0.790488
Si Si3 0.285588 0.222463 0.652614
Si Si4 0.992767 0.444947 0.437844
Si Si5 0.890166 0.881318 0.632356
Si Si6 0.166440 0.866806 0.753938
Si Si7 0.511912 0.555906 0.515162
Si Si8 0.164647 0.413202 0.306374
O O1 0.737275 0.077611 0.166442
O O2 0.727464 0.037562 0.272435
O O3 0.500000 0.000000 0.177904
O O4 0.000000 0.000000 0.185582
O O5 0.470831 0.750747 0.826920
O O6 0.718158 0.773169 0.728477
O O7 0.712897 0.687371 0.767295
O O8 0.544849 0.246623 0.632864
O O9 0.248800 0.168910 0.631014
O O10 0.210075 0.437378 0.488402
O O11 0.086214 0.417305 0.377473
O O12 0.000000 0.500000 0.421035
O O13 0.714511 0.436352 0.465376
O O14 0.969346 0.906106 0.569059
O O15 0.115671 0.873189 0.681093
O O16 0.412065 0.894375 0.774277
O O17 0.914666 0.883083 0.790676
O O18 0.500000 0.500000 0.534007
#
# Coordination Sequence:
#
# PCOD9376135 Si02
#       8
#     8   8   8   8   8   8   8   8
#     4  11  24  37  54  85 126 163 186 233 305 372
#     4  10  18  33  53  80 127 147 190 227 289 362
#     4  10  21  34  56  83 121 154 195 235 288 357
#     4  10  22  42  61  80 111 156 215 257 280 340
#     4  11  23  38  60  90 129 155 196 243 307 376
#     4  11  22  34  58  94 123 151 185 249 306 370
#     4  10  23  39  60  85 116 162 203 250 297 342
#     4  11  23  37  60  85 117 158 202 242 298 345
#
# _framework density 19.512423999999999
#
# number of rings (size 3 to 8) (size 9 to 14) (size 15 to 20)
#    0.000    1.500    2.500    3.750    5.250    8.000 
#    0.000    0.000    0.000    0.000    0.000   17.500 
#    0.000    0.000    0.000    0.000    0.000    0.000 
#
# Total GULP energy -178527.286986 kJ/mol
# GULP energy per Si atom -5578.977718 kJ/mol
# Density = 1.946801 g / cm^3
# Si number density = 19.512424 Si / 1000 Ang^3
#
#
#
# Elastic Constant Matrix: (Units=GPa)
#
#
# Indices 1 2 3 4 5 6 
#
# 1 162.7764 52.6178 15.7498 0.0000 0.0000 0.0000
# 2 52.6178 106.1014 22.5656 0.0000 0.0000 0.0000
# 3 15.7498 22.5656 50.2291 0.0000 0.0000 0.0000
# 4 0.0000 0.0000 0.0000 3.6548 0.0000 0.0000
# 5 0.0000 0.0000 0.0000 0.0000 1.5939 0.0000
# 6 0.0000 0.0000 0.0000 0.0000 0.0000 28.0745
#
#
#
# Elastic Compliance Matrix: (Units=1/GPa)
#
#
# Indices 1 2 3 4 5 6 
#
# 1 0.007341 -0.003484 -0.000737 0.000000 0.000000 0.000000
# 2 -0.003484 0.012074 -0.004332 0.000000 0.000000 0.000000
# 3 -0.000737 -0.004332 0.022086 0.000000 0.000000 0.000000
# 4 0.000000 0.000000 0.000000 0.273610 0.000001 0.000000
# 5 0.000000 0.000000 0.000000 0.000001 0.627387 0.000000
# 6 0.000000 0.000000 0.000000 0.000000 0.000000 0.035619
#
#
# Mechanical properties :
#
#
# Convention : Reuss Voigt Hill
#
# Bulk Modulus (GPa) = 40.99044 55.66370 48.32707
# Shear Modulus (GPa) = 4.98329 21.87624 13.42976
#
# Velocity S-wave (km/s) = 1.59983 3.35198 2.62633
# Velocity P-wave (km/s) = 4.94627 6.60078 5.83249
#
# Compressibility (1/GPa) = 0.02439593
#
# Stress axis : x y z
#
# Youngs Moduli (GPa) = 136.22467 82.82314 45.27780
#
# Poissons Ratio (x) = 0.28854 0.03336
# Poissons Ratio (y) = 0.47458 0.19614
# Poissons Ratio (z) = 0.10035 0.35878
#
# Static dielectric constant tensor:
#      x y z
#    x 1.838970 0.000000 0.000000 
#    y 0.000000 1.720460 0.000000 
#    z 0.000000 0.000000 1.701950 
# 
# From -- ./inp_files/8737.got.cif
#   From: 2010.05.17/outbox.cif.g08.bks.cpg/sg45_5_cif.got.tgz:8737.got - 2010.06.03 19:51:22.
