data_PCOD9376185
_publ_section_title
;
Structure prediction by ZEFSAII (Michael W. Deem and Ramdas Pophale) SiO2 
 PCOD9376185
Probable space group: I B A 2
;
_chemical_formula_sum "Si O2"
_cell_formula_units_Z 48
_cell_length_a 10.534986
_cell_length_b 12.172438
_cell_length_c 16.900958
_cell_angle_alpha 90.000000
_cell_angle_beta 90.000000
_cell_angle_gamma 90.000000
_cell_volume 2167.319091
_symmetry_space_group_name_H-M "I B A 2"
_symmetry_group_IT_number 45
_symmetry_cell_setting 'orthorhombic'
loop_
_space_group_symop_operation_xyz
x,y,z
-x,-y,z
-x,y,1/2+z
x,-y,1/2+z
1/2+x,1/2+y,1/2+z
1/2-x,1/2-y,1/2+z
1/2-x,1/2+y,z
1/2+x,1/2-y,z
loop_
_atom_site_type_symbol
_atom_site_label
_atom_site_fract_x
_atom_site_fract_y
_atom_site_fract_z
Si Si1 0.385471 0.153647 0.402320
Si Si2 0.386776 0.799034 0.616305
Si Si3 0.664633 0.461741 0.324250
Si Si4 0.536272 0.687316 0.277979
Si Si5 0.869686 0.804305 0.035056
Si Si6 0.000000 0.000000 0.469630
Si Si7 0.500000 0.000000 0.537374
O O1 0.304033 0.078374 0.343481
O O2 0.481024 0.222432 0.347157
O O3 0.321916 0.253467 0.451678
O O4 0.428049 0.077697 0.474893
O O5 0.417108 0.754270 0.702679
O O6 0.241378 0.776299 0.595057
O O7 0.492334 0.739732 0.561251
O O8 0.412132 0.926297 0.594081
O O9 0.635383 0.588110 0.301224
O O10 0.593007 0.381028 0.263497
O O11 0.588990 0.436788 0.406677
O O12 0.901746 0.930933 0.020567
#
# Coordination Sequence:
#
# PCOD9376185 Si02
#       7
#     8   8   8   8   8   4   4
#     4  11  22  42  71  98 138 182 235 300 342 428
#     4  11  26  46  65 106 149 186 237 299 371 425
#     4  10  21  41  70 103 132 174 250 274 358 417
#     4  10  24  43  66 100 140 185 232 294 352 436
#     4  11  23  43  74 100 143 191 237 293 361 426
#     4  10  18  40  68 100 126 182 236 290 324 430
#     4  10  26  44  66 108 138 188 242 290 364 422
#
# _framework density 22.147178
#
# number of rings (size 3 to 8) (size 9 to 14) (size 15 to 20)
#    0.000    1.667    3.333    2.000    4.667    3.333 
#    6.000    0.000    0.000    0.000    0.000    0.000 
#    0.000    0.000    0.000    0.000    0.000    0.000 
#
# Total GULP energy -133643.754089 kJ/mol
# GULP energy per Si atom -5568.489754 kJ/mol
# Density = 2.209677 g / cm^3
# Si number density = 22.147178 Si / 1000 Ang^3
#
#
#
# Elastic Constant Matrix: (Units=GPa)
#
#
# Indices 1 2 3 4 5 6 
#
# 1 54.2577 28.1988 13.9023 0.0000 0.0000 0.0000
# 2 28.1988 98.5063 45.4837 0.0000 0.0000 0.0000
# 3 13.9023 45.4837 95.1621 0.0000 0.0000 0.0000
# 4 0.0000 0.0000 0.0000 39.8374 0.0000 0.0000
# 5 0.0000 0.0000 0.0000 0.0000 43.3985 0.0000
# 6 0.0000 0.0000 0.0000 0.0000 0.0000 29.0000
#
#
#
# Elastic Compliance Matrix: (Units=1/GPa)
#
#
# Indices 1 2 3 4 5 6 
#
# 1 0.021657 -0.006081 -0.000258 0.000000 0.000000 0.000000
# 2 -0.006081 0.014734 -0.006154 0.000000 0.000000 0.000000
# 3 -0.000258 -0.006154 0.013487 0.000000 0.000000 0.000000
# 4 0.000000 0.000000 0.000000 0.025102 0.000000 0.000000
# 5 0.000000 0.000000 0.000000 0.000000 0.023042 0.000000
# 6 0.000000 0.000000 0.000000 0.000000 0.000000 0.034483
#
#
# Mechanical properties :
#
#
# Convention : Reuss Voigt Hill
#
# Bulk Modulus (GPa) = 40.17067 47.01065 43.59066
# Shear Modulus (GPa) = 30.15922 33.13659 31.64790
#
# Velocity S-wave (km/s) = 3.69421 3.87227 3.78429
# Velocity P-wave (km/s) = 6.03106 6.42380 6.23052
#
# Compressibility (1/GPa) = 0.02489378
#
# Stress axis : x y z
#
# Youngs Moduli (GPa) = 46.17497 67.87155 74.14382
#
# Poissons Ratio (x) = 0.41270 0.01910
# Poissons Ratio (y) = 0.28077 0.45627
# Poissons Ratio (z) = 0.01189 0.41767
#
# Static dielectric constant tensor:
#      x y z
#    x 1.865480 0.000000 0.000000 
#    y 0.000000 1.811190 0.000000 
#    z 0.000000 0.000000 1.857810 
# 
# From -- ./inp_files/7900.got.cif
#   From: 2010.05.17/outbox.cif.g08.bks.cpg/sg45_4_cif.got.tgz:7900.got - 2010.06.03 19:51:22.
