data_PCOD9376137
_publ_section_title
;
Structure prediction by ZEFSAII (Michael W. Deem and Ramdas Pophale) SiO2 
 PCOD9376137
Probable space group: I B A 2
;
_chemical_formula_sum "Si O2"
_cell_formula_units_Z 52
_cell_length_a 15.319986
_cell_length_b 14.810371
_cell_length_c 9.769423
_cell_angle_alpha 90.000000
_cell_angle_beta 90.000000
_cell_angle_gamma 90.000000
_cell_volume 2216.630070
_symmetry_space_group_name_H-M "I B A 2"
_symmetry_group_IT_number 45
_symmetry_cell_setting 'orthorhombic'
loop_
_space_group_symop_operation_xyz
x,y,z
-x,-y,z
-x,y,1/2+z
x,-y,1/2+z
1/2+x,1/2+y,1/2+z
1/2-x,1/2-y,1/2+z
1/2-x,1/2+y,z
1/2+x,1/2-y,z
loop_
_atom_site_type_symbol
_atom_site_label
_atom_site_fract_x
_atom_site_fract_y
_atom_site_fract_z
Si Si1 0.900806 0.653535 0.775130
Si Si2 0.900805 0.653535 0.322260
Si Si3 0.551886 0.703452 0.048696
Si Si4 0.649997 0.240193 0.048695
Si Si5 0.109487 0.003534 0.048695
Si Si6 0.716929 0.909421 0.048694
Si Si7 0.500000 0.500000 0.798695
O O1 0.913430 0.743933 0.682221
O O2 0.844181 0.588931 0.680525
O O3 0.000000 0.620799 0.798695
O O4 0.850912 0.679781 0.912725
O O5 0.913429 0.743932 0.415172
O O6 0.850912 0.679782 0.184666
O O7 0.844181 0.588930 0.416864
O O8 0.447604 0.716805 0.048695
O O9 0.585219 0.601918 0.048695
O O10 0.724428 0.316711 0.048695
O O11 0.211273 0.985606 0.548695
O O12 0.066812 0.043366 0.188565
O O13 0.066812 0.043366 0.908826
#
# Coordination Sequence:
#
# PCOD9376137 Si02
#       7
#     8   8   8   8   8   8   4
#     4   9  20  38  62  91 130 169 217 275 337 381
#     4   9  20  38  62  91 130 169 217 275 337 381
#     4   9  20  35  60  92 135 175 199 260 347 406
#     4  10  18  33  59  92 127 171 210 265 327 406
#     4  11  24  38  63  90 145 180 216 258 328 420
#     4  11  22  37  56  96 133 168 227 271 323 402
#     4  10  24  42  56  94 138 194 200 252 344 418
#
# _framework density 23.459035
#
# number of rings (size 3 to 8) (size 9 to 14) (size 15 to 20)
#    0.000    2.154    0.000    3.692   10.769    0.000 
#    0.000    1.538    0.000    0.000    0.000    3.231 
#   18.462    0.000    0.000    0.000    0.000    0.000 
#
# Total GULP energy -145315.338690 kJ/mol
# GULP energy per Si atom -5589.051488 kJ/mol
# Density = 2.340564 g / cm^3
# Si number density = 23.459035 Si / 1000 Ang^3
#
#
#
# Elastic Constant Matrix: (Units=GPa)
#
#
# Indices 1 2 3 4 5 6 
#
# 1 142.8126 35.0519 47.3867 0.0000 0.0000 0.0000
# 2 35.0519 35.4271 21.0679 0.0000 0.0000 0.0000
# 3 47.3867 21.0679 189.5238 0.0000 0.0000 0.0000
# 4 0.0000 0.0000 0.0000 9.7513 0.0000 0.0000
# 5 0.0000 0.0000 0.0000 0.0000 77.1257 0.0000
# 6 0.0000 0.0000 0.0000 0.0000 0.0000 33.1979
#
#
#
# Elastic Compliance Matrix: (Units=1/GPa)
#
#
# Indices 1 2 3 4 5 6 
#
# 1 0.009601 -0.008643 -0.001440 0.000000 0.000000 0.000000
# 2 -0.008643 0.038006 -0.002064 0.000000 0.000000 0.000000
# 3 -0.001440 -0.002064 0.005866 0.000000 0.000000 0.000000
# 4 0.000000 0.000000 0.000000 0.102550 0.000000 0.000000
# 5 0.000000 0.000000 0.000000 0.000000 0.012966 0.000000
# 6 0.000000 0.000000 0.000000 0.000000 0.000000 0.030122
#
#
# Mechanical properties :
#
#
# Convention : Reuss Voigt Hill
#
# Bulk Modulus (GPa) = 34.27087 63.86407 49.06747
# Shear Modulus (GPa) = 21.44708 41.63213 31.53960
#
# Velocity S-wave (km/s) = 3.02691 4.21726 3.67066
# Velocity P-wave (km/s) = 5.18235 7.14118 6.23912
#
# Compressibility (1/GPa) = 0.02917930
#
# Stress axis : x y z
#
# Youngs Moduli (GPa) = 104.15173 26.31156 170.48017
#
# Poissons Ratio (x) = 0.22742 0.24546
# Poissons Ratio (y) = 0.90023 0.35182
# Poissons Ratio (z) = 0.14996 0.05430
#
# Static dielectric constant tensor:
#      x y z
#    x 1.874480 0.000000 0.000000 
#    y 0.000000 1.945830 0.000000 
#    z 0.000000 0.000000 1.875510 
# 
# From -- ./inp_files/1796.got.cif
#   From: 2010.05.17/outbox.cif.g08.bks.cpg/sg45_1_cif.got.tgz:1796.got - 2010.06.03 19:51:22.
