data_PCOD9376390
_publ_section_title
;
Structure prediction by ZEFSAII (Michael W. Deem and Ramdas Pophale) SiO2 
 PCOD9376390
Probable space group: I B A 2
;
_chemical_formula_sum "Si O2"
_cell_formula_units_Z 44
_cell_length_a 15.792979
_cell_length_b 10.391816
_cell_length_c 10.423344
_cell_angle_alpha 90.000000
_cell_angle_beta 90.000000
_cell_angle_gamma 90.000000
_cell_volume 1710.655576
_symmetry_space_group_name_H-M "I B A 2"
_symmetry_group_IT_number 45
_symmetry_cell_setting 'orthorhombic'
loop_
_space_group_symop_operation_xyz
x,y,z
-x,-y,z
-x,y,1/2+z
x,-y,1/2+z
1/2+x,1/2+y,1/2+z
1/2-x,1/2-y,1/2+z
1/2-x,1/2+y,z
1/2+x,1/2-y,z
loop_
_atom_site_type_symbol
_atom_site_label
_atom_site_fract_x
_atom_site_fract_y
_atom_site_fract_z
Si Si1 0.652512 0.561149 0.691890
Si Si2 0.702083 0.802703 0.059612
Si Si3 0.920080 0.652685 0.217666
Si Si4 0.500000 0.500000 0.519871
Si Si5 0.755303 0.868305 0.801568
Si Si6 0.509159 0.203917 0.466365
O O1 0.738690 0.581158 0.610884
O O2 0.614298 0.700022 0.722748
O O3 0.581515 0.490289 0.611001
O O4 0.678657 0.483473 0.818153
O O5 0.713138 0.702472 0.173980
O O6 0.603860 0.817602 0.024002
O O7 0.747909 0.775736 0.923374
O O8 0.838826 0.578431 0.271207
O O9 0.993585 0.647126 0.323325
O O10 0.948234 0.638783 0.071450
O O11 0.493132 0.358663 0.455371
#
# Coordination Sequence:
#
# PCOD9376390 Si02
#       6
#     8   8   8   4   8   8
#     4  10  21  37  59  91 118 164 204 260 310 365
#     4  10  22  37  62  87 127 168 203 265 313 379
#     4   9  22  38  60  91 122 162 199 255 310 365
#     4  10  20  34  60  86 122 156 202 258 298 372
#     4  10  21  40  59  87 126 162 214 251 316 378
#     4  10  20  38  57  92 124 155 205 249 311 367
#
# _framework density 25.721133999999999
#
# number of rings (size 3 to 8) (size 9 to 14) (size 15 to 20)
#    0.000    2.182    1.818    0.000    2.545    8.727 
#    0.000    0.909    0.000    4.364    0.000    0.000 
#    0.000    0.000    0.000    0.000    0.000    0.000 
#
# Total GULP energy -122892.039612 kJ/mol
# GULP energy per Si atom -5586.001801 kJ/mol
# Density = 2.566259 g / cm^3
# Si number density = 25.721134 Si / 1000 Ang^3
#
#
#
# Elastic Constant Matrix: (Units=GPa)
#
#
# Indices 1 2 3 4 5 6 
#
# 1 45.7205 5.4628 10.6911 0.0000 0.0000 0.0000
# 2 5.4628 59.6407 12.4563 0.0000 0.0000 0.0000
# 3 10.6911 12.4563 124.5217 0.0000 0.0000 0.0000
# 4 0.0000 0.0000 0.0000 7.0523 0.0000 0.0000
# 5 0.0000 0.0000 0.0000 0.0000 39.2679 0.0000
# 6 0.0000 0.0000 0.0000 0.0000 0.0000 39.5494
#
#
#
# Elastic Compliance Matrix: (Units=1/GPa)
#
#
# Indices 1 2 3 4 5 6 
#
# 1 0.022486 -0.001692 -0.001761 0.000000 0.000000 0.000000
# 2 -0.001692 0.017252 -0.001581 0.000000 0.000000 0.000000
# 3 -0.001761 -0.001581 0.008340 0.000000 0.000000 0.000000
# 4 0.000000 0.000000 0.000000 0.141798 0.000000 0.000000
# 5 0.000000 0.000000 0.000000 0.000000 0.025466 0.000000
# 6 0.000000 0.000000 0.000000 0.000000 0.000000 0.025285
#
#
# Mechanical properties :
#
#
# Convention : Reuss Voigt Hill
#
# Bulk Modulus (GPa) = 26.30822 31.90038 29.10430
# Shear Modulus (GPa) = 18.98506 30.59208 24.78857
#
# Velocity S-wave (km/s) = 2.71977 3.45247 3.10779
# Velocity P-wave (km/s) = 4.48479 5.32185 4.92115
#
# Compressibility (1/GPa) = 0.03801093
#
# Stress axis : x y z
#
# Youngs Moduli (GPa) = 44.47205 57.96384 119.90319
#
# Poissons Ratio (x) = 0.09806 0.21119
# Poissons Ratio (y) = 0.07524 0.18951
# Poissons Ratio (z) = 0.07833 0.09161
#
# Static dielectric constant tensor:
#      x y z
#    x 2.033140 0.000000 0.000000 
#    y 0.000000 2.114010 0.000000 
#    z 0.000000 0.000000 2.036710 
# 
# From -- ./inp_files/3654.got.cif
#   From: 2010.05.17/outbox.cif.g08.bks.cpg/sg45_2_cif.got.tgz:3654.got - 2010.06.03 19:51:22.
