data_PCOD9376707
_publ_section_title
;
Structure prediction by ZEFSAII (Michael W. Deem and Ramdas Pophale) SiO2 
 PCOD9376707
Probable space group: I B A 2
;
_chemical_formula_sum "Si O2"
_cell_formula_units_Z 52
_cell_length_a 8.014468
_cell_length_b 20.068813
_cell_length_c 14.523764
_cell_angle_alpha 90.000000
_cell_angle_beta 90.000000
_cell_angle_gamma 90.000000
_cell_volume 2336.014686
_symmetry_space_group_name_H-M "I B A 2"
_symmetry_group_IT_number 45
_symmetry_cell_setting 'orthorhombic'
loop_
_space_group_symop_operation_xyz
x,y,z
-x,-y,z
-x,y,1/2+z
x,-y,1/2+z
1/2+x,1/2+y,1/2+z
1/2-x,1/2-y,1/2+z
1/2-x,1/2+y,z
1/2+x,1/2-y,z
loop_
_atom_site_type_symbol
_atom_site_label
_atom_site_fract_x
_atom_site_fract_y
_atom_site_fract_z
Si Si1 0.362651 0.219099 0.328990
Si Si2 0.230636 0.911026 0.722974
Si Si3 0.000000 0.500000 0.326014
Si Si4 0.344181 0.872981 0.360580
Si Si5 0.324640 0.794588 0.041675
Si Si6 0.370635 0.354826 0.205763
Si Si7 0.792707 0.344229 0.049117
O O1 0.285847 0.159067 0.269888
O O2 0.550739 0.193698 0.346231
O O3 0.286091 0.213832 0.432720
O O4 0.379410 0.286633 0.268814
O O5 0.341507 0.968185 0.770542
O O6 0.279935 0.905472 0.616662
O O7 0.030414 0.902109 0.719332
O O8 0.950284 0.562996 0.388002
O O9 0.276767 0.890779 0.260943
O O10 0.226949 0.860945 0.447177
O O11 0.194771 0.836677 0.103784
O O12 0.313145 0.719630 0.082098
O O13 0.513188 0.821628 0.048288
#
# Coordination Sequence:
#
# PCOD9376707 Si02
#       7
#     8   8   4   8   8   8   8
#     4  10  21  38  59  96 135 172 199 268 332 401
#     4  11  24  39  66  92 131 172 223 270 325 393
#     4  10  24  48  62  84 124 182 226 274 324 370
#     4  10  23  41  64  88 128 170 220 262 325 386
#     4  11  22  34  60  94 141 163 206 254 334 404
#     4  12  22  37  65 100 132 166 214 269 333 399
#     4  11  22  38  61  96 126 174 203 263 325 393
#
# _framework density 22.260134999999998
#
# number of rings (size 3 to 8) (size 9 to 14) (size 15 to 20)
#    0.000    1.231    3.077    3.692    2.154    2.462 
#    0.000    1.538    0.000    1.846    0.000    0.000 
#    0.000    0.000    0.000    0.000    0.000    0.000 
#
# Total GULP energy -144787.810046 kJ/mol
# GULP energy per Si atom -5568.761925 kJ/mol
# Density = 2.220947 g / cm^3
# Si number density = 22.260135 Si / 1000 Ang^3
#
#
#
# Elastic Constant Matrix: (Units=GPa)
#
#
# Indices 1 2 3 4 5 6 
#
# 1 77.0544 1.4297 24.1091 0.0000 0.0000 0.0000
# 2 1.4297 78.8185 7.3018 0.0000 0.0000 0.0000
# 3 24.1091 7.3018 110.9851 0.0000 0.0000 0.0000
# 4 0.0000 0.0000 0.0000 14.7512 0.0000 0.0000
# 5 0.0000 0.0000 0.0000 0.0000 28.9317 0.0000
# 6 0.0000 0.0000 0.0000 0.0000 0.0000 25.4123
#
#
#
# Elastic Compliance Matrix: (Units=1/GPa)
#
#
# Indices 1 2 3 4 5 6 
#
# 1 0.013924 0.000028 -0.003027 0.000000 0.000000 0.000000
# 2 0.000028 0.012765 -0.000846 0.000000 0.000000 0.000000
# 3 -0.003027 -0.000846 0.009723 0.000000 0.000000 0.000000
# 4 0.000000 0.000000 0.000000 0.067791 0.000000 0.000000
# 5 0.000000 0.000000 0.000000 0.000000 0.034564 0.000000
# 6 0.000000 0.000000 0.000000 0.000000 0.000000 0.039351
#
#
# Mechanical properties :
#
#
# Convention : Reuss Voigt Hill
#
# Bulk Modulus (GPa) = 34.81461 36.94880 35.88171
# Shear Modulus (GPa) = 25.59076 29.42019 27.50548
#
# Velocity S-wave (km/s) = 3.39429 3.63940 3.51898
# Velocity P-wave (km/s) = 5.57095 5.85619 5.71535
#
# Compressibility (1/GPa) = 0.02872357
#
# Stress axis : x y z
#
# Youngs Moduli (GPa) = 71.81692 78.33774 102.84542
#
# Poissons Ratio (x) = -0.00218 0.31127
# Poissons Ratio (y) = -0.00200 0.08699
# Poissons Ratio (z) = 0.21736 0.06626
#
# Static dielectric constant tensor:
#      x y z
#    x 1.951990 0.000000 0.000000 
#    y 0.000000 1.810490 0.000000 
#    z 0.000000 0.000000 1.854410 
# 
# From -- ./inp_files/6224.got.cif
#   From: 2010.05.17/outbox.cif.g08.bks.cpg/sg45_4_cif.got.tgz:6224.got - 2010.06.03 19:51:22.
