data_PCOD9376796
_publ_section_title
;
Structure prediction by ZEFSAII (Michael W. Deem and Ramdas Pophale) SiO2 
 PCOD9376796
Probable space group: I B A 2
;
_chemical_formula_sum "Si O2"
_cell_formula_units_Z 40
_cell_length_a 9.993151
_cell_length_b 19.359381
_cell_length_c 8.783355
_cell_angle_alpha 90.000000
_cell_angle_beta 90.000000
_cell_angle_gamma 90.000000
_cell_volume 1699.238553
_symmetry_space_group_name_H-M "I B A 2"
_symmetry_group_IT_number 45
_symmetry_cell_setting 'orthorhombic'
loop_
_space_group_symop_operation_xyz
x,y,z
-x,-y,z
-x,y,1/2+z
x,-y,1/2+z
1/2+x,1/2+y,1/2+z
1/2-x,1/2-y,1/2+z
1/2-x,1/2+y,z
1/2+x,1/2-y,z
loop_
_atom_site_type_symbol
_atom_site_label
_atom_site_fract_x
_atom_site_fract_y
_atom_site_fract_z
Si Si1 0.655023 0.497961 0.706020
Si Si2 0.735859 0.417278 0.949633
Si Si3 0.845536 0.777371 0.108814
Si Si4 0.574614 0.220455 0.794612
Si Si5 0.417534 0.069543 0.199978
O O1 0.500000 0.500000 0.745209
O O2 0.714704 0.426737 0.771467
O O3 0.666582 0.515330 0.527204
O O4 0.766271 0.554367 0.762325
O O5 0.666616 0.350709 0.022207
O O6 0.884179 0.420982 0.019690
O O7 0.703684 0.764638 0.189138
O O8 0.956678 0.770808 0.239716
O O9 0.886364 0.727477 0.970532
O O10 0.531509 0.141942 0.759511
O O11 0.500000 0.000000 0.221853
#
# Coordination Sequence:
#
# PCOD9376796 Si02
#       5
#     8   8   8   8   8
#     4  10  21  40  65  96 132 170 226 285 338 408
#     4   9  23  41  64  98 132 172 230 279 345 396
#     4  11  25  46  69 102 141 186 239 284 350 425
#     4  11  25  47  70 101 142 190 233 290 349 419
#     4   9  23  44  64 100 135 172 228 280 347 412
#
# _framework density 23.539956
#
# number of rings (size 3 to 8) (size 9 to 14) (size 15 to 20)
#    1.200    0.800    0.000    1.800    2.800    8.800 
#    3.600    0.000    0.000    0.000    0.000    0.000 
#    0.000    0.000    0.000    0.000    0.000    0.000 
#
# Total GULP energy -111448.976045 kJ/mol
# GULP energy per Si atom -5572.448802 kJ/mol
# Density = 2.348638 g / cm^3
# Si number density = 23.539956 Si / 1000 Ang^3
#
#
#
# Elastic Constant Matrix: (Units=GPa)
#
#
# Indices 1 2 3 4 5 6 
#
# 1 64.8542 33.6264 13.7329 -0.0001 0.0000 0.0000
# 2 33.6264 64.1349 23.6167 0.0000 0.0000 -0.0001
# 3 13.7329 23.6167 50.3937 0.0001 -0.0001 -0.0001
# 4 -0.0001 0.0000 0.0001 36.2435 0.0000 0.0000
# 5 0.0000 0.0000 -0.0001 0.0000 27.5823 0.0000
# 6 0.0000 -0.0001 -0.0001 0.0000 0.0000 25.9890
#
#
#
# Elastic Compliance Matrix: (Units=1/GPa)
#
#
# Indices 1 2 3 4 5 6 
#
# 1 0.021195 -0.010860 -0.000686 0.000000 0.000000 0.000000
# 2 -0.010860 0.024409 -0.008479 0.000000 0.000000 0.000000
# 3 -0.000686 -0.008479 0.024005 0.000000 0.000000 0.000000
# 4 0.000000 0.000000 0.000000 0.027591 0.000000 0.000000
# 5 0.000000 0.000000 0.000000 0.000000 0.036255 0.000000
# 6 0.000000 0.000000 0.000000 0.000000 0.000000 0.038478
#
#
# Mechanical properties :
#
#
# Convention : Reuss Voigt Hill
#
# Bulk Modulus (GPa) = 33.83338 35.70388 34.76863
# Shear Modulus (GPa) = 22.53905 25.19007 23.86456
#
# Velocity S-wave (km/s) = 3.09767 3.27479 3.18746
# Velocity P-wave (km/s) = 5.21518 5.43132 5.32435
#
# Compressibility (1/GPa) = 0.02955661
#
# Stress axis : x y z
#
# Youngs Moduli (GPa) = 47.17990 40.96914 41.65854
#
# Poissons Ratio (x) = 0.44493 0.02860
# Poissons Ratio (y) = 0.51238 0.35324
# Poissons Ratio (z) = 0.03239 0.34740
#
# Static dielectric constant tensor:
#      x y z
#    x 1.902390 0.000000 0.000000 
#    y 0.000000 1.925330 0.000000 
#    z 0.000000 0.000000 1.994670 
# 
# From -- ./inp_files/1319.got.cif
#   From: 2010.05.17/outbox.cif.g08.bks.cpg/sg45_1_cif.got.tgz:1319.got - 2010.06.03 19:51:22.
