data_PCOD9376479
_publ_section_title
;
Structure prediction by ZEFSAII (Michael W. Deem and Ramdas Pophale) SiO2 
 PCOD9376479
Probable space group: I B A 2
;
_chemical_formula_sum "Si O2"
_cell_formula_units_Z 60
_cell_length_a 5.341709
_cell_length_b 22.567038
_cell_length_c 23.743613
_cell_angle_alpha 90.000000
_cell_angle_beta 90.000000
_cell_angle_gamma 90.000000
_cell_volume 2862.210631
_symmetry_space_group_name_H-M "I B A 2"
_symmetry_group_IT_number 45
_symmetry_cell_setting 'orthorhombic'
loop_
_space_group_symop_operation_xyz
x,y,z
-x,-y,z
-x,y,1/2+z
x,-y,1/2+z
1/2+x,1/2+y,1/2+z
1/2-x,1/2-y,1/2+z
1/2-x,1/2+y,z
1/2+x,1/2-y,z
loop_
_atom_site_type_symbol
_atom_site_label
_atom_site_fract_x
_atom_site_fract_y
_atom_site_fract_z
Si Si1 0.961464 0.928934 0.649140
Si Si2 0.172360 0.911310 0.940325
Si Si3 0.500000 0.000000 0.512234
Si Si4 0.257517 0.232899 0.082395
Si Si5 0.540781 0.928433 0.206923
Si Si6 0.835105 0.102742 0.541791
Si Si7 0.253124 0.462679 0.820645
Si Si8 0.800258 0.718339 0.957709
O O1 0.729909 0.906647 0.686398
O O2 0.232069 0.905312 0.668858
O O3 0.934968 0.911163 0.583914
O O4 0.000000 0.000000 0.653210
O O5 0.146169 0.929830 0.875915
O O6 0.326240 0.850488 0.944450
O O7 0.308457 0.964675 0.972581
O O8 0.925165 0.898181 0.977219
O O9 0.644487 0.048682 0.548517
O O10 0.500887 0.254597 0.114113
O O11 0.266154 0.166267 0.059486
O O12 0.227611 0.272863 0.025441
O O13 0.644679 0.922144 0.270369
O O14 0.500000 0.000000 0.201719
O O15 0.500000 0.500000 0.799762
O O16 0.000000 0.500000 0.836290
O O17 0.537727 0.744884 0.936569
#
# Coordination Sequence:
#
# PCOD9376479 Si02
#       8
#     8   8   4   8   8   8   8   8
#     4  10  21  36  55  84 114 159 201 241 300 358
#     4  12  24  37  58  89 133 165 201 256 315 383
#     4  12  24  36  50  90 136 170 186 236 332 400
#     4  10  20  39  58  79 113 159 219 251 286 357
#     4   9  19  37  58  75 111 158 208 248 277 355
#     4  12  25  36  59  88 133 166 198 260 313 385
#     4  11  22  39  59  87 121 163 209 248 307 371
#     4  10  20  38  58  79 114 158 219 252 285 357
#
# _framework density 20.962819
#
# number of rings (size 3 to 8) (size 9 to 14) (size 15 to 20)
#    0.000    1.333    3.333    5.600    4.667    0.000 
#    0.000    0.000    0.000    0.000    0.000    5.600 
#    0.000    0.000    0.000    0.000    0.000    0.000 
#
# Total GULP energy -167471.159287 kJ/mol
# GULP energy per Si atom -5582.371976 kJ/mol
# Density = 2.091511 g / cm^3
# Si number density = 20.962819 Si / 1000 Ang^3
#
#
#
# Elastic Constant Matrix: (Units=GPa)
#
#
# Indices 1 2 3 4 5 6 
#
# 1 144.6947 34.7230 29.2562 0.0000 0.0000 0.0000
# 2 34.7230 81.3985 8.8453 0.0000 0.0000 0.0000
# 3 29.2562 8.8453 103.3844 0.0000 0.0000 0.0000
# 4 0.0000 0.0000 0.0000 -2.2130 0.0000 0.0000
# 5 0.0000 0.0000 0.0000 0.0000 22.7868 0.0000
# 6 0.0000 0.0000 0.0000 0.0000 0.0000 20.2887
#
#
#
# Elastic Compliance Matrix: (Units=1/GPa)
#
#
# Indices 1 2 3 4 5 6 
#
# 1 0.008094 -0.003234 -0.002014 0.000000 0.000000 0.000000
# 2 -0.003234 0.013693 -0.000256 0.000000 0.000000 0.000000
# 3 -0.002014 -0.000256 0.010264 0.000000 0.000000 0.000000
# 4 0.000000 0.000000 0.000000 -0.451883 0.000000 0.000000
# 5 0.000000 0.000000 0.000000 0.000000 0.043885 0.000000
# 6 0.000000 0.000000 0.000000 0.000000 0.000000 0.049288
#
#
# Mechanical properties :
#
#
# Convention : Reuss Voigt Hill
#
# Bulk Modulus (GPa) = 47.52176 52.79184 50.15680
# Shear Modulus (GPa) = -16.20034 25.28272 4.54119
#
# Velocity S-wave (km/s) = -2.78297 3.47663 1.47344
# Velocity P-wave (km/s) = 3.52026 6.43072 5.18393
#
# Compressibility (1/GPa) = 0.02104299
#
# Stress axis : x y z
#
# Youngs Moduli (GPa) = 123.54244 73.03171 97.42345
#
# Poissons Ratio (x) = 0.23619 0.19620
# Poissons Ratio (y) = 0.39954 0.02497
# Poissons Ratio (z) = 0.24880 0.01872
#
# Static dielectric constant tensor:
#      x y z
#    x 1.907310 0.000000 0.000000 
#    y 0.000000 1.764580 0.000000 
#    z 0.000000 0.000000 1.773710 
# 
# From -- ./inp_files/9450.got.cif
#   From: 2010.05.17/outbox.cif.g08.bks.cpg/sg45_5_cif.got.tgz:9450.got - 2010.06.03 19:51:22.
