data_PCOD9376152
_publ_section_title
;
Structure prediction by ZEFSAII (Michael W. Deem and Ramdas Pophale) SiO2 
 PCOD9376152
Probable space group: I B A 2
;
_chemical_formula_sum "Si O2"
_cell_formula_units_Z 40
_cell_length_a 14.116713
_cell_length_b 5.370289
_cell_length_c 22.844895
_cell_angle_alpha 90.000000
_cell_angle_beta 90.000000
_cell_angle_gamma 90.000000
_cell_volume 1731.890418
_symmetry_space_group_name_H-M "I B A 2"
_symmetry_group_IT_number 45
_symmetry_cell_setting 'orthorhombic'
loop_
_space_group_symop_operation_xyz
x,y,z
-x,-y,z
-x,y,1/2+z
x,-y,1/2+z
1/2+x,1/2+y,1/2+z
1/2-x,1/2-y,1/2+z
1/2-x,1/2+y,z
1/2+x,1/2-y,z
loop_
_atom_site_type_symbol
_atom_site_label
_atom_site_fract_x
_atom_site_fract_y
_atom_site_fract_z
Si Si1 0.350404 0.092987 0.828550
Si Si2 0.308676 0.543720 0.159204
Si Si3 0.113491 0.005473 0.528862
Si Si4 0.865619 0.092368 0.282086
Si Si5 0.885062 0.494678 0.460266
O O1 0.246734 0.118436 0.798816
O O2 0.398607 0.361314 0.821254
O O3 0.341284 0.022121 0.896194
O O4 0.402110 0.864932 0.796764
O O5 0.270017 0.824808 0.164489
O O6 0.351463 0.513447 0.095091
O O7 0.375065 0.485545 0.214716
O O8 0.141963 0.763738 0.491204
O O9 0.141278 0.266977 0.499555
O O10 0.000000 0.000000 0.530133
O O11 0.000000 0.500000 0.453218
#
# Coordination Sequence:
#
# PCOD9376152 Si02
#       5
#     8   8   8   8   8
#     4  10  18  35  56  81 109 154 180 231 292 337
#     4  12  21  40  62  86 121 155 195 249 293 343
#     4  10  23  42  60  85 121 158 196 243 295 348
#     4  10  19  35  57  78 118 146 181 240 292 330
#     4  10  21  40  60  82 119 157 194 239 288 350
#
# _framework density 23.096146999999998
#
# number of rings (size 3 to 8) (size 9 to 14) (size 15 to 20)
#    0.000    1.600    4.000    2.400    0.000    0.000 
#   21.600    2.000    0.000    0.000    0.000    0.000 
#    0.000    0.000    0.000    0.000    0.000    0.000 
#
# Total GULP energy -111868.674979 kJ/mol
# GULP energy per Si atom -5593.433749 kJ/mol
# Density = 2.304358 g / cm^3
# Si number density = 23.096147 Si / 1000 Ang^3
#
#
#
# Elastic Constant Matrix: (Units=GPa)
#
#
# Indices 1 2 3 4 5 6 
#
# 1 72.5302 1.4892 0.4538 0.0000 0.0000 0.0000
# 2 1.4892 145.9251 17.6320 0.0000 0.0000 0.0000
# 3 0.4538 17.6320 166.6721 0.0000 0.0000 0.0000
# 4 0.0000 0.0000 0.0000 45.5865 0.0000 0.0000
# 5 0.0000 0.0000 0.0000 0.0000 77.8731 0.0000
# 6 0.0000 0.0000 0.0000 0.0000 0.0000 -5.5652
#
#
#
# Elastic Compliance Matrix: (Units=1/GPa)
#
#
# Indices 1 2 3 4 5 6 
#
# 1 0.013790 -0.000138 -0.000023 0.000000 0.000000 0.000000
# 2 -0.000138 0.006943 -0.000734 0.000000 0.000000 0.000000
# 3 -0.000023 -0.000734 0.006078 0.000000 0.000000 0.000000
# 4 0.000000 0.000000 0.000000 0.021936 0.000000 0.000000
# 5 0.000000 0.000000 0.000000 0.000000 0.012841 0.000000
# 6 0.000000 0.000000 0.000000 0.000000 0.000000 -0.179686
#
#
# Mechanical properties :
#
#
# Convention : Reuss Voigt Hill
#
# Bulk Modulus (GPa) = 39.96678 47.14190 43.55434
# Shear Modulus (GPa) = -46.31018 47.94902 0.81942
#
# Velocity S-wave (km/s) = -4.48270 4.56132 0.59629
# Velocity P-wave (km/s) = 3.07419 6.94236 4.40146
#
# Compressibility (1/GPa) = 0.02502078
#
# Stress axis : x y z
#
# Youngs Moduli (GPa) = 72.51454 144.03116 164.54058
#
# Poissons Ratio (x) = 0.01987 0.00378
# Poissons Ratio (y) = 0.01000 0.12079
# Poissons Ratio (z) = 0.00166 0.10573
#
# Static dielectric constant tensor:
#      x y z
#    x 1.911260 0.000000 0.000000 
#    y 0.000000 1.912810 0.000000 
#    z 0.000000 0.000000 1.794830 
# 
# From -- ./inp_files/7239.got.cif
#   From: 2010.05.17/outbox.cif.g08.bks.cpg/sg45_4_cif.got.tgz:7239.got - 2010.06.03 19:51:22.
