data_PCOD9376836
_publ_section_title
;
Structure prediction by ZEFSAII (Michael W. Deem and Ramdas Pophale) SiO2 
 PCOD9376836
Probable space group: I B A 2
;
_chemical_formula_sum "Si O2"
_cell_formula_units_Z 40
_cell_length_a 18.406302
_cell_length_b 9.968398
_cell_length_c 9.603111
_cell_angle_alpha 90.000000
_cell_angle_beta 90.000000
_cell_angle_gamma 90.000000
_cell_volume 1761.991713
_symmetry_space_group_name_H-M "I B A 2"
_symmetry_group_IT_number 45
_symmetry_cell_setting 'orthorhombic'
loop_
_space_group_symop_operation_xyz
x,y,z
-x,-y,z
-x,y,1/2+z
x,-y,1/2+z
1/2+x,1/2+y,1/2+z
1/2-x,1/2-y,1/2+z
1/2-x,1/2+y,z
1/2+x,1/2-y,z
loop_
_atom_site_type_symbol
_atom_site_label
_atom_site_fract_x
_atom_site_fract_y
_atom_site_fract_z
Si Si1 0.626571 0.151631 0.265740
Si Si2 0.713848 0.192739 0.019078
Si Si3 0.585603 0.002839 0.013344
Si Si4 0.077760 0.941466 0.687178
Si Si5 0.829303 0.022670 0.431130
O O1 0.703030 0.178649 0.186923
O O2 0.619579 0.120437 0.427776
O O3 0.581164 0.283831 0.225013
O O4 0.596148 0.021881 0.179824
O O5 0.714760 0.345187 0.973207
O O6 0.779284 0.104359 0.964680
O O7 0.637012 0.127764 0.966187
O O8 0.500000 0.000000 0.983915
O O9 0.099714 0.969037 0.528728
O O10 0.000000 0.000000 0.719697
O O11 0.141335 0.010741 0.776296
#
# Coordination Sequence:
#
# PCOD9376836 Si02
#       5
#     8   8   8   8   8
#     4   9  23  42  66 102 132 173 233 274 350 399
#     4   9  25  43  66 102 134 178 231 271 354 395
#     4  10  21  41  67  97 139 172 230 283 332 410
#     4  11  26  46  68 100 138 184 232 283 343 412
#     4  11  25  46  70  98 141 180 229 288 335 417
#
# _framework density 22.701582999999999
#
# number of rings (size 3 to 8) (size 9 to 14) (size 15 to 20)
#    1.200    0.800    0.000    1.200    8.400    3.200 
#    3.600    0.000    0.000    0.000    0.000    0.000 
#    0.000    0.000    0.000    0.000    0.000    0.000 
#
# Total GULP energy -111517.928673 kJ/mol
# GULP energy per Si atom -5575.896434 kJ/mol
# Density = 2.264991 g / cm^3
# Si number density = 22.701583 Si / 1000 Ang^3
#
#
#
# Elastic Constant Matrix: (Units=GPa)
#
#
# Indices 1 2 3 4 5 6 
#
# 1 96.4316 30.5235 10.6061 0.0000 0.0000 0.0000
# 2 30.5235 87.0753 18.0807 0.0000 0.0000 0.0000
# 3 10.6061 18.0807 47.5098 0.0000 0.0000 0.0000
# 4 0.0000 0.0000 0.0000 27.0185 0.0000 0.0000
# 5 0.0000 0.0000 0.0000 0.0000 23.0425 0.0000
# 6 0.0000 0.0000 0.0000 0.0000 0.0000 28.2408
#
#
#
# Elastic Compliance Matrix: (Units=1/GPa)
#
#
# Indices 1 2 3 4 5 6 
#
# 1 0.011721 -0.003871 -0.001143 0.000000 0.000000 0.000000
# 2 -0.003871 0.013748 -0.004368 0.000000 0.000000 0.000000
# 3 -0.001143 -0.004368 0.022966 0.000000 0.000000 0.000000
# 4 0.000000 0.000000 0.000000 0.037012 0.000000 0.000000
# 5 0.000000 0.000000 0.000000 0.000000 0.043398 0.000000
# 6 0.000000 0.000000 0.000000 0.000000 0.000000 0.035410
#
#
# Mechanical properties :
#
#
# Convention : Reuss Voigt Hill
#
# Bulk Modulus (GPa) = 33.70394 38.82638 36.26516
# Shear Modulus (GPa) = 25.91880 27.11412 26.51646
#
# Velocity S-wave (km/s) = 3.38260 3.45972 3.42137
# Velocity P-wave (km/s) = 5.48951 5.75322 5.62291
#
# Compressibility (1/GPa) = 0.02967012
#
# Stress axis : x y z
#
# Youngs Moduli (GPa) = 85.31551 72.73587 43.54294
#
# Poissons Ratio (x) = 0.28159 0.04978
# Poissons Ratio (y) = 0.33029 0.19019
# Poissons Ratio (z) = 0.09754 0.31771
#
# Static dielectric constant tensor:
#      x y z
#    x 1.825470 0.000000 0.000000 
#    y 0.000000 1.834770 0.000000 
#    z 0.000000 0.000000 1.892120 
# 
# From -- ./inp_files/4581.got.cif
#   From: 2010.05.17/outbox.cif.g08.bks.cpg/sg45_3_cif.got.tgz:4581.got - 2010.06.03 19:51:22.
