data_PCOD9376187
_publ_section_title
;
Structure prediction by ZEFSAII (Michael W. Deem and Ramdas Pophale) SiO2 
 PCOD9376187
Probable space group: I B A 2
;
_chemical_formula_sum "Si O2"
_cell_formula_units_Z 56
_cell_length_a 14.105808
_cell_length_b 12.821016
_cell_length_c 12.886691
_cell_angle_alpha 90.000000
_cell_angle_beta 90.000000
_cell_angle_gamma 90.000000
_cell_volume 2330.568249
_symmetry_space_group_name_H-M "I B A 2"
_symmetry_group_IT_number 45
_symmetry_cell_setting 'orthorhombic'
loop_
_space_group_symop_operation_xyz
x,y,z
-x,-y,z
-x,y,1/2+z
x,-y,1/2+z
1/2+x,1/2+y,1/2+z
1/2-x,1/2-y,1/2+z
1/2-x,1/2+y,z
1/2+x,1/2-y,z
loop_
_atom_site_type_symbol
_atom_site_label
_atom_site_fract_x
_atom_site_fract_y
_atom_site_fract_z
Si Si1 0.000000 0.500000 0.125000
Si Si2 0.114756 0.576342 0.932037
Si Si3 0.165176 0.628240 0.321120
Si Si4 0.000000 0.000000 0.547202
Si Si5 0.051546 0.784710 0.980480
Si Si6 0.759528 0.227955 0.495147
Si Si7 0.007914 0.286591 0.205072
Si Si8 0.352508 0.618405 0.188528
O O1 0.043746 0.405321 0.190872
O O2 0.918903 0.458283 0.046864
O O3 0.114625 0.475994 0.861455
O O4 0.050127 0.679248 0.909077
O O5 0.220221 0.623628 0.938574
O O6 0.178964 0.702342 0.420077
O O7 0.097868 0.695079 0.246459
O O8 0.264500 0.596333 0.265774
O O9 0.911694 0.029350 0.625473
O O10 0.014279 0.098653 0.470860
O O11 0.162692 0.792298 0.008073
O O12 0.001463 0.749768 0.085929
O O13 0.805496 0.192161 0.600903
O O14 0.072203 0.192562 0.248583
#
# Coordination Sequence:
#
# PCOD9376187 Si02
#       8
#     4   8   8   4   8   8   8   8
#     4  10  18  42  64  88 132 180 242 306 360 420
#     4   9  22  38  65  99 132 180 244 291 357 433
#     4  12  24  43  67 103 148 187 242 303 370 434
#     4  10  22  42  80 100 136 200 242 298 374 442
#     4   8  19  43  67  99 135 178 241 285 362 428
#     4  10  23  44  68 100 142 193 236 295 366 434
#     4  10  22  42  65 100 134 187 240 299 357 440
#     4  11  24  46  69 104 149 193 240 300 372 436
#
# _framework density 24.028475
#
# number of rings (size 3 to 8) (size 9 to 14) (size 15 to 20)
#    0.857    1.143    1.429    0.857    2.000    5.143 
#    7.714    0.714    0.000    0.000    0.000    0.000 
#    0.000    0.000    0.000    0.000    0.000    0.000 
#
# Total GULP energy -156123.707741 kJ/mol
# GULP energy per Si atom -5575.846705 kJ/mol
# Density = 2.397379 g / cm^3
# Si number density = 24.028475 Si / 1000 Ang^3
#
#
#
# Elastic Constant Matrix: (Units=GPa)
#
#
# Indices 1 2 3 4 5 6 
#
# 1 84.7051 39.2550 16.3188 0.0000 0.0000 0.0000
# 2 39.2550 167.8896 46.2604 0.0000 0.0000 0.0000
# 3 16.3188 46.2604 56.0927 0.0000 0.0000 0.0000
# 4 0.0000 0.0000 0.0000 44.3650 0.0000 0.0000
# 5 0.0000 0.0000 0.0000 0.0000 28.0412 0.0000
# 6 0.0000 0.0000 0.0000 0.0000 0.0000 46.2868
#
#
#
# Elastic Compliance Matrix: (Units=1/GPa)
#
#
# Indices 1 2 3 4 5 6 
#
# 1 0.013364 -0.002657 -0.001696 0.000000 0.000000 0.000000
# 2 -0.002657 0.008236 -0.006019 0.000000 0.000000 0.000000
# 3 -0.001696 -0.006019 0.023285 0.000000 0.000000 0.000000
# 4 0.000000 0.000000 0.000000 0.022540 0.000000 0.000000
# 5 0.000000 0.000000 0.000000 0.000000 0.035662 0.000000
# 6 0.000000 0.000000 0.000000 0.000000 0.000000 0.021604
#
#
# Mechanical properties :
#
#
# Convention : Reuss Voigt Hill
#
# Bulk Modulus (GPa) = 41.42615 56.92843 49.17729
# Shear Modulus (GPa) = 32.57651 37.52882 35.05267
#
# Velocity S-wave (km/s) = 3.68604 3.95631 3.82356
# Velocity P-wave (km/s) = 5.94926 6.67932 6.32483
#
# Compressibility (1/GPa) = 0.02413934
#
# Stress axis : x y z
#
# Youngs Moduli (GPa) = 74.82821 121.41534 42.94523
#
# Poissons Ratio (x) = 0.32263 0.07286
# Poissons Ratio (y) = 0.19884 0.25851
# Poissons Ratio (z) = 0.12694 0.73085
#
# Static dielectric constant tensor:
#      x y z
#    x 2.013480 0.000000 0.000000 
#    y 0.000000 1.934840 0.000000 
#    z 0.000000 0.000000 2.006040 
# 
# From -- ./inp_files/6592.got.cif
#   From: 2010.05.17/outbox.cif.g08.bks.cpg/sg45_4_cif.got.tgz:6592.got - 2010.06.03 19:51:22.
