data_PCOD9376699
_publ_section_title
;
Structure prediction by ZEFSAII (Michael W. Deem and Ramdas Pophale) SiO2 
 PCOD9376699
Probable space group: I B A 2
;
_chemical_formula_sum "Si O2"
_cell_formula_units_Z 56
_cell_length_a 8.923249
_cell_length_b 13.625231
_cell_length_c 19.355958
_cell_angle_alpha 90.000000
_cell_angle_beta 90.000000
_cell_angle_gamma 90.000000
_cell_volume 2353.323096
_symmetry_space_group_name_H-M "I B A 2"
_symmetry_group_IT_number 45
_symmetry_cell_setting 'orthorhombic'
loop_
_space_group_symop_operation_xyz
x,y,z
-x,-y,z
-x,y,1/2+z
x,-y,1/2+z
1/2+x,1/2+y,1/2+z
1/2-x,1/2-y,1/2+z
1/2-x,1/2+y,z
1/2+x,1/2-y,z
loop_
_atom_site_type_symbol
_atom_site_label
_atom_site_fract_x
_atom_site_fract_y
_atom_site_fract_z
Si Si1 0.662327 0.960547 0.107800
Si Si2 0.231345 0.856873 0.935499
Si Si3 0.977459 0.750648 0.001800
Si Si4 0.384926 0.708368 0.156744
Si Si5 0.732635 0.430130 0.964649
Si Si6 0.307152 0.388117 0.192573
Si Si7 0.680281 0.493904 0.328102
O O1 0.749697 0.868036 0.141230
O O2 0.500000 0.000000 0.132126
O O3 0.772932 0.052358 0.122369
O O4 0.651230 0.929783 0.027650
O O5 0.222941 0.884439 0.854529
O O6 0.172918 0.957713 0.968569
O O7 0.396494 0.836775 0.961962
O O8 0.138200 0.768437 0.968024
O O9 0.954452 0.749939 0.084205
O O10 0.890571 0.849787 0.979583
O O11 0.523821 0.653345 0.192758
O O12 0.309716 0.798933 0.196120
O O13 0.764546 0.433553 0.882707
O O14 0.283560 0.467470 0.252721
O O15 0.500000 0.500000 0.336240
#
# Coordination Sequence:
#
# PCOD9376699 Si02
#       7
#     8   8   8   8   8   8   8
#     4  11  23  42  72 107 147 189 243 309 369 438
#     4  10  21  37  66 100 134 176 229 293 359 431
#     4  11  19  38  67 103 132 172 232 301 363 417
#     4  11  24  40  72 109 142 191 242 306 374 434
#     4   9  20  40  64  96 137 184 233 293 353 428
#     4  12  25  46  70 106 149 196 244 300 371 449
#     4  10  21  45  67  93 143 198 246 282 361 449
#
# _framework density 23.796136000000001
#
# number of rings (size 3 to 8) (size 9 to 14) (size 15 to 20)
#    0.857    0.571    1.429    5.143    0.000    5.714 
#    5.143    0.714    0.000    1.714    0.000    0.000 
#    0.000    0.000    0.000    0.000    0.000    0.000 
#
# Total GULP energy -156191.311767 kJ/mol
# GULP energy per Si atom -5578.261135 kJ/mol
# Density = 2.374198 g / cm^3
# Si number density = 23.796136 Si / 1000 Ang^3
#
#
#
# Elastic Constant Matrix: (Units=GPa)
#
#
# Indices 1 2 3 4 5 6 
#
# 1 111.2610 45.3231 34.8971 0.0000 0.0000 0.0000
# 2 45.3231 74.4573 28.8022 0.0000 0.0000 0.0000
# 3 34.8971 28.8022 118.7376 0.0000 0.0000 0.0000
# 4 0.0000 0.0000 0.0000 42.8804 0.0000 0.0000
# 5 0.0000 0.0000 0.0000 0.0000 21.2104 0.0000
# 6 0.0000 0.0000 0.0000 0.0000 0.0000 32.9947
#
#
#
# Elastic Compliance Matrix: (Units=1/GPa)
#
#
# Indices 1 2 3 4 5 6 
#
# 1 0.012366 -0.006755 -0.001996 0.000000 0.000000 0.000000
# 2 -0.006755 0.018511 -0.002505 0.000000 0.000000 0.000000
# 3 -0.001996 -0.002505 0.009616 0.000000 0.000000 0.000000
# 4 0.000000 0.000000 0.000000 0.023321 0.000000 0.000000
# 5 0.000000 0.000000 0.000000 0.000000 0.047147 0.000000
# 6 0.000000 0.000000 0.000000 0.000000 0.000000 0.030308
#
#
# Mechanical properties :
#
#
# Convention : Reuss Voigt Hill
#
# Bulk Modulus (GPa) = 55.61245 58.05563 56.83404
# Shear Modulus (GPa) = 29.45097 32.44600 30.94849
#
# Velocity S-wave (km/s) = 3.52182 3.69656 3.61025
# Velocity P-wave (km/s) = 6.32129 6.53219 6.42761
#
# Compressibility (1/GPa) = 0.01798159
#
# Stress axis : x y z
#
# Youngs Moduli (GPa) = 80.86979 54.02070 103.99235
#
# Poissons Ratio (x) = 0.36491 0.20753
# Poissons Ratio (y) = 0.54628 0.26050
# Poissons Ratio (z) = 0.16139 0.13532
#
# Static dielectric constant tensor:
#      x y z
#    x 1.932820 0.000000 0.000000 
#    y 0.000000 1.948360 0.000000 
#    z 0.000000 0.000000 1.941250 
# 
# From -- ./inp_files/8860.got.cif
#   From: 2010.05.17/outbox.cif.g08.bks.cpg/sg45_5_cif.got.tgz:8860.got - 2010.06.03 19:51:22.
