data_PCOD9376039
_publ_section_title
;
Structure prediction by ZEFSAII (Michael W. Deem and Ramdas Pophale) SiO2 
 PCOD9376039
Probable space group: I B A 2
;
_chemical_formula_sum "Si O2"
_cell_formula_units_Z 56
_cell_length_a 5.346912
_cell_length_b 14.458612
_cell_length_c 34.244449
_cell_angle_alpha 90.000000
_cell_angle_beta 90.000000
_cell_angle_gamma 90.000000
_cell_volume 2647.401574
_symmetry_space_group_name_H-M "I B A 2"
_symmetry_group_IT_number 45
_symmetry_cell_setting 'orthorhombic'
loop_
_space_group_symop_operation_xyz
x,y,z
-x,-y,z
-x,y,1/2+z
x,-y,1/2+z
1/2+x,1/2+y,1/2+z
1/2-x,1/2-y,1/2+z
1/2-x,1/2+y,z
1/2+x,1/2-y,z
loop_
_atom_site_type_symbol
_atom_site_label
_atom_site_fract_x
_atom_site_fract_y
_atom_site_fract_z
Si Si1 0.090823 0.141756 0.772580
Si Si2 0.000805 0.889188 0.518368
Si Si3 0.538342 0.192838 0.389817
Si Si4 0.943725 0.809071 0.103529
Si Si5 0.499086 0.889007 0.974844
Si Si6 0.456202 0.689279 0.686298
Si Si7 0.590739 0.143152 0.803980
O O1 0.020771 0.137453 0.727196
O O2 0.862624 0.102109 0.797169
O O3 0.115204 0.249861 0.787617
O O4 0.362631 0.101248 0.780021
O O5 0.746794 0.855903 0.497805
O O6 0.014414 0.862851 0.563591
O O7 0.247150 0.855865 0.495590
O O8 0.000000 0.000000 0.515637
O O9 0.324317 0.272233 0.389496
O O10 0.494115 0.138806 0.429763
O O11 0.485444 0.141925 0.349110
O O12 0.660167 0.770252 0.103658
O O13 0.997048 0.860062 0.144769
O O14 0.500000 0.000000 0.977046
O O15 0.178733 0.734018 0.686828
#
# Coordination Sequence:
#
# PCOD9376039 Si02
#       7
#     8   8   8   8   8   8   8
#     4  10  14  25  41  61 102 130 159 184 244 289
#     4  10  21  40  57  71  96 139 176 199 244 317
#     4  12  21  32  50  81 105 125 168 219 254 286
#     4  10  21  32  51  80 109 123 163 213 262 285
#     4  10  23  39  55  72  99 137 173 203 251 310
#     4  10  16  25  41  67  98 128 153 195 241 289
#     4  10  16  25  41  66  99 126 162 195 240 284
#
# _framework density 21.152818
#
# number of rings (size 3 to 8) (size 9 to 14) (size 15 to 20)
#    0.000    1.714    5.714    1.714    0.000    3.429 
#    0.000    0.000    0.000    0.000    0.000    2.000 
#    0.000    0.000    0.000    0.000    0.000    0.000 
#
# Total GULP energy -156237.563858 kJ/mol
# GULP energy per Si atom -5579.912995 kJ/mol
# Density = 2.110467 g / cm^3
# Si number density = 21.152818 Si / 1000 Ang^3
#
#
#
# Elastic Constant Matrix: (Units=GPa)
#
#
# Indices 1 2 3 4 5 6 
#
# 1 130.7140 5.5318 24.3923 0.0000 0.0000 0.0000
# 2 5.5318 35.2775 8.4858 0.0000 0.0000 0.0000
# 3 24.3923 8.4858 172.8682 0.0000 0.0000 0.0000
# 4 0.0000 0.0000 0.0000 -47.7335 0.0000 0.0000
# 5 0.0000 0.0000 0.0000 0.0000 41.4093 0.0000
# 6 0.0000 0.0000 0.0000 0.0000 0.0000 -7.2268
#
#
#
# Elastic Compliance Matrix: (Units=1/GPa)
#
#
# Indices 1 2 3 4 5 6 
#
# 1 0.007891 -0.000981 -0.001065 0.000000 0.000000 0.000000
# 2 -0.000981 0.028807 -0.001276 0.000000 0.000000 0.000000
# 3 -0.001065 -0.001276 0.005998 0.000000 0.000000 0.000000
# 4 0.000000 0.000000 0.000000 -0.020950 0.000000 0.000000
# 5 0.000000 0.000000 0.000000 0.000000 0.024149 0.000000
# 6 0.000000 0.000000 0.000000 0.000000 0.000000 -0.138374
#
#
# Mechanical properties :
#
#
# Convention : Reuss Voigt Hill
#
# Bulk Modulus (GPa) = 27.73796 46.18660 36.96228
# Shear Modulus (GPa) = -67.73407 17.31980 -25.20714
#
# Velocity S-wave (km/s) = -5.66488 2.86456 -3.45580
# Velocity P-wave (km/s) = 5.44483 5.72914 1.26034
#
# Compressibility (1/GPa) = 0.03605167
#
# Stress axis : x y z
#
# Youngs Moduli (GPa) = 126.73327 34.71338 166.73108
#
# Poissons Ratio (x) = 0.03406 0.17761
# Poissons Ratio (y) = 0.12433 0.21269
# Poissons Ratio (z) = 0.13500 0.04428
#
# Static dielectric constant tensor:
#      x y z
#    x 1.738020 0.000000 0.000000 
#    y 0.000000 1.875870 0.000000 
#    z 0.000000 0.000000 1.762550 
# 
# From -- ./inp_files/10126.got.cif
#   From: 2010.05.17/outbox.cif.g08.bks.cpg/sg45_6_cif.got.tgz:10126.got - 2010.06.03 19:51:22.
