data_PCOD9376628
_publ_section_title
;
Structure prediction by ZEFSAII (Michael W. Deem and Ramdas Pophale) SiO2 
 PCOD9376628
Probable space group: I B A 2
;
_chemical_formula_sum "Si O2"
_cell_formula_units_Z 32
_cell_length_a 12.639848
_cell_length_b 8.620346
_cell_length_c 12.771674
_cell_angle_alpha 90.000000
_cell_angle_beta 90.000000
_cell_angle_gamma 90.000000
_cell_volume 1391.599851
_symmetry_space_group_name_H-M "I B A 2"
_symmetry_group_IT_number 45
_symmetry_cell_setting 'orthorhombic'
loop_
_space_group_symop_operation_xyz
x,y,z
-x,-y,z
-x,y,1/2+z
x,-y,1/2+z
1/2+x,1/2+y,1/2+z
1/2-x,1/2-y,1/2+z
1/2-x,1/2+y,z
1/2+x,1/2-y,z
loop_
_atom_site_type_symbol
_atom_site_label
_atom_site_fract_x
_atom_site_fract_y
_atom_site_fract_z
Si Si1 0.054870 0.337680 0.367770
Si Si2 0.000000 0.000000 0.341131
Si Si3 0.000000 0.500000 0.165776
Si Si4 0.619518 0.498702 0.637268
Si Si5 0.308974 0.826154 0.551543
O O1 0.045657 0.365054 0.243036
O O2 0.166450 0.330614 0.427603
O O3 0.000000 0.500000 0.403757
O O4 0.000780 0.171374 0.392109
O O5 0.101763 0.006603 0.262376
O O6 0.099456 0.567043 0.103521
O O7 0.500000 0.500000 0.596824
O O8 0.670585 0.340505 0.599841
O O9 0.693487 0.625556 0.586388
#
# Coordination Sequence:
#
# PCOD9376628 Si02
#       5
#     8   4   4   8   8
#     4  10  23  43  75 110 148 194 254 318 381 465
#     4  10  22  50  72 110 152 194 256 320 374 478
#     4  10  20  48  74 104 150 194 256 310 396 452
#     4  10  26  47  71 110 150 201 254 314 394 463
#     4  12  24  46  78 105 154 202 255 320 395 458
#
# _framework density 22.995115999999999
#
# number of rings (size 3 to 8) (size 9 to 14) (size 15 to 20)
#    1.500    0.000    3.750    0.000    8.750    0.000 
#    4.500    0.000    0.000    0.000    0.000    0.000 
#    0.000    0.000    0.000    0.000    0.000    0.000 
#
# Total GULP energy -89173.622011 kJ/mol
# GULP energy per Si atom -5573.351376 kJ/mol
# Density = 2.294278 g / cm^3
# Si number density = 22.995116 Si / 1000 Ang^3
#
#
#
# Elastic Constant Matrix: (Units=GPa)
#
#
# Indices 1 2 3 4 5 6 
#
# 1 137.0729 50.0026 28.5758 0.0000 0.0000 0.0000
# 2 50.0026 169.1470 9.4870 0.0000 0.0000 0.0000
# 3 28.5758 9.4870 62.4950 0.0000 0.0000 0.0000
# 4 0.0000 0.0000 0.0000 -32.2829 0.0000 0.0000
# 5 0.0000 0.0000 0.0000 0.0000 31.9162 0.0000
# 6 0.0000 0.0000 0.0000 0.0000 0.0000 30.5281
#
#
#
# Elastic Compliance Matrix: (Units=1/GPa)
#
#
# Indices 1 2 3 4 5 6 
#
# 1 0.008963 -0.002440 -0.003728 0.000000 0.000000 0.000000
# 2 -0.002440 0.006627 0.000110 0.000000 0.000000 0.000000
# 3 -0.003728 0.000110 0.017689 0.000000 0.000000 0.000000
# 4 0.000000 0.000000 0.000000 -0.030976 0.000000 0.000000
# 5 0.000000 0.000000 0.000000 0.000000 0.031332 0.000000
# 6 0.000000 0.000000 0.000000 0.000000 0.000000 0.032757
#
#
# Mechanical properties :
#
#
# Convention : Reuss Voigt Hill
#
# Bulk Modulus (GPa) = 47.25347 60.53840 53.89594
# Shear Modulus (GPa) = 58.43664 24.74223 41.58944
#
# Velocity S-wave (km/s) = 5.04656 3.28377 4.25740
# Velocity P-wave (km/s) = 7.38587 6.38446 6.90334
#
# Compressibility (1/GPa) = 0.02116247
#
# Stress axis : x y z
#
# Youngs Moduli (GPa) = 111.57263 150.89106 56.53195
#
# Poissons Ratio (x) = 0.36824 0.21074
# Poissons Ratio (y) = 0.27229 -0.00621
# Poissons Ratio (z) = 0.41591 -0.01658
#
# Static dielectric constant tensor:
#      x y z
#    x 1.890570 0.000000 0.000000 
#    y 0.000000 1.928850 0.000000 
#    z 0.000000 0.000000 1.932470 
# 
# From -- ./inp_files/5377.got.cif
#   From: 2010.05.17/outbox.cif.g08.bks.cpg/sg45_3_cif.got.tgz:5377.got - 2010.06.03 19:51:22.
