data_PCOD9376142
_publ_section_title
;
Structure prediction by ZEFSAII (Michael W. Deem and Ramdas Pophale) SiO2 
 PCOD9376142
Probable space group: I B A 2
;
_chemical_formula_sum "Si O2"
_cell_formula_units_Z 52
_cell_length_a 5.289572
_cell_length_b 20.371959
_cell_length_c 21.555347
_cell_angle_alpha 90.000000
_cell_angle_beta 90.000000
_cell_angle_gamma 90.000000
_cell_volume 2322.781428
_symmetry_space_group_name_H-M "I B A 2"
_symmetry_group_IT_number 45
_symmetry_cell_setting 'orthorhombic'
loop_
_space_group_symop_operation_xyz
x,y,z
-x,-y,z
-x,y,1/2+z
x,-y,1/2+z
1/2+x,1/2+y,1/2+z
1/2-x,1/2-y,1/2+z
1/2-x,1/2+y,z
1/2+x,1/2-y,z
loop_
_atom_site_type_symbol
_atom_site_label
_atom_site_fract_x
_atom_site_fract_y
_atom_site_fract_z
Si Si1 0.500000 0.500000 0.695680
Si Si2 0.256810 0.043563 0.511269
Si Si3 0.102016 0.791460 0.335341
Si Si4 0.670189 0.905019 0.640098
Si Si5 0.097030 0.923340 0.878023
Si Si6 0.373212 0.071685 0.260993
Si Si7 0.955179 0.788876 0.686294
O O1 0.730174 0.478373 0.654372
O O2 0.586534 0.558195 0.739265
O O3 0.369215 0.088867 0.567011
O O4 0.177385 0.081165 0.449201
O O5 0.500000 0.000000 0.493965
O O6 0.000000 0.000000 0.527217
O O7 0.353181 0.751026 0.352017
O O8 0.075810 0.798237 0.260311
O O9 0.097017 0.864871 0.362747
O O10 0.496853 0.891682 0.701784
O O11 0.896431 0.854073 0.648445
O O12 0.329467 0.905886 0.830793
O O13 0.000000 0.000000 0.868949
O O14 0.500000 0.000000 0.266005
O O15 0.727213 0.739493 0.670326
#
# Coordination Sequence:
#
# PCOD9376142 Si02
#       7
#     4   8   8   8   8   8   8
#     4  10  18  34  56  94 124 154 216 274 344 398
#     4  11  25  45  66  99 145 185 224 287 363 424
#     4  10  24  44  68  98 141 182 229 286 362 427
#     4  11  23  38  65  92 135 177 229 279 353 416
#     4  11  24  43  70 104 142 185 238 299 356 424
#     4  10  21  33  59  98 129 163 221 289 340 406
#     4  10  24  41  63  96 133 177 227 289 347 411
#
# _framework density 22.386953999999999
#
# number of rings (size 3 to 8) (size 9 to 14) (size 15 to 20)
#    0.000    1.538    1.538    2.769   10.769    2.462 
#    0.000    1.538    0.000    0.000    0.000    0.000 
#    0.000    0.000    0.000    0.000    0.000    0.000 
#
# Total GULP energy -144827.991941 kJ/mol
# GULP energy per Si atom -5570.307382 kJ/mol
# Density = 2.233600 g / cm^3
# Si number density = 22.386954 Si / 1000 Ang^3
#
#
#
# Elastic Constant Matrix: (Units=GPa)
#
#
# Indices 1 2 3 4 5 6 
#
# 1 99.9718 29.5798 15.5001 0.0000 0.0000 0.0000
# 2 29.5798 85.6573 14.8677 0.0000 0.0000 0.0000
# 3 15.5001 14.8677 122.1321 0.0000 0.0000 0.0000
# 4 0.0000 0.0000 0.0000 19.9318 0.0000 0.0000
# 5 0.0000 0.0000 0.0000 0.0000 15.9608 0.0000
# 6 0.0000 0.0000 0.0000 0.0000 0.0000 36.0841
#
#
#
# Elastic Compliance Matrix: (Units=1/GPa)
#
#
# Indices 1 2 3 4 5 6 
#
# 1 0.011254 -0.003717 -0.000976 0.000000 0.000000 0.000000
# 2 -0.003717 0.013154 -0.001130 0.000000 0.000000 0.000000
# 3 -0.000976 -0.001130 0.008449 0.000000 0.000000 0.000000
# 4 0.000000 0.000000 0.000000 0.050171 0.000000 0.000000
# 5 0.000000 0.000000 0.000000 0.000000 0.062653 0.000000
# 6 0.000000 0.000000 0.000000 0.000000 0.000000 0.027713
#
#
# Mechanical properties :
#
#
# Convention : Reuss Voigt Hill
#
# Bulk Modulus (GPa) = 47.14182 47.51737 47.32959
# Shear Modulus (GPa) = 26.02676 30.91626 28.47151
#
# Velocity S-wave (km/s) = 3.41337 3.72021 3.57009
# Velocity P-wave (km/s) = 6.05295 6.30276 6.17912
#
# Compressibility (1/GPa) = 0.02121259
#
# Stress axis : x y z
#
# Youngs Moduli (GPa) = 88.85832 76.02227 118.35434
#
# Poissons Ratio (x) = 0.28257 0.11549
# Poissons Ratio (y) = 0.33028 0.13369
# Poissons Ratio (z) = 0.08671 0.08587
#
# Static dielectric constant tensor:
#      x y z
#    x 1.960850 0.000000 0.000000 
#    y 0.000000 1.899680 0.000000 
#    z 0.000000 0.000000 1.884910 
# 
# From -- ./inp_files/8684.got.cif
#   From: 2010.05.17/outbox.cif.g08.bks.cpg/sg45_5_cif.got.tgz:8684.got - 2010.06.03 19:51:22.
