data_PCOD9376793
_publ_section_title
;
Structure prediction by ZEFSAII (Michael W. Deem and Ramdas Pophale) SiO2 
 PCOD9376793
Probable space group: I B A 2
;
_chemical_formula_sum "Si O2"
_cell_formula_units_Z 52
_cell_length_a 8.571774
_cell_length_b 25.370865
_cell_length_c 10.238600
_cell_angle_alpha 90.000000
_cell_angle_beta 90.000000
_cell_angle_gamma 90.000000
_cell_volume 2226.622344
_symmetry_space_group_name_H-M "I B A 2"
_symmetry_group_IT_number 45
_symmetry_cell_setting 'orthorhombic'
loop_
_space_group_symop_operation_xyz
x,y,z
-x,-y,z
-x,y,1/2+z
x,-y,1/2+z
1/2+x,1/2+y,1/2+z
1/2-x,1/2-y,1/2+z
1/2-x,1/2+y,z
1/2+x,1/2-y,z
loop_
_atom_site_type_symbol
_atom_site_label
_atom_site_fract_x
_atom_site_fract_y
_atom_site_fract_z
Si Si1 0.548129 0.382445 0.673740
Si Si2 0.982455 0.320691 0.196446
Si Si3 0.244200 0.250612 0.062370
Si Si4 0.773706 0.421762 0.115137
Si Si5 0.841082 0.400944 0.833785
Si Si6 0.511645 0.682341 0.925709
Si Si7 0.500000 0.000000 0.730685
O O1 0.392575 0.417479 0.685869
O O2 0.715151 0.403120 0.718115
O O3 0.513689 0.335035 0.777526
O O4 0.560664 0.363975 0.524699
O O5 0.128147 0.295339 0.118164
O O6 0.063000 0.345871 0.326007
O O7 0.850296 0.275843 0.176579
O O8 0.893134 0.373587 0.148141
O O9 0.355549 0.274678 0.951513
O O10 0.141496 0.206481 0.992361
O O11 0.860200 0.476267 0.144437
O O12 0.745781 0.411250 0.963625
O O13 0.952869 0.450604 0.818386
#
# Coordination Sequence:
#
# PCOD9376793 Si02
#       7
#     8   8   8   8   8   8   4
#     4  12  23  45  69  98 140 181 231 287 351 403
#     4  10  21  40  64  94 143 180 231 284 340 401
#     4  10  21  42  62 101 138 191 239 281 335 407
#     4  11  24  48  70 105 136 180 228 293 354 427
#     4  11  23  46  72 102 137 179 229 294 352 424
#     4  11  24  42  64 100 139 190 237 288 333 405
#     4  10  26  48  74 104 130 170 230 292 368 424
#
# _framework density 23.353760000000001
#
# number of rings (size 3 to 8) (size 9 to 14) (size 15 to 20)
#    0.000    1.231    4.615    0.462    0.000    4.308 
#   13.846    1.538    0.000    0.000    0.000    0.000 
#    0.000    0.000    0.000    0.000    0.000    0.000 
#
# Total GULP energy -145186.783611 kJ/mol
# GULP energy per Si atom -5584.107062 kJ/mol
# Density = 2.330061 g / cm^3
# Si number density = 23.353760 Si / 1000 Ang^3
#
#
#
# Elastic Constant Matrix: (Units=GPa)
#
#
# Indices 1 2 3 4 5 6 
#
# 1 91.4477 8.7489 -10.8034 -0.0003 0.0002 -0.0001
# 2 8.7489 54.1076 -9.7414 -0.0004 0.0000 0.0002
# 3 -10.8034 -9.7414 41.7150 -0.0029 -0.0009 -0.0024
# 4 -0.0003 -0.0004 -0.0029 17.8650 -0.0001 -0.0004
# 5 0.0002 0.0000 -0.0009 -0.0001 32.7567 -0.0004
# 6 -0.0001 0.0002 -0.0024 -0.0004 -0.0004 42.7269
#
#
#
# Elastic Compliance Matrix: (Units=1/GPa)
#
#
# Indices 1 2 3 4 5 6 
#
# 1 0.011376 -0.001366 0.002627 0.000001 0.000000 0.000000
# 2 -0.001366 0.019457 0.004190 0.000001 0.000000 0.000000
# 3 0.002627 0.004190 0.025631 0.000004 0.000001 0.000001
# 4 0.000001 0.000001 0.000004 0.055975 0.000000 0.000001
# 5 0.000000 0.000000 0.000001 0.000000 0.030528 0.000000
# 6 0.000000 0.000000 0.000001 0.000001 0.000000 0.023404
#
#
# Mechanical properties :
#
#
# Convention : Reuss Voigt Hill
#
# Bulk Modulus (GPa) = 14.84448 18.18649 16.51549
# Shear Modulus (GPa) = 28.10150 31.94080 30.02115
#
# Velocity S-wave (km/s) = 3.47262 3.70225 3.58927
# Velocity P-wave (km/s) = 4.73803 5.10684 4.92589
#
# Compressibility (1/GPa) = 0.06736509
#
# Stress axis : x y z
#
# Youngs Moduli (GPa) = 87.90197 51.39552 39.01524
#
# Poissons Ratio (x) = 0.07023 -0.10250
# Poissons Ratio (y) = 0.12012 -0.16346
# Poissons Ratio (z) = -0.23093 -0.21533
#
# Static dielectric constant tensor:
#      x y z
#    x 1.912120 0.000000 0.000000 
#    y 0.000000 1.881000 0.000000 
#    z 0.000000 0.000000 1.900350 
# 
# From -- ./inp_files/3317.got.cif
#   From: 2010.05.17/outbox.cif.g08.bks.cpg/sg45_2_cif.got.tgz:3317.got - 2010.06.03 19:51:22.
