data_PCOD9376051
_publ_section_title
;
Structure prediction by ZEFSAII (Michael W. Deem and Ramdas Pophale) SiO2 
 PCOD9376051
Probable space group: I B A 2
;
_chemical_formula_sum "Si O2"
_cell_formula_units_Z 64
_cell_length_a 28.104474
_cell_length_b 11.695346
_cell_length_c 10.783389
_cell_angle_alpha 90.000000
_cell_angle_beta 90.000000
_cell_angle_gamma 90.000000
_cell_volume 3544.408819
_symmetry_space_group_name_H-M "I B A 2"
_symmetry_group_IT_number 45
_symmetry_cell_setting 'orthorhombic'
loop_
_space_group_symop_operation_xyz
x,y,z
-x,-y,z
-x,y,1/2+z
x,-y,1/2+z
1/2+x,1/2+y,1/2+z
1/2-x,1/2-y,1/2+z
1/2-x,1/2+y,z
1/2+x,1/2-y,z
loop_
_atom_site_type_symbol
_atom_site_label
_atom_site_fract_x
_atom_site_fract_y
_atom_site_fract_z
Si Si1 0.646440 0.734892 0.392090
Si Si2 0.729117 0.853897 0.317876
Si Si3 0.366204 0.601912 0.112601
Si Si4 0.554355 0.647026 0.279058
Si Si5 0.054192 0.126485 0.292732
Si Si6 0.280187 0.279220 0.062563
Si Si7 0.113819 0.149541 0.527159
Si Si8 0.206301 0.038304 0.752035
O O1 0.673197 0.847686 0.349204
O O2 0.654761 0.704175 0.534054
O O3 0.591000 0.716459 0.364674
O O4 0.675131 0.636264 0.316526
O O5 0.734326 0.807387 0.175089
O O6 0.754630 0.779362 0.428149
O O7 0.752235 0.978220 0.326727
O O8 0.416840 0.637920 0.165940
O O9 0.371679 0.485672 0.031552
O O10 0.331157 0.561669 0.220686
O O11 0.498789 0.675500 0.285439
O O12 0.554337 0.511714 0.312225
O O13 0.578170 0.660688 0.143723
O O14 0.085107 0.176790 0.403895
O O15 0.337608 0.279100 0.042197
O O16 0.272810 0.403132 0.128648
#
# Coordination Sequence:
#
# PCOD9376051 Si02
#       8
#     8   8   8   8   8   8   8   8
#     4  11  19  32  45  68 100 130 166 209 245 295
#     4  11  21  33  52  74  95 141 178 218 261 305
#     4  10  16  28  44  64  90 127 163 204 234 285
#     4  10  19  28  41  67  94 129 172 197 232 292
#     4  10  19  25  46  67  89 137 174 192 231 303
#     4  10  21  34  52  74 103 134 181 217 258 309
#     4  10  17  32  43  62  96 129 165 204 242 284
#     4  10  18  33  48  68  96 135 174 207 253 295
#
# _framework density 18.056605999999999
#
# number of rings (size 3 to 8) (size 9 to 14) (size 15 to 20)
#    0.000    1.750    6.250    3.000    1.750    2.000 
#    0.000    0.000    0.000    0.000    0.000    0.000 
#    0.000    0.000    0.000   67.500    0.000    0.000 
#
# Total GULP energy -178166.623444 kJ/mol
# GULP energy per Si atom -5567.706983 kJ/mol
# Density = 1.801551 g / cm^3
# Si number density = 18.056606 Si / 1000 Ang^3
#
#
#
# Elastic Constant Matrix: (Units=GPa)
#
#
# Indices 1 2 3 4 5 6 
#
# 1 108.0137 16.0111 13.6905 0.0000 0.0000 0.0000
# 2 16.0111 9.2109 -2.4162 0.0000 0.0000 0.0000
# 3 13.6905 -2.4162 50.5743 0.0000 0.0000 0.0000
# 4 0.0000 0.0000 0.0000 17.0632 0.0000 0.0000
# 5 0.0000 0.0000 0.0000 0.0000 22.1882 0.0000
# 6 0.0000 0.0000 0.0000 0.0000 0.0000 22.0969
#
#
#
# Elastic Compliance Matrix: (Units=1/GPa)
#
#
# Indices 1 2 3 4 5 6 
#
# 1 0.013555 -0.024836 -0.004856 0.000000 0.000000 0.000000
# 2 -0.024836 0.155451 0.014150 0.000000 0.000000 0.000000
# 3 -0.004856 0.014150 0.021763 0.000000 0.000000 0.000000
# 4 0.000000 0.000000 0.000000 0.058606 0.000000 0.000000
# 5 0.000000 0.000000 0.000000 0.000000 0.045069 0.000000
# 6 0.000000 0.000000 0.000000 0.000000 0.000000 0.045255
#
#
# Mechanical properties :
#
#
# Convention : Reuss Voigt Hill
#
# Bulk Modulus (GPa) = 6.26232 24.70773 15.48503
# Shear Modulus (GPa) = 11.79211 21.63724 16.71468
#
# Velocity S-wave (km/s) = 2.55828 3.46540 3.04580
# Velocity P-wave (km/s) = 3.49315 5.45208 4.57861
#
# Compressibility (1/GPa) = 0.15968518
#
# Stress axis : x y z
#
# Youngs Moduli (GPa) = 73.77294 6.43289 45.94860
#
# Poissons Ratio (x) = 0.15977 0.22312
# Poissons Ratio (y) = 1.83225 -0.65018
# Poissons Ratio (z) = 0.35824 -0.09103
#
# Static dielectric constant tensor:
#      x y z
#    x 1.657570 0.000000 0.000000 
#    y 0.000000 1.622290 0.000000 
#    z 0.000000 0.000000 1.699250 
# 
# From -- ./inp_files/4906.got.cif
#   From: 2010.05.17/outbox.cif.g08.bks.cpg/sg45_3_cif.got.tgz:4906.got - 2010.06.03 19:51:22.
