data_PCOD9376267
_publ_section_title
;
Structure prediction by ZEFSAII (Michael W. Deem and Ramdas Pophale) SiO2 
 PCOD9376267
Probable space group: I B A 2
;
_chemical_formula_sum "Si O2"
_cell_formula_units_Z 56
_cell_length_a 24.159510
_cell_length_b 5.089347
_cell_length_c 21.515023
_cell_angle_alpha 90.000000
_cell_angle_beta 90.000000
_cell_angle_gamma 90.000000
_cell_volume 2645.403959
_symmetry_space_group_name_H-M "I B A 2"
_symmetry_group_IT_number 45
_symmetry_cell_setting 'orthorhombic'
loop_
_space_group_symop_operation_xyz
x,y,z
-x,-y,z
-x,y,1/2+z
x,-y,1/2+z
1/2+x,1/2+y,1/2+z
1/2-x,1/2-y,1/2+z
1/2-x,1/2+y,z
1/2+x,1/2-y,z
loop_
_atom_site_type_symbol
_atom_site_label
_atom_site_fract_x
_atom_site_fract_y
_atom_site_fract_z
Si Si1 0.037411 0.730727 0.008860
Si Si2 0.562844 0.976653 0.374723
Si Si3 0.776332 0.142640 0.271757
Si Si4 0.108410 0.357978 0.624529
Si Si5 0.896624 0.958958 0.312173
Si Si6 0.729283 0.106910 0.130718
Si Si7 0.442290 0.376224 0.681777
O O1 0.088585 0.730451 0.056073
O O2 0.000000 0.500000 0.037440
O O3 0.056317 0.600895 0.943639
O O4 0.000000 0.000000 0.002628
O O5 0.605573 0.172738 0.342361
O O6 0.500000 0.000000 0.348791
O O7 0.581736 0.678812 0.360900
O O8 0.735655 0.925279 0.299633
O O9 0.755708 0.162500 0.199521
O O10 0.838347 0.050568 0.283629
O O11 0.168402 0.488146 0.629655
O O12 0.070106 0.583042 0.657658
O O13 0.104195 0.082177 0.659770
O O14 0.938899 0.908923 0.255605
O O15 0.768148 0.890094 0.099528
O O16 0.500000 0.500000 0.658039
#
# Coordination Sequence:
#
# PCOD9376267 Si02
#       7
#     8   8   8   8   8   8   8
#     4  11  23  42  66  92 125 168 218 264 311 382
#     4  11  23  41  62  89 123 166 213 259 312 380
#     4  10  19  35  56  82 114 153 201 249 305 374
#     4  12  23  39  62  89 124 163 207 258 320 388
#     4  12  23  38  61  89 124 163 208 258 319 389
#     4  10  20  36  56  82 114 154 203 249 304 374
#     4  12  23  35  55  91 130 159 192 251 328 399
#
# _framework density 21.168787999999999
#
# number of rings (size 3 to 8) (size 9 to 14) (size 15 to 20)
#    0.000    0.857    0.000   11.571    0.000    0.000 
#    0.000    0.000    0.000    5.143    0.000    0.000 
#    0.000    0.000    0.000    0.000    0.000    0.000 
#
# Total GULP energy -156015.602530 kJ/mol
# GULP energy per Si atom -5571.985805 kJ/mol
# Density = 2.112061 g / cm^3
# Si number density = 21.168788 Si / 1000 Ang^3
#
#
#
# Elastic Constant Matrix: (Units=GPa)
#
#
# Indices 1 2 3 4 5 6 
#
# 1 75.3258 -9.1377 18.2606 0.0000 0.0000 0.0000
# 2 -9.1377 127.2495 20.5475 0.0000 0.0000 0.0000
# 3 18.2606 20.5475 77.6545 0.0000 0.0000 0.0000
# 4 0.0000 0.0000 0.0000 16.1833 0.0000 0.0000
# 5 0.0000 0.0000 0.0000 0.0000 17.3438 0.0000
# 6 0.0000 0.0000 0.0000 0.0000 0.0000 41.7679
#
#
#
# Elastic Compliance Matrix: (Units=1/GPa)
#
#
# Indices 1 2 3 4 5 6 
#
# 1 0.014403 0.001652 -0.003824 0.000000 0.000000 0.000000
# 2 0.001652 0.008399 -0.002611 0.000000 0.000000 0.000000
# 3 -0.003824 -0.002611 0.014468 0.000000 0.000000 0.000000
# 4 0.000000 0.000000 0.000000 0.061792 0.000000 0.000000
# 5 0.000000 0.000000 0.000000 0.000000 0.057657 0.000000
# 6 0.000000 0.000000 0.000000 0.000000 0.000000 0.023942
#
#
# Mechanical properties :
#
#
# Convention : Reuss Voigt Hill
#
# Bulk Modulus (GPa) = 36.09657 37.73008 36.91333
# Shear Modulus (GPa) = 25.06755 31.76298 28.41526
#
# Velocity S-wave (km/s) = 3.44492 3.87778 3.66774
# Velocity P-wave (km/s) = 5.73691 6.15725 5.95079
#
# Compressibility (1/GPa) = 0.02770346
#
# Stress axis : x y z
#
# Youngs Moduli (GPa) = 69.42983 119.06531 69.12013
#
# Poissons Ratio (x) = -0.19666 0.26431
# Poissons Ratio (y) = -0.11468 0.18045
# Poissons Ratio (z) = 0.26550 0.31085
#
# Static dielectric constant tensor:
#      x y z
#    x 1.860570 0.000000 0.000000 
#    y 0.000000 1.850270 0.000000 
#    z 0.000000 0.000000 1.882180 
# 
# From -- ./inp_files/9333.got.cif
#   From: 2010.05.17/outbox.cif.g08.bks.cpg/sg45_5_cif.got.tgz:9333.got - 2010.06.03 19:51:22.
