data_PCOD9376466
_publ_section_title
;
Structure prediction by ZEFSAII (Michael W. Deem and Ramdas Pophale) SiO2 
 PCOD9376466
Probable space group: I B A 2
;
_chemical_formula_sum "Si O2"
_cell_formula_units_Z 52
_cell_length_a 9.723110
_cell_length_b 17.103685
_cell_length_c 15.993029
_cell_angle_alpha 90.000000
_cell_angle_beta 90.000000
_cell_angle_gamma 90.000000
_cell_volume 2659.656886
_symmetry_space_group_name_H-M "I B A 2"
_symmetry_group_IT_number 45
_symmetry_cell_setting 'orthorhombic'
loop_
_space_group_symop_operation_xyz
x,y,z
-x,-y,z
-x,y,1/2+z
x,-y,1/2+z
1/2+x,1/2+y,1/2+z
1/2-x,1/2-y,1/2+z
1/2-x,1/2+y,z
1/2+x,1/2-y,z
loop_
_atom_site_type_symbol
_atom_site_label
_atom_site_fract_x
_atom_site_fract_y
_atom_site_fract_z
Si Si1 0.740751 0.173867 0.509760
Si Si2 0.500000 0.000000 0.738375
Si Si3 0.191014 0.202150 0.822391
Si Si4 0.521406 0.230718 0.085009
Si Si5 0.280656 0.464833 0.638341
Si Si6 0.516127 0.830033 0.766632
Si Si7 0.053661 0.112171 0.675867
O O1 0.801911 0.173903 0.417303
O O2 0.579909 0.196321 0.515110
O O3 0.759981 0.092006 0.558913
O O4 0.828221 0.242246 0.556350
O O5 0.637118 0.017833 0.684101
O O6 0.477399 0.079265 0.790397
O O7 0.346791 0.213865 0.793682
O O8 0.125158 0.136962 0.761844
O O9 0.108894 0.281901 0.805275
O O10 0.516270 0.174128 0.165347
O O11 0.457133 0.310819 0.120247
O O12 0.356605 0.547770 0.627122
O O13 0.398461 0.418692 0.691103
#
# Coordination Sequence:
#
# PCOD9376466 Si02
#       7
#     8   4   8   8   8   8   8
#     4  11  22  38  61  93 125 160 207 272 322 381
#     4  12  22  38  66  98 120 164 226 276 310 384
#     4  11  23  40  62  94 130 166 217 271 335 391
#     4  10  20  37  62  86 117 166 218 249 311 391
#     4  10  21  39  62  90 121 161 214 257 320 384
#     4  11  23  40  66  92 125 174 223 266 322 407
#     4   9  20  39  62  84 120 168 216 253 308 403
#
# _framework density 19.551393000000001
#
# number of rings (size 3 to 8) (size 9 to 14) (size 15 to 20)
#    0.000    1.538    3.077    2.769    4.308    0.000 
#    0.000    8.462    0.000    0.000    0.000    0.000 
#    0.000    0.000    0.000    0.000    0.000    0.000 
#
# Total GULP energy -145022.850748 kJ/mol
# GULP energy per Si atom -5577.801952 kJ/mol
# Density = 1.950689 g / cm^3
# Si number density = 19.551393 Si / 1000 Ang^3
#
#
#
# Elastic Constant Matrix: (Units=GPa)
#
#
# Indices 1 2 3 4 5 6 
#
# 1 121.9710 36.5537 13.5640 0.0000 0.0000 0.0000
# 2 36.5537 102.5781 8.0774 0.0000 0.0000 0.0000
# 3 13.5640 8.0774 40.6002 0.0000 0.0000 0.0000
# 4 0.0000 0.0000 0.0000 11.7680 0.0000 0.0000
# 5 0.0000 0.0000 0.0000 0.0000 19.5311 0.0000
# 6 0.0000 0.0000 0.0000 0.0000 0.0000 19.5863
#
#
#
# Elastic Compliance Matrix: (Units=1/GPa)
#
#
# Indices 1 2 3 4 5 6 
#
# 1 0.009426 -0.003161 -0.002520 0.000000 0.000000 0.000000
# 2 -0.003161 0.010964 -0.001125 0.000000 0.000000 0.000000
# 3 -0.002520 -0.001125 0.025696 0.000000 0.000000 0.000000
# 4 0.000000 0.000000 0.000000 0.084976 0.000000 0.000000
# 5 0.000000 0.000000 0.000000 0.000000 0.051201 0.000000
# 6 0.000000 0.000000 0.000000 0.000000 0.000000 0.051056
#
#
# Mechanical properties :
#
#
# Convention : Reuss Voigt Hill
#
# Bulk Modulus (GPa) = 30.79425 42.39329 36.59377
# Shear Modulus (GPa) = 19.39819 23.97401 21.68610
#
# Velocity S-wave (km/s) = 3.15328 3.50552 3.33406
# Velocity P-wave (km/s) = 5.38908 6.17373 5.79470
#
# Compressibility (1/GPa) = 0.03247359
#
# Stress axis : x y z
#
# Youngs Moduli (GPa) = 106.08800 91.21140 38.91607
#
# Poissons Ratio (x) = 0.28828 0.09808
# Poissons Ratio (y) = 0.33530 0.04379
# Poissons Ratio (z) = 0.26738 0.10264
#
# Static dielectric constant tensor:
#      x y z
#    x 1.710980 0.000000 0.000000 
#    y 0.000000 1.705250 0.000000 
#    z 0.000000 0.000000 1.692940 
# 
# From -- ./inp_files/7657.got.cif
#   From: 2010.05.17/outbox.cif.g08.bks.cpg/sg45_4_cif.got.tgz:7657.got - 2010.06.03 19:51:22.
