data_PCOD9376297
_publ_section_title
;
Structure prediction by ZEFSAII (Michael W. Deem and Ramdas Pophale) SiO2 
 PCOD9376297
Probable space group: I B A 2
;
_chemical_formula_sum "Si O2"
_cell_formula_units_Z 64
_cell_length_a 19.843411
_cell_length_b 25.722607
_cell_length_c 5.736359
_cell_angle_alpha 90.000000
_cell_angle_beta 90.000000
_cell_angle_gamma 90.000000
_cell_volume 2927.976813
_symmetry_space_group_name_H-M "I B A 2"
_symmetry_group_IT_number 45
_symmetry_cell_setting 'orthorhombic'
loop_
_space_group_symop_operation_xyz
x,y,z
-x,-y,z
-x,y,1/2+z
x,-y,1/2+z
1/2+x,1/2+y,1/2+z
1/2-x,1/2-y,1/2+z
1/2-x,1/2+y,z
1/2+x,1/2-y,z
loop_
_atom_site_type_symbol
_atom_site_label
_atom_site_fract_x
_atom_site_fract_y
_atom_site_fract_z
Si Si1 0.422505 0.233944 0.634760
Si Si2 0.245542 0.974730 0.174579
Si Si3 0.766757 0.362948 0.609359
Si Si4 0.143252 0.334113 0.738343
Si Si5 0.413933 0.132800 0.833123
Si Si6 0.090354 0.474937 0.157350
Si Si7 0.337941 0.724231 0.517425
Si Si8 0.520338 0.329421 0.599706
O O1 0.398795 0.196541 0.431829
O O2 0.447476 0.189199 0.812021
O O3 0.359698 0.265314 0.748966
O O4 0.476556 0.276708 0.579651
O O5 0.225472 0.913881 0.174666
O O6 0.327604 0.973984 0.165891
O O7 0.225022 0.000063 0.423963
O O8 0.797885 0.367988 0.350269
O O9 0.833589 0.360234 0.768495
O O10 0.724620 0.310497 0.591658
O O11 0.094068 0.373857 0.607692
O O12 0.171028 0.282749 0.609422
O O13 0.436683 0.083927 0.688379
O O14 0.072275 0.503039 0.402755
O O15 0.403126 0.691783 0.610719
O O16 0.503868 0.355092 0.345156
#
# Coordination Sequence:
#
# PCOD9376297 Si02
#       8
#     8   8   8   8   8   8   8   8
#     4   9  19  34  50  73 101 144 181 219 261 308
#     4   9  19  35  51  71 101 143 182 221 259 305
#     4  10  22  31  51  77 110 147 180 213 268 327
#     4  10  20  32  48  72 109 147 176 211 258 324
#     4   9  20  32  48  74 109 145 181 216 264 328
#     4   9  18  29  49  72 102 139 177 224 266 307
#     4  10  21  34  50  75 108 146 179 215 264 315
#     4  10  19  37  55  72 100 138 179 224 254 299
#
# _framework density 21.858097999999998
#
# number of rings (size 3 to 8) (size 9 to 14) (size 15 to 20)
#    0.000    2.500    1.250    0.000   15.750    0.000 
#    0.000    0.000    0.000    0.000    0.000    0.000 
#    0.000   41.000    0.000    0.000    0.000    0.000 
#
# Total GULP energy -178174.983487 kJ/mol
# GULP energy per Si atom -5567.968234 kJ/mol
# Density = 2.180835 g / cm^3
# Si number density = 21.858098 Si / 1000 Ang^3
#
#
#
# Elastic Constant Matrix: (Units=GPa)
#
#
# Indices 1 2 3 4 5 6 
#
# 1 40.5146 7.6824 10.9567 0.0000 0.0000 0.0000
# 2 7.6824 72.6774 32.3939 0.0000 0.0000 0.0000
# 3 10.9567 32.3939 109.2762 0.0000 0.0000 0.0000
# 4 0.0000 0.0000 0.0000 19.3404 0.0000 0.0000
# 5 0.0000 0.0000 0.0000 0.0000 111.8871 0.0000
# 6 0.0000 0.0000 0.0000 0.0000 0.0000 5.5932
#
#
#
# Elastic Compliance Matrix: (Units=1/GPa)
#
#
# Indices 1 2 3 4 5 6 
#
# 1 0.025573 -0.001798 -0.002031 0.000000 0.000000 0.000000
# 2 -0.001798 0.015981 -0.004557 0.000000 0.000000 0.000000
# 3 -0.002031 -0.004557 0.010706 0.000000 0.000000 0.000000
# 4 0.000000 0.000000 0.000000 0.051705 0.000000 0.000000
# 5 0.000000 0.000000 0.000000 0.000000 0.008938 0.000000
# 6 0.000000 0.000000 0.000000 0.000000 0.000000 0.178790
#
#
# Mechanical properties :
#
#
# Convention : Reuss Voigt Hill
#
# Bulk Modulus (GPa) = 28.17938 36.05936 32.11937
# Shear Modulus (GPa) = 15.61073 38.79314 27.20194
#
# Velocity S-wave (km/s) = 2.67532 4.21737 3.53154
# Velocity P-wave (km/s) = 4.73952 6.34412 5.59960
#
# Compressibility (1/GPa) = 0.03548694
#
# Stress axis : x y z
#
# Youngs Moduli (GPa) = 39.10425 62.57572 93.40852
#
# Poissons Ratio (x) = 0.11250 0.18972
# Poissons Ratio (y) = 0.07030 0.42567
# Poissons Ratio (z) = 0.07943 0.28516
#
# Static dielectric constant tensor:
#      x y z
#    x 1.451500 0.000000 0.000000 
#    y 0.000000 1.805520 0.000000 
#    z 0.000000 0.000000 2.189780 
# 
# From -- ./inp_files/485.got.cif
#   From: 2010.05.17/outbox.cif.g08.bks.cpg/sg45_1_cif.got.tgz:485.got - 2010.06.03 19:51:22.
