data_PCOD9376289
_publ_section_title
;
Structure prediction by ZEFSAII (Michael W. Deem and Ramdas Pophale) SiO2 
 PCOD9376289
Probable space group: I B A 2
;
_chemical_formula_sum "Si O2"
_cell_formula_units_Z 48
_cell_length_a 5.450925
_cell_length_b 27.321583
_cell_length_c 15.161238
_cell_angle_alpha 90.000000
_cell_angle_beta 90.000000
_cell_angle_gamma 90.000000
_cell_volume 2257.931334
_symmetry_space_group_name_H-M "I B A 2"
_symmetry_group_IT_number 45
_symmetry_cell_setting 'orthorhombic'
loop_
_space_group_symop_operation_xyz
x,y,z
-x,-y,z
-x,y,1/2+z
x,-y,1/2+z
1/2+x,1/2+y,1/2+z
1/2-x,1/2-y,1/2+z
1/2-x,1/2+y,z
1/2+x,1/2-y,z
loop_
_atom_site_type_symbol
_atom_site_label
_atom_site_fract_x
_atom_site_fract_y
_atom_site_fract_z
Si Si1 0.904777 0.355516 0.417680
Si Si2 0.504248 0.409381 0.145059
Si Si3 0.997577 0.410639 0.756295
Si Si4 0.500000 0.500000 0.509530
Si Si5 0.596171 0.647230 0.486881
Si Si6 0.621810 0.748029 0.379482
Si Si7 0.500000 0.000000 0.894074
O O1 0.977075 0.362251 0.316212
O O2 0.634941 0.376742 0.435326
O O3 0.880630 0.297712 0.436806
O O4 0.133811 0.375893 0.472946
O O5 0.754069 0.415630 0.200208
O O6 0.525546 0.359381 0.088262
O O7 0.254483 0.410660 0.201519
O O8 0.496446 0.452940 0.073634
O O9 0.992904 0.453503 0.828976
O O10 0.750178 0.499774 0.451777
O O11 0.622087 0.700554 0.442080
O O12 0.371455 0.748537 0.326274
#
# Coordination Sequence:
#
# PCOD9376289 Si02
#       7
#     8   8   8   4   8   8   4
#     4  10  19  36  60  84 110 154 202 239 282 348
#     4  12  24  39  59  89 126 155 188 245 307 346
#     4  12  24  39  59  89 126 155 188 245 307 346
#     4  12  24  42  64  88 116 158 208 238 278 352
#     4  10  19  36  60  84 110 154 202 239 282 348
#     4   8  16  30  56  80 104 140 196 244 274 322
#     4  12  24  42  64  88 116 158 208 238 278 352
#
# _framework density 21.258396000000001
#
# number of rings (size 3 to 8) (size 9 to 14) (size 15 to 20)
#    0.000    1.333    0.000    7.000    0.000    0.000 
#    0.000    0.000    0.000   54.000    0.000    0.000 
#    0.000    0.000    0.000    0.000    0.000    0.000 
#
# Total GULP energy -133741.972578 kJ/mol
# GULP energy per Si atom -5572.582191 kJ/mol
# Density = 2.121001 g / cm^3
# Si number density = 21.258396 Si / 1000 Ang^3
#
#
#
# Elastic Constant Matrix: (Units=GPa)
#
#
# Indices 1 2 3 4 5 6 
#
# 1 182.0937 -7.4019 34.1082 0.0000 0.0000 0.0000
# 2 -7.4019 69.0594 21.1858 0.0000 0.0000 0.0000
# 3 34.1082 21.1858 87.7925 0.0000 0.0000 0.0000
# 4 0.0000 0.0000 0.0000 13.5370 0.0000 0.0000
# 5 0.0000 0.0000 0.0000 0.0000 60.2926 0.0000
# 6 0.0000 0.0000 0.0000 0.0000 0.0000 14.2464
#
#
#
# Elastic Compliance Matrix: (Units=1/GPa)
#
#
# Indices 1 2 3 4 5 6 
#
# 1 0.006060 0.001481 -0.002712 0.000000 0.000000 0.000000
# 2 0.001481 0.016000 -0.004437 0.000000 0.000000 0.000000
# 3 -0.002712 -0.004437 0.013515 0.000000 0.000000 0.000000
# 4 0.000000 0.000000 0.000000 0.073871 0.000000 0.000000
# 5 0.000000 0.000000 0.000000 0.000000 0.016586 0.000000
# 6 0.000000 0.000000 0.000000 0.000000 0.000000 0.070193
#
#
# Mechanical properties :
#
#
# Convention : Reuss Voigt Hill
#
# Bulk Modulus (GPa) = 41.25306 48.30330 44.77818
# Shear Modulus (GPa) = 23.18685 37.01877 30.10281
#
# Velocity S-wave (km/s) = 3.30618 4.17750 3.76712
# Velocity P-wave (km/s) = 5.83285 6.78528 6.32701
#
# Compressibility (1/GPa) = 0.02424063
#
# Stress axis : x y z
#
# Youngs Moduli (GPa) = 165.02074 62.49950 73.99354
#
# Poissons Ratio (x) = -0.09259 0.20066
# Poissons Ratio (y) = -0.24446 0.32828
# Poissons Ratio (z) = 0.44750 0.27729
#
# Static dielectric constant tensor:
#      x y z
#    x 1.874140 0.000000 0.000000 
#    y 0.000000 1.881790 0.000000 
#    z 0.000000 0.000000 1.725860 
# 
# From -- ./inp_files/5243.got.cif
#   From: 2010.05.17/outbox.cif.g08.bks.cpg/sg45_3_cif.got.tgz:5243.got - 2010.06.03 19:51:22.
