data_PCOD9376820
_publ_section_title
;
Structure prediction by ZEFSAII (Michael W. Deem and Ramdas Pophale) SiO2 
 PCOD9376820
Probable space group: I B A 2
;
_chemical_formula_sum "Si O2"
_cell_formula_units_Z 64
_cell_length_a 24.860645
_cell_length_b 9.141088
_cell_length_c 13.648853
_cell_angle_alpha 90.000000
_cell_angle_beta 90.000000
_cell_angle_gamma 90.000000
_cell_volume 3101.747482
_symmetry_space_group_name_H-M "I B A 2"
_symmetry_group_IT_number 45
_symmetry_cell_setting 'orthorhombic'
loop_
_space_group_symop_operation_xyz
x,y,z
-x,-y,z
-x,y,1/2+z
x,-y,1/2+z
1/2+x,1/2+y,1/2+z
1/2-x,1/2-y,1/2+z
1/2-x,1/2+y,z
1/2+x,1/2-y,z
loop_
_atom_site_type_symbol
_atom_site_label
_atom_site_fract_x
_atom_site_fract_y
_atom_site_fract_z
Si Si1 0.905861 0.325652 0.064880
Si Si2 0.256819 0.941369 0.475109
Si Si3 0.673788 0.689636 0.913307
Si Si4 0.987470 0.155681 0.583585
Si Si5 0.678916 0.804063 0.552229
Si Si6 0.923621 0.378262 0.447392
Si Si7 0.602876 0.712480 0.731509
Si Si8 0.940147 0.476320 0.240033
O O1 0.896074 0.415752 0.164466
O O2 0.954733 0.225627 0.102197
O O3 0.861917 0.226618 0.010271
O O4 0.923640 0.456669 0.991175
O O5 0.293961 0.844529 0.401714
O O6 0.222287 0.820072 0.531106
O O7 0.216428 0.059510 0.427941
O O8 0.292746 0.037811 0.549371
O O9 0.634789 0.648290 0.823515
O O10 0.958987 0.271608 0.513195
O O11 0.947020 0.134327 0.675897
O O12 0.000000 0.000000 0.536196
O O13 0.636708 0.818539 0.462371
O O14 0.645257 0.756751 0.646818
O O15 0.943207 0.380416 0.336831
O O16 0.578312 0.863360 0.770598
O O17 0.000000 0.500000 0.195514
#
# Coordination Sequence:
#
# PCOD9376820 Si02
#       8
#     8   8   8   8   8   8   8   8
#     4  12  21  41  66  94 129 184 217 277 328 417
#     4  10  22  44  66  92 131 173 226 285 348 396
#     4  11  24  42  70  97 133 178 226 283 348 402
#     4  11  25  42  64  97 146 175 223 279 346 400
#     4  10  21  41  64  93 127 171 214 285 337 404
#     4  11  22  40  67  94 129 181 227 273 337 410
#     4  11  22  41  66  98 133 171 229 279 334 421
#     4  12  20  37  64  95 125 173 231 267 313 411
#
# _framework density 20.63353
#
# number of rings (size 3 to 8) (size 9 to 14) (size 15 to 20)
#    0.000    1.000    6.250    1.125    3.500    1.000 
#    2.250    6.250    0.000    0.000    0.000    0.000 
#    0.000    0.000    0.000    0.000    0.000    0.000 
#
# Total GULP energy -178431.456200 kJ/mol
# GULP energy per Si atom -5575.983006 kJ/mol
# Density = 2.058657 g / cm^3
# Si number density = 20.633530 Si / 1000 Ang^3
#
#
#
# Elastic Constant Matrix: (Units=GPa)
#
#
# Indices 1 2 3 4 5 6 
#
# 1 94.0157 18.5295 16.8526 0.0000 0.0000 0.0000
# 2 18.5295 63.9086 -5.3158 0.0000 0.0000 0.0000
# 3 16.8526 -5.3158 73.2204 0.0000 0.0000 0.0000
# 4 0.0000 0.0000 0.0000 9.7000 0.0000 0.0000
# 5 0.0000 0.0000 0.0000 0.0000 26.8108 0.0000
# 6 0.0000 0.0000 0.0000 0.0000 0.0000 17.5392
#
#
#
# Elastic Compliance Matrix: (Units=1/GPa)
#
#
# Indices 1 2 3 4 5 6 
#
# 1 0.011906 -0.003702 -0.003009 0.000000 0.000000 0.000000
# 2 -0.003702 0.016894 0.002079 0.000000 0.000000 0.000000
# 3 -0.003009 0.002079 0.014501 0.000000 0.000000 0.000000
# 4 0.000000 0.000000 0.000000 0.103093 0.000000 0.000000
# 5 0.000000 0.000000 0.000000 0.000000 0.037298 0.000000
# 6 0.000000 0.000000 0.000000 0.000000 0.000000 0.057015
#
#
# Mechanical properties :
#
#
# Convention : Reuss Voigt Hill
#
# Bulk Modulus (GPa) = 29.38158 32.36413 30.87286
# Shear Modulus (GPa) = 19.13386 24.21522 21.67454
#
# Velocity S-wave (km/s) = 3.04849 3.42948 3.24458
# Velocity P-wave (km/s) = 5.16350 5.60366 5.38808
#
# Compressibility (1/GPa) = 0.03403493
#
# Stress axis : x y z
#
# Youngs Moduli (GPa) = 83.99449 59.19391 68.96141
#
# Poissons Ratio (x) = 0.21914 0.20750
# Poissons Ratio (y) = 0.31096 -0.14334
# Poissons Ratio (z) = 0.25274 -0.12304
#
# Static dielectric constant tensor:
#      x y z
#    x 1.831230 0.000000 0.000000 
#    y 0.000000 1.772270 0.000000 
#    z 0.000000 0.000000 1.746390 
# 
# From -- ./inp_files/7072.got.cif
#   From: 2010.05.17/outbox.cif.g08.bks.cpg/sg45_4_cif.got.tgz:7072.got - 2010.06.03 19:51:22.
