data_PCOD9376371
_publ_section_title
;
Structure prediction by ZEFSAII (Michael W. Deem and Ramdas Pophale) SiO2 
 PCOD9376371
Probable space group: I B A 2
;
_chemical_formula_sum "Si O2"
_cell_formula_units_Z 48
_cell_length_a 9.083346
_cell_length_b 11.221455
_cell_length_c 21.673170
_cell_angle_alpha 90.000000
_cell_angle_beta 90.000000
_cell_angle_gamma 90.000000
_cell_volume 2209.110639
_symmetry_space_group_name_H-M "I B A 2"
_symmetry_group_IT_number 45
_symmetry_cell_setting 'orthorhombic'
loop_
_space_group_symop_operation_xyz
x,y,z
-x,-y,z
-x,y,1/2+z
x,-y,1/2+z
1/2+x,1/2+y,1/2+z
1/2-x,1/2-y,1/2+z
1/2-x,1/2+y,z
1/2+x,1/2-y,z
loop_
_atom_site_type_symbol
_atom_site_label
_atom_site_fract_x
_atom_site_fract_y
_atom_site_fract_z
Si Si1 0.917483 0.873218 0.781840
Si Si2 0.568155 0.632064 0.033402
Si Si3 0.838195 0.286327 0.610021
Si Si4 0.598802 0.832256 0.190624
Si Si5 0.159073 0.475999 0.815349
Si Si6 0.586834 0.373178 0.394046
O O1 0.928953 0.797586 0.720872
O O2 0.994446 0.808921 0.840116
O O3 0.751641 0.904864 0.800411
O O4 0.000000 0.000000 0.772880
O O5 0.500000 0.500000 0.033866
O O6 0.719737 0.637595 0.071814
O O7 0.450627 0.718591 0.065291
O O8 0.595402 0.674215 0.962887
O O9 0.738624 0.189273 0.646649
O O10 0.946496 0.360427 0.655363
O O11 0.638619 0.911889 0.249379
O O12 0.257749 0.401758 0.862821
O O13 0.000000 0.500000 0.841803
O O14 0.500000 0.500000 0.399914
#
# Coordination Sequence:
#
# PCOD9376371 Si02
#       6
#     8   8   8   8   8   8
#     4   9  19  36  57  80 114 154 182 229 300 351
#     4  10  22  44  62  80 119 159 192 247 286 326
#     4  10  23  37  58  88 113 155 209 226 274 364
#     4  11  21  36  55  87 119 146 192 239 283 348
#     4  10  20  33  56  89 115 139 184 245 294 341
#     4   8  18  38  59  80 109 151 192 226 291 356
#
# _framework density 21.728200999999999
#
# number of rings (size 3 to 8) (size 9 to 14) (size 15 to 20)
#    0.000    2.667    0.000    3.000    0.000    8.000 
#    0.000   15.833    0.000    0.000    0.000    0.000 
#    0.000    0.000    0.000    0.000    0.000    0.000 
#
# Total GULP energy -134054.295446 kJ/mol
# GULP energy per Si atom -5585.595644 kJ/mol
# Density = 2.167875 g / cm^3
# Si number density = 21.728201 Si / 1000 Ang^3
#
#
#
# Elastic Constant Matrix: (Units=GPa)
#
#
# Indices 1 2 3 4 5 6 
#
# 1 191.4818 26.1680 82.3644 0.0000 0.0000 0.0000
# 2 26.1680 37.5583 23.4506 0.0000 0.0000 0.0000
# 3 82.3644 23.4506 148.6322 0.0000 0.0000 0.0000
# 4 0.0000 0.0000 0.0000 28.3589 0.0000 0.0000
# 5 0.0000 0.0000 0.0000 0.0000 24.5171 0.0000
# 6 0.0000 0.0000 0.0000 0.0000 0.0000 19.0033
#
#
#
# Elastic Compliance Matrix: (Units=1/GPa)
#
#
# Indices 1 2 3 4 5 6 
#
# 1 0.007107 -0.002765 -0.003502 0.000000 0.000000 0.000000
# 2 -0.002765 0.030610 -0.003297 0.000000 0.000000 0.000000
# 3 -0.003502 -0.003297 0.009189 0.000000 0.000000 0.000000
# 4 0.000000 0.000000 0.000000 0.035262 0.000000 0.000000
# 5 0.000000 0.000000 0.000000 0.000000 0.040788 0.000000
# 6 0.000000 0.000000 0.000000 0.000000 0.000000 0.052622
#
#
# Mechanical properties :
#
#
# Convention : Reuss Voigt Hill
#
# Bulk Modulus (GPa) = 36.00035 71.29316 53.64676
# Shear Modulus (GPa) = 24.51389 30.75516 27.63452
#
# Velocity S-wave (km/s) = 3.36252 3.76633 3.57014
# Velocity P-wave (km/s) = 5.62849 7.19696 6.46050
#
# Compressibility (1/GPa) = 0.02777751
#
# Stress axis : x y z
#
# Youngs Moduli (GPa) = 140.71460 32.66854 108.82774
#
# Poissons Ratio (x) = 0.09032 0.38110
# Poissons Ratio (y) = 0.38906 0.35885
# Poissons Ratio (z) = 0.49276 0.10772
#
# Static dielectric constant tensor:
#      x y z
#    x 1.810790 0.000000 0.000000 
#    y 0.000000 1.843750 0.000000 
#    z 0.000000 0.000000 1.801250 
# 
# From -- ./inp_files/8808.got.cif
#   From: 2010.05.17/outbox.cif.g08.bks.cpg/sg45_5_cif.got.tgz:8808.got - 2010.06.03 19:51:22.
