data_PCOD9376675
_publ_section_title
;
Structure prediction by ZEFSAII (Michael W. Deem and Ramdas Pophale) SiO2 
 PCOD9376675
Probable space group: I B A 2
;
_chemical_formula_sum "Si O2"
_cell_formula_units_Z 60
_cell_length_a 31.476067
_cell_length_b 5.203032
_cell_length_c 15.117531
_cell_angle_alpha 90.000000
_cell_angle_beta 90.000000
_cell_angle_gamma 90.000000
_cell_volume 2475.812925
_symmetry_space_group_name_H-M "I B A 2"
_symmetry_group_IT_number 45
_symmetry_cell_setting 'orthorhombic'
loop_
_space_group_symop_operation_xyz
x,y,z
-x,-y,z
-x,y,1/2+z
x,-y,1/2+z
1/2+x,1/2+y,1/2+z
1/2-x,1/2-y,1/2+z
1/2-x,1/2+y,z
1/2+x,1/2-y,z
loop_
_atom_site_type_symbol
_atom_site_label
_atom_site_fract_x
_atom_site_fract_y
_atom_site_fract_z
Si Si1 0.404330 0.025660 0.076470
Si Si2 0.731785 0.807650 0.556438
Si Si3 0.917963 0.240859 0.897420
Si Si4 0.227836 0.631875 0.347073
Si Si5 0.856648 0.088076 0.308319
Si Si6 0.942372 0.377150 0.251672
Si Si7 0.351654 0.534586 0.116504
Si Si8 0.500000 0.500000 0.855350
O O1 0.441390 0.088137 0.146738
O O2 0.368368 0.248543 0.093260
O O3 0.388281 0.741703 0.097491
O O4 0.415675 0.051442 0.974186
O O5 0.734682 0.097268 0.594611
O O6 0.737068 0.867171 0.452293
O O7 0.688479 0.649076 0.565573
O O8 0.872937 0.097877 0.886109
O O9 0.930285 0.364186 0.803502
O O10 0.959231 0.067498 0.914936
O O11 0.257200 0.860634 0.310105
O O12 0.178871 0.708250 0.335034
O O13 0.840392 0.949270 0.220380
O O14 0.900829 0.210000 0.276329
O O15 0.982212 0.228802 0.292830
#
# Coordination Sequence:
#
# PCOD9376675 Si02
#       8
#     8   8   8   8   8   8   8   4
#     4  11  25  41  70  99 132 177 224 277 331 404
#     4  10  21  37  56  86 129 172 218 278 336 393
#     4  11  23  43  71  97 136 176 225 274 343 403
#     4  10  23  37  58  93 129 172 225 275 333 393
#     4  10  23  40  66  93 134 175 229 281 335 404
#     4  10  23  45  66 101 135 174 224 276 340 400
#     4  11  23  42  62  97 130 173 233 278 336 399
#     4  10  24  44  68 102 136 176 216 280 334 412
#
# _framework density 24.234465
#
# number of rings (size 3 to 8) (size 9 to 14) (size 15 to 20)
#    0.000    1.600    1.333    2.000    7.467    2.667 
#    0.000    2.667    0.000    0.000    0.000    0.000 
#    0.000    0.000    0.000    0.000    0.000    0.000 
#
# Total GULP energy -167643.030140 kJ/mol
# GULP energy per Si atom -5588.101005 kJ/mol
# Density = 2.417931 g / cm^3
# Si number density = 24.234465 Si / 1000 Ang^3
#
#
#
# Elastic Constant Matrix: (Units=GPa)
#
#
# Indices 1 2 3 4 5 6 
#
# 1 60.2305 8.4963 2.9227 0.0000 0.0000 0.0000
# 2 8.4963 66.0757 0.4506 0.0000 0.0000 0.0000
# 3 2.9227 0.4506 47.9696 0.0000 0.0000 0.0000
# 4 0.0000 0.0000 0.0000 12.8344 0.0000 0.0000
# 5 0.0000 0.0000 0.0000 0.0000 19.7383 0.0000
# 6 0.0000 0.0000 0.0000 0.0000 0.0000 7.8895
#
#
#
# Elastic Compliance Matrix: (Units=1/GPa)
#
#
# Indices 1 2 3 4 5 6 
#
# 1 0.016959 -0.002174 -0.001013 0.000000 0.000000 0.000000
# 2 -0.002174 0.015414 -0.000012 0.000000 0.000000 0.000000
# 3 -0.001013 -0.000012 0.020908 0.000000 0.000000 0.000000
# 4 0.000000 0.000000 0.000000 0.077916 0.000000 0.000000
# 5 0.000000 0.000000 0.000000 0.000000 0.050663 0.000000
# 6 0.000000 0.000000 0.000000 0.000000 0.000000 0.126751
#
#
# Mechanical properties :
#
#
# Convention : Reuss Voigt Hill
#
# Bulk Modulus (GPa) = 21.32968 22.00165 21.66566
# Shear Modulus (GPa) = 15.12236 18.91950 17.02093
#
# Velocity S-wave (km/s) = 2.50071 2.79711 2.65305
# Velocity P-wave (km/s) = 4.14229 4.41929 4.28303
#
# Compressibility (1/GPa) = 0.04688302
#
# Stress axis : x y z
#
# Youngs Moduli (GPa) = 58.96689 64.87713 47.82773
#
# Poissons Ratio (x) = 0.14102 0.04844
# Poissons Ratio (y) = 0.12818 0.00059
# Poissons Ratio (z) = 0.05972 0.00080
#
# Static dielectric constant tensor:
#      x y z
#    x 1.975660 0.000000 0.000000 
#    y 0.000000 2.020030 0.000000 
#    z 0.000000 0.000000 1.933700 
# 
# From -- ./inp_files/8544.got.cif
#   From: 2010.05.17/outbox.cif.g08.bks.cpg/sg45_5_cif.got.tgz:8544.got - 2010.06.03 19:51:22.
