data_PCOD9376096
_publ_section_title
;
Structure prediction by ZEFSAII (Michael W. Deem and Ramdas Pophale) SiO2 
 PCOD9376096
Probable space group: I B A 2
;
_chemical_formula_sum "Si O2"
_cell_formula_units_Z 48
_cell_length_a 7.959041
_cell_length_b 14.171027
_cell_length_c 18.183017
_cell_angle_alpha 90.000000
_cell_angle_beta 90.000000
_cell_angle_gamma 90.000000
_cell_volume 2050.822210
_symmetry_space_group_name_H-M "I B A 2"
_symmetry_group_IT_number 45
_symmetry_cell_setting 'orthorhombic'
loop_
_space_group_symop_operation_xyz
x,y,z
-x,-y,z
-x,y,1/2+z
x,-y,1/2+z
1/2+x,1/2+y,1/2+z
1/2-x,1/2-y,1/2+z
1/2-x,1/2+y,z
1/2+x,1/2-y,z
loop_
_atom_site_type_symbol
_atom_site_label
_atom_site_fract_x
_atom_site_fract_y
_atom_site_fract_z
Si Si1 0.332744 0.064952 0.732350
Si Si2 0.492076 0.222155 0.136005
Si Si3 0.875410 0.702048 0.974605
Si Si4 0.811425 0.630697 0.392992
Si Si5 0.662660 0.401684 0.152403
Si Si6 0.704048 0.989058 0.514869
O O1 0.383198 0.143792 0.671957
O O2 0.288597 0.118179 0.807177
O O3 0.500000 0.000000 0.744124
O O4 0.196755 0.986817 0.708144
O O5 0.510449 0.329496 0.164494
O O6 0.314084 0.174632 0.151900
O O7 0.523953 0.228805 0.048480
O O8 0.790489 0.787010 0.932904
O O9 0.997085 0.653062 0.915406
O O10 0.754849 0.620107 0.005399
O O11 0.768586 0.536055 0.436335
O O12 0.688143 0.454833 0.074541
O O13 0.500000 0.000000 0.534103
#
# Coordination Sequence:
#
# PCOD9376096 Si02
#       6
#     8   8   8   8   8   8
#     4  10  22  39  61  91 123 170 210 250 306 380
#     4  11  20  36  65  90 123 165 212 256 302 373
#     4  11  20  38  63  93 119 165 210 254 307 370
#     4  11  23  37  63  92 126 157 209 260 313 365
#     4  11  20  38  65  92 123 162 213 256 305 368
#     4  10  17  34  61  84 116 161 206 240 289 378
#
# _framework density 23.405249000000001
#
# number of rings (size 3 to 8) (size 9 to 14) (size 15 to 20)
#    0.000    1.333    6.667    2.000    0.000    4.000 
#    0.000    1.667    0.000    6.000    0.000    0.000 
#    0.000    0.000    0.000    0.000    0.000    0.000 
#
# Total GULP energy -134187.477746 kJ/mol
# GULP energy per Si atom -5591.144906 kJ/mol
# Density = 2.335198 g / cm^3
# Si number density = 23.405249 Si / 1000 Ang^3
#
#
#
# Elastic Constant Matrix: (Units=GPa)
#
#
# Indices 1 2 3 4 5 6 
#
# 1 53.8822 38.8123 23.3855 0.0000 0.0000 0.0000
# 2 38.8123 151.4961 54.5431 0.0000 0.0000 0.0000
# 3 23.3855 54.5431 140.2840 0.0000 0.0000 0.0000
# 4 0.0000 0.0000 0.0000 6.6983 0.0000 0.0000
# 5 0.0000 0.0000 0.0000 0.0000 9.0247 0.0000
# 6 0.0000 0.0000 0.0000 0.0000 0.0000 26.1963
#
#
#
# Elastic Compliance Matrix: (Units=1/GPa)
#
#
# Indices 1 2 3 4 5 6 
#
# 1 0.023146 -0.005280 -0.001806 0.000000 0.000000 0.000000
# 2 -0.005280 0.008880 -0.002572 0.000000 0.000000 0.000000
# 3 -0.001806 -0.002572 0.008430 0.000000 0.000000 0.000000
# 4 0.000000 0.000000 0.000000 0.149293 0.000000 0.000000
# 5 0.000000 0.000000 0.000000 0.000000 0.110807 0.000000
# 6 0.000000 0.000000 0.000000 0.000000 0.000000 0.038173
#
#
# Mechanical properties :
#
#
# Convention : Reuss Voigt Hill
#
# Bulk Modulus (GPa) = 47.30472 64.34935 55.82703
# Shear Modulus (GPa) = 13.69528 23.64529 18.67028
#
# Velocity S-wave (km/s) = 2.42159 3.18190 2.82742
# Velocity P-wave (km/s) = 5.29847 6.40723 5.87905
#
# Compressibility (1/GPa) = 0.02113954
#
# Stress axis : x y z
#
# Youngs Moduli (GPa) = 43.20455 112.61826 118.63078
#
# Poissons Ratio (x) = 0.59459 0.21420
# Poissons Ratio (y) = 0.22811 0.30515
# Poissons Ratio (z) = 0.07801 0.28969
#
# Static dielectric constant tensor:
#      x y z
#    x 2.014010 0.000000 0.000000 
#    y 0.000000 2.080780 0.000000 
#    z 0.000000 0.000000 1.825650 
# 
# From -- ./inp_files/7547.got.cif
#   From: 2010.05.17/outbox.cif.g08.bks.cpg/sg45_4_cif.got.tgz:7547.got - 2010.06.03 19:51:22.
