data_PCOD9376724
_publ_section_title
;
Structure prediction by ZEFSAII (Michael W. Deem and Ramdas Pophale) SiO2 
 PCOD9376724
Probable space group: I B A 2
;
_chemical_formula_sum "Si O2"
_cell_formula_units_Z 60
_cell_length_a 31.659487
_cell_length_b 5.467322
_cell_length_c 13.204154
_cell_angle_alpha 90.000000
_cell_angle_beta 90.000000
_cell_angle_gamma 90.000000
_cell_volume 2285.541476
_symmetry_space_group_name_H-M "I B A 2"
_symmetry_group_IT_number 45
_symmetry_cell_setting 'orthorhombic'
loop_
_space_group_symop_operation_xyz
x,y,z
-x,-y,z
-x,y,1/2+z
x,-y,1/2+z
1/2+x,1/2+y,1/2+z
1/2-x,1/2-y,1/2+z
1/2-x,1/2+y,z
1/2+x,1/2-y,z
loop_
_atom_site_type_symbol
_atom_site_label
_atom_site_fract_x
_atom_site_fract_y
_atom_site_fract_z
Si Si1 0.485590 0.748880 0.979750
Si Si2 0.130084 0.869258 0.239491
Si Si3 0.271517 0.334343 0.928405
Si Si4 0.886140 0.173870 0.482467
Si Si5 0.088513 0.370653 0.254393
Si Si6 0.861399 0.671683 0.455819
Si Si7 0.000000 0.500000 0.170375
Si Si8 0.773467 0.861432 0.673906
O O1 0.500000 0.500000 0.927849
O O2 0.435520 0.731235 0.996357
O O3 0.500000 0.000000 0.928149
O O4 0.509022 0.782167 0.088697
O O5 0.123515 0.858766 0.362244
O O6 0.110453 0.610181 0.208639
O O7 0.179012 0.874627 0.212991
O O8 0.105746 0.117451 0.209476
O O9 0.260537 0.614238 0.900161
O O10 0.273650 0.347169 0.051186
O O11 0.317654 0.232029 0.899306
O O12 0.858688 0.410931 0.511176
O O13 0.872630 0.907954 0.522105
O O14 0.101466 0.359353 0.372807
O O15 0.039879 0.413275 0.232196
O O16 0.750522 0.609934 0.704680
#
# Coordination Sequence:
#
# PCOD9376724 Si02
#       8
#     8   8   8   8   8   8   4   8
#     4  10  23  41  65  91 122 162 214 271 323 383
#     4  10  22  41  62  94 131 169 213 265 325 390
#     4  10  21  38  63  93 129 166 209 260 314 382
#     4  10  21  41  59  90 126 162 213 257 327 376
#     4  10  23  41  61  90 130 168 216 266 330 382
#     4  10  21  40  62  94 126 171 210 263 322 384
#     4  10  26  42  68  90 130 166 226 270 330 390
#     4  10  21  39  65  95 129 170 212 259 322 390
#
# _framework density 26.251982999999999
#
# number of rings (size 3 to 8) (size 9 to 14) (size 15 to 20)
#    0.400    1.600    0.000    2.400    1.867    2.133 
#   14.400   16.000    0.000    0.000    0.000    0.000 
#    0.000    0.000    0.000    0.000    0.000    0.000 
#
# Total GULP energy -167977.124947 kJ/mol
# GULP energy per Si atom -5599.237498 kJ/mol
# Density = 2.619223 g / cm^3
# Si number density = 26.251983 Si / 1000 Ang^3
#
#
#
# Elastic Constant Matrix: (Units=GPa)
#
#
# Indices 1 2 3 4 5 6 
#
# 1 160.1227 86.9673 27.5669 0.0000 0.0000 0.0000
# 2 86.9673 273.9644 33.2318 0.0000 0.0000 0.0000
# 3 27.5669 33.2318 83.3943 0.0000 0.0000 0.0000
# 4 0.0000 0.0000 0.0000 31.8551 0.0000 0.0000
# 5 0.0000 0.0000 0.0000 0.0000 38.4021 0.0000
# 6 0.0000 0.0000 0.0000 0.0000 0.0000 51.1020
#
#
#
# Elastic Compliance Matrix: (Units=1/GPa)
#
#
# Indices 1 2 3 4 5 6 
#
# 1 0.007760 -0.002261 -0.001664 0.000000 0.000000 0.000000
# 2 -0.002261 0.004495 -0.001043 0.000000 0.000000 0.000000
# 3 -0.001664 -0.001043 0.012957 0.000000 0.000000 0.000000
# 4 0.000000 0.000000 0.000000 0.031392 0.000000 0.000000
# 5 0.000000 0.000000 0.000000 0.000000 0.026040 0.000000
# 6 0.000000 0.000000 0.000000 0.000000 0.000000 0.019569
#
#
# Mechanical properties :
#
#
# Convention : Reuss Voigt Hill
#
# Bulk Modulus (GPa) = 65.47177 90.33482 77.90329
# Shear Modulus (GPa) = 42.64688 48.91952 45.78320
#
# Velocity S-wave (km/s) = 4.03491 4.32146 4.18064
# Velocity P-wave (km/s) = 6.83383 7.70619 7.28308
#
# Compressibility (1/GPa) = 0.01527376
#
# Stress axis : x y z
#
# Youngs Moduli (GPa) = 128.86667 222.49069 77.17782
#
# Poissons Ratio (x) = 0.50316 0.12842
# Poissons Ratio (y) = 0.29143 0.08053
# Poissons Ratio (z) = 0.21443 0.23217
#
# Static dielectric constant tensor:
#      x y z
#    x 1.967210 0.000000 0.000000 
#    y 0.000000 2.158100 0.000000 
#    z 0.000000 0.000000 2.174940 
# 
# From -- ./inp_files/8546.got.cif
#   From: 2010.05.17/outbox.cif.g08.bks.cpg/sg45_5_cif.got.tgz:8546.got - 2010.06.03 19:51:22.
