data_PCOD9376469
_publ_section_title
;
Structure prediction by ZEFSAII (Michael W. Deem and Ramdas Pophale) SiO2 
 PCOD9376469
Probable space group: I B A 2
;
_chemical_formula_sum "Si O2"
_cell_formula_units_Z 60
_cell_length_a 10.745692
_cell_length_b 28.988705
_cell_length_c 9.917794
_cell_angle_alpha 90.000000
_cell_angle_beta 90.000000
_cell_angle_gamma 90.000000
_cell_volume 3089.429481
_symmetry_space_group_name_H-M "I B A 2"
_symmetry_group_IT_number 45
_symmetry_cell_setting 'orthorhombic'
loop_
_space_group_symop_operation_xyz
x,y,z
-x,-y,z
-x,y,1/2+z
x,-y,1/2+z
1/2+x,1/2+y,1/2+z
1/2-x,1/2-y,1/2+z
1/2-x,1/2+y,z
1/2+x,1/2-y,z
loop_
_atom_site_type_symbol
_atom_site_label
_atom_site_fract_x
_atom_site_fract_y
_atom_site_fract_z
Si Si1 0.680474 0.573672 0.947010
Si Si2 0.371211 0.113791 0.935296
Si Si3 0.333871 0.581334 0.741234
Si Si4 0.383400 0.887924 0.755862
Si Si5 0.500000 0.500000 0.841565
Si Si6 0.004184 0.155372 0.355679
Si Si7 0.258081 0.291401 0.760500
Si Si8 0.224775 0.792730 0.458215
O O1 0.780968 0.579910 0.828912
O O2 0.602327 0.527253 0.927920
O O3 0.582478 0.615566 0.929591
O O4 0.733727 0.577905 0.097581
O O5 0.259980 0.084326 0.867319
O O6 0.490583 0.107252 0.840705
O O7 0.324283 0.166969 0.926554
O O8 0.391983 0.103668 0.094483
O O9 0.427232 0.538528 0.756518
O O10 0.417326 0.627676 0.750380
O O11 0.332050 0.835640 0.774729
O O12 0.909022 0.182414 0.450565
O O13 0.103971 0.189472 0.291026
O O14 0.227621 0.249442 0.856952
O O15 0.250295 0.275140 0.607455
#
# Coordination Sequence:
#
# PCOD9376469 Si02
#       8
#     8   8   8   8   4   8   8   8
#     4  10  20  37  63  89 117 153 189 236 292 347
#     4  10  22  40  59  83 116 156 198 240 292 351
#     4  10  20  37  63  89 117 153 189 236 292 347
#     4  10  22  40  59  83 116 156 198 240 292 351
#     4  10  22  36  62  98 126 144 188 236 290 350
#     4   9  20  37  56  82 112 150 192 239 286 345
#     4  10  22  36  54  81 111 148 194 243 290 339
#     4  10  22  36  54  81 111 148 194 243 290 339
#
# _framework density 19.421063
#
# number of rings (size 3 to 8) (size 9 to 14) (size 15 to 20)
#    0.000    2.133    0.000    2.000    1.867   13.867 
#    0.000    0.667    0.000    3.200    0.000    0.000 
#    0.000    0.000    0.000    0.000    0.000    0.000 
#
# Total GULP energy -167403.775273 kJ/mol
# GULP energy per Si atom -5580.125842 kJ/mol
# Density = 1.937686 g / cm^3
# Si number density = 19.421063 Si / 1000 Ang^3
#
#
#
# Elastic Constant Matrix: (Units=GPa)
#
#
# Indices 1 2 3 4 5 6 
#
# 1 90.6511 9.1363 23.7670 -0.0004 -0.0003 -0.0002
# 2 9.1363 44.9739 15.0448 -0.0002 -0.0002 -0.0003
# 3 23.7670 15.0448 100.2905 0.0005 0.0018 -0.0031
# 4 -0.0004 -0.0002 0.0005 7.6540 0.0001 -0.0002
# 5 -0.0003 -0.0002 0.0018 0.0001 25.4211 -0.0001
# 6 -0.0002 -0.0003 -0.0031 -0.0002 -0.0001 -0.8582
#
#
#
# Elastic Compliance Matrix: (Units=1/GPa)
#
#
# Indices 1 2 3 4 5 6 
#
# 1 0.011863 -0.001547 -0.002579 0.000001 0.000000 0.000007
# 2 -0.001547 0.023612 -0.003175 0.000001 0.000000 0.000002
# 3 -0.002579 -0.003175 0.011059 -0.000001 -0.000001 -0.000038
# 4 0.000001 0.000001 -0.000001 0.130651 -0.000001 -0.000030
# 5 0.000000 0.000000 -0.000001 -0.000001 0.039337 -0.000002
# 6 0.000007 0.000002 -0.000038 -0.000030 -0.000002 -1.165173
#
#
# Mechanical properties :
#
#
# Convention : Reuss Voigt Hill
#
# Bulk Modulus (GPa) = 31.31850 36.86796 34.09323
# Shear Modulus (GPa) = -5.41475 18.97453 6.77989
#
# Velocity S-wave (km/s) = -1.67157 3.12910 1.87045
# Velocity P-wave (km/s) = 3.52641 5.66390 4.71780
#
# Compressibility (1/GPa) = 0.03193001
#
# Stress axis : x y z
#
# Youngs Moduli (GPa) = 84.29226 42.35191 90.42708
#
# Poissons Ratio (x) = 0.06553 0.23324
# Poissons Ratio (y) = 0.13041 0.28714
# Poissons Ratio (z) = 0.21742 0.13448
#
# Static dielectric constant tensor:
#      x y z
#    x 1.679490 0.000000 0.000000 
#    y 0.000000 1.655260 0.000000 
#    z 0.000000 0.000000 1.685320 
# 
# From -- ./inp_files/1430.got.cif
#   From: 2010.05.17/outbox.cif.g08.bks.cpg/sg45_1_cif.got.tgz:1430.got - 2010.06.03 19:51:22.
