data_PCOD9376582
_publ_section_title
;
Structure prediction by ZEFSAII (Michael W. Deem and Ramdas Pophale) SiO2 
 PCOD9376582
Probable space group: I B A 2
;
_chemical_formula_sum "Si O2"
_cell_formula_units_Z 44
_cell_length_a 8.444460
_cell_length_b 27.803905
_cell_length_c 8.846739
_cell_angle_alpha 90.000000
_cell_angle_beta 90.000000
_cell_angle_gamma 90.000000
_cell_volume 2077.116681
_symmetry_space_group_name_H-M "I B A 2"
_symmetry_group_IT_number 45
_symmetry_cell_setting 'orthorhombic'
loop_
_space_group_symop_operation_xyz
x,y,z
-x,-y,z
-x,y,1/2+z
x,-y,1/2+z
1/2+x,1/2+y,1/2+z
1/2-x,1/2-y,1/2+z
1/2-x,1/2+y,z
1/2+x,1/2-y,z
loop_
_atom_site_type_symbol
_atom_site_label
_atom_site_fract_x
_atom_site_fract_y
_atom_site_fract_z
Si Si1 0.839895 0.779109 0.148860
Si Si2 0.645656 0.435841 0.221748
Si Si3 0.394197 0.353652 0.146441
Si Si4 0.170826 0.643139 0.361010
Si Si5 0.162735 0.690159 0.859778
Si Si6 0.500000 0.500000 0.982249
O O1 0.751329 0.813290 0.268742
O O2 0.867740 0.727556 0.223359
O O3 0.005142 0.805499 0.113907
O O4 0.732814 0.780398 0.999919
O O5 0.518002 0.396002 0.170675
O O6 0.802564 0.405124 0.261023
O O7 0.582934 0.461614 0.372730
O O8 0.632393 0.475367 0.089697
O O9 0.299364 0.345089 0.300894
O O10 0.271391 0.363378 0.013217
O O11 0.993257 0.659769 0.394623
#
# Coordination Sequence:
#
# PCOD9376582 Si02
#       6
#     8   8   8   8   8   4
#     4  11  24  41  63  90 128 182 228 261 318 399
#     4  10  21  40  70 103 125 170 219 266 330 401
#     4  11  23  41  63  93 130 169 222 268 320 405
#     4  11  23  40  62  98 133 171 219 281 331 387
#     4  12  25  41  65  92 134 176 221 279 331 377
#     4  10  20  40  74 100 128 172 226 268 318 426
#
# _framework density 21.183209999999999
#
# number of rings (size 3 to 8) (size 9 to 14) (size 15 to 20)
#    0.000    1.091    1.818    5.455    2.545    4.364 
#    0.000    1.818    0.000    6.545    0.000    0.000 
#    0.000    0.000    0.000    0.000    0.000    0.000 
#
# Total GULP energy -123093.045623 kJ/mol
# GULP energy per Si atom -5595.138437 kJ/mol
# Density = 2.113500 g / cm^3
# Si number density = 21.183210 Si / 1000 Ang^3
#
#
#
# Elastic Constant Matrix: (Units=GPa)
#
#
# Indices 1 2 3 4 5 6 
#
# 1 109.4769 25.6298 31.7177 -0.0004 0.0001 -0.0028
# 2 25.6298 67.0600 27.0356 -0.0002 -0.0003 -0.0020
# 3 31.7177 27.0356 106.1711 -0.0039 0.0017 -0.0080
# 4 -0.0004 -0.0002 -0.0039 39.2843 0.0000 -0.0019
# 5 0.0001 -0.0003 0.0017 0.0000 26.5893 0.0000
# 6 -0.0028 -0.0020 -0.0080 -0.0019 0.0000 9.0279
#
#
#
# Elastic Compliance Matrix: (Units=1/GPa)
#
#
# Indices 1 2 3 4 5 6 
#
# 1 0.010539 -0.003074 -0.002366 0.000000 0.000000 0.000000
# 2 -0.003074 0.017515 -0.003542 0.000000 0.000000 0.000000
# 3 -0.002366 -0.003542 0.011027 0.000001 -0.000001 0.000008
# 4 0.000000 0.000000 0.000001 0.025455 0.000000 0.000005
# 5 0.000000 0.000000 -0.000001 0.000000 0.037609 0.000000
# 6 0.000000 0.000000 0.000008 0.000005 0.000000 0.110768
#
#
# Mechanical properties :
#
#
# Convention : Reuss Voigt Hill
#
# Bulk Modulus (GPa) = 47.35217 50.16378 48.75797
# Shear Modulus (GPa) = 21.01575 28.20196 24.60886
#
# Velocity S-wave (km/s) = 3.15317 3.65271 3.41209
# Velocity P-wave (km/s) = 5.97150 6.44376 6.21212
#
# Compressibility (1/GPa) = 0.02111836
#
# Stress axis : x y z
#
# Youngs Moduli (GPa) = 94.88132 57.09451 90.68377
#
# Poissons Ratio (x) = 0.17553 0.21453
# Poissons Ratio (y) = 0.29170 0.32116
# Poissons Ratio (z) = 0.22446 0.20220
#
# Static dielectric constant tensor:
#      x y z
#    x 1.764010 0.000000 0.000000 
#    y 0.000000 1.777950 0.000000 
#    z 0.000000 0.000000 1.796860 
# 
# From -- ./inp_files/1028.got.cif
#   From: 2010.05.17/outbox.cif.g08.bks.cpg/sg45_1_cif.got.tgz:1028.got - 2010.06.03 19:51:22.
