data_PCOD9376736
_publ_section_title
;
Structure prediction by ZEFSAII (Michael W. Deem and Ramdas Pophale) SiO2 
 PCOD9376736
Probable space group: I B A 2
;
_chemical_formula_sum "Si O2"
_cell_formula_units_Z 64
_cell_length_a 21.384204
_cell_length_b 9.106773
_cell_length_c 14.090728
_cell_angle_alpha 90.000000
_cell_angle_beta 90.000000
_cell_angle_gamma 90.000000
_cell_volume 2744.043752
_symmetry_space_group_name_H-M "I B A 2"
_symmetry_group_IT_number 45
_symmetry_cell_setting 'orthorhombic'
loop_
_space_group_symop_operation_xyz
x,y,z
-x,-y,z
-x,y,1/2+z
x,-y,1/2+z
1/2+x,1/2+y,1/2+z
1/2-x,1/2-y,1/2+z
1/2-x,1/2+y,z
1/2+x,1/2-y,z
loop_
_atom_site_type_symbol
_atom_site_label
_atom_site_fract_x
_atom_site_fract_y
_atom_site_fract_z
Si Si1 0.696933 0.525491 0.269620
Si Si2 0.704615 0.162949 0.425854
Si Si3 0.446354 0.379999 0.248826
Si Si4 0.902442 0.378224 0.798969
Si Si5 0.706278 0.200194 0.192238
Si Si6 0.565214 0.162931 0.912161
Si Si7 0.012405 0.671724 0.627161
Si Si8 0.694706 0.858708 0.493259
O O1 0.741525 0.588688 0.355638
O O2 0.622876 0.555515 0.267556
O O3 0.708572 0.353428 0.248330
O O4 0.726965 0.623579 0.185609
O O5 0.692478 0.034111 0.501501
O O6 0.636825 0.202321 0.381797
O O7 0.737950 0.305354 0.462917
O O8 0.500000 0.500000 0.736158
O O9 0.461443 0.284083 0.342428
O O10 0.453513 0.272242 0.156983
O O11 0.840616 0.421629 0.738054
O O12 0.940084 0.297390 0.715687
O O13 0.936782 0.507132 0.855692
O O14 0.680056 0.226916 0.088769
O O15 0.536684 0.178878 0.018193
O O16 0.640058 0.181512 0.920877
O O17 0.000000 0.500000 0.640878
#
# Coordination Sequence:
#
# PCOD9376736 Si02
#       8
#     8   8   8   8   8   8   8   8
#     4  11  24  44  69 101 139 194 233 303 370 448
#     4  10  21  38  69  97 140 178 229 288 377 423
#     4  12  28  49  72 102 154 200 250 308 376 442
#     4  10  22  43  72 103 140 184 236 311 369 436
#     4  11  23  41  74 104 142 182 238 299 383 438
#     4  11  25  47  71 104 146 186 250 305 367 450
#     4  12  26  47  78 103 139 196 258 306 366 447
#     4  11  21  41  65 105 140 176 227 300 356 445
#
# _framework density 23.323243000000002
#
# number of rings (size 3 to 8) (size 9 to 14) (size 15 to 20)
#    0.000    1.000    3.750    3.000    5.250    0.500 
#    4.500    0.000    0.000    0.000    0.000    0.000 
#    0.000    0.000    0.000    0.000    0.000    0.000 
#
# Total GULP energy -178163.181675 kJ/mol
# GULP energy per Si atom -5567.599427 kJ/mol
# Density = 2.327016 g / cm^3
# Si number density = 23.323243 Si / 1000 Ang^3
#
#
#
# Elastic Constant Matrix: (Units=GPa)
#
#
# Indices 1 2 3 4 5 6 
#
# 1 103.3932 33.6408 26.2499 0.0000 0.0000 0.0000
# 2 33.6408 97.4658 30.8725 0.0000 0.0000 0.0000
# 3 26.2499 30.8725 101.1693 0.0000 0.0000 0.0000
# 4 0.0000 0.0000 0.0000 16.2728 0.0000 0.0000
# 5 0.0000 0.0000 0.0000 0.0000 29.3469 0.0000
# 6 0.0000 0.0000 0.0000 0.0000 0.0000 24.8819
#
#
#
# Elastic Compliance Matrix: (Units=1/GPa)
#
#
# Indices 1 2 3 4 5 6 
#
# 1 0.011221 -0.003266 -0.001915 0.000000 0.000000 0.000000
# 2 -0.003266 0.012309 -0.002909 0.000000 0.000000 0.000000
# 3 -0.001915 -0.002909 0.011269 0.000000 0.000000 0.000000
# 4 0.000000 0.000000 0.000000 0.061452 0.000000 0.000000
# 5 0.000000 0.000000 0.000000 0.000000 0.034075 0.000000
# 6 0.000000 0.000000 0.000000 0.000000 0.000000 0.040190
#
#
# Mechanical properties :
#
#
# Convention : Reuss Voigt Hill
#
# Bulk Modulus (GPa) = 53.70863 53.72831 53.71847
# Shear Modulus (GPa) = 25.92004 28.18465 27.05235
#
# Velocity S-wave (km/s) = 3.33729 3.48003 3.40941
# Velocity P-wave (km/s) = 6.15857 6.26369 6.21135
#
# Compressibility (1/GPa) = 0.01861898
#
# Stress axis : x y z
#
# Youngs Moduli (GPa) = 89.12103 81.24312 88.74084
#
# Poissons Ratio (x) = 0.26537 0.16990
# Poissons Ratio (y) = 0.29111 0.25811
# Poissons Ratio (z) = 0.17063 0.23630
#
# Static dielectric constant tensor:
#      x y z
#    x 1.959840 0.000000 0.000000 
#    y 0.000000 1.897750 0.000000 
#    z 0.000000 0.000000 2.025870 
# 
# From -- ./inp_files/7053.got.cif
#   From: 2010.05.17/outbox.cif.g08.bks.cpg/sg45_4_cif.got.tgz:7053.got - 2010.06.03 19:51:22.
