data_PCOD9376863
_publ_section_title
;
Structure prediction by ZEFSAII (Michael W. Deem and Ramdas Pophale) SiO2 
 PCOD9376863
Probable space group: I B A 2
;
_chemical_formula_sum "Si O2"
_cell_formula_units_Z 64
_cell_length_a 24.003748
_cell_length_b 11.739389
_cell_length_c 10.981856
_cell_angle_alpha 90.000000
_cell_angle_beta 90.000000
_cell_angle_gamma 90.000000
_cell_volume 3094.569902
_symmetry_space_group_name_H-M "I B A 2"
_symmetry_group_IT_number 45
_symmetry_cell_setting 'orthorhombic'
loop_
_space_group_symop_operation_xyz
x,y,z
-x,-y,z
-x,y,1/2+z
x,-y,1/2+z
1/2+x,1/2+y,1/2+z
1/2-x,1/2-y,1/2+z
1/2-x,1/2+y,z
1/2+x,1/2-y,z
loop_
_atom_site_type_symbol
_atom_site_label
_atom_site_fract_x
_atom_site_fract_y
_atom_site_fract_z
Si Si1 0.853911 0.840151 0.444160
Si Si2 0.858300 0.069010 0.313230
Si Si3 0.799694 0.760345 0.669348
Si Si4 0.678911 0.803729 0.733215
Si Si5 0.871268 0.461835 0.230996
Si Si6 0.391499 0.719033 0.020727
Si Si7 0.438247 0.950292 0.988823
Si Si8 0.064639 0.977799 0.109969
O O1 0.807529 0.775317 0.524336
O O2 0.862097 0.756662 0.330122
O O3 0.907518 0.878041 0.526341
O O4 0.836659 0.961142 0.386382
O O5 0.818244 0.111830 0.208355
O O6 0.866068 0.179651 0.394524
O O7 0.917409 0.044241 0.249101
O O8 0.739708 0.748337 0.730380
O O9 0.840459 0.657360 0.705672
O O10 0.655191 0.777480 0.600709
O O11 0.674574 0.938582 0.748936
O O12 0.906691 0.463065 0.357682
O O13 0.907177 0.494233 0.108142
O O14 0.439138 0.813497 0.010413
O O15 0.408170 0.598811 0.077748
O O16 0.500000 0.000000 0.980404
O O17 0.000000 0.000000 0.092126
#
# Coordination Sequence:
#
# PCOD9376863 Si02
#       8
#     8   8   8   8   8   8   8   8
#     4  10  23  43  66  99 137 168 226 276 332 415
#     4  10  21  42  67  95 139 164 221 281 328 405
#     4  11  25  42  70  96 134 182 216 282 344 399
#     4  11  25  42  67  98 135 179 219 280 338 400
#     4  11  25  45  67 103 135 171 239 274 331 422
#     4  10  22  43  62  96 135 167 221 280 320 413
#     4  11  24  46  70  95 135 183 223 283 341 391
#     4  10  22  41  68 100 131 176 218 275 349 397
#
# _framework density 20.681387000000001
#
# number of rings (size 3 to 8) (size 9 to 14) (size 15 to 20)
#    0.000    1.500    2.500    1.125    3.500    5.000 
#    4.500    0.000    0.000    0.000    0.000    0.000 
#    0.000    0.000    0.000    0.000    0.000    0.000 
#
# Total GULP energy -178216.312722 kJ/mol
# GULP energy per Si atom -5569.259773 kJ/mol
# Density = 2.063432 g / cm^3
# Si number density = 20.681387 Si / 1000 Ang^3
#
#
#
# Elastic Constant Matrix: (Units=GPa)
#
#
# Indices 1 2 3 4 5 6 
#
# 1 67.5574 13.0950 21.8940 0.0000 0.0000 0.0000
# 2 13.0950 97.7705 35.1138 0.0000 0.0000 0.0000
# 3 21.8940 35.1138 106.9933 0.0000 0.0000 0.0000
# 4 0.0000 0.0000 0.0000 261.5905 0.0000 0.0000
# 5 0.0000 0.0000 0.0000 0.0000 -34.9895 0.0000
# 6 0.0000 0.0000 0.0000 0.0000 0.0000 25.6120
#
#
#
# Elastic Compliance Matrix: (Units=1/GPa)
#
#
# Indices 1 2 3 4 5 6 
#
# 1 0.015956 -0.001093 -0.002906 0.000000 0.000000 0.000000
# 2 -0.001093 0.011670 -0.003606 0.000000 0.000000 0.000000
# 3 -0.002906 -0.003606 0.011125 0.000000 0.000000 0.000000
# 4 0.000000 0.000000 0.000000 0.003823 0.000000 0.000000
# 5 0.000000 0.000000 0.000000 0.000000 -0.028580 0.000000
# 6 0.000000 0.000000 0.000000 0.000000 0.000000 0.039044
#
#
# Mechanical properties :
#
#
# Convention : Reuss Voigt Hill
#
# Bulk Modulus (GPa) = 42.48299 45.83630 44.15964
# Shear Modulus (GPa) = 65.70756 63.92382 64.81569
#
# Velocity S-wave (km/s) = 5.64272 5.56561 5.60430
# Velocity P-wave (km/s) = 7.93977 7.96947 7.95464
#
# Compressibility (1/GPa) = 0.02353883
#
# Stress axis : x y z
#
# Youngs Moduli (GPa) = 62.67228 85.69295 89.89126
#
# Poissons Ratio (x) = 0.09369 0.26125
# Poissons Ratio (y) = 0.06852 0.32415
# Poissons Ratio (z) = 0.18214 0.30902
#
# Static dielectric constant tensor:
#      x y z
#    x 2.103790 0.000000 0.000000 
#    y 0.000000 1.673650 0.000000 
#    z 0.000000 0.000000 1.819560 
# 
# From -- ./inp_files/4807.got.cif
#   From: 2010.05.17/outbox.cif.g08.bks.cpg/sg45_3_cif.got.tgz:4807.got - 2010.06.03 19:51:22.
