data_PCOD9376387
_publ_section_title
;
Structure prediction by ZEFSAII (Michael W. Deem and Ramdas Pophale) SiO2 
 PCOD9376387
Probable space group: I B A 2
;
_chemical_formula_sum "Si O2"
_cell_formula_units_Z 60
_cell_length_a 22.841561
_cell_length_b 9.819529
_cell_length_c 12.489793
_cell_angle_alpha 90.000000
_cell_angle_beta 90.000000
_cell_angle_gamma 90.000000
_cell_volume 2801.377771
_symmetry_space_group_name_H-M "I B A 2"
_symmetry_group_IT_number 45
_symmetry_cell_setting 'orthorhombic'
loop_
_space_group_symop_operation_xyz
x,y,z
-x,-y,z
-x,y,1/2+z
x,-y,1/2+z
1/2+x,1/2+y,1/2+z
1/2-x,1/2-y,1/2+z
1/2-x,1/2+y,z
1/2+x,1/2-y,z
loop_
_atom_site_type_symbol
_atom_site_label
_atom_site_fract_x
_atom_site_fract_y
_atom_site_fract_z
Si Si1 0.064679 0.240420 0.416410
Si Si2 0.935321 0.240420 0.159448
Si Si3 0.319571 0.369833 0.842435
Si Si4 0.306086 0.147300 0.660002
Si Si5 0.680429 0.369833 0.733423
Si Si6 0.500000 0.500000 0.287929
Si Si7 0.193914 0.647300 0.415856
Si Si8 0.904330 0.500000 0.787929
O O1 0.044272 0.265913 0.537929
O O2 0.134012 0.204700 0.416708
O O3 0.060931 0.373542 0.339871
O O4 0.033950 0.107959 0.364689
O O5 0.865988 0.204700 0.159151
O O6 0.966050 0.107959 0.211169
O O7 0.939068 0.373542 0.235987
O O8 0.307599 0.270465 0.743166
O O9 0.348090 0.500000 0.787929
O O10 0.258982 0.413251 0.898335
O O11 0.241018 0.086749 0.677523
O O12 0.312739 0.189622 0.537929
O O13 0.359536 0.051977 0.695738
O O14 0.692401 0.270465 0.832692
O O15 0.140464 0.551977 0.380120
#
# Coordination Sequence:
#
# PCOD9376387 Si02
#       8
#     8   8   8   8   8   4   8   8
#     4  11  24  45  69  93 128 169 207 271 328 369
#     4  11  24  45  69  93 128 169 207 271 328 369
#     4  10  20  38  55  91 129 163 214 252 297 381
#     4  10  20  34  58  90 129 169 201 247 302 364
#     4  10  20  38  55  91 129 163 214 252 297 381
#     4  12  26  48  68  98 124 152 222 268 328 410
#     4  10  20  34  58  90 129 169 201 247 302 364
#     4  10  22  42  64  96 130 160 220 252 300 392
#
# _framework density 21.418033000000001
#
# number of rings (size 3 to 8) (size 9 to 14) (size 15 to 20)
#    0.000    1.600    2.667    2.000    0.000    2.667 
#    0.000    5.333    0.000    0.000    0.000    0.000 
#    0.000    0.000    0.000    0.000    0.000    0.000 
#
# Total GULP energy -167348.881402 kJ/mol
# GULP energy per Si atom -5578.296047 kJ/mol
# Density = 2.136928 g / cm^3
# Si number density = 21.418033 Si / 1000 Ang^3
#
#
#
# Elastic Constant Matrix: (Units=GPa)
#
#
# Indices 1 2 3 4 5 6 
#
# 1 71.2222 46.5581 53.6796 0.0000 0.0000 0.0000
# 2 46.5581 134.8792 38.7715 0.0000 0.0000 0.0000
# 3 53.6796 38.7715 138.6961 0.0000 0.0000 0.0000
# 4 0.0000 0.0000 0.0000 4.9850 0.0000 0.0000
# 5 0.0000 0.0000 0.0000 0.0000 8.5450 0.0000
# 6 0.0000 0.0000 0.0000 0.0000 0.0000 23.4612
#
#
#
# Elastic Compliance Matrix: (Units=1/GPa)
#
#
# Indices 1 2 3 4 5 6 
#
# 1 0.023574 -0.005996 -0.007447 0.000000 0.000000 0.000000
# 2 -0.005996 0.009587 -0.000359 0.000000 0.000000 0.000000
# 3 -0.007447 -0.000359 0.010193 0.000000 0.000000 0.000000
# 4 0.000000 0.000000 0.000000 0.200600 0.000000 0.000000
# 5 0.000000 0.000000 0.000000 0.000000 0.117027 0.000000
# 6 0.000000 0.000000 0.000000 0.000000 0.000000 0.042624
#
#
# Mechanical properties :
#
#
# Convention : Reuss Voigt Hill
#
# Bulk Modulus (GPa) = 63.50265 69.20176 66.35221
# Shear Modulus (GPa) = 11.45582 21.11747 16.28664
#
# Velocity S-wave (km/s) = 2.31523 3.14342 2.76056
# Velocity P-wave (km/s) = 6.07129 6.74944 6.41933
#
# Compressibility (1/GPa) = 0.01574737
#
# Stress axis : x y z
#
# Youngs Moduli (GPa) = 42.42051 104.30604 98.10849
#
# Poissons Ratio (x) = 0.62546 0.73065
# Poissons Ratio (y) = 0.25437 0.03524
# Poissons Ratio (z) = 0.31592 0.03747
#
# Static dielectric constant tensor:
#      x y z
#    x 1.838790 0.000000 0.000000 
#    y 0.000000 1.788180 0.000000 
#    z 0.000000 0.000000 1.738510 
# 
# From -- ./inp_files/4892.got.cif
#   From: 2010.05.17/outbox.cif.g08.bks.cpg/sg45_3_cif.got.tgz:4892.got - 2010.06.03 19:51:22.
