data_PCOD9376253
_publ_section_title
;
Structure prediction by ZEFSAII (Michael W. Deem and Ramdas Pophale) SiO2 
 PCOD9376253
Probable space group: I B A 2
;
_chemical_formula_sum "Si O2"
_cell_formula_units_Z 64
_cell_length_a 9.255827
_cell_length_b 15.397519
_cell_length_c 21.083030
_cell_angle_alpha 90.000000
_cell_angle_beta 90.000000
_cell_angle_gamma 90.000000
_cell_volume 3004.685382
_symmetry_space_group_name_H-M "I B A 2"
_symmetry_group_IT_number 45
_symmetry_cell_setting 'orthorhombic'
loop_
_space_group_symop_operation_xyz
x,y,z
-x,-y,z
-x,y,1/2+z
x,-y,1/2+z
1/2+x,1/2+y,1/2+z
1/2-x,1/2-y,1/2+z
1/2-x,1/2+y,z
1/2+x,1/2-y,z
loop_
_atom_site_type_symbol
_atom_site_label
_atom_site_fract_x
_atom_site_fract_y
_atom_site_fract_z
Si Si1 0.989353 0.313762 0.227810
Si Si2 0.865085 0.565270 0.318810
Si Si3 0.243132 0.448421 0.706111
Si Si4 0.163176 0.977531 0.428129
Si Si5 0.069474 0.823162 0.514686
Si Si6 0.269060 0.150231 0.488031
Si Si7 0.827970 0.412545 0.621937
Si Si8 0.004114 0.144004 0.655377
O O1 0.071625 0.345442 0.290647
O O2 0.076795 0.355048 0.168747
O O3 0.975312 0.214809 0.210125
O O4 0.835057 0.360793 0.227675
O O5 0.778702 0.518009 0.261612
O O6 0.759246 0.573380 0.377499
O O7 0.000000 0.500000 0.331629
O O8 0.161182 0.488657 0.645223
O O9 0.402001 0.427449 0.685203
O O10 0.135960 0.914159 0.488635
O O11 0.247230 0.068403 0.440928
O O12 0.000000 0.000000 0.405623
O O13 0.145109 0.740963 0.480513
O O14 0.077129 0.820887 0.591577
O O15 0.898048 0.823684 0.500801
O O16 0.348346 0.107491 0.548864
O O17 0.660082 0.388456 0.634305
#
# Coordination Sequence:
#
# PCOD9376253 Si02
#       8
#     8   8   8   8   8   8   8   8
#     4  10  20  36  57  86 119 155 192 249 298 353
#     4   9  21  41  59  82 118 157 210 250 290 355
#     4  10  21  36  58  85 118 157 200 244 299 360
#     4  10  22  42  64  85 119 167 207 254 301 352
#     4  10  22  38  62  91 126 156 202 253 300 372
#     4  10  21  39  59  91 122 157 203 249 305 363
#     4  10  19  34  56  86 119 152 192 241 301 367
#     4  11  20  34  59  90 124 151 190 246 311 363
#
# _framework density 21.300069000000001
#
# number of rings (size 3 to 8) (size 9 to 14) (size 15 to 20)
#    0.000    2.000    1.250    3.000    1.750    5.000 
#    2.250    1.250    0.000    0.000    0.000    0.000 
#    0.000    0.000    0.000    0.000    0.000    0.000 
#
# Total GULP energy -178513.150788 kJ/mol
# GULP energy per Si atom -5578.535962 kJ/mol
# Density = 2.125159 g / cm^3
# Si number density = 21.300069 Si / 1000 Ang^3
#
#
#
# Elastic Constant Matrix: (Units=GPa)
#
#
# Indices 1 2 3 4 5 6 
#
# 1 40.1868 12.0774 24.9999 0.0000 0.0000 0.0000
# 2 12.0774 82.4996 9.3804 0.0000 0.0000 0.0000
# 3 24.9999 9.3804 51.2350 0.0000 0.0000 0.0000
# 4 0.0000 0.0000 0.0000 13.3868 0.0000 0.0000
# 5 0.0000 0.0000 0.0000 0.0000 25.6173 0.0000
# 6 0.0000 0.0000 0.0000 0.0000 0.0000 27.5973
#
#
#
# Elastic Compliance Matrix: (Units=1/GPa)
#
#
# Indices 1 2 3 4 5 6 
#
# 1 0.036641 -0.003402 -0.017256 0.000000 0.000000 0.000000
# 2 -0.003402 0.012695 -0.000664 0.000000 0.000000 0.000000
# 3 -0.017256 -0.000664 0.028059 0.000000 0.000000 0.000000
# 4 0.000000 0.000000 0.000000 0.074701 0.000000 0.000000
# 5 0.000000 0.000000 0.000000 0.000000 0.039036 0.000000
# 6 0.000000 0.000000 0.000000 0.000000 0.000000 0.036235
#
#
# Mechanical properties :
#
#
# Convention : Reuss Voigt Hill
#
# Bulk Modulus (GPa) = 28.77620 29.64854 29.21237
# Shear Modulus (GPa) = 17.75598 21.81786 19.78692
#
# Velocity S-wave (km/s) = 2.89036 3.20396 3.05119
# Velocity P-wave (km/s) = 4.96771 5.25707 5.11444
#
# Compressibility (1/GPa) = 0.03475094
#
# Stress axis : x y z
#
# Youngs Moduli (GPa) = 27.29188 78.77225 35.63864
#
# Poissons Ratio (x) = 0.26798 0.61498
# Poissons Ratio (y) = 0.09285 0.02367
# Poissons Ratio (z) = 0.47095 0.05233
#
# Static dielectric constant tensor:
#      x y z
#    x 1.793570 0.000000 0.000000 
#    y 0.000000 1.798330 0.000000 
#    z 0.000000 0.000000 1.771820 
# 
# From -- ./inp_files/9612.got.cif
#   From: 2010.05.17/outbox.cif.g08.bks.cpg/sg45_5_cif.got.tgz:9612.got - 2010.06.03 19:51:22.
