data_PCOD9376917
_publ_section_title
;
Structure prediction by ZEFSAII (Michael W. Deem and Ramdas Pophale) SiO2 
 PCOD9376917
Probable space group: I B A 2
;
_chemical_formula_sum "Si O2"
_cell_formula_units_Z 52
_cell_length_a 24.665289
_cell_length_b 12.140052
_cell_length_c 9.183179
_cell_angle_alpha 90.000000
_cell_angle_beta 90.000000
_cell_angle_gamma 90.000000
_cell_volume 2749.791753
_symmetry_space_group_name_H-M "I B A 2"
_symmetry_group_IT_number 45
_symmetry_cell_setting 'orthorhombic'
loop_
_space_group_symop_operation_xyz
x,y,z
-x,-y,z
-x,y,1/2+z
x,-y,1/2+z
1/2+x,1/2+y,1/2+z
1/2-x,1/2-y,1/2+z
1/2-x,1/2+y,z
1/2+x,1/2-y,z
loop_
_atom_site_type_symbol
_atom_site_label
_atom_site_fract_x
_atom_site_fract_y
_atom_site_fract_z
Si Si1 0.572797 0.924431 0.201890
Si Si2 0.693862 0.426731 0.957218
Si Si3 0.669774 0.780816 0.312213
Si Si4 0.205112 0.856365 0.777136
Si Si5 0.190266 0.620634 0.855938
Si Si6 0.344949 0.939672 0.070475
Si Si7 0.000000 0.500000 0.961047
O O1 0.621986 0.837462 0.218283
O O2 0.601255 0.042153 0.164353
O O3 0.540961 0.936963 0.352778
O O4 0.531191 0.915307 0.068190
O O5 0.662505 0.348892 0.841430
O O6 0.698656 0.551599 0.902113
O O7 0.753735 0.376202 0.939935
O O8 0.682231 0.406494 0.126675
O O9 0.730890 0.817737 0.264184
O O10 0.662557 0.834026 0.472483
O O11 0.173641 0.744730 0.822131
O O12 0.199575 0.563325 0.698199
O O13 0.155901 0.539906 0.956786
#
# Coordination Sequence:
#
# PCOD9376917 Si02
#       7
#     8   8   8   8   8   8   4
#     4  11  20  36  55  84 110 150 173 234 295 362
#     4  11  22  36  49  74 111 159 202 238 266 320
#     4  11  22  33  55  76 114 155 191 230 283 338
#     4  11  24  35  52  78 118 159 205 235 264 310
#     4  11  22  34  52  78 111 155 197 233 273 325
#     4  12  19  36  55  79 113 151 187 227 285 345
#     4  10  22  34  56  82 118 134 180 234 302 364
#
# _framework density 18.910523000000001
#
# number of rings (size 3 to 8) (size 9 to 14) (size 15 to 20)
#    0.000    0.923    6.154    1.846    0.000    2.462 
#    0.000    0.000    0.000    0.000    0.000    0.000 
#    0.000   41.846    0.000    0.000    0.000    0.000 
#
# Total GULP energy -144823.319071 kJ/mol
# GULP energy per Si atom -5570.127657 kJ/mol
# Density = 1.886748 g / cm^3
# Si number density = 18.910523 Si / 1000 Ang^3
#
#
#
# Elastic Constant Matrix: (Units=GPa)
#
#
# Indices 1 2 3 4 5 6 
#
# 1 45.3293 6.6123 4.7930 0.0000 0.0000 0.0000
# 2 6.6123 108.8710 38.9737 0.0000 0.0000 0.0000
# 3 4.7930 38.9737 110.6664 0.0000 0.0000 0.0000
# 4 0.0000 0.0000 0.0000 15.9260 0.0000 0.0000
# 5 0.0000 0.0000 0.0000 0.0000 31.0322 0.0000
# 6 0.0000 0.0000 0.0000 0.0000 0.0000 9.7006
#
#
#
# Elastic Compliance Matrix: (Units=1/GPa)
#
#
# Indices 1 2 3 4 5 6 
#
# 1 0.022288 -0.001154 -0.000559 0.000000 0.000000 0.000000
# 2 -0.001154 0.010570 -0.003672 0.000000 0.000000 0.000000
# 3 -0.000559 -0.003672 0.010354 0.000000 0.000000 0.000000
# 4 0.000000 0.000000 0.000000 0.062790 0.000000 0.000000
# 5 0.000000 0.000000 0.000000 0.000000 0.032225 0.000000
# 6 0.000000 0.000000 0.000000 0.000000 0.000000 0.103086
#
#
# Mechanical properties :
#
#
# Convention : Reuss Voigt Hill
#
# Bulk Modulus (GPa) = 30.82454 40.62495 35.72475
# Shear Modulus (GPa) = 19.01884 25.63095 22.32490
#
# Velocity S-wave (km/s) = 3.17476 3.68554 3.43965
# Velocity P-wave (km/s) = 5.45659 6.29606 5.89130
#
# Compressibility (1/GPa) = 0.03244168
#
# Stress axis : x y z
#
# Youngs Moduli (GPa) = 44.86681 94.60808 96.58362
#
# Poissons Ratio (x) = 0.10913 0.05400
# Poissons Ratio (y) = 0.05176 0.35470
# Poissons Ratio (z) = 0.02508 0.34745
#
# Static dielectric constant tensor:
#      x y z
#    x 1.756310 0.000000 0.000000 
#    y 0.000000 1.728110 0.000000 
#    z 0.000000 0.000000 1.720590 
# 
# From -- ./inp_files/1408.got.cif
#   From: 2010.05.17/outbox.cif.g08.bks.cpg/sg45_1_cif.got.tgz:1408.got - 2010.06.03 19:51:22.
