data_PCOD9376947
_publ_section_title
;
Structure prediction by ZEFSAII (Michael W. Deem and Ramdas Pophale) SiO2 
 PCOD9376947
Probable space group: I B A 2
;
_chemical_formula_sum "Si O2"
_cell_formula_units_Z 56
_cell_length_a 29.609724
_cell_length_b 5.492049
_cell_length_c 14.147867
_cell_angle_alpha 90.000000
_cell_angle_beta 90.000000
_cell_angle_gamma 90.000000
_cell_volume 2300.698615
_symmetry_space_group_name_H-M "I B A 2"
_symmetry_group_IT_number 45
_symmetry_cell_setting 'orthorhombic'
loop_
_space_group_symop_operation_xyz
x,y,z
-x,-y,z
-x,y,1/2+z
x,-y,1/2+z
1/2+x,1/2+y,1/2+z
1/2-x,1/2-y,1/2+z
1/2-x,1/2+y,z
1/2+x,1/2-y,z
loop_
_atom_site_type_symbol
_atom_site_label
_atom_site_fract_x
_atom_site_fract_y
_atom_site_fract_z
Si Si1 0.409912 0.000067 0.580070
Si Si2 0.271412 0.611256 0.944058
Si Si3 0.135607 0.853160 0.725435
Si Si4 0.453993 0.389669 0.185364
Si Si5 0.135603 0.853070 0.934567
Si Si6 0.046015 0.109816 0.974653
Si Si7 0.728581 0.388609 0.716093
O O1 0.443788 0.890062 0.660377
O O2 0.377017 0.828981 0.518802
O O3 0.376938 0.171193 0.641129
O O4 0.443854 0.110615 0.500027
O O5 0.258541 0.880891 0.978604
O O6 0.322509 0.524699 0.960150
O O7 0.265504 0.624586 0.830075
O O8 0.145183 0.740791 0.829994
O O9 0.177469 0.025108 0.699976
O O10 0.090644 0.013435 0.733737
O O11 0.500000 0.500000 0.226163
O O12 0.452678 0.499068 0.079899
O O13 0.090686 0.013730 0.926162
O O14 0.000000 0.000000 0.933667
O O15 0.741492 0.119050 0.681540
#
# Coordination Sequence:
#
# PCOD9376947 Si02
#       7
#     8   8   8   8   8   8   8
#     4  10  22  41  64  90 124 164 210 258 319 382
#     4   9  19  36  60  90 125 169 217 264 322 385
#     4  10  22  38  62  93 126 166 210 264 317 376
#     4   9  20  38  60  86 122 163 207 256 317 377
#     4  10  22  38  62  93 126 166 210 264 317 376
#     4   9  20  38  60  86 122 163 207 256 317 377
#     4   9  19  36  60  90 125 169 217 264 322 385
#
# _framework density 24.340433999999998
#
# number of rings (size 3 to 8) (size 9 to 14) (size 15 to 20)
#    0.000    2.571    0.000    0.000    4.000   10.857 
#    0.000    2.857    0.000    0.000    0.000    0.000 
#    0.000    0.000    0.000    0.000    0.000    0.000 
#
# Total GULP energy -156162.132271 kJ/mol
# GULP energy per Si atom -5577.219010 kJ/mol
# Density = 2.428503 g / cm^3
# Si number density = 24.340434 Si / 1000 Ang^3
#
#
#
# Elastic Constant Matrix: (Units=GPa)
#
#
# Indices 1 2 3 4 5 6 
#
# 1 168.6736 41.8234 28.3148 0.0000 0.0000 0.0000
# 2 41.8234 94.7741 32.9218 0.0000 0.0000 0.0000
# 3 28.3148 32.9218 111.1696 0.0000 0.0000 0.0000
# 4 0.0000 0.0000 0.0000 10.6119 0.0000 0.0000
# 5 0.0000 0.0000 0.0000 0.0000 18.1911 0.0000
# 6 0.0000 0.0000 0.0000 0.0000 0.0000 7.5049
#
#
#
# Elastic Compliance Matrix: (Units=1/GPa)
#
#
# Indices 1 2 3 4 5 6 
#
# 1 0.006743 -0.002652 -0.000932 0.000000 0.000000 0.000000
# 2 -0.002652 0.012804 -0.003116 0.000000 0.000000 0.000000
# 3 -0.000932 -0.003116 0.010156 0.000000 0.000000 0.000000
# 4 0.000000 0.000000 0.000000 0.094233 0.000000 0.000000
# 5 0.000000 0.000000 0.000000 0.000000 0.054972 0.000000
# 6 0.000000 0.000000 0.000000 0.000000 0.000000 0.133246
#
#
# Mechanical properties :
#
#
# Convention : Reuss Voigt Hill
#
# Bulk Modulus (GPa) = 61.34253 64.52636 62.93444
# Shear Modulus (GPa) = 15.10629 25.36541 20.23585
#
# Velocity S-wave (km/s) = 2.49394 3.23167 2.88647
# Velocity P-wave (km/s) = 5.79220 6.36337 6.08449
#
# Compressibility (1/GPa) = 0.01630190
#
# Stress axis : x y z
#
# Youngs Moduli (GPa) = 148.31132 78.09965 98.46822
#
# Poissons Ratio (x) = 0.20710 0.09178
# Poissons Ratio (y) = 0.39328 0.30687
# Poissons Ratio (z) = 0.13823 0.24339
#
# Static dielectric constant tensor:
#      x y z
#    x 1.933770 0.000000 0.000000 
#    y 0.000000 2.198300 0.000000 
#    z 0.000000 0.000000 2.845210 
# 
# From -- ./inp_files/5271.got.cif
#   From: 2010.05.17/outbox.cif.g08.bks.cpg/sg45_3_cif.got.tgz:5271.got - 2010.06.03 19:51:22.
