data_PCOD9376380
_publ_section_title
;
Structure prediction by ZEFSAII (Michael W. Deem and Ramdas Pophale) SiO2 
 PCOD9376380
Probable space group: I B A 2
;
_chemical_formula_sum "Si O2"
_cell_formula_units_Z 60
_cell_length_a 7.904069
_cell_length_b 31.345741
_cell_length_c 11.010165
_cell_angle_alpha 90.000000
_cell_angle_beta 90.000000
_cell_angle_gamma 90.000000
_cell_volume 2727.866366
_symmetry_space_group_name_H-M "I B A 2"
_symmetry_group_IT_number 45
_symmetry_cell_setting 'orthorhombic'
loop_
_space_group_symop_operation_xyz
x,y,z
-x,-y,z
-x,y,1/2+z
x,-y,1/2+z
1/2+x,1/2+y,1/2+z
1/2-x,1/2-y,1/2+z
1/2-x,1/2+y,z
1/2+x,1/2-y,z
loop_
_atom_site_type_symbol
_atom_site_label
_atom_site_fract_x
_atom_site_fract_y
_atom_site_fract_z
Si Si1 0.464568 0.265176 0.037490
Si Si2 0.500000 0.500000 0.548489
Si Si3 0.719213 0.945054 0.153534
Si Si4 0.842912 0.694217 0.151615
Si Si5 0.777897 0.697263 0.412445
Si Si6 0.868885 0.404586 0.650794
Si Si7 0.143644 0.082004 0.413827
Si Si8 0.213413 0.106485 0.907702
O O1 0.299266 0.294366 0.051933
O O2 0.516016 0.231127 0.142250
O O3 0.628568 0.291912 0.004347
O O4 0.423956 0.231199 0.932213
O O5 0.339255 0.486311 0.632188
O O6 0.439416 0.537792 0.460341
O O7 0.516501 0.939989 0.158454
O O8 0.779297 0.923884 0.280104
O O9 0.754793 0.921185 0.026437
O O10 0.730615 0.699163 0.272493
O O11 0.916208 0.646263 0.153800
O O12 0.825393 0.648361 0.429304
O O13 0.771889 0.408067 0.522881
O O14 0.759011 0.411085 0.774085
O O15 0.987815 0.115060 0.406400
#
# Coordination Sequence:
#
# PCOD9376380 Si02
#       8
#     8   4   8   8   8   8   8   8
#     4  10  20  34  54  81 116 158 204 254 309 360
#     4  10  24  44  66  94 126 162 198 250 318 386
#     4  11  23  42  67  95 125 160 203 255 311 375
#     4  10  21  37  56  84 120 159 205 256 307 363
#     4  10  20  35  54  80 115 157 203 253 306 364
#     4  11  23  40  64  95 127 164 214 263 310 372
#     4  11  23  42  66  92 124 164 205 252 313 380
#     4  10  21  39  62  90 125 165 209 256 314 374
#
# _framework density 21.995213
#
# number of rings (size 3 to 8) (size 9 to 14) (size 15 to 20)
#    0.000    1.600    0.000    5.200    0.000    3.733 
#    0.000    8.000    0.000    0.000    0.000    0.000 
#    0.000    0.000    0.000    0.000    0.000    0.000 
#
# Total GULP energy -167019.805476 kJ/mol
# GULP energy per Si atom -5567.326849 kJ/mol
# Density = 2.194515 g / cm^3
# Si number density = 21.995213 Si / 1000 Ang^3
#
#
#
# Elastic Constant Matrix: (Units=GPa)
#
#
# Indices 1 2 3 4 5 6 
#
# 1 83.7769 7.0894 30.4710 0.0000 0.0000 0.0000
# 2 7.0894 62.9640 17.7907 0.0000 0.0000 0.0000
# 3 30.4710 17.7907 125.6269 0.0001 0.0000 0.0000
# 4 0.0000 0.0000 0.0001 23.9656 0.0000 0.0000
# 5 0.0000 0.0000 0.0000 0.0000 38.9358 0.0000
# 6 0.0000 0.0000 0.0000 0.0000 0.0000 22.3634
#
#
#
# Elastic Compliance Matrix: (Units=1/GPa)
#
#
# Indices 1 2 3 4 5 6 
#
# 1 0.013113 -0.000602 -0.003095 0.000000 0.000000 0.000000
# 2 -0.000602 0.016572 -0.002201 0.000000 0.000000 0.000000
# 3 -0.003095 -0.002201 0.009023 0.000000 0.000000 0.000000
# 4 0.000000 0.000000 0.000000 0.041727 0.000000 0.000000
# 5 0.000000 0.000000 0.000000 0.000000 0.025683 0.000000
# 6 0.000000 0.000000 0.000000 0.000000 0.000000 0.044716
#
#
# Mechanical properties :
#
#
# Convention : Reuss Voigt Hill
#
# Bulk Modulus (GPa) = 37.15909 42.56334 39.86122
# Shear Modulus (GPa) = 29.13754 31.52072 30.32913
#
# Velocity S-wave (km/s) = 3.64362 3.78970 3.71738
# Velocity P-wave (km/s) = 5.88491 6.20824 6.04874
#
# Compressibility (1/GPa) = 0.02691132
#
# Stress axis : x y z
#
# Youngs Moduli (GPa) = 76.25880 60.34376 110.83344
#
# Poissons Ratio (x) = 0.03632 0.34307
# Poissons Ratio (y) = 0.04590 0.24393
# Poissons Ratio (z) = 0.23605 0.13281
#
# Static dielectric constant tensor:
#      x y z
#    x 1.891440 0.000000 0.000000 
#    y 0.000000 1.839030 0.000000 
#    z 0.000000 0.000000 1.863480 
# 
# From -- ./inp_files/3383.got.cif
#   From: 2010.05.17/outbox.cif.g08.bks.cpg/sg45_2_cif.got.tgz:3383.got - 2010.06.03 19:51:22.
