data_PCOD9376956
_publ_section_title
;
Structure prediction by ZEFSAII (Michael W. Deem and Ramdas Pophale) SiO2 
 PCOD9376956
Probable space group: I B A 2
;
_chemical_formula_sum "Si O2"
_cell_formula_units_Z 48
_cell_length_a 8.721684
_cell_length_b 17.460350
_cell_length_c 12.378657
_cell_angle_alpha 90.000000
_cell_angle_beta 90.000000
_cell_angle_gamma 90.000000
_cell_volume 1885.067135
_symmetry_space_group_name_H-M "I B A 2"
_symmetry_group_IT_number 45
_symmetry_cell_setting 'orthorhombic'
loop_
_space_group_symop_operation_xyz
x,y,z
-x,-y,z
-x,y,1/2+z
x,-y,1/2+z
1/2+x,1/2+y,1/2+z
1/2-x,1/2-y,1/2+z
1/2-x,1/2+y,z
1/2+x,1/2-y,z
loop_
_atom_site_type_symbol
_atom_site_label
_atom_site_fract_x
_atom_site_fract_y
_atom_site_fract_z
Si Si1 0.253678 0.081695 0.539260
Si Si2 0.410156 0.232497 0.335800
Si Si3 0.230858 0.100859 0.796430
Si Si4 0.000000 0.000000 0.419260
Si Si5 0.430845 0.282826 0.039683
Si Si6 0.180761 0.798857 0.691038
Si Si7 0.500000 0.000000 0.909755
O O1 0.253054 0.096107 0.667137
O O2 0.175546 0.155172 0.483913
O O3 0.413173 0.058573 0.488661
O O4 0.138599 0.016567 0.500460
O O5 0.308818 0.311448 0.331866
O O6 0.481714 0.229845 0.454724
O O7 0.299868 0.168901 0.279944
O O8 0.554850 0.247705 0.256053
O O9 0.375893 0.052529 0.844300
O O10 0.074677 0.060990 0.837555
O O11 0.308439 0.239014 0.113280
O O12 0.558970 0.332202 0.105566
#
# Coordination Sequence:
#
# PCOD9376956 Si02
#       7
#     8   8   8   4   8   8   4
#     4  11  21  44  67  97 137 173 222 269 341 392
#     4  11  22  43  67  97 132 181 220 276 328 397
#     4  11  21  44  67  97 137 173 222 269 341 392
#     4  10  22  38  72 102 128 174 218 274 332 406
#     4  11  22  43  67  97 132 181 220 276 328 397
#     4  10  22  42  64  94 134 171 228 267 332 378
#     4  10  26  42  68 106 132 178 214 286 328 398
#
# _framework density 25.463284000000002
#
# number of rings (size 3 to 8) (size 9 to 14) (size 15 to 20)
#    0.000    1.333    5.000    2.000    0.000    0.000 
#   15.000    0.000    3.667    0.000    0.000    0.000 
#    0.000    0.000    0.000    0.000    0.000    0.000 
#
# Total GULP energy -133724.575089 kJ/mol
# GULP energy per Si atom -5571.857295 kJ/mol
# Density = 2.540533 g / cm^3
# Si number density = 25.463284 Si / 1000 Ang^3
#
#
#
# Elastic Constant Matrix: (Units=GPa)
#
#
# Indices 1 2 3 4 5 6 
#
# 1 167.7356 36.1178 58.4671 0.0000 0.0000 0.0000
# 2 36.1178 59.4184 16.1073 -0.0001 0.0000 0.0000
# 3 58.4671 16.1073 148.9775 -0.0001 0.0000 0.0000
# 4 0.0000 -0.0001 -0.0001 20.6757 0.0000 0.0000
# 5 0.0000 0.0000 0.0000 0.0000 41.8304 0.0000
# 6 0.0000 0.0000 0.0000 0.0000 0.0000 39.0107
#
#
#
# Elastic Compliance Matrix: (Units=1/GPa)
#
#
# Indices 1 2 3 4 5 6 
#
# 1 0.007728 -0.003992 -0.002601 0.000000 0.000000 0.000000
# 2 -0.003992 0.019401 -0.000531 0.000000 0.000000 0.000000
# 3 -0.002601 -0.000531 0.007791 0.000000 0.000000 0.000000
# 4 0.000000 0.000000 0.000000 0.048366 0.000000 0.000000
# 5 0.000000 0.000000 0.000000 0.000000 0.023906 0.000000
# 6 0.000000 0.000000 0.000000 0.000000 0.000000 0.025634
#
#
# Mechanical properties :
#
#
# Convention : Reuss Voigt Hill
#
# Bulk Modulus (GPa) = 48.37820 66.39067 57.38444
# Shear Modulus (GPa) = 32.47501 37.99930 35.23715
#
# Velocity S-wave (km/s) = 3.57510 3.86724 3.72404
# Velocity P-wave (km/s) = 6.00685 6.78752 6.40908
#
# Compressibility (1/GPa) = 0.02067047
#
# Stress axis : x y z
#
# Youngs Moduli (GPa) = 129.39667 51.54504 128.35819
#
# Poissons Ratio (x) = 0.20579 0.33390
# Poissons Ratio (y) = 0.51661 0.06812
# Poissons Ratio (z) = 0.33660 0.02735
#
# Static dielectric constant tensor:
#      x y z
#    x 2.049080 0.000000 0.000000 
#    y 0.000000 2.152620 0.000000 
#    z 0.000000 0.000000 2.081650 
# 
# From -- ./inp_files/3294.got.cif
#   From: 2010.05.17/outbox.cif.g08.bks.cpg/sg45_2_cif.got.tgz:3294.got - 2010.06.03 19:51:22.
