data_PCOD9376389
_publ_section_title
;
Structure prediction by ZEFSAII (Michael W. Deem and Ramdas Pophale) SiO2 
 PCOD9376389
Probable space group: I B A 2
;
_chemical_formula_sum "Si O2"
_cell_formula_units_Z 64
_cell_length_a 10.710223
_cell_length_b 17.463493
_cell_length_c 14.242002
_cell_angle_alpha 90.000000
_cell_angle_beta 90.000000
_cell_angle_gamma 90.000000
_cell_volume 2663.794208
_symmetry_space_group_name_H-M "I B A 2"
_symmetry_group_IT_number 45
_symmetry_cell_setting 'orthorhombic'
loop_
_space_group_symop_operation_xyz
x,y,z
-x,-y,z
-x,y,1/2+z
x,-y,1/2+z
1/2+x,1/2+y,1/2+z
1/2-x,1/2-y,1/2+z
1/2-x,1/2+y,z
1/2+x,1/2-y,z
loop_
_atom_site_type_symbol
_atom_site_label
_atom_site_fract_x
_atom_site_fract_y
_atom_site_fract_z
Si Si1 0.593489 0.069653 0.757690
Si Si2 0.354522 0.510809 0.721926
Si Si3 0.341833 0.714577 0.520959
Si Si4 0.194341 0.183197 0.748115
Si Si5 0.608702 0.053614 0.973668
Si Si6 0.875574 0.038915 0.999587
Si Si7 0.965027 0.727710 0.239240
Si Si8 0.586623 0.782695 0.536175
O O1 0.577319 0.081400 0.869468
O O2 0.539961 0.148773 0.717296
O O3 0.500000 0.000000 0.731470
O O4 0.739852 0.049242 0.738871
O O5 0.500000 0.500000 0.753137
O O6 0.307488 0.592380 0.759532
O O7 0.366444 0.520861 0.609883
O O8 0.319321 0.703605 0.634797
O O9 0.377033 0.630271 0.484292
O O10 0.452078 0.770751 0.493665
O O11 0.209794 0.746191 0.485277
O O12 0.066670 0.218930 0.787975
O O13 0.328451 0.213900 0.781654
O O14 0.500000 0.000000 0.008532
O O15 0.741437 0.012235 0.962659
O O16 0.616656 0.126870 0.040795
O O17 0.000000 0.000000 0.962824
O O18 0.928897 0.759345 0.135785
#
# Coordination Sequence:
#
# PCOD9376389 Si02
#       8
#     8   8   8   8   8   8   8   8
#     4  11  23  39  57  81 119 157 190 241 297 353
#     4  10  21  36  61  90 117 150 201 247 291 349
#     4   8  16  31  52  81 110 137 177 232 277 321
#     4   9  18  34  53  85 114 142 189 240 287 340
#     4  10  23  37  55  82 115 148 192 232 283 357
#     4   9  19  36  58  86 114 143 190 242 282 343
#     4  10  20  34  59  83 115 151 190 240 294 344
#     4   9  18  34  55  80 108 145 185 231 275 339
#
# _framework density 24.025880000000001
#
# number of rings (size 3 to 8) (size 9 to 14) (size 15 to 20)
#    0.000    2.500    1.250    0.750    3.500    1.500 
#    4.500    2.500    2.750    0.000    0.000    0.000 
#    0.000    0.000    0.000    0.000    0.000    0.000 
#
# Total GULP energy -178482.632040 kJ/mol
# GULP energy per Si atom -5577.582251 kJ/mol
# Density = 2.397120 g / cm^3
# Si number density = 24.025880 Si / 1000 Ang^3
#
#
#
# Elastic Constant Matrix: (Units=GPa)
#
#
# Indices 1 2 3 4 5 6 
#
# 1 250.7096 48.8773 7.7379 0.0000 0.0000 0.0000
# 2 48.8773 32.5574 -4.7837 0.0000 0.0000 0.0000
# 3 7.7379 -4.7837 60.2609 0.0000 0.0000 0.0000
# 4 0.0000 0.0000 0.0000 -2.1076 0.0000 0.0000
# 5 0.0000 0.0000 0.0000 0.0000 31.9242 0.0000
# 6 0.0000 0.0000 0.0000 0.0000 0.0000 48.0375
#
#
#
# Elastic Compliance Matrix: (Units=1/GPa)
#
#
# Indices 1 2 3 4 5 6 
#
# 1 0.005761 -0.008860 -0.001443 0.000000 0.000000 0.000000
# 2 -0.008860 0.044705 0.004687 0.000000 0.000000 0.000000
# 3 -0.001443 0.004687 0.017152 0.000000 0.000000 0.000000
# 4 0.000000 0.000000 0.000000 -0.474477 0.000000 0.000000
# 5 0.000000 0.000000 0.000000 0.000000 0.031324 0.000000
# 6 0.000000 0.000000 0.000000 0.000000 0.000000 0.020817
#
#
# Mechanical properties :
#
#
# Convention : Reuss Voigt Hill
#
# Bulk Modulus (GPa) = 17.73549 49.68787 33.71168
# Shear Modulus (GPa) = -15.39930 35.01726 9.80898
#
# Velocity S-wave (km/s) = -2.53444 3.82184 2.02275
# Velocity P-wave (km/s) = 1.08012 6.34044 4.41783
#
# Compressibility (1/GPa) = 0.05638413
#
# Stress axis : x y z
#
# Youngs Moduli (GPa) = 173.59438 22.36882 58.30285
#
# Poissons Ratio (x) = 0.19819 0.08413
# Poissons Ratio (y) = 1.53807 -0.27324
# Poissons Ratio (z) = 0.25050 -0.10483
#
# Static dielectric constant tensor:
#      x y z
#    x 1.995730 0.000000 0.000000 
#    y 0.000000 1.885190 0.000000 
#    z 0.000000 0.000000 1.965950 
# 
# From -- ./inp_files/8989.got.cif
#   From: 2010.05.17/outbox.cif.g08.bks.cpg/sg45_5_cif.got.tgz:8989.got - 2010.06.03 19:51:22.
