data_PCOD9376625
_publ_section_title
;
Structure prediction by ZEFSAII (Michael W. Deem and Ramdas Pophale) SiO2 
 PCOD9376625
Probable space group: I B A 2
;
_chemical_formula_sum "Si O2"
_cell_formula_units_Z 56
_cell_length_a 5.656539
_cell_length_b 16.096798
_cell_length_c 28.903627
_cell_angle_alpha 90.000000
_cell_angle_beta 90.000000
_cell_angle_gamma 90.000000
_cell_volume 2631.737834
_symmetry_space_group_name_H-M "I B A 2"
_symmetry_group_IT_number 45
_symmetry_cell_setting 'orthorhombic'
loop_
_space_group_symop_operation_xyz
x,y,z
-x,-y,z
-x,y,1/2+z
x,-y,1/2+z
1/2+x,1/2+y,1/2+z
1/2-x,1/2-y,1/2+z
1/2-x,1/2+y,z
1/2+x,1/2-y,z
loop_
_atom_site_type_symbol
_atom_site_label
_atom_site_fract_x
_atom_site_fract_y
_atom_site_fract_z
Si Si1 0.797440 0.822779 0.216460
Si Si2 0.316796 0.571801 0.388160
Si Si3 0.702730 0.135723 0.247239
Si Si4 0.635897 0.585252 0.531119
Si Si5 0.500000 0.000000 0.813065
Si Si6 0.956315 0.797236 0.453428
Si Si7 0.207714 0.791379 0.607761
Si Si8 0.000000 0.500000 0.469188
O O1 0.553534 0.872705 0.222491
O O2 0.795664 0.739162 0.249181
O O3 0.800769 0.794358 0.163235
O O4 0.036269 0.874298 0.225620
O O5 0.500000 0.500000 0.378349
O O6 0.138858 0.566071 0.345664
O O7 0.452252 0.653441 0.404471
O O8 0.178639 0.545136 0.434584
O O9 0.672975 0.062580 0.285174
O O10 0.500000 0.500000 0.536432
O O11 0.481272 0.645298 0.498751
O O12 0.694090 0.622588 0.580612
O O13 0.868105 0.565824 0.501101
O O14 0.701363 0.753518 0.454790
O O15 0.461875 0.753541 0.593916
#
# Coordination Sequence:
#
# PCOD9376625 Si02
#       8
#     8   8   8   8   4   8   8   4
#     4  10  20  46  72  94 140 188 215 292 362 423
#     4  11  24  47  72  95 146 190 235 300 364 429
#     4  10  21  44  70  98 133 177 233 276 373 424
#     4  12  26  42  69 103 144 194 239 299 344 425
#     4  11  28  42  73 108 134 184 241 306 360 441
#     4  12  25  45  70 102 135 191 239 283 358 419
#     4  12  24  45  69 106 142 189 243 291 352 417
#     4  11  20  46  71  90 146 200 237 282 376 407
#
# _framework density 21.278714000000001
#
# number of rings (size 3 to 8) (size 9 to 14) (size 15 to 20)
#    0.000    0.857    5.714    1.714    6.000    0.000 
#    7.714    0.000    0.000    0.000    0.000    0.000 
#    0.000    0.000    0.000    0.000    0.000    0.000 
#
# Total GULP energy -155961.875066 kJ/mol
# GULP energy per Si atom -5570.066967 kJ/mol
# Density = 2.123028 g / cm^3
# Si number density = 21.278714 Si / 1000 Ang^3
#
#
#
# Elastic Constant Matrix: (Units=GPa)
#
#
# Indices 1 2 3 4 5 6 
#
# 1 147.9590 20.2179 10.9440 0.0000 0.0000 0.0000
# 2 20.2179 64.5118 32.5778 0.0000 0.0000 0.0000
# 3 10.9440 32.5778 49.0942 0.0000 0.0000 0.0000
# 4 0.0000 0.0000 0.0000 -83.3518 0.0000 0.0000
# 5 0.0000 0.0000 0.0000 0.0000 6.4852 0.0000
# 6 0.0000 0.0000 0.0000 0.0000 0.0000 41.2718
#
#
#
# Elastic Compliance Matrix: (Units=1/GPa)
#
#
# Indices 1 2 3 4 5 6 
#
# 1 0.007062 -0.002133 -0.000159 0.000000 0.000000 0.000000
# 2 -0.002133 0.023958 -0.015422 0.000000 0.000000 0.000000
# 3 -0.000159 -0.015422 0.030638 0.000000 0.000000 0.000000
# 4 0.000000 0.000000 0.000000 -0.011997 0.000000 0.000000
# 5 0.000000 0.000000 0.000000 0.000000 0.154197 0.000000
# 6 0.000000 0.000000 0.000000 0.000000 0.000000 0.024230
#
#
# Mechanical properties :
#
#
# Convention : Reuss Voigt Hill
#
# Bulk Modulus (GPa) = 38.12481 43.22715 40.67598
# Shear Modulus (GPa) = 18.36490 6.06939 12.21714
#
# Velocity S-wave (km/s) = 2.94098 1.69072 2.39874
# Velocity P-wave (km/s) = 5.43031 4.91632 5.17970
#
# Compressibility (1/GPa) = 0.02622964
#
# Stress axis : x y z
#
# Youngs Moduli (GPa) = 141.60630 41.74048 32.63892
#
# Poissons Ratio (x) = 0.08903 0.00518
# Poissons Ratio (y) = 0.30204 0.50336
# Poissons Ratio (z) = 0.02249 0.64373
#
# Static dielectric constant tensor:
#      x y z
#    x 1.854500 0.000000 0.000000 
#    y 0.000000 1.856490 0.000000 
#    z 0.000000 0.000000 1.773840 
# 
# From -- ./inp_files/10144.got.cif
#   From: 2010.05.17/outbox.cif.g08.bks.cpg/sg45_6_cif.got.tgz:10144.got - 2010.06.03 19:51:22.
