data_PCOD9376283
_publ_section_title
;
Structure prediction by ZEFSAII (Michael W. Deem and Ramdas Pophale) SiO2 
 PCOD9376283
Probable space group: I B A 2
;
_chemical_formula_sum "Si O2"
_cell_formula_units_Z 60
_cell_length_a 5.593268
_cell_length_b 13.401689
_cell_length_c 32.733342
_cell_angle_alpha 90.000000
_cell_angle_beta 90.000000
_cell_angle_gamma 90.000000
_cell_volume 2453.666381
_symmetry_space_group_name_H-M "I B A 2"
_symmetry_group_IT_number 45
_symmetry_cell_setting 'orthorhombic'
loop_
_space_group_symop_operation_xyz
x,y,z
-x,-y,z
-x,y,1/2+z
x,-y,1/2+z
1/2+x,1/2+y,1/2+z
1/2-x,1/2-y,1/2+z
1/2-x,1/2+y,z
1/2+x,1/2-y,z
loop_
_atom_site_type_symbol
_atom_site_label
_atom_site_fract_x
_atom_site_fract_y
_atom_site_fract_z
Si Si1 0.722323 0.895914 0.263350
Si Si2 0.109786 0.113280 0.061515
Si Si3 0.775774 0.875816 0.733063
Si Si4 0.500000 0.000000 0.093378
Si Si5 0.383910 0.608247 0.643378
Si Si6 0.395348 0.645895 0.971020
Si Si7 0.391808 0.129251 0.439394
Si Si8 0.396770 0.185281 0.348996
O O1 0.499822 0.844842 0.239933
O O2 0.636377 0.886259 0.309937
O O3 0.991153 0.851962 0.260621
O O4 0.748805 0.005061 0.243039
O O5 0.382511 0.082368 0.064603
O O6 0.026473 0.157120 0.105216
O O7 0.065827 0.166058 0.019288
O O8 0.000000 0.000000 0.060393
O O9 0.849343 0.845292 0.687226
O O10 0.639711 0.072524 0.123656
O O11 0.500000 0.500000 0.652154
O O12 0.385335 0.751584 0.948294
O O13 0.637862 0.593549 0.956531
O O14 0.139687 0.596714 0.960511
O O15 0.397556 0.122008 0.390696
O O16 0.654671 0.244125 0.348361
#
# Coordination Sequence:
#
# PCOD9376283 Si02
#       8
#     8   8   8   4   8   8   8   8
#     4  10  21  32  59  84 115 145 187 241 274 346
#     4   9  20  30  51  86 115 144 177 228 281 335
#     4  10  19  36  54  87 115 150 185 223 293 338
#     4   8  16  28  44  78 108 146 168 218 266 322
#     4   9  16  29  51  79 112 142 187 217 263 341
#     4  10  19  36  57  82 107 137 193 225 276 325
#     4  10  20  37  61  79  98 148 190 239 265 327
#     4  12  21  39  60  88 108 144 201 237 288 328
#
# _framework density 24.453201
#
# number of rings (size 3 to 8) (size 9 to 14) (size 15 to 20)
#    0.000    2.400    4.000    1.600    5.600    0.000 
#    0.000    0.000    8.800    0.000   20.800    0.000 
#    0.000    0.000    0.000    0.000    0.000    0.000 
#
# Total GULP energy -167114.866323 kJ/mol
# GULP energy per Si atom -5570.495544 kJ/mol
# Density = 2.439754 g / cm^3
# Si number density = 24.453201 Si / 1000 Ang^3
#
#
#
# Elastic Constant Matrix: (Units=GPa)
#
#
# Indices 1 2 3 4 5 6 
#
# 1 177.6256 18.6854 32.0317 0.0000 0.0000 0.0000
# 2 18.6854 67.9584 5.1167 0.0000 0.0000 0.0000
# 3 32.0317 5.1167 201.7850 0.0000 0.0000 0.0000
# 4 0.0000 0.0000 0.0000 -292.2500 0.0000 0.0000
# 5 0.0000 0.0000 0.0000 0.0000 -29.9712 0.0000
# 6 0.0000 0.0000 0.0000 0.0000 0.0000 0.1097
#
#
#
# Elastic Compliance Matrix: (Units=1/GPa)
#
#
# Indices 1 2 3 4 5 6 
#
# 1 0.005958 -0.001570 -0.000906 0.000000 0.000000 0.000000
# 2 -0.001570 0.015157 -0.000135 0.000000 0.000000 0.000000
# 3 -0.000906 -0.000135 0.005103 0.000000 0.000000 0.000000
# 4 0.000000 0.000000 0.000000 -0.003422 0.000000 0.000000
# 5 0.000000 0.000000 0.000000 0.000000 -0.033365 0.000000
# 6 0.000000 0.000000 0.000000 0.000000 0.000000 9.116557
#
#
# Mechanical properties :
#
#
# Convention : Reuss Voigt Hill
#
# Bulk Modulus (GPa) = 47.62864 62.11519 54.87192
# Shear Modulus (GPa) = 0.54835 -38.31997 -18.88581
#
# Velocity S-wave (km/s) = 0.47406 -3.96292 -2.78209
# Velocity P-wave (km/s) = 4.45190 2.12535 3.48830
#
# Compressibility (1/GPa) = 0.02099577
#
# Stress axis : x y z
#
# Youngs Moduli (GPa) = 167.83119 65.97717 195.96238
#
# Poissons Ratio (x) = 0.10359 0.17755
# Poissons Ratio (y) = 0.26351 0.02647
# Poissons Ratio (z) = 0.15206 0.00891
#
# Static dielectric constant tensor:
#      x y z
#    x 2.280280 0.000000 0.000000 
#    y 0.000000 2.028680 0.000000 
#    z 0.000000 0.000000 1.904040 
# 
# From -- ./inp_files/10146.got.cif
#   From: 2010.05.17/outbox.cif.g08.bks.cpg/sg45_6_cif.got.tgz:10146.got - 2010.06.03 19:51:22.
