data_PCOD9376365
_publ_section_title
;
Structure prediction by ZEFSAII (Michael W. Deem and Ramdas Pophale) SiO2 
 PCOD9376365
Probable space group: I B A 2
;
_chemical_formula_sum "Si O2"
_cell_formula_units_Z 64
_cell_length_a 22.537766
_cell_length_b 19.516321
_cell_length_c 8.311014
_cell_angle_alpha 90.000000
_cell_angle_beta 90.000000
_cell_angle_gamma 90.000000
_cell_volume 3655.635045
_symmetry_space_group_name_H-M "I B A 2"
_symmetry_group_IT_number 45
_symmetry_cell_setting 'orthorhombic'
loop_
_space_group_symop_operation_xyz
x,y,z
-x,-y,z
-x,y,1/2+z
x,-y,1/2+z
1/2+x,1/2+y,1/2+z
1/2-x,1/2-y,1/2+z
1/2-x,1/2+y,z
1/2+x,1/2-y,z
loop_
_atom_site_type_symbol
_atom_site_label
_atom_site_fract_x
_atom_site_fract_y
_atom_site_fract_z
Si Si1 0.574957 0.848089 0.845950
Si Si2 0.578061 0.018838 0.161940
Si Si3 0.250421 0.087903 0.019189
Si Si4 0.289115 0.966312 0.179439
Si Si5 0.294265 0.708819 0.857975
Si Si6 0.648297 0.816046 0.161501
Si Si7 0.052093 0.391535 0.847329
Si Si8 0.314873 0.815623 0.139269
O O1 0.578713 0.930078 0.815996
O O2 0.503963 0.840474 0.846065
O O3 0.617516 0.819202 0.704269
O O4 0.604550 0.822807 0.009498
O O5 0.647305 0.999602 0.145068
O O6 0.545114 0.949001 0.207188
O O7 0.558800 0.064062 0.009436
O O8 0.292686 0.141062 0.115429
O O9 0.240000 0.021515 0.129474
O O10 0.282994 0.054618 0.864786
O O11 0.198697 0.134070 0.939273
O O12 0.292736 0.892319 0.093811
O O13 0.334064 0.739117 0.713531
O O14 0.227495 0.706564 0.787544
O O15 0.303136 0.763621 0.997610
O O16 0.611974 0.851265 0.306633
#
# Coordination Sequence:
#
# PCOD9376365 Si02
#       8
#     8   8   8   8   8   8   8   8
#     4  11  22  37  45  73 106 141 192 239 270 321
#     4  11  20  35  47  72 106 151 193 231 275 314
#     4  11  21  35  54  78 105 138 189 231 279 328
#     4  10  20  33  51  76 106 140 183 238 271 315
#     4  11  21  37  57  77  99 147 191 235 281 344
#     4  12  21  36  55  72 104 148 193 237 278 329
#     4  12  24  33  51  73 108 151 195 240 278 317
#     4  10  20  36  55  76 106 140 190 231 283 332
#
# _framework density 17.507218999999999
#
# number of rings (size 3 to 8) (size 9 to 14) (size 15 to 20)
#    0.000    1.000    6.250    4.125    1.750    1.000 
#    0.000    1.250    0.000    0.000    0.000    0.000 
#    0.000    0.000    0.000   73.125    0.000    0.500 
#
# Total GULP energy -178443.300878 kJ/mol
# GULP energy per Si atom -5576.353152 kJ/mol
# Density = 1.746737 g / cm^3
# Si number density = 17.507219 Si / 1000 Ang^3
#
#
#
# Elastic Constant Matrix: (Units=GPa)
#
#
# Indices 1 2 3 4 5 6 
#
# 1 57.9874 36.9741 26.2908 0.0000 0.0000 0.0000
# 2 36.9741 80.9851 39.1361 0.0000 0.0000 0.0000
# 3 26.2908 39.1361 69.6601 0.0000 0.0000 0.0000
# 4 0.0000 0.0000 0.0000 33.6555 0.0000 0.0000
# 5 0.0000 0.0000 0.0000 0.0000 28.0309 0.0000
# 6 0.0000 0.0000 0.0000 0.0000 0.0000 33.1034
#
#
#
# Elastic Compliance Matrix: (Units=1/GPa)
#
#
# Indices 1 2 3 4 5 6 
#
# 1 0.025183 -0.009478 -0.004180 0.000000 0.000000 0.000000
# 2 -0.009478 0.020517 -0.007950 0.000000 0.000000 0.000000
# 3 -0.004180 -0.007950 0.020399 0.000000 0.000000 0.000000
# 4 0.000000 0.000000 0.000000 0.029713 0.000000 0.000000
# 5 0.000000 0.000000 0.000000 0.000000 0.035675 0.000000
# 6 0.000000 0.000000 0.000000 0.000000 0.000000 0.030208
#
#
# Mechanical properties :
#
#
# Convention : Reuss Voigt Hill
#
# Bulk Modulus (GPa) = 43.69679 45.93718 44.81698
# Shear Modulus (GPa) = 23.52522 26.04006 24.78264
#
# Velocity S-wave (km/s) = 3.66969 3.86085 3.76648
# Velocity P-wave (km/s) = 6.55507 6.79492 6.67607
#
# Compressibility (1/GPa) = 0.02288498
#
# Stress axis : x y z
#
# Youngs Moduli (GPa) = 39.70871 48.74101 49.02164
#
# Poissons Ratio (x) = 0.46195 0.20491
# Poissons Ratio (y) = 0.37634 0.38970
# Poissons Ratio (z) = 0.16598 0.38747
#
# Static dielectric constant tensor:
#      x y z
#    x 1.655660 0.000000 0.000000 
#    y 0.000000 1.614590 0.000000 
#    z 0.000000 0.000000 1.716600 
# 
# From -- ./inp_files/2404.got.cif
#   From: 2010.05.17/outbox.cif.g08.bks.cpg/sg45_2_cif.got.tgz:2404.got - 2010.06.03 19:51:22.
