data_PCOD9376425
_publ_section_title
;
Structure prediction by ZEFSAII (Michael W. Deem and Ramdas Pophale) SiO2 
 PCOD9376425
Probable space group: I B A 2
;
_chemical_formula_sum "Si O2"
_cell_formula_units_Z 48
_cell_length_a 5.308318
_cell_length_b 17.085800
_cell_length_c 21.284729
_cell_angle_alpha 90.000000
_cell_angle_beta 90.000000
_cell_angle_gamma 90.000000
_cell_volume 1930.458080
_symmetry_space_group_name_H-M "I B A 2"
_symmetry_group_IT_number 45
_symmetry_cell_setting 'orthorhombic'
loop_
_space_group_symop_operation_xyz
x,y,z
-x,-y,z
-x,y,1/2+z
x,-y,1/2+z
1/2+x,1/2+y,1/2+z
1/2-x,1/2-y,1/2+z
1/2-x,1/2+y,z
1/2+x,1/2-y,z
loop_
_atom_site_type_symbol
_atom_site_label
_atom_site_fract_x
_atom_site_fract_y
_atom_site_fract_z
Si Si1 0.807289 0.432859 0.622640
Si Si2 0.860870 0.202284 0.343051
Si Si3 0.338121 0.922835 0.254607
Si Si4 0.762513 0.023409 0.494659
Si Si5 0.923998 0.298257 0.172034
Si Si6 0.331477 0.703506 0.994144
O O1 0.664715 0.427080 0.689788
O O2 0.719257 0.465013 0.555772
O O3 0.967284 0.354071 0.617176
O O4 0.000000 0.500000 0.641484
O O5 0.628278 0.259764 0.325768
O O6 0.814314 0.118929 0.309934
O O7 0.842976 0.197485 0.418353
O O8 0.533394 0.856199 0.230481
O O9 0.500000 0.000000 0.271212
O O10 0.779457 0.113869 0.512755
O O11 0.500000 0.000000 0.464527
O O12 0.000000 0.000000 0.453388
O O13 0.139023 0.231052 0.170719
O O14 0.602672 0.738829 0.013200
#
# Coordination Sequence:
#
# PCOD9376425 Si02
#       6
#     8   8   8   8   8   8
#     4   8  20  41  57  88 125 166 206 263 306 382
#     4  10  21  40  66  96 128 165 213 264 316 385
#     4   9  19  39  61  91 131 166 208 253 319 382
#     4  11  23  43  68  91 133 172 218 276 332 382
#     4  10  20  36  58  82 116 162 204 246 303 365
#     4  10  22  43  70  98 129 169 222 276 331 390
#
# _framework density 24.864561999999999
#
# number of rings (size 3 to 8) (size 9 to 14) (size 15 to 20)
#    1.000    1.333    0.000    2.000    0.000    3.333 
#    0.000   15.000    0.000    0.000    0.000    0.000 
#    0.000    0.000    0.000    0.000    0.000    0.000 
#
# Total GULP energy -133708.695802 kJ/mol
# GULP energy per Si atom -5571.195658 kJ/mol
# Density = 2.480797 g / cm^3
# Si number density = 24.864562 Si / 1000 Ang^3
#
#
#
# Elastic Constant Matrix: (Units=GPa)
#
#
# Indices 1 2 3 4 5 6 
#
# 1 149.1291 47.1352 10.1436 0.0000 0.0000 0.0000
# 2 47.1352 143.7828 17.9230 0.0000 0.0000 0.0000
# 3 10.1436 17.9230 61.0247 0.0000 0.0000 0.0000
# 4 0.0000 0.0000 0.0000 38.7386 0.0000 0.0000
# 5 0.0000 0.0000 0.0000 0.0000 97.3992 0.0000
# 6 0.0000 0.0000 0.0000 0.0000 0.0000 46.7877
#
#
#
# Elastic Compliance Matrix: (Units=1/GPa)
#
#
# Indices 1 2 3 4 5 6 
#
# 1 0.007498 -0.002390 -0.000544 0.000000 0.000000 0.000000
# 2 -0.002390 0.007981 -0.001947 0.000000 0.000000 0.000000
# 3 -0.000544 -0.001947 0.017049 0.000000 0.000000 0.000000
# 4 0.000000 0.000000 0.000000 0.025814 0.000000 0.000000
# 5 0.000000 0.000000 0.000000 0.000000 0.010267 0.000000
# 6 0.000000 0.000000 0.000000 0.000000 0.000000 0.021373
#
#
# Mechanical properties :
#
#
# Convention : Reuss Voigt Hill
#
# Bulk Modulus (GPa) = 43.92575 56.03782 49.98178
# Shear Modulus (GPa) = 46.58368 55.16741 50.87554
#
# Velocity S-wave (km/s) = 4.33309 4.71544 4.52830
# Velocity P-wave (km/s) = 6.53747 7.22726 6.89100
#
# Compressibility (1/GPa) = 0.02276569
#
# Stress axis : x y z
#
# Youngs Moduli (GPa) = 133.36726 125.29501 58.65431
#
# Poissons Ratio (x) = 0.29948 0.03193
# Poissons Ratio (y) = 0.31877 0.11419
# Poissons Ratio (z) = 0.07260 0.24392
#
# Static dielectric constant tensor:
#      x y z
#    x 1.848960 0.000000 0.000000 
#    y 0.000000 1.912580 0.000000 
#    z 0.000000 0.000000 2.090470 
# 
# From -- ./inp_files/9427.got.cif
#   From: 2010.05.17/outbox.cif.g08.bks.cpg/sg45_5_cif.got.tgz:9427.got - 2010.06.03 19:51:22.
