data_PCOD9376801
_publ_section_title
;
Structure prediction by ZEFSAII (Michael W. Deem and Ramdas Pophale) SiO2 
 PCOD9376801
Probable space group: I B A 2
;
_chemical_formula_sum "Si O2"
_cell_formula_units_Z 40
_cell_length_a 19.966307
_cell_length_b 8.516822
_cell_length_c 9.008506
_cell_angle_alpha 90.000000
_cell_angle_beta 90.000000
_cell_angle_gamma 90.000000
_cell_volume 1531.891785
_symmetry_space_group_name_H-M "I B A 2"
_symmetry_group_IT_number 45
_symmetry_cell_setting 'orthorhombic'
loop_
_space_group_symop_operation_xyz
x,y,z
-x,-y,z
-x,y,1/2+z
x,-y,1/2+z
1/2+x,1/2+y,1/2+z
1/2-x,1/2-y,1/2+z
1/2-x,1/2+y,z
1/2+x,1/2-y,z
loop_
_atom_site_type_symbol
_atom_site_label
_atom_site_fract_x
_atom_site_fract_y
_atom_site_fract_z
Si Si1 0.054721 0.124999 0.527230
Si Si2 0.180677 0.609447 0.411391
Si Si3 0.455166 0.868487 0.085592
Si Si4 0.617308 0.579030 0.747862
Si Si5 0.740322 0.612136 0.215621
O O1 0.117634 0.099423 0.422993
O O2 0.018083 0.286385 0.505606
O O3 0.075085 0.071575 0.690762
O O4 0.000000 0.000000 0.475932
O O5 0.104828 0.591590 0.471966
O O6 0.203320 0.449508 0.330128
O O7 0.225621 0.641654 0.557540
O O8 0.196676 0.750384 0.294388
O O9 0.420190 0.729826 0.181130
O O10 0.500000 0.000000 0.169315
O O11 0.691339 0.538574 0.697313
#
# Coordination Sequence:
#
# PCOD9376801 Si02
#       5
#     8   8   8   8   8
#     4  10  21  40  67  98 133 179 230 285 354 434
#     4  12  27  47  74 106 147 195 249 310 374 446
#     4  11  26  43  66 105 147 185 235 300 370 441
#     4  11  23  45  73  99 136 187 240 296 361 439
#     4  12  26  49  76 108 146 196 254 311 375 444
#
# _framework density 26.111504
#
# number of rings (size 3 to 8) (size 9 to 14) (size 15 to 20)
#    0.000    0.800    0.000    9.000    0.000    8.800 
#    0.000    0.000    0.000    0.000    0.000    0.000 
#    0.000    0.000    0.000    0.000    0.000    0.000 
#
# Total GULP energy -111778.041289 kJ/mol
# GULP energy per Si atom -5588.902064 kJ/mol
# Density = 2.605207 g / cm^3
# Si number density = 26.111504 Si / 1000 Ang^3
#
#
#
# Elastic Constant Matrix: (Units=GPa)
#
#
# Indices 1 2 3 4 5 6 
#
# 1 135.9354 51.9192 38.4862 0.0000 0.0000 0.0000
# 2 51.9192 64.3285 11.3086 0.0000 0.0000 0.0000
# 3 38.4862 11.3086 105.2301 0.0000 0.0000 0.0000
# 4 0.0000 0.0000 0.0000 22.1157 0.0000 0.0000
# 5 0.0000 0.0000 0.0000 0.0000 29.7849 0.0000
# 6 0.0000 0.0000 0.0000 0.0000 0.0000 55.0385
#
#
#
# Elastic Compliance Matrix: (Units=1/GPa)
#
#
# Indices 1 2 3 4 5 6 
#
# 1 0.011671 -0.008836 -0.003319 0.000000 0.000000 0.000000
# 2 -0.008836 0.022534 0.000810 0.000000 0.000000 0.000000
# 3 -0.003319 0.000810 0.010630 0.000000 0.000000 0.000000
# 4 0.000000 0.000000 0.000000 0.045217 0.000000 0.000000
# 5 0.000000 0.000000 0.000000 0.000000 0.033574 0.000000
# 6 0.000000 0.000000 0.000000 0.000000 0.000000 0.018169
#
#
# Mechanical properties :
#
#
# Convention : Reuss Voigt Hill
#
# Bulk Modulus (GPa) = 45.15667 56.54686 50.85176
# Shear Modulus (GPa) = 29.09230 34.97315 32.03272
#
# Velocity S-wave (km/s) = 3.34152 3.66372 3.50632
# Velocity P-wave (km/s) = 5.67618 6.29286 5.99246
#
# Compressibility (1/GPa) = 0.02214512
#
# Stress axis : x y z
#
# Youngs Moduli (GPa) = 85.68287 44.37659 94.07545
#
# Poissons Ratio (x) = 0.39212 0.31223
# Poissons Ratio (y) = 0.75710 -0.07620
# Poissons Ratio (z) = 0.28437 -0.03595
#
# Static dielectric constant tensor:
#      x y z
#    x 2.070900 0.000000 0.000000 
#    y 0.000000 2.202230 0.000000 
#    z 0.000000 0.000000 2.010480 
# 
# From -- ./inp_files/2441.got.cif
#   From: 2010.05.17/outbox.cif.g08.bks.cpg/sg45_2_cif.got.tgz:2441.got - 2010.06.03 19:51:22.
