data_PCOD9376326
_publ_section_title
;
Structure prediction by ZEFSAII (Michael W. Deem and Ramdas Pophale) SiO2 
 PCOD9376326
Probable space group: I B A 2
;
_chemical_formula_sum "Si O2"
_cell_formula_units_Z 48
_cell_length_a 12.489501
_cell_length_b 10.919214
_cell_length_c 17.297558
_cell_angle_alpha 90.000000
_cell_angle_beta 90.000000
_cell_angle_gamma 90.000000
_cell_volume 2358.963712
_symmetry_space_group_name_H-M "I B A 2"
_symmetry_group_IT_number 45
_symmetry_cell_setting 'orthorhombic'
loop_
_space_group_symop_operation_xyz
x,y,z
-x,-y,z
-x,y,1/2+z
x,-y,1/2+z
1/2+x,1/2+y,1/2+z
1/2-x,1/2-y,1/2+z
1/2-x,1/2+y,z
1/2+x,1/2-y,z
loop_
_atom_site_type_symbol
_atom_site_label
_atom_site_fract_x
_atom_site_fract_y
_atom_site_fract_z
Si Si1 0.463597 0.858802 0.338580
Si Si2 0.656985 0.973672 0.090742
Si Si3 0.958557 0.120368 0.252878
Si Si4 0.485915 0.175334 0.515814
Si Si5 0.629235 0.354398 0.115941
Si Si6 0.788015 0.363154 0.720621
O O1 0.529013 0.751927 0.294212
O O2 0.472899 0.831202 0.429251
O O3 0.345616 0.843722 0.302135
O O4 0.500000 0.000000 0.327629
O O5 0.583483 0.856616 0.074031
O O6 0.783090 0.949963 0.085768
O O7 0.605254 0.071968 0.031949
O O8 0.646322 0.030505 0.175993
O O9 0.834991 0.104618 0.231430
O O10 0.037100 0.118972 0.178459
O O11 0.000000 0.000000 0.299252
O O12 0.430674 0.298940 0.542391
O O13 0.698386 0.252430 0.163388
#
# Coordination Sequence:
#
# PCOD9376326 Si02
#       6
#     8   8   8   8   8   8
#     4  11  25  42  66  95 136 183 224 268 327 416
#     4  10  19  39  66  92 126 171 225 277 331 389
#     4  11  23  43  66 102 136 166 226 287 339 396
#     4  10  22  41  63  95 134 175 230 272 329 421
#     4  10  21  37  68  94 128 171 219 287 337 388
#     4  10  23  37  67  96 126 174 221 279 333 391
#
# _framework density 20.347916999999999
#
# number of rings (size 3 to 8) (size 9 to 14) (size 15 to 20)
#    0.000    1.667    3.333    1.000    9.333    1.333 
#    0.000    0.833    3.667    0.000    0.000    0.000 
#    0.000    0.000    0.000    0.000    0.000    0.000 
#
# Total GULP energy -133786.446285 kJ/mol
# GULP energy per Si atom -5574.435262 kJ/mol
# Density = 2.030160 g / cm^3
# Si number density = 20.347917 Si / 1000 Ang^3
#
#
#
# Elastic Constant Matrix: (Units=GPa)
#
#
# Indices 1 2 3 4 5 6 
#
# 1 116.5149 16.7225 70.9640 0.0000 0.0000 0.0000
# 2 16.7225 65.2359 36.7352 0.0000 0.0000 0.0000
# 3 70.9640 36.7352 114.2621 0.0000 0.0000 0.0000
# 4 0.0000 0.0000 0.0000 10.7878 0.0000 0.0000
# 5 0.0000 0.0000 0.0000 0.0000 18.1998 0.0000
# 6 0.0000 0.0000 0.0000 0.0000 0.0000 40.5681
#
#
#
# Elastic Compliance Matrix: (Units=1/GPa)
#
#
# Indices 1 2 3 4 5 6 
#
# 1 0.013938 0.001589 -0.009167 0.000000 0.000000 0.000000
# 2 0.001589 0.018899 -0.007063 0.000000 0.000000 0.000000
# 3 -0.009167 -0.007063 0.016716 0.000000 0.000000 0.000000
# 4 0.000000 0.000000 0.000000 0.092698 0.000000 0.000000
# 5 0.000000 0.000000 0.000000 0.000000 0.054946 0.000000
# 6 0.000000 0.000000 0.000000 0.000000 0.000000 0.024650
#
#
# Mechanical properties :
#
#
# Convention : Reuss Voigt Hill
#
# Bulk Modulus (GPa) = 49.33197 60.53958 54.93578
# Shear Modulus (GPa) = 19.38850 25.35056 22.36953
#
# Velocity S-wave (km/s) = 3.09017 3.53350 3.31925
# Velocity P-wave (km/s) = 6.08515 6.81647 6.46117
#
# Compressibility (1/GPa) = 0.02027083
#
# Stress axis : x y z
#
# Youngs Moduli (GPa) = 71.74702 52.91320 59.82275
#
# Poissons Ratio (x) = -0.08410 0.54841
# Poissons Ratio (y) = -0.11403 0.42253
# Poissons Ratio (z) = 0.65773 0.37373
#
# Static dielectric constant tensor:
#      x y z
#    x 1.698260 0.000000 0.000000 
#    y 0.000000 1.854830 0.000000 
#    z 0.000000 0.000000 1.700430 
# 
# From -- ./inp_files/7885.got.cif
#   From: 2010.05.17/outbox.cif.g08.bks.cpg/sg45_4_cif.got.tgz:7885.got - 2010.06.03 19:51:22.
