data_PCOD9376025
_publ_section_title
;
Structure prediction by ZEFSAII (Michael W. Deem and Ramdas Pophale) SiO2 
 PCOD9376025
Probable space group: I M M 2
;
_chemical_formula_sum "Si O2"
_cell_formula_units_Z 32
_cell_length_a 24.000000
_cell_length_b 9.000000
_cell_length_c 15.000000
_cell_angle_alpha 90.000000
_cell_angle_beta 90.000000
_cell_angle_gamma 90.000000
_cell_volume 3240.000000
_symmetry_space_group_name_H-M "I M M 2"
_symmetry_group_IT_number 44
_symmetry_cell_setting 'orthorhombic'
loop_
_space_group_symop_operation_xyz
x,y,z
-x,-y,z
-x,y,z
x,-y,z
1/2+x,1/2+y,1/2+z
1/2-x,1/2-y,1/2+z
1/2-x,1/2+y,1/2+z
1/2+x,1/2-y,1/2+z
loop_
_atom_site_type_symbol
_atom_site_label
_atom_site_fract_x
_atom_site_fract_y
_atom_site_fract_z
Si Si1 0.567392 0.171858 0.427840
Si Si2 0.314871 0.179801 0.817150
Si Si3 0.933513 0.163305 0.098203
Si Si4 0.938265 0.676342 0.279045
Si Si5 0.313232 0.679165 0.998773
Si Si6 0.892793 0.675568 0.733835
Si Si7 0.766157 0.676679 0.674390
Si Si8 0.437633 0.678399 0.060171
O O1 0.500000 0.176651 0.426607
O O2 0.589753 0.274664 0.506497
O O3 0.589271 0.219073 0.332271
O O4 0.583152 0.000000 0.443786
O O5 0.380152 0.228415 0.819873
O O6 0.281883 0.247944 0.733490
O O7 0.312298 0.000000 0.815106
O O8 0.291418 0.248046 0.908109
O O9 0.928939 0.282711 0.175957
O O10 0.000000 0.148928 0.085430
O O11 0.911789 0.000000 0.123359
O O12 0.940944 0.500000 0.291766
O O13 0.000000 0.738254 0.304604
O O14 0.311007 0.500000 0.996177
O O15 0.277059 0.742678 0.080396
O O16 0.378928 0.724825 0.013906
O O17 0.905182 0.500000 0.721356
O O18 0.826615 0.694785 0.721755
O O19 0.927041 0.766257 0.660578
O O20 0.755973 0.500000 0.663772
O O21 0.500000 0.730716 0.030011
O O22 0.438592 0.500000 0.055871
#
# Coordination Sequence:
#
# PCOD9376025 Si02
#       8
#     8   8   8   8   8   8   8   8
#     4   9  16  27  45  70 103 143 185 229 280 337
#     4  11  23  40  63  90 117 151 194 240 293 352
#     4   9  17  29  46  71 104 140 179 225 276 330
#     4   9  19  37  59  82 111 147 185 229 284 346
#     4  10  21  39  62  87 119 157 196 242 291 345
#     4   9  18  32  51  76 106 145 192 239 284 336
#     4  10  21  40  62  84 114 152 195 246 296 344
#     4   9  18  32  52  81 117 154 189 230 286 345
#
# _framework density 9.8765429999999999
#
# number of rings (size 3 to 8) (size 9 to 14) (size 15 to 20)
#    0.000    2.500    0.000    1.875    0.000    5.250 
#    2.250    1.250    0.000    0.000    0.000    0.000 
#    0.000    0.000    0.000    0.000    0.000    0.000 
#
# Total GULP energy -178330.388360 kJ/mol
# GULP energy per Si atom -5572.824636 kJ/mol
# Density = 0.985406 g / cm^3
# Si number density = 9.876543 Si / 1000 Ang^3
#
#
#
# Elastic Constant Matrix: (Units=GPa)
#
#
# Indices 1 2 3 4 5 6 
#
# 1 66.7561 25.9714 41.3306 0.0000 0.0000 0.0000
# 2 25.9714 23.2391 19.9945 0.0000 0.0000 0.0000
# 3 41.3306 19.9945 102.1225 0.0000 0.0000 0.0000
# 4 0.0000 0.0000 0.0000 18.9982 0.0000 0.0000
# 5 0.0000 0.0000 0.0000 0.0000 15.6869 0.0000
# 6 0.0000 0.0000 0.0000 0.0000 0.0000 19.0097
#
#
#
# Elastic Compliance Matrix: (Units=1/GPa)
#
#
# Indices 1 2 3 4 5 6 
#
# 1 0.029863 -0.027629 -0.006676 0.000000 0.000000 0.000000
# 2 -0.027629 0.077311 -0.003955 0.000000 0.000000 0.000000
# 3 -0.006676 -0.003955 0.013268 0.000000 0.000000 0.000000
# 4 0.000000 0.000000 0.000000 0.052637 0.000000 0.000000
# 5 0.000000 0.000000 0.000000 0.000000 0.063747 0.000000
# 6 0.000000 0.000000 0.000000 0.000000 0.000000 0.052605
#
#
# Mechanical properties :
#
#
# Convention : Reuss Voigt Hill
#
# Bulk Modulus (GPa) = 22.76784 40.74561 31.75672
# Shear Modulus (GPa) = 13.13741 17.72704 15.43222
#
# Velocity S-wave (km/s) = 2.58171 2.99897 2.79813
# Velocity P-wave (km/s) = 4.52087 5.71524 5.15278
#
# Compressibility (1/GPa) = 0.04392160
#
# Stress axis : x y z
#
# Youngs Moduli (GPa) = 33.48673 12.93470 75.36673
#
# Poissons Ratio (x) = 0.35738 0.50317
# Poissons Ratio (y) = 0.92522 0.29805
# Poissons Ratio (z) = 0.22357 0.05115
#
# Static dielectric constant tensor:
#      x y z
#    x 1.717710 0.000000 0.000000 
#    y 0.000000 1.673350 0.000000 
#    z 0.000000 0.000000 1.709160 
# 
# From -- ./inp_files/16869.got.cif
#   From: 2010.05.17/outbox.ucp.g08.bks.cvg/sg44_9_cif.got.tgz:16869.got - 2010.06.11 16:32:36.
