data_PCOD9376239
_publ_section_title
;
Structure prediction by ZEFSAII (Michael W. Deem and Ramdas Pophale) SiO2 
 PCOD9376239
Probable space group: I B A 2
;
_chemical_formula_sum "Si O2"
_cell_formula_units_Z 44
_cell_length_a 5.092442
_cell_length_b 10.444905
_cell_length_c 31.456384
_cell_angle_alpha 90.000000
_cell_angle_beta 90.000000
_cell_angle_gamma 90.000000
_cell_volume 1673.167358
_symmetry_space_group_name_H-M "I B A 2"
_symmetry_group_IT_number 45
_symmetry_cell_setting 'orthorhombic'
loop_
_space_group_symop_operation_xyz
x,y,z
-x,-y,z
-x,y,1/2+z
x,-y,1/2+z
1/2+x,1/2+y,1/2+z
1/2-x,1/2-y,1/2+z
1/2-x,1/2+y,z
1/2+x,1/2-y,z
loop_
_atom_site_type_symbol
_atom_site_label
_atom_site_fract_x
_atom_site_fract_y
_atom_site_fract_z
Si Si1 0.342753 0.160908 0.772280
Si Si2 0.203418 0.838035 0.359531
Si Si3 0.192742 0.661306 0.951289
Si Si4 0.258103 0.421334 0.094627
Si Si5 0.500000 0.500000 0.516253
Si Si6 0.281253 0.680049 0.684808
O O1 0.631190 0.221808 0.773839
O O2 0.268904 0.089007 0.815890
O O3 0.298903 0.098284 0.726202
O O4 0.410784 0.718993 0.359599
O O5 0.258890 0.901389 0.404958
O O6 0.404455 0.778092 0.954184
O O7 0.278992 0.563360 0.987571
O O8 0.500000 0.500000 0.113863
O O9 0.385576 0.390450 0.048775
O O10 0.192078 0.342292 0.136087
O O11 0.000000 0.500000 0.083973
O O12 0.590731 0.696994 0.690648
#
# Coordination Sequence:
#
# PCOD9376239 Si02
#       6
#     8   8   8   8   4   8
#     4   8  14  25  47  77 105 132 170 219 266 318
#     4   8  14  28  48  77 107 135 173 217 268 326
#     4  10  22  37  60  86 111 150 191 230 287 344
#     4  10  23  39  52  74 108 150 174 230 296 319
#     4  10  26  40  60  80 120 144 196 244 290 328
#     4  10  19  33  56  83 104 139 188 227 270 340
#
# _framework density 26.297429999999999
#
# number of rings (size 3 to 8) (size 9 to 14) (size 15 to 20)
#    0.545    2.182    0.000    1.091    2.545    1.455 
#    0.000    0.000    2.000    0.000    0.000    0.000 
#    0.000    0.000    0.000    0.000    0.000    0.000 
#
# Total GULP energy -122574.562377 kJ/mol
# GULP energy per Si atom -5571.571017 kJ/mol
# Density = 2.623758 g / cm^3
# Si number density = 26.297430 Si / 1000 Ang^3
#
#
#
# Elastic Constant Matrix: (Units=GPa)
#
#
# Indices 1 2 3 4 5 6 
#
# 1 135.8336 22.8059 7.0632 0.0000 0.0000 0.0000
# 2 22.8059 33.6708 29.7578 0.0000 0.0000 0.0000
# 3 7.0632 29.7578 252.2247 0.0000 0.0000 0.0000
# 4 0.0000 0.0000 0.0000 52.9203 0.0000 0.0000
# 5 0.0000 0.0000 0.0000 0.0000 112.3256 0.0000
# 6 0.0000 0.0000 0.0000 0.0000 0.0000 37.7665
#
#
#
# Elastic Compliance Matrix: (Units=1/GPa)
#
#
# Indices 1 2 3 4 5 6 
#
# 1 0.008359 -0.006090 0.000484 0.000000 0.000000 0.000000
# 2 -0.006090 0.037593 -0.004265 0.000000 0.000000 0.000000
# 3 0.000484 -0.004265 0.004454 0.000000 0.000000 0.000000
# 4 0.000000 0.000000 0.000000 0.018896 0.000000 0.000000
# 5 0.000000 0.000000 0.000000 0.000000 0.008903 0.000000
# 6 0.000000 0.000000 0.000000 0.000000 0.000000 0.026478
#
#
# Mechanical properties :
#
#
# Convention : Reuss Voigt Hill
#
# Bulk Modulus (GPa) = 32.60921 60.10921 46.35921
# Shear Modulus (GPa) = 37.13410 64.74264 50.93837
#
# Velocity S-wave (km/s) = 3.76184 4.96717 4.40592
# Velocity P-wave (km/s) = 5.59426 7.47022 6.59924
#
# Compressibility (1/GPa) = 0.03066618
#
# Stress axis : x y z
#
# Youngs Moduli (GPa) = 119.62797 26.60048 224.50145
#
# Poissons Ratio (x) = 0.16200 -0.10875
# Poissons Ratio (y) = 0.72853 0.95744
# Poissons Ratio (z) = -0.05795 0.11344
#
# Static dielectric constant tensor:
#      x y z
#    x 1.890490 0.000000 0.000000 
#    y 0.000000 2.184880 0.000000 
#    z 0.000000 0.000000 2.220070 
# 
# From -- ./inp_files/10053.got.cif
#   From: 2010.05.17/outbox.cif.g08.bks.cpg/sg45_6_cif.got.tgz:10053.got - 2010.06.03 19:51:22.
