data_PCOD9376402
_publ_section_title
;
Structure prediction by ZEFSAII (Michael W. Deem and Ramdas Pophale) SiO2 
 PCOD9376402
Probable space group: I B A 2
;
_chemical_formula_sum "Si O2"
_cell_formula_units_Z 44
_cell_length_a 23.959190
_cell_length_b 9.833540
_cell_length_c 8.494819
_cell_angle_alpha 90.000000
_cell_angle_beta 90.000000
_cell_angle_gamma 90.000000
_cell_volume 2001.410390
_symmetry_space_group_name_H-M "I B A 2"
_symmetry_group_IT_number 45
_symmetry_cell_setting 'orthorhombic'
loop_
_space_group_symop_operation_xyz
x,y,z
-x,-y,z
-x,y,1/2+z
x,-y,1/2+z
1/2+x,1/2+y,1/2+z
1/2-x,1/2-y,1/2+z
1/2-x,1/2+y,z
1/2+x,1/2-y,z
loop_
_atom_site_type_symbol
_atom_site_label
_atom_site_fract_x
_atom_site_fract_y
_atom_site_fract_z
Si Si1 0.665459 0.058408 0.206080
Si Si2 0.133783 0.874411 0.012876
Si Si3 0.500000 0.000000 0.922012
Si Si4 0.929895 0.360749 0.184561
Si Si5 0.726580 0.835580 0.010443
Si Si6 0.147388 0.836305 0.638003
O O1 0.705736 0.130916 0.333458
O O2 0.629933 0.179172 0.125652
O O3 0.621344 0.945036 0.260991
O O4 0.703848 0.969327 0.095616
O O5 0.090755 0.781136 0.111944
O O6 0.193031 0.801390 0.058843
O O7 0.123944 0.030898 0.053785
O O8 0.136630 0.864983 0.823475
O O9 0.548235 0.942895 0.033116
O O10 0.478798 0.876486 0.811595
O O11 0.790394 0.826898 0.060862
#
# Coordination Sequence:
#
# PCOD9376402 Si02
#       6
#     8   8   4   8   8   8
#     4  10  21  36  57  83 120 153 203 251 292 344
#     4  10  23  37  55  83 122 155 200 243 290 346
#     4  10  20  38  72  92 112 140 198 254 320 388
#     4  10  21  41  65  94 113 149 195 258 315 368
#     4  10  20  35  54  83 117 162 208 242 276 335
#     4  11  21  35  55  83 120 166 199 235 283 345
#
# _framework density 21.984494000000002
#
# number of rings (size 3 to 8) (size 9 to 14) (size 15 to 20)
#    0.000    1.818    0.000    5.455    0.000    7.273 
#    0.000    1.818    0.000   18.545    0.000    0.000 
#    0.000    0.000    0.000    0.000    0.000    0.000 
#
# Total GULP energy -122482.309037 kJ/mol
# GULP energy per Si atom -5567.377683 kJ/mol
# Density = 2.193446 g / cm^3
# Si number density = 21.984494 Si / 1000 Ang^3
#
#
#
# Elastic Constant Matrix: (Units=GPa)
#
#
# Indices 1 2 3 4 5 6 
#
# 1 28.0192 -5.6821 19.5489 0.0000 0.0000 0.0000
# 2 -5.6821 21.9410 7.2373 0.0000 0.0000 0.0000
# 3 19.5489 7.2373 80.2983 0.0000 0.0000 0.0000
# 4 0.0000 0.0000 0.0000 36.5088 0.0000 0.0000
# 5 0.0000 0.0000 0.0000 0.0000 28.0453 0.0000
# 6 0.0000 0.0000 0.0000 0.0000 0.0000 -9.5677
#
#
#
# Elastic Compliance Matrix: (Units=1/GPa)
#
#
# Indices 1 2 3 4 5 6 
#
# 1 0.048410 0.016927 -0.013311 0.000000 0.000000 0.000000
# 2 0.016927 0.052892 -0.008888 0.000000 0.000000 0.000000
# 3 -0.013311 -0.008888 0.016495 0.000000 0.000000 0.000000
# 4 0.000000 0.000000 0.000000 0.027391 0.000000 0.000000
# 5 0.000000 0.000000 0.000000 0.000000 0.035657 0.000000
# 6 0.000000 0.000000 0.000000 0.000000 0.000000 -0.104518
#
#
# Mechanical properties :
#
#
# Convention : Reuss Voigt Hill
#
# Bulk Modulus (GPa) = 9.32371 19.16298 14.24334
# Shear Modulus (GPa) = 40.77594 18.27425 29.52509
#
# Velocity S-wave (km/s) = 4.31136 2.88624 3.66867
# Velocity P-wave (km/s) = 5.38833 4.45451 4.94352
#
# Compressibility (1/GPa) = 0.10725346
#
# Stress axis : x y z
#
# Youngs Moduli (GPa) = 20.65703 18.90631 60.62327
#
# Poissons Ratio (x) = -0.32004 0.80697
# Poissons Ratio (y) = -0.34967 0.53884
# Poissons Ratio (z) = 0.27497 0.16804
#
# Static dielectric constant tensor:
#      x y z
#    x 1.905120 0.000000 0.000000 
#    y 0.000000 1.810590 0.000000 
#    z 0.000000 0.000000 1.876010 
# 
# From -- ./inp_files/2716.got.cif
#   From: 2010.05.17/outbox.cif.g08.bks.cpg/sg45_2_cif.got.tgz:2716.got - 2010.06.03 19:51:22.
