data_PCOD9376946
_publ_section_title
;
Structure prediction by ZEFSAII (Michael W. Deem and Ramdas Pophale) SiO2 
 PCOD9376946
Probable space group: I B A 2
;
_chemical_formula_sum "Si O2"
_cell_formula_units_Z 40
_cell_length_a 12.389697
_cell_length_b 13.947940
_cell_length_c 8.385015
_cell_angle_alpha 90.000000
_cell_angle_beta 90.000000
_cell_angle_gamma 90.000000
_cell_volume 1449.020734
_symmetry_space_group_name_H-M "I B A 2"
_symmetry_group_IT_number 45
_symmetry_cell_setting 'orthorhombic'
loop_
_space_group_symop_operation_xyz
x,y,z
-x,-y,z
-x,y,1/2+z
x,-y,1/2+z
1/2+x,1/2+y,1/2+z
1/2-x,1/2-y,1/2+z
1/2-x,1/2+y,z
1/2+x,1/2-y,z
loop_
_atom_site_type_symbol
_atom_site_label
_atom_site_fract_x
_atom_site_fract_y
_atom_site_fract_z
Si Si1 0.563075 0.638510 0.587350
Si Si2 0.662640 0.894074 0.377677
Si Si3 0.961216 0.654869 0.203583
Si Si4 0.650706 0.555364 0.059236
Si Si5 0.755870 0.187431 0.334395
O O1 0.522235 0.730245 0.685086
O O2 0.457581 0.603011 0.490439
O O3 0.610673 0.538594 0.652332
O O4 0.661514 0.670488 0.476728
O O5 0.591020 0.875848 0.536436
O O6 0.569515 0.902547 0.245717
O O7 0.753083 0.968216 0.436672
O O8 0.734632 0.802765 0.321785
O O9 0.867884 0.652429 0.339272
O O10 0.698014 0.634089 0.179344
#
# Coordination Sequence:
#
# PCOD9376946 Si02
#       5
#     8   8   8   8   8
#     4  10  22  40  66 100 138 172 233 300 364 418
#     4  10  22  39  66  96 134 176 240 284 352 432
#     4  10  22  40  64  94 130 183 234 285 345 440
#     4  10  22  40  65 104 135 176 223 307 368 421
#     4  10  22  38  61  95 134 182 238 289 358 435
#
# _framework density 27.604849999999999
#
# number of rings (size 3 to 8) (size 9 to 14) (size 15 to 20)
#    0.000    2.000    2.000    0.000    5.600    6.400 
#    0.000    1.000    0.000    4.800    0.000    0.000 
#    0.000    0.000    0.000    0.000    0.000    0.000 
#
# Total GULP energy -111841.404345 kJ/mol
# GULP energy per Si atom -5592.070217 kJ/mol
# Density = 2.754202 g / cm^3
# Si number density = 27.604850 Si / 1000 Ang^3
#
#
#
# Elastic Constant Matrix: (Units=GPa)
#
#
# Indices 1 2 3 4 5 6 
#
# 1 163.9516 28.6738 41.3162 0.0000 0.0000 0.0000
# 2 28.6738 86.0372 16.6232 0.0000 0.0000 0.0000
# 3 41.3162 16.6232 81.9328 0.0000 0.0000 0.0000
# 4 0.0000 0.0000 0.0000 41.4156 0.0000 0.0000
# 5 0.0000 0.0000 0.0000 0.0000 48.2211 0.0000
# 6 0.0000 0.0000 0.0000 0.0000 0.0000 42.7932
#
#
#
# Elastic Compliance Matrix: (Units=1/GPa)
#
#
# Indices 1 2 3 4 5 6 
#
# 1 0.007239 -0.001777 -0.003290 0.000000 0.000000 0.000000
# 2 -0.001777 0.012533 -0.001647 0.000000 0.000000 0.000000
# 3 -0.003290 -0.001647 0.014198 0.000000 0.000000 0.000000
# 4 0.000000 0.000000 0.000000 0.024145 0.000000 0.000000
# 5 0.000000 0.000000 0.000000 0.000000 0.020738 0.000000
# 6 0.000000 0.000000 0.000000 0.000000 0.000000 0.023368
#
#
# Mechanical properties :
#
#
# Convention : Reuss Voigt Hill
#
# Bulk Modulus (GPa) = 48.67772 56.12754 52.40263
# Shear Modulus (GPa) = 40.81717 42.83989 41.82853
#
# Velocity S-wave (km/s) = 3.84946 3.94369 3.89686
# Velocity P-wave (km/s) = 6.11799 6.41198 6.26671
#
# Compressibility (1/GPa) = 0.02054328
#
# Stress axis : x y z
#
# Youngs Moduli (GPa) = 138.13637 79.78767 70.43110
#
# Poissons Ratio (x) = 0.14178 0.23172
# Poissons Ratio (y) = 0.24546 0.11598
# Poissons Ratio (z) = 0.45447 0.13139
#
# Static dielectric constant tensor:
#      x y z
#    x 2.126560 0.000000 0.000000 
#    y 0.000000 2.216000 0.000000 
#    z 0.000000 0.000000 2.157470 
# 
# From -- ./inp_files/1262.got.cif
#   From: 2010.05.17/outbox.cif.g08.bks.cpg/sg45_1_cif.got.tgz:1262.got - 2010.06.03 19:51:22.
