data_PCOD9376059
_publ_section_title
;
Structure prediction by ZEFSAII (Michael W. Deem and Ramdas Pophale) SiO2 
 PCOD9376059
Probable space group: I B A 2
;
_chemical_formula_sum "Si O2"
_cell_formula_units_Z 56
_cell_length_a 20.133820
_cell_length_b 22.698546
_cell_length_c 5.454725
_cell_angle_alpha 90.000000
_cell_angle_beta 90.000000
_cell_angle_gamma 90.000000
_cell_volume 2492.855360
_symmetry_space_group_name_H-M "I B A 2"
_symmetry_group_IT_number 45
_symmetry_cell_setting 'orthorhombic'
loop_
_space_group_symop_operation_xyz
x,y,z
-x,-y,z
-x,y,1/2+z
x,-y,1/2+z
1/2+x,1/2+y,1/2+z
1/2-x,1/2-y,1/2+z
1/2-x,1/2+y,z
1/2+x,1/2-y,z
loop_
_atom_site_type_symbol
_atom_site_label
_atom_site_fract_x
_atom_site_fract_y
_atom_site_fract_z
Si Si1 0.576477 0.525135 0.388120
Si Si2 0.093200 0.349404 0.346848
Si Si3 0.758115 0.331276 0.843299
Si Si4 0.574034 0.021764 0.496540
Si Si5 0.103792 0.713250 0.347486
Si Si6 0.762555 0.193340 0.844919
Si Si7 0.542913 0.339039 0.904069
O O1 0.500000 0.500000 0.387116
O O2 0.607136 0.499446 0.637214
O O3 0.573941 0.595708 0.391706
O O4 0.172511 0.364297 0.340386
O O5 0.063540 0.411891 0.408694
O O6 0.075609 0.321343 0.084592
O O7 0.079713 0.307229 0.579493
O O8 0.782540 0.261867 0.842814
O O9 0.719454 0.338531 0.095278
O O10 0.717319 0.337496 0.595045
O O11 0.500000 0.000000 0.545875
O O12 0.606483 0.986543 0.266683
O O13 0.182209 0.697720 0.347949
O O14 0.089950 0.781978 0.384092
O O15 0.505342 0.335118 0.166081
#
# Coordination Sequence:
#
# PCOD9376059 Si02
#       7
#     8   8   8   8   8   8   8
#     4  10  16  30  49  62  81 114 160 204 215 242
#     4  10  19  36  52  71  98 124 164 200 255 310
#     4   8  14  25  49  71  89 120 146 185 225 290
#     4  10  21  38  53  68  90 126 176 221 249 287
#     4  10  21  33  47  74 104 129 151 199 256 310
#     4   8  14  27  44  69  99 118 146 177 231 291
#     4  12  21  33  45  69  98 125 165 192 233 281
#
# _framework density 22.464200999999999
#
# number of rings (size 3 to 8) (size 9 to 14) (size 15 to 20)
#    0.000    2.286    2.857    1.714    0.000    0.000 
#   15.429    0.000    0.000    0.000    0.000    2.000 
#    0.000    0.000    0.000    0.000    0.000    0.000 
#
# Total GULP energy -156251.740090 kJ/mol
# GULP energy per Si atom -5580.419289 kJ/mol
# Density = 2.241307 g / cm^3
# Si number density = 22.464201 Si / 1000 Ang^3
#
#
#
# Elastic Constant Matrix: (Units=GPa)
#
#
# Indices 1 2 3 4 5 6 
#
# 1 25.4804 -1.0044 -3.9047 0.0000 0.0000 0.0000
# 2 -1.0044 70.1339 -9.8423 0.0000 0.0000 0.0000
# 3 -3.9047 -9.8423 195.4332 0.0000 0.0000 0.0000
# 4 0.0000 0.0000 0.0000 31.7483 0.0000 0.0000
# 5 0.0000 0.0000 0.0000 0.0000 -15.5678 0.0000
# 6 0.0000 0.0000 0.0000 0.0000 0.0000 485.7398
#
#
#
# Elastic Compliance Matrix: (Units=1/GPa)
#
#
# Indices 1 2 3 4 5 6 
#
# 1 0.039399 0.000680 0.000821 0.000000 0.000000 0.000000
# 2 0.000680 0.014372 0.000737 0.000000 0.000000 0.000000
# 3 0.000821 0.000737 0.005170 0.000000 0.000000 0.000000
# 4 0.000000 0.000000 0.000000 0.031498 0.000000 0.000000
# 5 0.000000 0.000000 0.000000 0.000000 -0.064235 0.000000
# 6 0.000000 0.000000 0.000000 0.000000 0.000000 0.002059
#
#
# Mechanical properties :
#
#
# Convention : Reuss Voigt Hill
#
# Bulk Modulus (GPa) = 15.76861 29.06051 22.41456
# Shear Modulus (GPa) = 111.29771 120.77064 116.03418
#
# Velocity S-wave (km/s) = 7.04642 7.34017 7.19479
# Velocity P-wave (km/s) = 8.55788 9.20879 8.88930
#
# Compressibility (1/GPa) = 0.06341712
#
# Stress axis : x y z
#
# Youngs Moduli (GPa) = 25.38166 69.58141 193.40926
#
# Poissons Ratio (x) = -0.04728 -0.15886
# Poissons Ratio (y) = -0.01725 -0.14261
# Poissons Ratio (z) = -0.02085 -0.05131
#
# Static dielectric constant tensor:
#      x y z
#    x 1.874600 0.000000 0.000000 
#    y 0.000000 1.789340 0.000000 
#    z 0.000000 0.000000 2.000420 
# 
# From -- ./inp_files/538.got.cif
#   From: 2010.05.17/outbox.cif.g08.bks.cpg/sg45_1_cif.got.tgz:538.got - 2010.06.03 19:51:22.
