data_PCOD9376755
_publ_section_title
;
Structure prediction by ZEFSAII (Michael W. Deem and Ramdas Pophale) SiO2 
 PCOD9376755
Probable space group: I B A 2
;
_chemical_formula_sum "Si O2"
_cell_formula_units_Z 60
_cell_length_a 9.721489
_cell_length_b 11.576474
_cell_length_c 23.248115
_cell_angle_alpha 90.000000
_cell_angle_beta 90.000000
_cell_angle_gamma 90.000000
_cell_volume 2616.355989
_symmetry_space_group_name_H-M "I B A 2"
_symmetry_group_IT_number 45
_symmetry_cell_setting 'orthorhombic'
loop_
_space_group_symop_operation_xyz
x,y,z
-x,-y,z
-x,y,1/2+z
x,-y,1/2+z
1/2+x,1/2+y,1/2+z
1/2-x,1/2-y,1/2+z
1/2-x,1/2+y,z
1/2+x,1/2-y,z
loop_
_atom_site_type_symbol
_atom_site_label
_atom_site_fract_x
_atom_site_fract_y
_atom_site_fract_z
Si Si1 0.359282 0.444922 0.320410
Si Si2 0.864284 0.951504 0.133587
Si Si3 0.796554 0.045558 0.508025
Si Si4 0.050832 0.784684 0.427706
Si Si5 0.504722 0.781550 0.147830
Si Si6 0.000000 0.500000 0.059172
Si Si7 0.274691 0.623358 0.407454
Si Si8 0.756689 0.363767 0.703816
O O1 0.500000 0.500000 0.297737
O O2 0.397191 0.362038 0.373690
O O3 0.280487 0.553698 0.348294
O O4 0.288735 0.378399 0.268984
O O5 0.849153 0.998610 0.069478
O O6 0.902555 0.819106 0.124695
O O7 0.748175 0.009860 0.172243
O O8 0.000000 0.000000 0.163292
O O9 0.879191 0.159072 0.485338
O O10 0.632185 0.034790 0.519770
O O11 0.829979 0.958886 0.457372
O O12 0.123600 0.663385 0.421090
O O13 0.887779 0.775757 0.416212
O O14 0.648229 0.721678 0.168934
O O15 0.413522 0.822849 0.201448
O O16 0.501746 0.885968 0.101464
#
# Coordination Sequence:
#
# PCOD9376755 Si02
#       8
#     8   8   8   8   8   4   8   8
#     4   9  20  43  66  93 128 176 226 275 340 420
#     4  10  21  39  63  93 128 182 224 262 346 419
#     4  11  23  39  62  93 134 179 220 278 338 416
#     4  10  23  40  66  94 130 175 224 276 350 408
#     4  11  25  43  65 101 137 178 225 291 339 423
#     4  12  26  42  62 102 146 174 234 300 340 412
#     4  10  23  43  67  96 134 173 230 285 339 427
#     4  11  23  42  72  95 137 180 232 280 353 414
#
# _framework density 22.932659000000001
#
# number of rings (size 3 to 8) (size 9 to 14) (size 15 to 20)
#    0.000    1.600    1.333    4.000    3.733    5.333 
#    0.000    0.000    0.000    0.000    0.000    0.000 
#    0.000    0.000    0.000    0.000    0.000    0.000 
#
# Total GULP energy -167016.376829 kJ/mol
# GULP energy per Si atom -5567.212561 kJ/mol
# Density = 2.288046 g / cm^3
# Si number density = 22.932659 Si / 1000 Ang^3
#
#
#
# Elastic Constant Matrix: (Units=GPa)
#
#
# Indices 1 2 3 4 5 6 
#
# 1 73.9214 1.3545 5.7994 0.0000 0.0000 0.0000
# 2 1.3545 62.9469 -1.1362 0.0000 0.0000 0.0000
# 3 5.7994 -1.1362 97.6886 0.0000 0.0000 0.0000
# 4 0.0000 0.0000 0.0000 14.4784 0.0000 0.0000
# 5 0.0000 0.0000 0.0000 0.0000 -6.2848 0.0000
# 6 0.0000 0.0000 0.0000 0.0000 0.0000 13.7821
#
#
#
# Elastic Compliance Matrix: (Units=1/GPa)
#
#
# Indices 1 2 3 4 5 6 
#
# 1 0.013597 -0.000307 -0.000811 0.000000 0.000000 0.000000
# 2 -0.000307 0.015897 0.000203 0.000000 0.000000 0.000000
# 3 -0.000811 0.000203 0.010287 0.000000 0.000000 0.000000
# 4 0.000000 0.000000 0.000000 0.069068 0.000000 0.000000
# 5 0.000000 0.000000 0.000000 0.000000 -0.159115 0.000000
# 6 0.000000 0.000000 0.000000 0.000000 0.000000 0.072558
#
#
# Mechanical properties :
#
#
# Convention : Reuss Voigt Hill
#
# Bulk Modulus (GPa) = 26.34965 27.39914 26.87440
# Shear Modulus (GPa) = 135.96997 19.63109 77.80053
#
# Velocity S-wave (km/s) = 7.70842 2.92898 5.83089
# Velocity P-wave (km/s) = 9.52582 4.83861 7.55491
#
# Compressibility (1/GPa) = 0.03795116
#
# Stress axis : x y z
#
# Youngs Moduli (GPa) = 73.54503 62.90617 97.20909
#
# Poissons Ratio (x) = 0.01933 0.07882
# Poissons Ratio (y) = 0.02260 -0.01975
# Poissons Ratio (z) = 0.05963 -0.01278
#
# Static dielectric constant tensor:
#      x y z
#    x 2.153460 0.000000 0.000000 
#    y 0.000000 1.985950 0.000000 
#    z 0.000000 0.000000 1.810380 
# 
# From -- ./inp_files/9088.got.cif
#   From: 2010.05.17/outbox.cif.g08.bks.cpg/sg45_5_cif.got.tgz:9088.got - 2010.06.03 19:51:22.
