data_PCOD9376052
_publ_section_title
;
Structure prediction by ZEFSAII (Michael W. Deem and Ramdas Pophale) SiO2 
 PCOD9376052
Probable space group: I B A 2
;
_chemical_formula_sum "Si O2"
_cell_formula_units_Z 40
_cell_length_a 17.610241
_cell_length_b 23.398966
_cell_length_c 5.195567
_cell_angle_alpha 90.000000
_cell_angle_beta 90.000000
_cell_angle_gamma 90.000000
_cell_volume 2140.892770
_symmetry_space_group_name_H-M "I B A 2"
_symmetry_group_IT_number 45
_symmetry_cell_setting 'orthorhombic'
loop_
_space_group_symop_operation_xyz
x,y,z
-x,-y,z
-x,y,1/2+z
x,-y,1/2+z
1/2+x,1/2+y,1/2+z
1/2-x,1/2-y,1/2+z
1/2-x,1/2+y,z
1/2+x,1/2-y,z
loop_
_atom_site_type_symbol
_atom_site_label
_atom_site_fract_x
_atom_site_fract_y
_atom_site_fract_z
Si Si1 0.712661 0.462488 0.944820
Si Si2 0.359384 0.746774 0.187158
Si Si3 0.095492 0.802281 0.191720
Si Si4 0.042659 0.924270 0.321615
Si Si5 0.250894 0.664892 0.901406
O O1 0.729136 0.497279 0.685895
O O2 0.622901 0.446637 0.924077
O O3 0.754492 0.401486 0.966639
O O4 0.413545 0.721113 0.406585
O O5 0.287737 0.703727 0.129493
O O6 0.323369 0.804702 0.292657
O O7 0.400534 0.746230 0.911484
O O8 0.048447 0.855474 0.298589
O O9 0.181591 0.828541 0.191821
O O10 0.979083 0.940600 0.530522
#
# Coordination Sequence:
#
# PCOD9376052 Si02
#       5
#     8   8   8   8   8
#     4  11  25  35  47  65  95 130 166 209 232 271
#     4  10  16  29  50  72  84 107 139 206 240 294
#     4   9  18  28  46  69  89 104 147 199 244 281
#     4  11  22  35  50  62  87 128 174 213 237 262
#     4   9  19  29  51  68  90 108 151 193 247 289
#
# _framework density 18.683795
#
# number of rings (size 3 to 8) (size 9 to 14) (size 15 to 20)
#    1.200    0.800    2.000    2.400    5.600    2.400 
#    0.000    0.000    0.000    0.000    0.000    0.000 
#    0.000    0.000    0.000    0.000    0.000   70.000 
#
# Total GULP energy -111440.828161 kJ/mol
# GULP energy per Si atom -5572.041408 kJ/mol
# Density = 1.864127 g / cm^3
# Si number density = 18.683795 Si / 1000 Ang^3
#
#
#
# Elastic Constant Matrix: (Units=GPa)
#
#
# Indices 1 2 3 4 5 6 
#
# 1 26.0321 28.3688 -0.1299 0.0000 0.0000 0.0000
# 2 28.3688 122.2342 24.1270 0.0000 0.0000 0.0000
# 3 -0.1299 24.1270 102.4739 0.0000 0.0000 0.0000
# 4 0.0000 0.0000 0.0000 8.2711 0.0000 0.0000
# 5 0.0000 0.0000 0.0000 0.0000 6.2528 0.0000
# 6 0.0000 0.0000 0.0000 0.0000 0.0000 33.1674
#
#
#
# Elastic Compliance Matrix: (Units=1/GPa)
#
#
# Indices 1 2 3 4 5 6 
#
# 1 0.052323 -0.012749 0.003068 0.000000 0.000000 0.000000
# 2 -0.012749 0.011686 -0.002768 0.000000 0.000000 0.000000
# 3 0.003068 -0.002768 0.010414 0.000000 0.000000 0.000000
# 4 0.000000 0.000000 0.000000 0.120903 0.000000 0.000000
# 5 0.000000 0.000000 0.000000 0.000000 0.159927 0.000000
# 6 0.000000 0.000000 0.000000 0.000000 0.000000 0.030150
#
#
# Mechanical properties :
#
#
# Convention : Reuss Voigt Hill
#
# Bulk Modulus (GPa) = 20.19142 39.49688 29.84415
# Shear Modulus (GPa) = 11.71483 22.76321 17.23902
#
# Velocity S-wave (km/s) = 2.50672 3.49426 3.04085
# Velocity P-wave (km/s) = 4.38276 6.12089 5.32325
#
# Compressibility (1/GPa) = 0.04952598
#
# Stress axis : x y z
#
# Youngs Moduli (GPa) = 19.11212 85.57139 96.02372
#
# Poissons Ratio (x) = 1.09095 -0.29460
# Poissons Ratio (y) = 0.24366 0.26576
# Poissons Ratio (z) = -0.05864 0.23683
#
# Static dielectric constant tensor:
#      x y z
#    x 1.674460 0.000000 0.000000 
#    y 0.000000 1.687240 0.000000 
#    z 0.000000 0.000000 1.679200 
# 
# From -- ./inp_files/170.got.cif
#   From: 2010.05.17/outbox.cif.g08.bks.cpg/sg45_1_cif.got.tgz:170.got - 2010.06.03 19:51:22.
