data_PCOD9376941
_publ_section_title
;
Structure prediction by ZEFSAII (Michael W. Deem and Ramdas Pophale) SiO2 
 PCOD9376941
Probable space group: I B A 2
;
_chemical_formula_sum "Si O2"
_cell_formula_units_Z 48
_cell_length_a 14.877089
_cell_length_b 10.561581
_cell_length_c 12.831013
_cell_angle_alpha 90.000000
_cell_angle_beta 90.000000
_cell_angle_gamma 90.000000
_cell_volume 2016.080366
_symmetry_space_group_name_H-M "I B A 2"
_symmetry_group_IT_number 45
_symmetry_cell_setting 'orthorhombic'
loop_
_space_group_symop_operation_xyz
x,y,z
-x,-y,z
-x,y,1/2+z
x,-y,1/2+z
1/2+x,1/2+y,1/2+z
1/2-x,1/2-y,1/2+z
1/2-x,1/2+y,z
1/2+x,1/2-y,z
loop_
_atom_site_type_symbol
_atom_site_label
_atom_site_fract_x
_atom_site_fract_y
_atom_site_fract_z
Si Si1 0.457270 0.818456 0.781370
Si Si2 0.561881 0.617993 0.449838
Si Si3 0.767391 0.364947 0.244737
Si Si4 0.743854 0.883091 0.878586
Si Si5 0.096152 0.517174 0.485215
Si Si6 0.614312 0.780550 0.631064
O O1 0.459396 0.683002 0.838720
O O2 0.370051 0.838992 0.708314
O O3 0.431940 0.908414 0.879109
O O4 0.552252 0.832125 0.724641
O O5 0.500000 0.500000 0.464957
O O6 0.550445 0.711345 0.547356
O O7 0.667075 0.586347 0.443337
O O8 0.758648 0.507798 0.288424
O O9 0.689297 0.317847 0.168542
O O10 0.754766 0.740822 0.836646
O O11 0.654766 0.900692 0.946945
O O12 0.153744 0.604580 0.562687
O O13 0.000000 0.500000 0.538832
#
# Coordination Sequence:
#
# PCOD9376941 Si02
#       6
#     8   8   8   8   8   8
#     4   9  21  41  58  82 121 161 201 246 300 358
#     4  10  22  38  59  87 120 159 202 249 300 357
#     4  10  22  40  64  88 118 164 204 246 302 360
#     4  10  22  42  64  86 122 164 200 248 304 358
#     4  10  22  38  59  87 120 159 202 249 300 357
#     4  11  23  37  60  92 121 157 205 252 300 358
#
# _framework density 23.808575000000001
#
# number of rings (size 3 to 8) (size 9 to 14) (size 15 to 20)
#    0.000    2.000    0.000    3.000    0.000   12.000 
#    0.000    3.333    0.000    0.000    0.000    0.000 
#    0.000    0.000    0.000    0.000    0.000    0.000 
#
# Total GULP energy -134091.453739 kJ/mol
# GULP energy per Si atom -5587.143906 kJ/mol
# Density = 2.375439 g / cm^3
# Si number density = 23.808575 Si / 1000 Ang^3
#
#
#
# Elastic Constant Matrix: (Units=GPa)
#
#
# Indices 1 2 3 4 5 6 
#
# 1 76.4027 8.1021 33.6519 0.0000 0.0000 0.0000
# 2 8.1021 58.5754 11.2715 0.0000 0.0000 0.0000
# 3 33.6519 11.2715 82.6791 0.0000 0.0000 0.0000
# 4 0.0000 0.0000 0.0000 30.5611 0.0000 0.0000
# 5 0.0000 0.0000 0.0000 0.0000 15.7096 0.0000
# 6 0.0000 0.0000 0.0000 0.0000 0.0000 31.7028
#
#
#
# Elastic Compliance Matrix: (Units=1/GPa)
#
#
# Indices 1 2 3 4 5 6 
#
# 1 0.016003 -0.000986 -0.006379 0.000000 0.000000 0.000000
# 2 -0.000986 0.017593 -0.001997 0.000000 0.000000 0.000000
# 3 -0.006379 -0.001997 0.014964 0.000000 0.000000 0.000000
# 4 0.000000 0.000000 0.000000 0.032721 0.000000 0.000000
# 5 0.000000 0.000000 0.000000 0.000000 0.063655 0.000000
# 6 0.000000 0.000000 0.000000 0.000000 0.000000 0.031543
#
#
# Mechanical properties :
#
#
# Convention : Reuss Voigt Hill
#
# Bulk Modulus (GPa) = 33.51778 35.96759 34.74268
# Shear Modulus (GPa) = 24.37268 26.57015 25.47141
#
# Velocity S-wave (km/s) = 3.20299 3.34427 3.27439
# Velocity P-wave (km/s) = 5.27138 5.48197 5.37771
#
# Compressibility (1/GPa) = 0.02983492
#
# Stress axis : x y z
#
# Youngs Moduli (GPa) = 62.48916 56.84175 66.82885
#
# Poissons Ratio (x) = 0.05605 0.42630
# Poissons Ratio (y) = 0.06161 0.13346
# Poissons Ratio (z) = 0.39862 0.11352
#
# Static dielectric constant tensor:
#      x y z
#    x 1.947470 0.000000 0.000000 
#    y 0.000000 1.936070 0.000000 
#    z 0.000000 0.000000 1.953800 
# 
# From -- ./inp_files/4099.got.cif
#   From: 2010.05.17/outbox.cif.g08.bks.cpg/sg45_3_cif.got.tgz:4099.got - 2010.06.03 19:51:22.
