data_PCOD9376042
_publ_section_title
;
Structure prediction by ZEFSAII (Michael W. Deem and Ramdas Pophale) SiO2 
 PCOD9376042
Probable space group: I B A 2
;
_chemical_formula_sum "Si O2"
_cell_formula_units_Z 48
_cell_length_a 22.557555
_cell_length_b 16.459956
_cell_length_c 5.543717
_cell_angle_alpha 90.000000
_cell_angle_beta 90.000000
_cell_angle_gamma 90.000000
_cell_volume 2058.361958
_symmetry_space_group_name_H-M "I B A 2"
_symmetry_group_IT_number 45
_symmetry_cell_setting 'orthorhombic'
loop_
_space_group_symop_operation_xyz
x,y,z
-x,-y,z
-x,y,1/2+z
x,-y,1/2+z
1/2+x,1/2+y,1/2+z
1/2-x,1/2-y,1/2+z
1/2-x,1/2+y,z
1/2+x,1/2-y,z
loop_
_atom_site_type_symbol
_atom_site_label
_atom_site_fract_x
_atom_site_fract_y
_atom_site_fract_z
Si Si1 0.444016 0.787435 0.387340
Si Si2 0.753017 0.319648 0.387342
Si Si3 0.022987 0.125458 0.887340
Si Si4 0.586804 0.951438 0.887348
Si Si5 0.287880 0.855307 0.387342
Si Si6 0.616859 0.257752 0.887341
O O1 0.490321 0.714162 0.387339
O O2 0.462866 0.880822 0.387344
O O3 0.409131 0.777257 0.638418
O O4 0.409132 0.777259 0.136260
O O5 0.707202 0.244642 0.387342
O O6 0.753658 0.370000 0.634744
O O7 0.815556 0.270605 0.387341
O O8 0.753658 0.370000 0.139940
O O9 0.092640 0.149006 0.887343
O O10 0.000000 0.088155 0.637340
O O11 0.651364 0.905710 0.887344
O O12 0.583358 0.000001 0.637350
#
# Coordination Sequence:
#
# PCOD9376042 Si02
#       6
#     8   8   8   8   8   8
#     4  10  18  30  42  62  82 108 148 176 207 258
#     4  10  17  30  50  66  84 100 135 189 229 266
#     4   8  16  25  42  60  79 104 135 172 213 260
#     4  12  22  32  46  61  86 122 154 182 215 254
#     4  10  20  31  44  68  84 104 140 188 222 261
#     4  10  15  28  48  63  79 106 134 179 231 262
#
# _framework density 23.319514999999999
#
# number of rings (size 3 to 8) (size 9 to 14) (size 15 to 20)
#    0.000    2.000    3.333    2.000    0.000    0.000 
#    0.000    0.000    0.000   27.000    0.000    0.000 
#    0.000    0.000    0.000    0.000    0.000   45.000 
#
# Total GULP energy -133723.357641 kJ/mol
# GULP energy per Si atom -5571.806568 kJ/mol
# Density = 2.326644 g / cm^3
# Si number density = 23.319515 Si / 1000 Ang^3
#
#
#
# Elastic Constant Matrix: (Units=GPa)
#
#
# Indices 1 2 3 4 5 6 
#
# 1 61.7661 23.5371 31.2428 0.0000 0.0000 0.0000
# 2 23.5371 84.3685 33.6361 0.0000 0.0000 0.0000
# 3 31.2428 33.6361 265.3871 0.0000 0.0000 0.0000
# 4 0.0000 0.0000 0.0000 -12.8611 0.0000 0.0000
# 5 0.0000 0.0000 0.0000 0.0000 42.4974 0.0000
# 6 0.0000 0.0000 0.0000 0.0000 0.0000 -13.2413
#
#
#
# Elastic Compliance Matrix: (Units=1/GPa)
#
#
# Indices 1 2 3 4 5 6 
#
# 1 0.018761 -0.004585 -0.001627 0.000000 0.000000 0.000000
# 2 -0.004585 0.013604 -0.001184 0.000000 0.000000 0.000000
# 3 -0.001627 -0.001184 0.004110 0.000000 0.000000 0.000000
# 4 0.000000 0.000000 0.000000 -0.077754 0.000000 0.000000
# 5 0.000000 0.000000 0.000000 0.000000 0.023531 0.000000
# 6 0.000000 0.000000 0.000000 0.000000 0.000000 -0.075521
#
#
# Mechanical properties :
#
#
# Convention : Reuss Voigt Hill
#
# Bulk Modulus (GPa) = 46.12418 65.37265 55.74841
# Shear Modulus (GPa) = -70.17587 24.81940 -22.67824
#
# Velocity S-wave (km/s) = -5.49168 3.26593 -3.12188
# Velocity P-wave (km/s) = 4.51544 6.50508 3.31110
#
# Compressibility (1/GPa) = 0.02168060
#
# Stress axis : x y z
#
# Youngs Moduli (GPa) = 53.30346 73.50729 243.32088
#
# Poissons Ratio (x) = 0.33703 0.39600
# Poissons Ratio (y) = 0.24439 0.28821
# Poissons Ratio (z) = 0.08675 0.08707
#
# Static dielectric constant tensor:
#      x y z
#    x 2.104190 0.000000 0.000000 
#    y 0.000000 1.891160 0.000000 
#    z 0.000000 0.000000 1.987390 
# 
# From -- ./inp_files/311.got.cif
#   From: 2010.05.17/outbox.cif.g08.bks.cpg/sg45_1_cif.got.tgz:311.got - 2010.06.03 19:51:22.
