data_PCOD9376304
_publ_section_title
;
Structure prediction by ZEFSAII (Michael W. Deem and Ramdas Pophale) SiO2 
 PCOD9376304
Probable space group: I B A 2
;
_chemical_formula_sum "Si O2"
_cell_formula_units_Z 48
_cell_length_a 5.342476
_cell_length_b 13.676707
_cell_length_c 29.455623
_cell_angle_alpha 90.000000
_cell_angle_beta 90.000000
_cell_angle_gamma 90.000000
_cell_volume 2152.248112
_symmetry_space_group_name_H-M "I B A 2"
_symmetry_group_IT_number 45
_symmetry_cell_setting 'orthorhombic'
loop_
_space_group_symop_operation_xyz
x,y,z
-x,-y,z
-x,y,1/2+z
x,-y,1/2+z
1/2+x,1/2+y,1/2+z
1/2-x,1/2-y,1/2+z
1/2-x,1/2+y,z
1/2+x,1/2-y,z
loop_
_atom_site_type_symbol
_atom_site_label
_atom_site_fract_x
_atom_site_fract_y
_atom_site_fract_z
Si Si1 0.260055 0.315005 0.212320
Si Si2 0.359956 0.868626 0.113424
Si Si3 0.252148 0.063553 0.984868
Si Si4 0.250943 0.935566 0.304903
Si Si5 0.359867 0.645282 0.077161
Si Si6 0.724217 0.310980 0.895546
O O1 0.527357 0.260658 0.212531
O O2 0.226026 0.373029 0.165288
O O3 0.243548 0.381163 0.256712
O O4 0.391001 0.753692 0.098266
O O5 0.638778 0.906653 0.105310
O O6 0.131769 0.902583 0.082256
O O7 0.269811 0.112396 0.935725
O O8 0.500000 0.000000 0.993391
O O9 0.225366 0.143198 0.025068
O O10 0.000000 0.000000 0.985832
O O11 0.248029 0.859675 0.346295
O O12 0.500000 0.000000 0.309120
O O13 0.000000 0.000000 0.307710
O O14 0.444861 0.268426 0.900127
#
# Coordination Sequence:
#
# PCOD9376304 Si02
#       6
#     8   8   8   8   8   8
#     4  12  21  41  69  98 126 175 232 272 323 384
#     4  10  19  37  64  91 121 172 221 285 298 363
#     4  12  26  44  65 100 142 176 210 277 343 396
#     4  12  26  46  68  99 142 174 205 276 350 399
#     4  10  20  36  62  90 125 175 216 259 331 365
#     4  12  26  46  74 104 124 174 230 271 319 403
#
# _framework density 22.302263
#
# number of rings (size 3 to 8) (size 9 to 14) (size 15 to 20)
#    0.000    0.667    3.333    6.000    4.667    0.000 
#    0.000    5.000    0.000    0.000    0.000    0.000 
#    0.000    0.000    0.000    0.000    0.000    0.000 
#
# Total GULP energy -134347.899798 kJ/mol
# GULP energy per Si atom -5597.829158 kJ/mol
# Density = 2.225150 g / cm^3
# Si number density = 22.302263 Si / 1000 Ang^3
#
#
#
# Elastic Constant Matrix: (Units=GPa)
#
#
# Indices 1 2 3 4 5 6 
#
# 1 136.4847 7.5600 2.9491 0.0000 0.0000 0.0000
# 2 7.5600 28.3782 17.7676 0.0000 0.0000 0.0000
# 3 2.9491 17.7676 123.4093 0.0000 0.0000 0.0000
# 4 0.0000 0.0000 0.0000 29.9402 0.0000 0.0000
# 5 0.0000 0.0000 0.0000 0.0000 29.2239 0.0000
# 6 0.0000 0.0000 0.0000 0.0000 0.0000 46.8452
#
#
#
# Elastic Compliance Matrix: (Units=1/GPa)
#
#
# Indices 1 2 3 4 5 6 
#
# 1 0.007438 -0.002056 0.000118 0.000000 0.000000 0.000000
# 2 -0.002056 0.039297 -0.005609 0.000000 0.000000 0.000000
# 3 0.000118 -0.005609 0.008908 0.000000 0.000000 0.000000
# 4 0.000000 0.000000 0.000000 0.033400 0.000000 0.000000
# 5 0.000000 0.000000 0.000000 0.000000 0.034219 0.000000
# 6 0.000000 0.000000 0.000000 0.000000 0.000000 0.021347
#
#
# Mechanical properties :
#
#
# Convention : Reuss Voigt Hill
#
# Bulk Modulus (GPa) = 24.66007 38.31397 31.48702
# Shear Modulus (GPa) = 28.86537 38.53488 33.70013
#
# Velocity S-wave (km/s) = 3.60151 4.16125 3.89146
# Velocity P-wave (km/s) = 5.32689 6.34860 5.86005
#
# Compressibility (1/GPa) = 0.04055139
#
# Stress axis : x y z
#
# Youngs Moduli (GPa) = 134.44233 25.44694 112.26132
#
# Poissons Ratio (x) = 0.05231 -0.01327
# Poissons Ratio (y) = 0.27635 0.62964
# Poissons Ratio (z) = -0.01589 0.14272
#
# Static dielectric constant tensor:
#      x y z
#    x 1.843420 0.000000 0.000000 
#    y 0.000000 1.483500 0.000000 
#    z 0.000000 0.000000 1.775810 
# 
# From -- ./inp_files/9889.got.cif
#   From: 2010.05.17/outbox.cif.g08.bks.cpg/sg45_5_cif.got.tgz:9889.got - 2010.06.03 19:51:22.
