data_PCOD9376614
_publ_section_title
;
Structure prediction by ZEFSAII (Michael W. Deem and Ramdas Pophale) SiO2 
 PCOD9376614
Probable space group: I B A 2
;
_chemical_formula_sum "Si O2"
_cell_formula_units_Z 40
_cell_length_a 5.689611
_cell_length_b 27.044477
_cell_length_c 9.473008
_cell_angle_alpha 90.000000
_cell_angle_beta 90.000000
_cell_angle_gamma 90.000000
_cell_volume 1457.635933
_symmetry_space_group_name_H-M "I B A 2"
_symmetry_group_IT_number 45
_symmetry_cell_setting 'orthorhombic'
loop_
_space_group_symop_operation_xyz
x,y,z
-x,-y,z
-x,y,1/2+z
x,-y,1/2+z
1/2+x,1/2+y,1/2+z
1/2-x,1/2-y,1/2+z
1/2-x,1/2+y,z
1/2+x,1/2-y,z
loop_
_atom_site_type_symbol
_atom_site_label
_atom_site_fract_x
_atom_site_fract_y
_atom_site_fract_z
Si Si1 0.371921 0.745244 0.006100
Si Si2 0.607512 0.829361 0.845549
Si Si3 0.753692 0.492957 0.663752
Si Si4 0.743770 0.909340 0.343547
Si Si5 0.880680 0.114165 0.142065
O O1 0.622714 0.746129 0.081549
O O2 0.416716 0.786747 0.883980
O O3 0.327489 0.692468 0.932204
O O4 0.488702 0.880429 0.891972
O O5 0.702882 0.842757 0.689895
O O6 0.500000 0.500000 0.591289
O O7 0.768896 0.534651 0.786375
O O8 0.732004 0.436210 0.708625
O O9 0.000000 0.500000 0.582980
O O10 0.901327 0.900764 0.480533
O O11 0.867035 0.879972 0.214964
#
# Coordination Sequence:
#
# PCOD9376614 Si02
#       5
#     8   8   8   8   8
#     4   8  18  36  70  94 136 180 242 292 360 418
#     4  10  20  43  68 102 140 191 242 300 360 436
#     4  10  22  44  68 106 142 192 240 300 366 440
#     4  11  25  44  72 108 149 195 246 308 373 450
#     4  11  25  44  72 108 149 195 246 308 373 450
#
# _framework density 27.441693000000001
#
# number of rings (size 3 to 8) (size 9 to 14) (size 15 to 20)
#    1.200    0.800    2.000    1.200    0.000    9.600 
#    0.000    2.000    0.000    0.000    0.000    0.000 
#    0.000    0.000    0.000    0.000    0.000    0.000 
#
# Total GULP energy -111478.930380 kJ/mol
# GULP energy per Si atom -5573.946519 kJ/mol
# Density = 2.737923 g / cm^3
# Si number density = 27.441693 Si / 1000 Ang^3
#
#
#
# Elastic Constant Matrix: (Units=GPa)
#
#
# Indices 1 2 3 4 5 6 
#
# 1 174.0870 48.9944 -0.7677 0.0000 0.0000 0.0000
# 2 48.9944 115.0997 19.3646 0.0001 0.0000 0.0000
# 3 -0.7677 19.3646 92.9435 0.0001 0.0000 0.0000
# 4 0.0000 0.0001 0.0001 40.8031 0.0000 0.0000
# 5 0.0000 0.0000 0.0000 0.0000 10.4971 0.0000
# 6 0.0000 0.0000 0.0000 0.0000 0.0000 54.8033
#
#
#
# Elastic Compliance Matrix: (Units=1/GPa)
#
#
# Indices 1 2 3 4 5 6 
#
# 1 0.006565 -0.002905 0.000660 0.000000 0.000000 0.000000
# 2 -0.002905 0.010290 -0.002168 0.000000 0.000000 0.000000
# 3 0.000660 -0.002168 0.011216 0.000000 0.000000 0.000000
# 4 0.000000 0.000000 0.000000 0.024508 0.000000 0.000000
# 5 0.000000 0.000000 0.000000 0.000000 0.095264 0.000000
# 6 0.000000 0.000000 0.000000 0.000000 0.000000 0.018247
#
#
# Mechanical properties :
#
#
# Convention : Reuss Voigt Hill
#
# Bulk Modulus (GPa) = 51.96578 57.47919 54.72249
# Shear Modulus (GPa) = 27.57378 42.18997 34.88187
#
# Velocity S-wave (km/s) = 3.17332 3.92527 3.56915
# Velocity P-wave (km/s) = 5.69250 6.44477 6.08028
#
# Compressibility (1/GPa) = 0.01924343
#
# Stress axis : x y z
#
# Youngs Moduli (GPa) = 152.32637 97.18565 89.15568
#
# Poissons Ratio (x) = 0.28237 -0.05880
# Poissons Ratio (y) = 0.44257 0.19327
# Poissons Ratio (z) = -0.10047 0.21068
#
# Static dielectric constant tensor:
#      x y z
#    x 2.258590 0.000000 0.000000 
#    y 0.000000 2.134570 0.000000 
#    z 0.000000 0.000000 2.061420 
# 
# From -- ./inp_files/2953.got.cif
#   From: 2010.05.17/outbox.cif.g08.bks.cpg/sg45_2_cif.got.tgz:2953.got - 2010.06.03 19:51:22.
