data_PCOD9376216
_publ_section_title
;
Structure prediction by ZEFSAII (Michael W. Deem and Ramdas Pophale) SiO2 
 PCOD9376216
Probable space group: I B A 2
;
_chemical_formula_sum "Si O2"
_cell_formula_units_Z 56
_cell_length_a 5.205142
_cell_length_b 13.488788
_cell_length_c 36.780387
_cell_angle_alpha 90.000000
_cell_angle_beta 90.000000
_cell_angle_gamma 90.000000
_cell_volume 2582.389846
_symmetry_space_group_name_H-M "I B A 2"
_symmetry_group_IT_number 45
_symmetry_cell_setting 'orthorhombic'
loop_
_space_group_symop_operation_xyz
x,y,z
-x,-y,z
-x,y,1/2+z
x,-y,1/2+z
1/2+x,1/2+y,1/2+z
1/2-x,1/2-y,1/2+z
1/2-x,1/2+y,z
1/2+x,1/2-y,z
loop_
_atom_site_type_symbol
_atom_site_label
_atom_site_fract_x
_atom_site_fract_y
_atom_site_fract_z
Si Si1 0.000000 0.000000 0.953720
Si Si2 0.403280 0.680919 0.399647
Si Si3 0.295723 0.115138 0.636597
Si Si4 0.705012 0.606606 0.666020
Si Si5 0.436928 0.319264 0.741164
Si Si6 0.000000 0.500000 0.502421
Si Si7 0.068295 0.318684 0.057085
Si Si8 0.012633 0.815663 0.819959
O O1 0.937192 0.095074 0.928902
O O2 0.750058 0.978706 0.978119
O O3 0.132031 0.737927 0.403073
O O4 0.431461 0.635802 0.358826
O O5 0.511167 0.152144 0.664633
O O6 0.404696 0.130252 0.596644
O O7 0.008094 0.156629 0.640242
O O8 0.249406 0.001744 0.649005
O O9 0.598847 0.610260 0.706663
O O10 0.701052 0.258162 0.739116
O O11 0.434593 0.367831 0.781399
O O12 0.936037 0.405491 0.527482
O O13 0.310946 0.245815 0.053644
O O14 0.220329 0.724759 0.819896
#
# Coordination Sequence:
#
# PCOD9376216 Si02
#       8
#     4   8   8   8   8   4   8   8
#     4  12  26  42  70 104 132 168 208 256 324 394
#     4  10  21  40  66  95 132 174 216 264 316 377
#     4  10  22  39  58  82 113 154 209 254 304 374
#     4  10  20  35  55  80 121 162 198 259 320 354
#     4  10  19  31  52  84 120 162 212 259 312 370
#     4  12  28  48  68 100 138 160 204 270 316 392
#     4  12  27  47  72  96 125 172 216 259 326 392
#     4   8  16  32  54  81 118 164 209 257 306 359
#
# _framework density 21.685338999999999
#
# number of rings (size 3 to 8) (size 9 to 14) (size 15 to 20)
#    0.000    1.714    0.000    4.286    0.000    9.143 
#    0.000    1.429    0.000    6.857    0.000    0.000 
#    0.000    0.000    0.000    0.000    0.000    0.000 
#
# Total GULP energy -156320.635129 kJ/mol
# GULP energy per Si atom -5582.879826 kJ/mol
# Density = 2.163598 g / cm^3
# Si number density = 21.685339 Si / 1000 Ang^3
#
#
#
# Elastic Constant Matrix: (Units=GPa)
#
#
# Indices 1 2 3 4 5 6 
#
# 1 151.5588 3.8193 28.0577 0.0000 0.0000 0.0000
# 2 3.8193 86.2652 43.1436 0.0000 0.0000 0.0000
# 3 28.0577 43.1436 165.0845 0.0000 0.0000 0.0000
# 4 0.0000 0.0000 0.0000 0.5149 0.0000 0.0000
# 5 0.0000 0.0000 0.0000 0.0000 28.6120 0.0000
# 6 0.0000 0.0000 0.0000 0.0000 0.0000 21.3545
#
#
#
# Elastic Compliance Matrix: (Units=1/GPa)
#
#
# Indices 1 2 3 4 5 6 
#
# 1 0.006820 0.000320 -0.001243 0.000000 0.000000 0.000000
# 2 0.000320 0.013350 -0.003543 0.000000 0.000000 0.000000
# 3 -0.001243 -0.003543 0.007195 0.000000 0.000000 0.000000
# 4 0.000000 0.000000 0.000000 1.942094 0.000000 0.000000
# 5 0.000000 0.000000 0.000000 0.000000 0.034950 0.000000
# 6 0.000000 0.000000 0.000000 0.000000 0.000000 0.046829
#
#
# Mechanical properties :
#
#
# Convention : Reuss Voigt Hill
#
# Bulk Modulus (GPa) = 54.25302 61.43885 57.84594
# Shear Modulus (GPa) = 2.41977 31.95546 17.18762
#
# Velocity S-wave (km/s) = 1.05749 3.84291 2.81835
# Velocity P-wave (km/s) = 5.15399 6.93427 6.10933
#
# Compressibility (1/GPa) = 0.01843215
#
# Stress axis : x y z
#
# Youngs Moduli (GPa) = 146.62549 74.90589 138.99115
#
# Poissons Ratio (x) = -0.02393 0.17272
# Poissons Ratio (y) = -0.04685 0.49248
# Poissons Ratio (z) = 0.18220 0.26541
#
# Static dielectric constant tensor:
#      x y z
#    x 1.887340 0.000000 0.000000 
#    y 0.000000 1.975860 0.000000 
#    z 0.000000 0.000000 1.808500 
# 
# From -- ./inp_files/10134.got.cif
#   From: 2010.05.17/outbox.cif.g08.bks.cpg/sg45_6_cif.got.tgz:10134.got - 2010.06.03 19:51:22.
