data_PCOD9376427
_publ_section_title
;
Structure prediction by ZEFSAII (Michael W. Deem and Ramdas Pophale) SiO2 
 PCOD9376427
Probable space group: I B A 2
;
_chemical_formula_sum "Si O2"
_cell_formula_units_Z 64
_cell_length_a 23.386262
_cell_length_b 8.446545
_cell_length_c 17.317233
_cell_angle_alpha 90.000000
_cell_angle_beta 90.000000
_cell_angle_gamma 90.000000
_cell_volume 3420.726967
_symmetry_space_group_name_H-M "I B A 2"
_symmetry_group_IT_number 45
_symmetry_cell_setting 'orthorhombic'
loop_
_space_group_symop_operation_xyz
x,y,z
-x,-y,z
-x,y,1/2+z
x,-y,1/2+z
1/2+x,1/2+y,1/2+z
1/2-x,1/2-y,1/2+z
1/2-x,1/2+y,z
1/2+x,1/2-y,z
loop_
_atom_site_type_symbol
_atom_site_label
_atom_site_fract_x
_atom_site_fract_y
_atom_site_fract_z
Si Si1 0.806107 0.315502 0.083810
Si Si2 0.601123 0.380292 0.491093
Si Si3 0.872137 0.191497 0.403936
Si Si4 0.994060 0.682581 0.711594
Si Si5 0.868760 0.824351 0.725293
Si Si6 0.181799 0.681401 0.550403
Si Si7 0.003175 0.811150 0.877016
Si Si8 0.586534 0.394661 0.131496
O O1 0.852054 0.235585 0.026373
O O2 0.821653 0.244414 0.167628
O O3 0.813105 0.502807 0.078967
O O4 0.742320 0.266919 0.061248
O O5 0.630888 0.513193 0.437536
O O6 0.551507 0.297655 0.441827
O O7 0.575094 0.480820 0.562454
O O8 0.854083 0.191937 0.314971
O O9 0.837322 0.303552 0.461133
O O10 0.939898 0.232605 0.406258
O O11 0.015103 0.714032 0.799494
O O12 0.031435 0.799150 0.659006
O O13 0.000000 0.500000 0.689754
O O14 0.927727 0.729603 0.710693
O O15 0.885423 0.002934 0.700545
O O16 0.133433 0.774006 0.598378
O O17 0.000000 0.000000 0.856648
#
# Coordination Sequence:
#
# PCOD9376427 Si02
#       8
#     8   8   8   8   8   8   8   8
#     4  11  23  41  60  83 113 149 192 239 286 336
#     4   9  19  34  59  85 112 151 192 229 279 337
#     4   9  19  37  59  85 115 150 188 229 278 339
#     4  11  21  33  54  87 122 150 183 231 283 338
#     4  10  21  39  61  84 115 152 190 232 284 340
#     4  11  23  41  60  82 114 149 192 240 285 336
#     4   9  18  35  56  83 117 151 186 225 280 341
#     4  10  20  36  58  83 115 152 192 233 280 335
#
# _framework density 18.709475000000001
#
# number of rings (size 3 to 8) (size 9 to 14) (size 15 to 20)
#    0.000    2.000    0.000    5.625    0.000   11.000 
#    0.000    8.750    0.000    0.750    0.000    0.000 
#    0.000    0.000    0.000    0.000    0.000    0.000 
#
# Total GULP energy -178756.444166 kJ/mol
# GULP energy per Si atom -5586.138880 kJ/mol
# Density = 1.866689 g / cm^3
# Si number density = 18.709475 Si / 1000 Ang^3
#
#
#
# Elastic Constant Matrix: (Units=GPa)
#
#
# Indices 1 2 3 4 5 6 
#
# 1 62.7326 10.2261 29.4553 0.0000 0.0000 0.0000
# 2 10.2261 61.3504 4.4635 0.0000 0.0000 0.0000
# 3 29.4553 4.4635 67.2293 0.0000 0.0000 0.0000
# 4 0.0000 0.0000 0.0000 21.1129 0.0000 0.0000
# 5 0.0000 0.0000 0.0000 0.0000 16.8870 0.0000
# 6 0.0000 0.0000 0.0000 0.0000 0.0000 26.2311
#
#
#
# Elastic Compliance Matrix: (Units=1/GPa)
#
#
# Indices 1 2 3 4 5 6 
#
# 1 0.020531 -0.002781 -0.008811 0.000000 0.000000 0.000000
# 2 -0.002781 0.016756 0.000106 0.000000 0.000000 0.000000
# 3 -0.008811 0.000106 0.018728 0.000000 0.000000 0.000000
# 4 0.000000 0.000000 0.000000 0.047364 0.000000 0.000000
# 5 0.000000 0.000000 0.000000 0.000000 0.059217 0.000000
# 6 0.000000 0.000000 0.000000 0.000000 0.000000 0.038123
#
#
# Mechanical properties :
#
#
# Convention : Reuss Voigt Hill
#
# Bulk Modulus (GPa) = 30.26373 31.06689 30.66531
# Shear Modulus (GPa) = 21.30340 22.65735 21.98037
#
# Velocity S-wave (km/s) = 3.37804 3.48373 3.43129
# Velocity P-wave (km/s) = 5.60585 5.72912 5.66782
#
# Compressibility (1/GPa) = 0.03304285
#
# Stress axis : x y z
#
# Youngs Moduli (GPa) = 48.70696 59.68126 53.39700
#
# Poissons Ratio (x) = 0.16598 0.47046
# Poissons Ratio (y) = 0.13546 -0.00566
# Poissons Ratio (z) = 0.42914 -0.00633
#
# Static dielectric constant tensor:
#      x y z
#    x 1.625210 0.000000 0.000000 
#    y 0.000000 1.642690 0.000000 
#    z 0.000000 0.000000 1.667730 
# 
# From -- ./inp_files/8445.got.cif
#   From: 2010.05.17/outbox.cif.g08.bks.cpg/sg45_5_cif.got.tgz:8445.got - 2010.06.03 19:51:22.
