data_PCOD9376430
_publ_section_title
;
Structure prediction by ZEFSAII (Michael W. Deem and Ramdas Pophale) SiO2 
 PCOD9376430
Probable space group: I B A 2
;
_chemical_formula_sum "Si O2"
_cell_formula_units_Z 60
_cell_length_a 33.050300
_cell_length_b 11.093360
_cell_length_c 8.378730
_cell_angle_alpha 90.000000
_cell_angle_beta 90.000000
_cell_angle_gamma 90.000000
_cell_volume 3071.968150
_symmetry_space_group_name_H-M "I B A 2"
_symmetry_group_IT_number 45
_symmetry_cell_setting 'orthorhombic'
loop_
_space_group_symop_operation_xyz
x,y,z
-x,-y,z
-x,y,1/2+z
x,-y,1/2+z
1/2+x,1/2+y,1/2+z
1/2-x,1/2-y,1/2+z
1/2-x,1/2+y,z
1/2+x,1/2-y,z
loop_
_atom_site_type_symbol
_atom_site_label
_atom_site_fract_x
_atom_site_fract_y
_atom_site_fract_z
Si Si1 0.127803 0.624010 0.588150
Si Si2 0.696329 0.070423 0.615768
Si Si3 0.500000 0.000000 0.871779
Si Si4 0.757697 0.623332 0.307268
Si Si5 0.321932 0.682401 0.263398
Si Si6 0.824050 0.931609 0.621195
Si Si7 0.560980 0.918634 0.124382
Si Si8 0.872759 0.258006 0.247462
O O1 0.164226 0.529441 0.549020
O O2 0.143951 0.715094 0.725761
O O3 0.089575 0.539096 0.631365
O O4 0.119905 0.700877 0.428630
O O5 0.729350 0.119103 0.491752
O O6 0.667496 0.172252 0.686725
O O7 0.720445 0.997396 0.746899
O O8 0.532027 0.925041 0.973603
O O9 0.471072 0.917726 0.766672
O O10 0.780601 0.742140 0.246246
O O11 0.713767 0.611692 0.230928
O O12 0.324354 0.575938 0.134116
O O13 0.322830 0.621500 0.440442
O O14 0.863364 0.879586 0.710907
O O15 0.591109 0.808460 0.140349
#
# Coordination Sequence:
#
# PCOD9376430 Si02
#       8
#     8   8   4   8   8   8   8   8
#     4  10  21  38  63  88 127 165 207 252 314 388
#     4  10  20  36  59  86 115 162 205 262 324 367
#     4  10  20  36  62 104 138 158 188 244 316 404
#     4  11  23  39  60  83 120 155 218 281 326 367
#     4  11  26  42  59  87 116 169 221 269 323 368
#     4  12  26  39  60  82 122 165 226 270 322 367
#     4  10  21  36  64 102 136 161 196 244 322 389
#     4  11  21  37  60  86 126 167 207 254 316 379
#
# _framework density 19.531452999999999
#
# number of rings (size 3 to 8) (size 9 to 14) (size 15 to 20)
#    0.000    1.333    4.000    1.600    3.733    3.200 
#    0.000    0.000    0.000    0.000    0.000    5.600 
#    0.000    0.000    0.000    0.000    0.000    0.000 
#
# Total GULP energy -167419.389153 kJ/mol
# GULP energy per Si atom -5580.646305 kJ/mol
# Density = 1.948700 g / cm^3
# Si number density = 19.531453 Si / 1000 Ang^3
#
#
#
# Elastic Constant Matrix: (Units=GPa)
#
#
# Indices 1 2 3 4 5 6 
#
# 1 99.4022 29.6321 30.5671 0.0001 0.0000 0.0000
# 2 29.6321 86.1703 14.4145 0.0000 0.0000 0.0000
# 3 30.5671 14.4145 71.6422 -0.0003 0.0000 0.0000
# 4 0.0001 0.0000 -0.0003 1514.9821 -0.0001 -0.0001
# 5 0.0000 0.0000 0.0000 -0.0001 50.5280 0.0000
# 6 0.0000 0.0000 0.0000 -0.0001 0.0000 11.0703
#
#
#
# Elastic Compliance Matrix: (Units=1/GPa)
#
#
# Indices 1 2 3 4 5 6 
#
# 1 0.012541 -0.003537 -0.004639 0.000000 0.000000 0.000000
# 2 -0.003537 0.013006 -0.001108 0.000000 0.000000 0.000000
# 3 -0.004639 -0.001108 0.016161 0.000000 0.000000 0.000000
# 4 0.000000 0.000000 0.000000 0.000660 0.000000 0.000000
# 5 0.000000 0.000000 0.000000 0.000000 0.019791 0.000000
# 6 0.000000 0.000000 0.000000 0.000000 0.000000 0.090332
#
#
# Mechanical properties :
#
#
# Convention : Reuss Voigt Hill
#
# Bulk Modulus (GPa) = 43.21434 45.16023 44.18728
# Shear Modulus (GPa) = 27.96865 327.48948 177.72907
#
# Velocity S-wave (km/s) = 3.78826 12.96290 9.54955
# Velocity P-wave (km/s) = 6.42713 15.72327 12.01102
#
# Compressibility (1/GPa) = 0.02314047
#
# Stress axis : x y z
#
# Youngs Moduli (GPa) = 79.73845 76.88512 61.87902
#
# Poissons Ratio (x) = 0.27191 0.28707
# Poissons Ratio (y) = 0.28200 0.06856
# Poissons Ratio (z) = 0.36992 0.08519
#
# Static dielectric constant tensor:
#      x y z
#    x 1.643960 0.000000 0.000000 
#    y 0.000000 1.450750 0.000000 
#    z 0.000000 0.000000 1.800240 
# 
# From -- ./inp_files/2765.got.cif
#   From: 2010.05.17/outbox.cif.g08.bks.cpg/sg45_2_cif.got.tgz:2765.got - 2010.06.03 19:51:22.
