data_PCOD9376872
_publ_section_title
;
Structure prediction by ZEFSAII (Michael W. Deem and Ramdas Pophale) SiO2 
 PCOD9376872
Probable space group: I B A 2
;
_chemical_formula_sum "Si O2"
_cell_formula_units_Z 32
_cell_length_a 13.691437
_cell_length_b 8.934728
_cell_length_c 11.616163
_cell_angle_alpha 90.000000
_cell_angle_beta 90.000000
_cell_angle_gamma 90.000000
_cell_volume 1420.996688
_symmetry_space_group_name_H-M "I B A 2"
_symmetry_group_IT_number 45
_symmetry_cell_setting 'orthorhombic'
loop_
_space_group_symop_operation_xyz
x,y,z
-x,-y,z
-x,y,1/2+z
x,-y,1/2+z
1/2+x,1/2+y,1/2+z
1/2-x,1/2-y,1/2+z
1/2-x,1/2+y,z
1/2+x,1/2-y,z
loop_
_atom_site_type_symbol
_atom_site_label
_atom_site_fract_x
_atom_site_fract_y
_atom_site_fract_z
Si Si1 0.871661 0.593890 0.455620
Si Si2 0.947874 0.264115 0.513683
Si Si3 0.662779 0.731666 0.746041
Si Si4 0.674613 0.596667 0.349959
O O1 0.902368 0.426139 0.481911
O O2 0.894027 0.645782 0.324478
O O3 0.755295 0.607988 0.453653
O O4 0.937270 0.705609 0.530259
O O5 0.893573 0.213686 0.628068
O O6 0.923217 0.158467 0.406056
O O7 0.667951 0.572360 0.808558
O O8 0.772850 0.801317 0.751886
#
# Coordination Sequence:
#
# PCOD9376872 Si02
#       4
#     8   8   8   8
#     4   9  22  43  62  99 135 166 234 274 338 427
#     4  11  22  42  70  94 133 184 218 287 351 406
#     4  10  23  41  64  98 130 180 221 281 347 398
#     4  10  21  43  62  96 136 166 231 278 331 418
#
# _framework density 22.519407000000001
#
# number of rings (size 3 to 8) (size 9 to 14) (size 15 to 20)
#    1.500    0.500    2.500    0.000    3.500    5.000 
#    4.500    2.500    0.000    0.000    0.000    0.000 
#    0.000    0.000    0.000    0.000    0.000    0.000 
#
# Total GULP energy -89139.330649 kJ/mol
# GULP energy per Si atom -5571.208166 kJ/mol
# Density = 2.246815 g / cm^3
# Si number density = 22.519407 Si / 1000 Ang^3
#
#
#
# Elastic Constant Matrix: (Units=GPa)
#
#
# Indices 1 2 3 4 5 6 
#
# 1 75.4506 35.3409 28.3618 0.0000 0.0000 0.0000
# 2 35.3409 93.1898 15.8550 0.0000 0.0000 0.0000
# 3 28.3618 15.8550 62.9199 0.0000 0.0000 0.0000
# 4 0.0000 0.0000 0.0000 17.4570 0.0000 0.0000
# 5 0.0000 0.0000 0.0000 0.0000 19.3686 0.0000
# 6 0.0000 0.0000 0.0000 0.0000 0.0000 26.1185
#
#
#
# Elastic Compliance Matrix: (Units=1/GPa)
#
#
# Indices 1 2 3 4 5 6 
#
# 1 0.018603 -0.005880 -0.006904 0.000000 0.000000 0.000000
# 2 -0.005880 0.013070 -0.000643 0.000000 0.000000 0.000000
# 3 -0.006904 -0.000643 0.019167 0.000000 0.000000 0.000000
# 4 0.000000 0.000000 0.000000 0.057284 0.000000 0.000000
# 5 0.000000 0.000000 0.000000 0.000000 0.051630 0.000000
# 6 0.000000 0.000000 0.000000 0.000000 0.000000 0.038287
#
#
# Mechanical properties :
#
#
# Convention : Reuss Voigt Hill
#
# Bulk Modulus (GPa) = 41.69021 43.40840 42.54931
# Shear Modulus (GPa) = 21.46929 22.72232 22.09581
#
# Velocity S-wave (km/s) = 3.09102 3.17994 3.13579
# Velocity P-wave (km/s) = 5.59396 5.72717 5.66096
#
# Compressibility (1/GPa) = 0.02398644
#
# Stress axis : x y z
#
# Youngs Moduli (GPa) = 53.75423 76.50976 52.17254
#
# Poissons Ratio (x) = 0.44991 0.36019
# Poissons Ratio (y) = 0.31610 0.03354
# Poissons Ratio (z) = 0.37111 0.04919
#
# Static dielectric constant tensor:
#      x y z
#    x 1.909900 0.000000 0.000000 
#    y 0.000000 1.800350 0.000000 
#    z 0.000000 0.000000 1.826210 
# 
# From -- ./inp_files/3052.got.cif
#   From: 2010.05.17/outbox.cif.g08.bks.cpg/sg45_2_cif.got.tgz:3052.got - 2010.06.03 19:51:22.
