data_PCOD9376414
_publ_section_title
;
Structure prediction by ZEFSAII (Michael W. Deem and Ramdas Pophale) SiO2 
 PCOD9376414
Probable space group: I B A 2
;
_chemical_formula_sum "Si O2"
_cell_formula_units_Z 48
_cell_length_a 8.510512
_cell_length_b 30.782429
_cell_length_c 8.332592
_cell_angle_alpha 90.000000
_cell_angle_beta 90.000000
_cell_angle_gamma 90.000000
_cell_volume 2182.924385
_symmetry_space_group_name_H-M "I B A 2"
_symmetry_group_IT_number 45
_symmetry_cell_setting 'orthorhombic'
loop_
_space_group_symop_operation_xyz
x,y,z
-x,-y,z
-x,y,1/2+z
x,-y,1/2+z
1/2+x,1/2+y,1/2+z
1/2-x,1/2-y,1/2+z
1/2-x,1/2+y,z
1/2+x,1/2-y,z
loop_
_atom_site_type_symbol
_atom_site_label
_atom_site_fract_x
_atom_site_fract_y
_atom_site_fract_z
Si Si1 0.082664 0.115831 0.893870
Si Si2 0.125374 0.202157 0.710947
Si Si3 0.654615 0.479248 0.913432
Si Si4 0.253323 0.375889 0.744996
Si Si5 0.362146 0.965637 0.704292
Si Si6 0.717832 0.286740 0.340340
O O1 0.153056 0.154647 0.786909
O O2 0.118878 0.067216 0.835413
O O3 0.893234 0.119554 0.877153
O O4 0.153338 0.120430 0.073933
O O5 0.206583 0.240274 0.811675
O O6 0.175601 0.206756 0.526766
O O7 0.939976 0.210242 0.734078
O O8 0.500000 0.500000 0.995168
O O9 0.710814 0.516467 0.796254
O O10 0.804958 0.469563 0.022885
O O11 0.128003 0.415046 0.750451
O O12 0.183180 0.328181 0.776353
O O13 0.500000 0.000000 0.730116
#
# Coordination Sequence:
#
# PCOD9376414 Si02
#       6
#     8   8   8   8   8   8
#     4  10  20  35  61  93 118 161 218 276 304 382
#     4  11  22  40  65  96 133 165 218 264 328 383
#     4  11  22  39  65  90 121 167 224 266 320 393
#     4  10  20  37  61  90 125 165 216 265 326 385
#     4  11  24  40  60  91 131 167 208 275 334 391
#     4  11  22  40  66  95 130 173 210 269 322 393
#
# _framework density 21.988852000000001
#
# number of rings (size 3 to 8) (size 9 to 14) (size 15 to 20)
#    0.000    1.333    1.667    7.000    2.333    1.333 
#    3.000    0.000    3.667    0.000    0.000    0.000 
#    0.000    0.000    0.000    0.000    0.000    0.000 
#
# Total GULP energy -133927.921727 kJ/mol
# GULP energy per Si atom -5580.330072 kJ/mol
# Density = 2.193880 g / cm^3
# Si number density = 21.988852 Si / 1000 Ang^3
#
#
#
# Elastic Constant Matrix: (Units=GPa)
#
#
# Indices 1 2 3 4 5 6 
#
# 1 45.2610 37.8920 20.7936 -0.0001 0.0000 0.0000
# 2 37.8920 183.4487 60.4384 0.0000 0.0000 -0.0001
# 3 20.7936 60.4384 58.1165 -0.0008 -0.0002 -0.0002
# 4 -0.0001 0.0000 -0.0008 30.1293 -0.0001 -0.0001
# 5 0.0000 0.0000 -0.0002 -0.0001 20.6191 0.0000
# 6 0.0000 -0.0001 -0.0002 -0.0001 0.0000 43.7852
#
#
#
# Elastic Compliance Matrix: (Units=1/GPa)
#
#
# Indices 1 2 3 4 5 6 
#
# 1 0.028069 -0.003786 -0.006105 0.000000 0.000000 0.000000
# 2 -0.003786 0.008803 -0.007800 0.000000 0.000000 0.000000
# 3 -0.006105 -0.007800 0.027503 0.000001 0.000000 0.000000
# 4 0.000000 0.000000 0.000001 0.033190 0.000000 0.000000
# 5 0.000000 0.000000 0.000000 0.000000 0.048499 0.000000
# 6 0.000000 0.000000 0.000000 0.000000 0.000000 0.022839
#
#
# Mechanical properties :
#
#
# Convention : Reuss Voigt Hill
#
# Bulk Modulus (GPa) = 34.49277 58.34159 46.41718
# Shear Modulus (GPa) = 23.37008 30.08688 26.72848
#
# Velocity S-wave (km/s) = 3.26362 3.70304 3.49025
# Velocity P-wave (km/s) = 5.47012 6.69875 6.11537
#
# Compressibility (1/GPa) = 0.02899158
#
# Stress axis : x y z
#
# Youngs Moduli (GPa) = 35.62685 113.59867 36.36006
#
# Poissons Ratio (x) = 0.43012 0.22198
# Poissons Ratio (y) = 0.13489 0.28360
# Poissons Ratio (z) = 0.21751 0.88606
#
# Static dielectric constant tensor:
#      x y z
#    x 1.804570 0.000000 0.000000 
#    y 0.000000 1.849470 0.000000 
#    z 0.000000 0.000000 1.812780 
# 
# From -- ./inp_files/1055.got.cif
#   From: 2010.05.17/outbox.cif.g08.bks.cpg/sg45_1_cif.got.tgz:1055.got - 2010.06.03 19:51:22.
