data_PCOD9376966
_publ_section_title
;
Structure prediction by ZEFSAII (Michael W. Deem and Ramdas Pophale) SiO2 
 PCOD9376966
Probable space group: I B A 2
;
_chemical_formula_sum "Si O2"
_cell_formula_units_Z 48
_cell_length_a 4.875921
_cell_length_b 28.947890
_cell_length_c 14.965947
_cell_angle_alpha 90.000000
_cell_angle_beta 90.000000
_cell_angle_gamma 90.000000
_cell_volume 2112.407871
_symmetry_space_group_name_H-M "I B A 2"
_symmetry_group_IT_number 45
_symmetry_cell_setting 'orthorhombic'
loop_
_space_group_symop_operation_xyz
x,y,z
-x,-y,z
-x,y,1/2+z
x,-y,1/2+z
1/2+x,1/2+y,1/2+z
1/2-x,1/2-y,1/2+z
1/2-x,1/2+y,z
1/2+x,1/2-y,z
loop_
_atom_site_type_symbol
_atom_site_label
_atom_site_fract_x
_atom_site_fract_y
_atom_site_fract_z
Si Si1 0.500000 0.000000 0.853200
Si Si2 0.000000 0.000000 0.240936
Si Si3 0.270499 0.218132 0.397849
Si Si4 0.790924 0.935817 0.991734
Si Si5 0.994707 0.845366 0.545534
Si Si6 0.780988 0.565090 0.100499
Si Si7 0.355573 0.282767 0.700875
O O1 0.751283 0.021464 0.797491
O O2 0.350745 0.039369 0.910622
O O3 0.842438 0.038385 0.183247
O O4 0.081599 0.264405 0.402867
O O5 0.178228 0.186339 0.479162
O O6 0.205947 0.197286 0.299611
O O7 0.819659 0.880437 0.986935
O O8 0.594880 0.944210 0.077762
O O9 0.097645 0.951855 0.015466
O O10 0.168265 0.816793 0.617466
O O11 0.797250 0.880850 0.600075
O O12 0.158800 0.238378 0.694757
#
# Coordination Sequence:
#
# PCOD9376966 Si02
#       7
#     4   4   8   8   8   8   8
#     4  12  24  42  66  92 126 166 210 264 330 386
#     4  12  24  42  66  92 126 166 210 268 324 388
#     4  10  22  39  61  91 127 165 209 261 316 380
#     4  10  23  41  63  90 124 165 211 265 316 385
#     4  10  24  38  68  89 126 169 213 262 320 378
#     4  10  23  41  63  90 124 165 211 263 316 387
#     4  10  22  39  61  90 125 164 210 261 315 379
#
# _framework density 22.722885999999999
#
# number of rings (size 3 to 8) (size 9 to 14) (size 15 to 20)
#    1.000    0.667    0.000    4.000    4.667    1.333 
#    0.000    0.000    0.000    0.000    0.000    0.000 
#    0.000    0.000    0.000    0.000    0.000    0.000 
#
# Total GULP energy -134057.994130 kJ/mol
# GULP energy per Si atom -5585.749755 kJ/mol
# Density = 2.267117 g / cm^3
# Si number density = 22.722886 Si / 1000 Ang^3
#
#
#
# Elastic Constant Matrix: (Units=GPa)
#
#
# Indices 1 2 3 4 5 6 
#
# 1 83.0677 -10.8257 1.6434 0.0000 0.0000 0.0000
# 2 -10.8257 59.8841 32.4491 0.0000 0.0000 0.0000
# 3 1.6434 32.4491 79.6388 0.0000 0.0000 0.0000
# 4 0.0000 0.0000 0.0000 -4.9603 0.0000 0.0000
# 5 0.0000 0.0000 0.0000 0.0000 29.6272 0.0000
# 6 0.0000 0.0000 0.0000 0.0000 0.0000 20.3295
#
#
#
# Elastic Compliance Matrix: (Units=1/GPa)
#
#
# Indices 1 2 3 4 5 6 
#
# 1 0.012469 0.003072 -0.001509 0.000000 0.000000 0.000000
# 2 0.003072 0.022187 -0.009104 0.000000 0.000000 0.000000
# 3 -0.001509 -0.009104 0.016297 0.000000 0.000000 0.000000
# 4 0.000000 0.000000 0.000000 -0.201601 0.000000 0.000000
# 5 0.000000 0.000000 0.000000 0.000000 0.033753 0.000000
# 6 0.000000 0.000000 0.000000 0.000000 0.000000 0.049190
#
#
# Mechanical properties :
#
#
# Convention : Reuss Voigt Hill
#
# Bulk Modulus (GPa) = 27.87758 29.90269 28.89013
# Shear Modulus (GPa) = -122.94879 22.28753 -50.33063
#
# Velocity S-wave (km/s) = -7.36379 3.13523 -4.71146
# Velocity P-wave (km/s) = 7.74631 5.12782 4.10553
#
# Compressibility (1/GPa) = 0.03587113
#
# Stress axis : x y z
#
# Youngs Moduli (GPa) = 80.20195 45.07112 61.36049
#
# Poissons Ratio (x) = -0.13844 0.09258
# Poissons Ratio (y) = -0.24635 0.55860
# Poissons Ratio (z) = 0.12101 0.41031
#
# Static dielectric constant tensor:
#      x y z
#    x 1.821150 0.000000 0.000000 
#    y 0.000000 1.857180 0.000000 
#    z 0.000000 0.000000 1.899660 
# 
# From -- ./inp_files/5204.got.cif
#   From: 2010.05.17/outbox.cif.g08.bks.cpg/sg45_3_cif.got.tgz:5204.got - 2010.06.03 19:51:22.
