data_PCOD9376551
_publ_section_title
;
Structure prediction by ZEFSAII (Michael W. Deem and Ramdas Pophale) SiO2 
 PCOD9376551
Probable space group: I B A 2
;
_chemical_formula_sum "Si O2"
_cell_formula_units_Z 48
_cell_length_a 16.624490
_cell_length_b 9.533086
_cell_length_c 11.461320
_cell_angle_alpha 90.000000
_cell_angle_beta 90.000000
_cell_angle_gamma 90.000000
_cell_volume 1816.420858
_symmetry_space_group_name_H-M "I B A 2"
_symmetry_group_IT_number 45
_symmetry_cell_setting 'orthorhombic'
loop_
_space_group_symop_operation_xyz
x,y,z
-x,-y,z
-x,y,1/2+z
x,-y,1/2+z
1/2+x,1/2+y,1/2+z
1/2-x,1/2-y,1/2+z
1/2-x,1/2+y,z
1/2+x,1/2-y,z
loop_
_atom_site_type_symbol
_atom_site_label
_atom_site_fract_x
_atom_site_fract_y
_atom_site_fract_z
Si Si1 0.833220 0.848886 0.653010
Si Si2 0.413501 0.004278 0.155387
Si Si3 0.819335 0.281905 0.524778
Si Si4 0.949722 0.853970 0.859391
Si Si5 0.895525 0.277845 0.948156
Si Si6 0.716466 0.009651 0.330189
O O1 0.756902 0.749935 0.609816
O O2 0.911554 0.828674 0.732997
O O3 0.873352 0.859652 0.524397
O O4 0.788070 0.960586 0.738698
O O5 0.412787 0.103986 0.044335
O O6 0.500000 0.000000 0.208092
O O7 0.351903 0.056119 0.250346
O O8 0.383377 0.854901 0.109761
O O9 0.872933 0.174018 0.448055
O O10 0.783657 0.405052 0.439964
O O11 0.000000 0.000000 0.864369
O O12 0.021760 0.745575 0.882587
O O13 0.820929 0.341259 0.874381
#
# Coordination Sequence:
#
# PCOD9376551 Si02
#       6
#     8   8   8   8   8   8
#     4  11  26  48  73 113 152 217 262 330 412 494
#     4  10  20  39  76 112 139 186 254 328 406 464
#     4  10  23  48  75 108 151 201 268 327 389 488
#     4  12  28  49  74 112 163 211 261 332 415 489
#     4  11  25  45  73 112 154 197 258 342 404 482
#     4  10  24  44  80 108 149 197 271 336 391 484
#
# _framework density 26.425594
#
# number of rings (size 3 to 8) (size 9 to 14) (size 15 to 20)
#    0.000    1.333    1.667    2.000    7.000    0.667 
#   12.000    0.000    0.000    0.000    0.000    0.000 
#    0.000    0.000    0.000    0.000    0.000    0.000 
#
# Total GULP energy -133868.285940 kJ/mol
# GULP energy per Si atom -5577.845247 kJ/mol
# Density = 2.636545 g / cm^3
# Si number density = 26.425594 Si / 1000 Ang^3
#
#
#
# Elastic Constant Matrix: (Units=GPa)
#
#
# Indices 1 2 3 4 5 6 
#
# 1 178.1584 41.1778 80.0141 0.0000 0.0000 0.0000
# 2 41.1778 85.6863 58.5462 0.0000 0.0000 0.0000
# 3 80.0141 58.5462 130.5191 0.0000 0.0000 0.0000
# 4 0.0000 0.0000 0.0000 19.0887 0.0000 0.0000
# 5 0.0000 0.0000 0.0000 0.0000 70.6668 0.0000
# 6 0.0000 0.0000 0.0000 0.0000 0.0000 36.5176
#
#
#
# Elastic Compliance Matrix: (Units=1/GPa)
#
#
# Indices 1 2 3 4 5 6 
#
# 1 0.007774 -0.000692 -0.004456 0.000000 0.000000 0.000000
# 2 -0.000692 0.016890 -0.007152 0.000000 0.000000 0.000000
# 3 -0.004456 -0.007152 0.013601 0.000000 0.000000 0.000000
# 4 0.000000 0.000000 0.000000 0.052387 0.000000 0.000000
# 5 0.000000 0.000000 0.000000 0.000000 0.014151 0.000000
# 6 0.000000 0.000000 0.000000 0.000000 0.000000 0.027384
#
#
# Mechanical properties :
#
#
# Convention : Reuss Voigt Hill
#
# Bulk Modulus (GPa) = 73.17213 83.76000 78.46607
# Shear Modulus (GPa) = 30.99035 39.56300 35.27668
#
# Velocity S-wave (km/s) = 3.42824 3.87350 3.65765
# Velocity P-wave (km/s) = 6.58942 7.19518 6.89895
#
# Compressibility (1/GPa) = 0.01366640
#
# Stress axis : x y z
#
# Youngs Moduli (GPa) = 128.63595 59.20815 73.52227
#
# Poissons Ratio (x) = 0.04095 0.32758
# Poissons Ratio (y) = 0.08896 0.52584
# Poissons Ratio (z) = 0.57314 0.42346
#
# Static dielectric constant tensor:
#      x y z
#    x 2.053640 0.000000 0.000000 
#    y 0.000000 2.224160 0.000000 
#    z 0.000000 0.000000 2.068710 
# 
# From -- ./inp_files/4425.got.cif
#   From: 2010.05.17/outbox.cif.g08.bks.cpg/sg45_3_cif.got.tgz:4425.got - 2010.06.03 19:51:22.
