data_PCOD9376329
_publ_section_title
;
Structure prediction by ZEFSAII (Michael W. Deem and Ramdas Pophale) SiO2 
 PCOD9376329
Probable space group: I B A 2
;
_chemical_formula_sum "Si O2"
_cell_formula_units_Z 60
_cell_length_a 8.914479
_cell_length_b 24.558499
_cell_length_c 10.264731
_cell_angle_alpha 90.000000
_cell_angle_beta 90.000000
_cell_angle_gamma 90.000000
_cell_volume 2247.218794
_symmetry_space_group_name_H-M "I B A 2"
_symmetry_group_IT_number 45
_symmetry_cell_setting 'orthorhombic'
loop_
_space_group_symop_operation_xyz
x,y,z
-x,-y,z
-x,y,1/2+z
x,-y,1/2+z
1/2+x,1/2+y,1/2+z
1/2-x,1/2-y,1/2+z
1/2-x,1/2+y,z
1/2+x,1/2-y,z
loop_
_atom_site_type_symbol
_atom_site_label
_atom_site_fract_x
_atom_site_fract_y
_atom_site_fract_z
Si Si1 0.075550 0.106782 0.525630
Si Si2 0.624423 0.681730 0.689437
Si Si3 0.349528 0.740746 0.830012
Si Si4 0.000000 0.000000 0.696031
Si Si5 0.069748 0.322899 0.398988
Si Si6 0.160714 0.588933 0.109688
Si Si7 0.628338 0.889041 0.667013
Si Si8 0.668118 0.445087 0.876791
O O1 0.253053 0.115272 0.548097
O O2 0.982921 0.159870 0.571737
O O3 0.987413 0.087698 0.397462
O O4 0.036665 0.053124 0.613286
O O5 0.487935 0.704030 0.780086
O O6 0.751233 0.728294 0.717611
O O7 0.729811 0.626582 0.695955
O O8 0.227516 0.707504 0.910947
O O9 0.427806 0.785071 0.921937
O O10 0.860531 0.999752 0.797243
O O11 0.076299 0.370152 0.505791
O O12 0.059816 0.337080 0.243969
O O13 0.251930 0.548848 0.015851
O O14 0.008427 0.567738 0.170947
O O15 0.735654 0.907337 0.785292
#
# Coordination Sequence:
#
# PCOD9376329 Si02
#       8
#     8   8   8   4   8   8   8   8
#     4  10  20  39  68  99 129 175 226 271 349 404
#     4  10  20  36  61  89 126 177 217 276 325 395
#     4  10  20  36  58  86 133 173 228 272 335 387
#     4  10  20  40  72  96 136 164 214 292 332 404
#     4  10  20  37  54  87 130 173 221 278 326 397
#     4  10  21  38  62  93 132 176 225 269 345 402
#     4  10  19  40  62  91 133 174 211 282 330 398
#     4   9  21  39  67  99 127 168 222 269 334 415
#
# _framework density 26.699670000000001
#
# number of rings (size 3 to 8) (size 9 to 14) (size 15 to 20)
#    0.000    2.133    2.667    0.400    0.000    1.067 
#    4.800    1.333    0.000   32.800    0.000    0.000 
#    0.000    0.000    0.000    0.000    0.000    0.000 
#
# Total GULP energy -167027.033807 kJ/mol
# GULP energy per Si atom -5567.567794 kJ/mol
# Density = 2.663890 g / cm^3
# Si number density = 26.699670 Si / 1000 Ang^3
#
#
#
# Elastic Constant Matrix: (Units=GPa)
#
#
# Indices 1 2 3 4 5 6 
#
# 1 158.9497 0.0651 -4.9806 0.0036 0.0004 0.0015
# 2 0.0651 61.2315 7.8441 0.0040 0.0018 0.0011
# 3 -4.9806 7.8441 29.7684 0.0156 0.0082 0.0040
# 4 0.0036 0.0040 0.0156 34.5835 0.0035 0.0019
# 5 0.0004 0.0018 0.0082 0.0035 26.8742 0.0017
# 6 0.0015 0.0011 0.0040 0.0019 0.0017 19.3962
#
#
#
# Elastic Compliance Matrix: (Units=1/GPa)
#
#
# Indices 1 2 3 4 5 6 
#
# 1 0.006326 -0.000147 0.001097 -0.000001 0.000000 -0.000001
# 2 -0.000147 0.016905 -0.004479 0.000000 0.000000 0.000000
# 3 0.001097 -0.004479 0.034957 -0.000015 -0.000010 -0.000007
# 4 -0.000001 0.000000 -0.000015 0.028916 -0.000004 -0.000003
# 5 0.000000 0.000000 -0.000010 -0.000004 0.037210 -0.000003
# 6 -0.000001 0.000000 -0.000007 -0.000003 -0.000003 0.051556
#
#
# Mechanical properties :
#
#
# Convention : Reuss Voigt Hill
#
# Bulk Modulus (GPa) = 19.55838 28.42297 23.99067
# Shear Modulus (GPa) = 25.00350 32.63884 28.82117
#
# Velocity S-wave (km/s) = 3.06350 3.50014 3.28907
# Velocity P-wave (km/s) = 4.45585 5.19646 4.84034
#
# Compressibility (1/GPa) = 0.05112899
#
# Stress axis : x y z
#
# Youngs Moduli (GPa) = 158.08432 59.15254 28.60692
#
# Poissons Ratio (x) = 0.00871 -0.03139
# Poissons Ratio (y) = 0.02328 0.12814
# Poissons Ratio (z) = -0.17345 0.26496
#
# Static dielectric constant tensor:
#      x y z
#    x 2.338900 0.000000 0.000000 
#    y 0.000000 2.206780 -0.000020 
#    z 0.000000 -0.000020 2.362630 
# 
# From -- ./inp_files/3341.got.cif
#   From: 2010.05.17/outbox.cif.g08.bks.cpg/sg45_2_cif.got.tgz:3341.got - 2010.06.03 19:51:22.
