data_PCOD9376746
_publ_section_title
;
Structure prediction by ZEFSAII (Michael W. Deem and Ramdas Pophale) SiO2 
 PCOD9376746
Probable space group: I B A 2
;
_chemical_formula_sum "Si O2"
_cell_formula_units_Z 60
_cell_length_a 5.158893
_cell_length_b 30.457626
_cell_length_c 17.908635
_cell_angle_alpha 90.000000
_cell_angle_beta 90.000000
_cell_angle_gamma 90.000000
_cell_volume 2813.941438
_symmetry_space_group_name_H-M "I B A 2"
_symmetry_group_IT_number 45
_symmetry_cell_setting 'orthorhombic'
loop_
_space_group_symop_operation_xyz
x,y,z
-x,-y,z
-x,y,1/2+z
x,-y,1/2+z
1/2+x,1/2+y,1/2+z
1/2-x,1/2-y,1/2+z
1/2-x,1/2+y,z
1/2+x,1/2-y,z
loop_
_atom_site_type_symbol
_atom_site_label
_atom_site_fract_x
_atom_site_fract_y
_atom_site_fract_z
Si Si1 0.587438 0.775162 0.405290
Si Si2 0.244237 0.586446 0.840637
Si Si3 0.500000 0.000000 0.400924
Si Si4 0.436200 0.222371 0.225555
Si Si5 0.617573 0.560175 0.967905
Si Si6 0.658678 0.608825 0.589245
Si Si7 0.355923 0.873857 0.181272
Si Si8 0.997179 0.360807 0.967305
O O1 0.794483 0.737942 0.423521
O O2 0.588357 0.782028 0.315864
O O3 0.661161 0.818019 0.451648
O O4 0.076797 0.542166 0.852350
O O5 0.242707 0.602465 0.756567
O O6 0.131759 0.626589 0.888791
O O7 0.501044 0.574278 0.887338
O O8 0.263928 0.014890 0.453493
O O9 0.154435 0.241444 0.204156
O O10 0.533640 0.175218 0.196157
O O11 0.415974 0.567933 0.035019
O O12 0.834422 0.596664 0.986286
O O13 0.398413 0.625547 0.629029
O O14 0.782627 0.643528 0.531016
O O15 0.894506 0.600896 0.646717
#
# Coordination Sequence:
#
# PCOD9376746 Si02
#       8
#     8   8   4   8   8   8   8   8
#     4  10  22  35  61  96 129 163 226 294 335 383
#     4  10  23  39  75  99 130 172 232 285 336 401
#     4  10  22  44  72 110 130 170 234 292 340 410
#     4  10  21  39  61  95 133 179 234 288 341 399
#     4  10  22  44  74 100 136 178 232 280 342 424
#     4  11  25  42  67  97 143 183 224 269 347 425
#     4  12  24  43  68 103 140 187 228 287 344 411
#     4  10  21  43  65  97 127 181 223 279 332 409
#
# _framework density 21.322403999999999
#
# number of rings (size 3 to 8) (size 9 to 14) (size 15 to 20)
#    0.000    1.600    2.667    1.200    7.467    1.067 
#    0.000    4.667    5.867    0.000    0.000    0.000 
#    0.000    0.000    0.000    0.000    0.000    0.000 
#
# Total GULP energy -167344.584350 kJ/mol
# GULP energy per Si atom -5578.152812 kJ/mol
# Density = 2.127387 g / cm^3
# Si number density = 21.322404 Si / 1000 Ang^3
#
#
#
# Elastic Constant Matrix: (Units=GPa)
#
#
# Indices 1 2 3 4 5 6 
#
# 1 91.8493 -4.2835 20.8206 0.0000 0.0000 0.0000
# 2 -4.2835 55.0786 18.3755 0.0000 0.0000 0.0000
# 3 20.8206 18.3755 77.8196 0.0000 0.0000 0.0000
# 4 0.0000 0.0000 0.0000 14.6853 0.0000 0.0000
# 5 0.0000 0.0000 0.0000 0.0000 17.5131 0.0000
# 6 0.0000 0.0000 0.0000 0.0000 0.0000 28.4258
#
#
#
# Elastic Compliance Matrix: (Units=1/GPa)
#
#
# Indices 1 2 3 4 5 6 
#
# 1 0.011819 0.002143 -0.003668 0.000000 0.000000 0.000000
# 2 0.002143 0.020097 -0.005319 0.000000 0.000000 0.000000
# 3 -0.003668 -0.005319 0.015088 0.000000 0.000000 0.000000
# 4 0.000000 0.000000 0.000000 0.068095 0.000000 0.000000
# 5 0.000000 0.000000 0.000000 0.000000 0.057100 0.000000
# 6 0.000000 0.000000 0.000000 0.000000 0.000000 0.035179
#
#
# Mechanical properties :
#
#
# Convention : Reuss Voigt Hill
#
# Bulk Modulus (GPa) = 30.01619 32.73029 31.37324
# Shear Modulus (GPa) = 21.53582 24.78050 23.15816
#
# Velocity S-wave (km/s) = 3.18151 3.41278 3.29917
# Velocity P-wave (km/s) = 5.25394 5.55994 5.40910
#
# Compressibility (1/GPa) = 0.03331536
#
# Stress axis : x y z
#
# Youngs Moduli (GPa) = 84.61067 49.75860 66.27971
#
# Poissons Ratio (x) = -0.10663 0.24312
# Poissons Ratio (y) = -0.18131 0.35253
# Poissons Ratio (z) = 0.31036 0.26466
#
# Static dielectric constant tensor:
#      x y z
#    x 1.829220 0.000000 0.000000 
#    y 0.000000 1.779000 0.000000 
#    z 0.000000 0.000000 1.792750 
# 
# From -- ./inp_files/7351.got.cif
#   From: 2010.05.17/outbox.cif.g08.bks.cpg/sg45_4_cif.got.tgz:7351.got - 2010.06.03 19:51:22.
