data_PCOD9376572
_publ_section_title
;
Structure prediction by ZEFSAII (Michael W. Deem and Ramdas Pophale) SiO2 
 PCOD9376572
Probable space group: I B A 2
;
_chemical_formula_sum "Si O2"
_cell_formula_units_Z 48
_cell_length_a 14.552353
_cell_length_b 13.816963
_cell_length_c 10.058486
_cell_angle_alpha 90.000000
_cell_angle_beta 90.000000
_cell_angle_gamma 90.000000
_cell_volume 2022.452970
_symmetry_space_group_name_H-M "I B A 2"
_symmetry_group_IT_number 45
_symmetry_cell_setting 'orthorhombic'
loop_
_space_group_symop_operation_xyz
x,y,z
-x,-y,z
-x,y,1/2+z
x,-y,1/2+z
1/2+x,1/2+y,1/2+z
1/2-x,1/2-y,1/2+z
1/2-x,1/2+y,z
1/2+x,1/2-y,z
loop_
_atom_site_type_symbol
_atom_site_label
_atom_site_fract_x
_atom_site_fract_y
_atom_site_fract_z
Si Si1 0.897656 0.604947 0.970080
Si Si2 0.316288 0.928190 0.363302
Si Si3 0.672040 0.688333 0.494986
Si Si4 0.495522 0.146573 0.711601
Si Si5 0.022702 0.864088 0.274665
Si Si6 0.145831 0.027574 0.218845
O O1 0.845631 0.504260 0.976767
O O2 0.839023 0.697467 0.018158
O O3 0.924888 0.616439 0.814439
O O4 0.988780 0.610435 0.060728
O O5 0.267026 0.833595 0.420661
O O6 0.403202 0.896209 0.277489
O O7 0.237368 0.985888 0.283269
O O8 0.587273 0.660095 0.398951
O O9 0.667662 0.610148 0.612359
O O10 0.497811 0.262446 0.708368
O O11 0.928699 0.918411 0.313401
O O12 0.084334 0.933470 0.179931
#
# Coordination Sequence:
#
# PCOD9376572 Si02
#       6
#     8   8   8   8   8   8
#     4  11  25  45  71  97 133 181 228 277 340 407
#     4  11  25  40  67  99 137 177 220 278 346 409
#     4  10  22  42  65 100 134 172 228 282 338 401
#     4  11  24  47  67  98 135 178 230 278 337 412
#     4   9  21  39  65  97 130 176 225 279 336 395
#     4  10  20  40  66  96 133 171 225 281 337 397
#
# _framework density 23.733556
#
# number of rings (size 3 to 8) (size 9 to 14) (size 15 to 20)
#    0.000    1.667    1.667    1.500    2.333    9.333 
#    0.000    3.333    0.000    0.000    0.000    0.000 
#    0.000    0.000    0.000    0.000    0.000    0.000 
#
# Total GULP energy -134095.596658 kJ/mol
# GULP energy per Si atom -5587.316527 kJ/mol
# Density = 2.367954 g / cm^3
# Si number density = 23.733556 Si / 1000 Ang^3
#
#
#
# Elastic Constant Matrix: (Units=GPa)
#
#
# Indices 1 2 3 4 5 6 
#
# 1 62.9198 53.6905 -9.2282 0.0000 0.0000 0.0000
# 2 53.6905 152.2378 22.5119 0.0000 0.0000 0.0000
# 3 -9.2282 22.5119 49.0310 0.0000 0.0000 0.0000
# 4 0.0000 0.0000 0.0000 24.3970 0.0000 0.0000
# 5 0.0000 0.0000 0.0000 0.0000 20.1057 0.0000
# 6 0.0000 0.0000 0.0000 0.0000 0.0000 37.1694
#
#
#
# Elastic Compliance Matrix: (Units=1/GPa)
#
#
# Indices 1 2 3 4 5 6 
#
# 1 0.026641 -0.010876 0.010008 0.000000 0.000000 0.000000
# 2 -0.010876 0.011487 -0.007321 0.000000 0.000000 0.000000
# 3 0.010008 -0.007321 0.025640 0.000000 0.000000 0.000000
# 4 0.000000 0.000000 0.000000 0.040989 0.000000 0.000000
# 5 0.000000 0.000000 0.000000 0.000000 0.049737 0.000000
# 6 0.000000 0.000000 0.000000 0.000000 0.000000 0.026904
#
#
# Mechanical properties :
#
#
# Convention : Reuss Voigt Hill
#
# Bulk Modulus (GPa) = 21.10129 44.23743 32.66936
# Shear Modulus (GPa) = 23.41124 29.48205 26.44664
#
# Velocity S-wave (km/s) = 3.14414 3.52832 3.34176
# Velocity P-wave (km/s) = 4.70011 5.93956 5.35581
#
# Compressibility (1/GPa) = 0.04739046
#
# Stress axis : x y z
#
# Youngs Moduli (GPa) = 37.53561 87.05652 39.00138
#
# Poissons Ratio (x) = 0.94679 -0.39031
# Poissons Ratio (y) = 0.40822 0.28553
# Poissons Ratio (z) = -0.37564 0.63733
#
# Static dielectric constant tensor:
#      x y z
#    x 1.901300 0.000000 0.000000 
#    y 0.000000 1.903270 0.000000 
#    z 0.000000 0.000000 1.952750 
# 
# From -- ./inp_files/4096.got.cif
#   From: 2010.05.17/outbox.cif.g08.bks.cpg/sg45_3_cif.got.tgz:4096.got - 2010.06.03 19:51:22.
