data_PCOD9376652
_publ_section_title
;
Structure prediction by ZEFSAII (Michael W. Deem and Ramdas Pophale) SiO2 
 PCOD9376652
Probable space group: I B A 2
;
_chemical_formula_sum "Si O2"
_cell_formula_units_Z 32
_cell_length_a 8.753597
_cell_length_b 14.135640
_cell_length_c 9.295488
_cell_angle_alpha 90.000000
_cell_angle_beta 90.000000
_cell_angle_gamma 90.000000
_cell_volume 1150.202267
_symmetry_space_group_name_H-M "I B A 2"
_symmetry_group_IT_number 45
_symmetry_cell_setting 'orthorhombic'
loop_
_space_group_symop_operation_xyz
x,y,z
-x,-y,z
-x,y,1/2+z
x,-y,1/2+z
1/2+x,1/2+y,1/2+z
1/2-x,1/2-y,1/2+z
1/2-x,1/2+y,z
1/2+x,1/2-y,z
loop_
_atom_site_type_symbol
_atom_site_label
_atom_site_fract_x
_atom_site_fract_y
_atom_site_fract_z
Si Si1 0.487738 0.138565 0.476280
Si Si2 0.910922 0.115192 0.267597
Si Si3 0.149093 0.251472 0.222870
Si Si4 0.754965 0.985329 0.027202
O O1 0.407062 0.221975 0.564001
O O2 0.571321 0.176564 0.336488
O O3 0.624130 0.090830 0.570777
O O4 0.355938 0.061927 0.449256
O O5 0.822096 0.214249 0.238892
O O6 0.866601 0.068424 0.418214
O O7 0.086447 0.147681 0.258293
O O8 0.843991 0.044621 0.147433
#
# Coordination Sequence:
#
# PCOD9376652 Si02
#       4
#     8   8   8   8
#     4   9  18  36  60  87 116 158 204 239 286 364
#     4  10  21  39  63  89 118 156 202 248 295 353
#     4  10  21  35  61  91 120 152 200 252 297 347
#     4   9  18  34  62  87 114 157 206 241 284 361
#
# _framework density 27.821193000000001
#
# number of rings (size 3 to 8) (size 9 to 14) (size 15 to 20)
#    0.000    2.500    0.000    1.500    0.000   14.000 
#    0.000    2.500    0.000   37.500    0.000    0.000 
#    0.000    0.000    0.000    0.000    0.000    0.000 
#
# Total GULP energy -89726.325498 kJ/mol
# GULP energy per Si atom -5607.895344 kJ/mol
# Density = 2.775787 g / cm^3
# Si number density = 27.821193 Si / 1000 Ang^3
#
#
#
# Elastic Constant Matrix: (Units=GPa)
#
#
# Indices 1 2 3 4 5 6 
#
# 1 130.0906 71.0694 19.6824 0.0000 0.0001 0.0000
# 2 71.0694 153.2133 31.4369 0.0004 -0.0004 0.0000
# 3 19.6824 31.4369 75.1720 0.0006 -0.0005 0.0000
# 4 0.0000 0.0004 0.0006 27.9010 -0.0004 -0.0001
# 5 0.0001 -0.0004 -0.0005 -0.0004 22.9281 -0.0001
# 6 0.0000 0.0000 0.0000 -0.0001 -0.0001 78.0450
#
#
#
# Elastic Compliance Matrix: (Units=1/GPa)
#
#
# Indices 1 2 3 4 5 6 
#
# 1 0.010336 -0.004637 -0.000767 0.000000 0.000000 0.000000
# 2 -0.004637 0.009220 -0.002642 0.000000 0.000000 0.000000
# 3 -0.000767 -0.002642 0.014608 0.000000 0.000000 0.000000
# 4 0.000000 0.000000 0.000000 0.035841 0.000001 0.000000
# 5 0.000000 0.000000 0.000000 0.000001 0.043615 0.000000
# 6 0.000000 0.000000 0.000000 0.000000 0.000000 0.012813
#
#
# Mechanical properties :
#
#
# Convention : Reuss Voigt Hill
#
# Bulk Modulus (GPa) = 55.33170 66.98370 61.15770
# Shear Modulus (GPa) = 33.65882 41.52728 37.59305
#
# Velocity S-wave (km/s) = 3.48203 3.86767 3.67991
# Velocity P-wave (km/s) = 6.00812 6.63882 6.33133
#
# Compressibility (1/GPa) = 0.01807282
#
# Stress axis : x y z
#
# Youngs Moduli (GPa) = 96.74594 108.46130 68.45379
#
# Poissons Ratio (x) = 0.50296 0.05251
# Poissons Ratio (y) = 0.44863 0.18083
# Poissons Ratio (z) = 0.07421 0.28651
#
# Static dielectric constant tensor:
#      x y z
#    x 2.196210 0.000000 0.000000 
#    y 0.000000 2.161460 0.000000 
#    z 0.000000 0.000000 2.062380 
# 
# From -- ./inp_files/1221.got.cif
#   From: 2010.05.17/outbox.cif.g08.bks.cpg/sg45_1_cif.got.tgz:1221.got - 2010.06.03 19:51:22.
