data_PCOD9376233
_publ_section_title
;
Structure prediction by ZEFSAII (Michael W. Deem and Ramdas Pophale) SiO2 
 PCOD9376233
Probable space group: I B A 2
;
_chemical_formula_sum "Si O2"
_cell_formula_units_Z 48
_cell_length_a 21.120205
_cell_length_b 16.621492
_cell_length_c 5.281975
_cell_angle_alpha 90.000000
_cell_angle_beta 90.000000
_cell_angle_gamma 90.000000
_cell_volume 1854.233724
_symmetry_space_group_name_H-M "I B A 2"
_symmetry_group_IT_number 45
_symmetry_cell_setting 'orthorhombic'
loop_
_space_group_symop_operation_xyz
x,y,z
-x,-y,z
-x,y,1/2+z
x,-y,1/2+z
1/2+x,1/2+y,1/2+z
1/2-x,1/2-y,1/2+z
1/2-x,1/2+y,z
1/2+x,1/2-y,z
loop_
_atom_site_type_symbol
_atom_site_label
_atom_site_fract_x
_atom_site_fract_y
_atom_site_fract_z
Si Si1 0.150486 0.706620 0.474710
Si Si2 0.524644 0.207841 0.689812
Si Si3 0.122213 0.459177 0.130227
Si Si4 0.756776 0.912306 0.514561
Si Si5 0.026665 0.108897 0.131271
Si Si6 0.831960 0.885850 0.037404
O O1 0.099079 0.717895 0.250554
O O2 0.120938 0.637020 0.651791
O O3 0.216566 0.664434 0.406148
O O4 0.163268 0.790986 0.602263
O O5 0.506357 0.165967 0.431360
O O6 0.489368 0.295091 0.660215
O O7 0.096710 0.491363 0.864449
O O8 0.198851 0.471197 0.091231
O O9 0.802874 0.931629 0.280170
O O10 0.794158 0.891777 0.773061
O O11 0.977342 0.079968 0.919383
O O12 0.094655 0.092133 0.012570
#
# Coordination Sequence:
#
# PCOD9376233 Si02
#       6
#     8   8   8   8   8   8
#     4  10  23  36  63  82 124 156 194 244 294 365
#     4  10  20  34  53  82 110 167 194 220 284 354
#     4  10  23  42  59  79 113 159 208 245 295 339
#     4  10  25  34  60  87 119 154 183 258 297 360
#     4  10  19  33  52  79 122 167 177 223 272 376
#     4  12  20  37  55  94 125 145 195 229 316 362
#
# _framework density 25.886704000000002
#
# number of rings (size 3 to 8) (size 9 to 14) (size 15 to 20)
#    1.000    0.667    3.333    3.000    2.333    4.000 
#    0.000    0.000    0.000    3.000    0.000    0.000 
#    0.000   46.667    0.000    0.000    0.000    0.000 
#
# Total GULP energy -133946.717350 kJ/mol
# GULP energy per Si atom -5581.113223 kJ/mol
# Density = 2.582778 g / cm^3
# Si number density = 25.886704 Si / 1000 Ang^3
#
#
#
# Elastic Constant Matrix: (Units=GPa)
#
#
# Indices 1 2 3 4 5 6 
#
# 1 128.6392 -3.2938 47.2714 0.0000 0.0000 0.0000
# 2 -3.2938 91.7891 -6.4698 0.0000 0.0000 0.0000
# 3 47.2714 -6.4698 192.6465 0.0000 0.0000 0.0000
# 4 0.0000 0.0000 0.0000 -102.3306 0.0000 0.0000
# 5 0.0000 0.0000 0.0000 0.0000 26.8251 0.0000
# 6 0.0000 0.0000 0.0000 0.0000 0.0000 24.3409
#
#
#
# Elastic Compliance Matrix: (Units=1/GPa)
#
#
# Indices 1 2 3 4 5 6 
#
# 1 0.008546 0.000159 -0.002092 0.000000 0.000000 0.000000
# 2 0.000159 0.010923 0.000328 0.000000 0.000000 0.000000
# 3 -0.002092 0.000328 0.005715 0.000000 0.000000 0.000000
# 4 0.000000 0.000000 0.000000 -0.009772 0.000000 0.000000
# 5 0.000000 0.000000 0.000000 0.000000 0.037279 0.000000
# 6 0.000000 0.000000 0.000000 0.000000 0.000000 0.041083
#
#
# Mechanical properties :
#
#
# Convention : Reuss Voigt Hill
#
# Bulk Modulus (GPa) = 45.50539 54.23228 49.86883
# Shear Modulus (GPa) = 47.93452 14.80488 31.36970
#
# Velocity S-wave (km/s) = 4.30781 2.39406 3.48488
# Velocity P-wave (km/s) = 6.50844 5.35139 5.95807
#
# Compressibility (1/GPa) = 0.02197542
#
# Stress axis : x y z
#
# Youngs Moduli (GPa) = 117.00800 91.54695 174.97397
#
# Poissons Ratio (x) = -0.01458 0.36600
# Poissons Ratio (y) = -0.01863 -0.05735
# Poissons Ratio (z) = 0.24475 -0.03001
#
# Static dielectric constant tensor:
#      x y z
#    x 2.100010 0.000000 0.000000 
#    y 0.000000 2.304380 0.000000 
#    z 0.000000 0.000000 2.049630 
# 
# From -- ./inp_files/398.got.cif
#   From: 2010.05.17/outbox.cif.g08.bks.cpg/sg45_1_cif.got.tgz:398.got - 2010.06.03 19:51:22.
