data_PCOD9376822
_publ_section_title
;
Structure prediction by ZEFSAII (Michael W. Deem and Ramdas Pophale) SiO2 
 PCOD9376822
Probable space group: I B A 2
;
_chemical_formula_sum "Si O2"
_cell_formula_units_Z 56
_cell_length_a 29.864283
_cell_length_b 4.867116
_cell_length_c 14.072054
_cell_angle_alpha 90.000000
_cell_angle_beta 90.000000
_cell_angle_gamma 90.000000
_cell_volume 2045.414275
_symmetry_space_group_name_H-M "I B A 2"
_symmetry_group_IT_number 45
_symmetry_cell_setting 'orthorhombic'
loop_
_space_group_symop_operation_xyz
x,y,z
-x,-y,z
-x,y,1/2+z
x,-y,1/2+z
1/2+x,1/2+y,1/2+z
1/2-x,1/2-y,1/2+z
1/2-x,1/2+y,z
1/2+x,1/2-y,z
loop_
_atom_site_type_symbol
_atom_site_label
_atom_site_fract_x
_atom_site_fract_y
_atom_site_fract_z
Si Si1 0.722529 0.699982 0.712670
Si Si2 0.374835 0.234417 0.714916
Si Si3 0.277248 0.707874 0.981596
Si Si4 0.952664 0.611562 0.307539
Si Si5 0.044783 0.848127 0.161282
Si Si6 0.630934 0.981305 0.503010
Si Si7 0.924946 0.977352 0.463707
O O1 0.761855 0.498621 0.742898
O O2 0.672318 0.636604 0.743447
O O3 0.722232 0.689077 0.597287
O O4 0.397509 0.067374 0.801087
O O5 0.411933 0.468562 0.689799
O O6 0.366389 0.060266 0.618467
O O7 0.263847 0.403854 0.951217
O O8 0.324372 0.850587 0.959377
O O9 0.955689 0.454581 0.204088
O O10 0.947723 0.898360 0.365409
O O11 0.000000 0.500000 0.349131
O O12 0.044638 0.863595 0.048568
O O13 0.000000 0.000000 0.197682
O O14 0.588006 0.793324 0.474311
O O15 0.620230 0.297705 0.482080
#
# Coordination Sequence:
#
# PCOD9376822 Si02
#       7
#     8   8   8   8   8   8   8
#     4   9  19  33  58  95 129 169 225 281 342 414
#     4  10  22  40  67  95 137 182 227 289 351 416
#     4   9  16  29  57  93 127 167 223 284 342 413
#     4  12  26  43  70 102 139 186 238 291 355 429
#     4  11  24  46  72 102 144 190 240 297 358 432
#     4  10  21  41  64  96 136 181 229 285 354 420
#     4  11  26  42  68  99 138 183 234 286 351 421
#
# _framework density 27.378319000000001
#
# number of rings (size 3 to 8) (size 9 to 14) (size 15 to 20)
#    0.000    1.714    2.857    0.857    4.000    6.286 
#    0.000    0.000    0.000    5.143    0.000    0.000 
#    0.000    0.000    0.000    0.000    0.000    0.000 
#
# Total GULP energy -156146.337798 kJ/mol
# GULP energy per Si atom -5576.654921 kJ/mol
# Density = 2.731601 g / cm^3
# Si number density = 27.378319 Si / 1000 Ang^3
#
#
#
# Elastic Constant Matrix: (Units=GPa)
#
#
# Indices 1 2 3 4 5 6 
#
# 1 175.9444 17.2140 3.1263 0.0000 0.0000 0.0000
# 2 17.2140 93.8594 6.2499 0.0000 0.0000 0.0000
# 3 3.1263 6.2499 111.8313 0.0000 0.0000 0.0000
# 4 0.0000 0.0000 0.0000 34.8833 0.0000 0.0000
# 5 0.0000 0.0000 0.0000 0.0000 19.2017 0.0000
# 6 0.0000 0.0000 0.0000 0.0000 0.0000 37.9819
#
#
#
# Elastic Compliance Matrix: (Units=1/GPa)
#
#
# Indices 1 2 3 4 5 6 
#
# 1 0.005789 -0.001055 -0.000103 0.000000 0.000000 0.000000
# 2 -0.001055 0.010886 -0.000579 0.000000 0.000000 0.000000
# 3 -0.000103 -0.000579 0.008977 0.000000 0.000000 0.000000
# 4 0.000000 0.000000 0.000000 0.028667 0.000000 0.000000
# 5 0.000000 0.000000 0.000000 0.000000 0.052079 0.000000
# 6 0.000000 0.000000 0.000000 0.000000 0.000000 0.026328
#
#
# Mechanical properties :
#
#
# Convention : Reuss Voigt Hill
#
# Bulk Modulus (GPa) = 45.08775 48.31285 46.70030
# Shear Modulus (GPa) = 34.82078 42.08304 38.45191
#
# Velocity S-wave (km/s) = 3.57015 3.92483 3.75169
# Velocity P-wave (km/s) = 5.78782 6.18254 5.98843
#
# Compressibility (1/GPa) = 0.02217897
#
# Stress axis : x y z
#
# Youngs Moduli (GPa) = 172.75215 91.85912 111.39248
#
# Poissons Ratio (x) = 0.09689 0.01146
# Poissons Ratio (y) = 0.18222 0.06449
# Poissons Ratio (z) = 0.01777 0.05318
#
# Static dielectric constant tensor:
#      x y z
#    x 2.163280 0.000000 0.000000 
#    y 0.000000 2.420180 0.000000 
#    z 0.000000 0.000000 2.349790 
# 
# From -- ./inp_files/5259.got.cif
#   From: 2010.05.17/outbox.cif.g08.bks.cpg/sg45_3_cif.got.tgz:5259.got - 2010.06.03 19:51:22.
