data_PCOD9376028
_publ_section_title
;
Structure prediction by ZEFSAII (Michael W. Deem and Ramdas Pophale) SiO2 
 PCOD9376028
Probable space group: I M M 2
;
_chemical_formula_sum "Si O2"
_cell_formula_units_Z 24
_cell_length_a 18.000000
_cell_length_b 9.000000
_cell_length_c 15.000000
_cell_angle_alpha 90.000000
_cell_angle_beta 90.000000
_cell_angle_gamma 90.000000
_cell_volume 2430.000000
_symmetry_space_group_name_H-M "I M M 2"
_symmetry_group_IT_number 44
_symmetry_cell_setting 'orthorhombic'
loop_
_space_group_symop_operation_xyz
x,y,z
-x,-y,z
-x,y,z
x,-y,z
1/2+x,1/2+y,1/2+z
1/2-x,1/2-y,1/2+z
1/2-x,1/2+y,1/2+z
1/2+x,1/2-y,1/2+z
loop_
_atom_site_type_symbol
_atom_site_label
_atom_site_fract_x
_atom_site_fract_y
_atom_site_fract_z
Si Si1 0.583118 0.828114 0.750000
Si Si2 0.158879 0.819835 0.642638
Si Si3 0.500000 0.678913 0.216869
Si Si4 0.762584 0.676398 0.486819
Si Si5 0.735103 0.322492 0.794732
Si Si6 0.000000 0.820032 0.924376
Si Si7 0.878250 0.672526 0.045704
O O1 0.500000 0.789208 0.780654
O O2 0.648988 0.721777 0.780121
O O3 0.584461 0.826325 0.642462
O O4 0.599179 0.000000 0.776858
O O5 0.076386 0.773920 0.672100
O O6 0.173078 0.753589 0.544457
O O7 0.215134 0.754200 0.717508
O O8 0.166877 0.000000 0.641657
O O9 0.500000 0.500000 0.212652
O O10 0.500000 0.717133 0.320685
O O11 0.771731 0.500000 0.478233
O O12 0.747526 0.751547 0.391323
O O13 0.692187 0.720746 0.547016
O O14 0.745717 0.500000 0.793872
O O15 0.069220 0.743234 0.971961
O O16 0.000000 0.000000 0.935547
O O17 0.858673 0.500000 0.026230
#
# Coordination Sequence:
#
# PCOD9376028 Si02
#       7
#     8   8   4   8   8   4   8
#     4  10  21  40  64  90 127 168 206 256 318 375
#     4  11  22  43  69  94 129 169 211 267 323 382
#     4   9  22  41  63  90 123 166 209 257 318 375
#     4  12  25  42  64  93 125 168 218 266 320 383
#     4  12  25  42  66  97 128 168 216 263 320 387
#     4  11  21  35  59  94 131 168 209 257 318 389
#     4  11  21  37  61  91 127 166 207 259 320 381
#
# _framework density 9.8765429999999999
#
# number of rings (size 3 to 8) (size 9 to 14) (size 15 to 20)
#    0.000    1.000    2.500    5.250    0.000    2.333 
#    1.500    4.167    0.000    0.000    0.000    0.000 
#    0.000    0.000    0.000    0.000    0.000    0.000 
#
# Total GULP energy -134048.486193 kJ/mol
# GULP energy per Si atom -5585.353591 kJ/mol
# Density = 0.985406 g / cm^3
# Si number density = 9.876543 Si / 1000 Ang^3
#
#
#
# Elastic Constant Matrix: (Units=GPa)
#
#
# Indices 1 2 3 4 5 6 
#
# 1 90.0797 23.2129 10.5275 0.0000 0.0000 0.0000
# 2 23.2129 129.9961 27.1403 0.0000 0.0000 0.0000
# 3 10.5275 27.1403 63.7457 0.0000 0.0000 0.0000
# 4 0.0000 0.0000 0.0000 33.2119 0.0000 0.0000
# 5 0.0000 0.0000 0.0000 0.0000 26.7044 0.0000
# 6 0.0000 0.0000 0.0000 0.0000 0.0000 21.0108
#
#
#
# Elastic Compliance Matrix: (Units=1/GPa)
#
#
# Indices 1 2 3 4 5 6 
#
# 1 0.011712 -0.001852 -0.001146 0.000000 0.000000 0.000000
# 2 -0.001852 0.008736 -0.003414 0.000000 0.000000 0.000000
# 3 -0.001146 -0.003414 0.017330 0.000000 0.000000 0.000000
# 4 0.000000 0.000000 0.000000 0.030110 0.000000 0.000000
# 5 0.000000 0.000000 0.000000 0.000000 0.037447 0.000000
# 6 0.000000 0.000000 0.000000 0.000000 0.000000 0.047595
#
#
# Mechanical properties :
#
#
# Convention : Reuss Voigt Hill
#
# Bulk Modulus (GPa) = 40.07148 45.06478 42.56813
# Shear Modulus (GPa) = 28.72391 31.04814 29.88602
#
# Velocity S-wave (km/s) = 3.81747 3.96891 3.89392
# Velocity P-wave (km/s) = 6.30563 6.62318 6.46636
#
# Compressibility (1/GPa) = 0.02495540
#
# Stress axis : x y z
#
# Youngs Moduli (GPa) = 85.37890 114.46946 57.70385
#
# Poissons Ratio (x) = 0.21203 0.06611
# Poissons Ratio (y) = 0.15814 0.19697
# Poissons Ratio (z) = 0.09782 0.39074
#
# Static dielectric constant tensor:
#      x y z
#    x 1.444270 0.000000 0.000000 
#    y 0.000000 1.656940 0.000000 
#    z 0.000000 0.000000 1.696160 
# 
# From -- ./inp_files/18838.got.cif
#   From: 2010.05.17/outbox.ucp.g08.bks.cvg/sg44_10_cif.got.tgz:18838.got - 2010.06.11 16:32:36.
