data_PCOD9376487
_publ_section_title
;
Structure prediction by ZEFSAII (Michael W. Deem and Ramdas Pophale) SiO2 
 PCOD9376487
Probable space group: I B A 2
;
_chemical_formula_sum "Si O2"
_cell_formula_units_Z 60
_cell_length_a 23.978943
_cell_length_b 14.141732
_cell_length_c 8.558500
_cell_angle_alpha 90.000000
_cell_angle_beta 90.000000
_cell_angle_gamma 90.000000
_cell_volume 2902.219749
_symmetry_space_group_name_H-M "I B A 2"
_symmetry_group_IT_number 45
_symmetry_cell_setting 'orthorhombic'
loop_
_space_group_symop_operation_xyz
x,y,z
-x,-y,z
-x,y,1/2+z
x,-y,1/2+z
1/2+x,1/2+y,1/2+z
1/2-x,1/2-y,1/2+z
1/2-x,1/2+y,z
1/2+x,1/2-y,z
loop_
_atom_site_type_symbol
_atom_site_label
_atom_site_fract_x
_atom_site_fract_y
_atom_site_fract_z
Si Si1 0.120658 0.247409 0.379370
Si Si2 0.979644 0.141907 0.869217
Si Si3 0.776007 0.455819 0.395727
Si Si4 0.291462 0.143589 0.057957
Si Si5 0.651131 0.445331 0.525641
Si Si6 0.000000 0.000000 0.628788
Si Si7 0.318330 0.224003 0.551373
Si Si8 0.113085 0.128875 0.861524
O O1 0.053386 0.240362 0.366205
O O2 0.150021 0.303476 0.521483
O O3 0.130723 0.137582 0.413367
O O4 0.151484 0.270427 0.218386
O O5 0.971672 0.079698 0.024498
O O6 0.962608 0.065761 0.737790
O O7 0.046959 0.149866 0.851643
O O8 0.789578 0.565824 0.419291
O O9 0.782162 0.413985 0.220129
O O10 0.715332 0.451009 0.474694
O O11 0.812116 0.383747 0.498957
O O12 0.241756 0.221545 0.052788
O O13 0.624901 0.546545 0.487231
O O14 0.639724 0.410518 0.701363
O O15 0.354661 0.279901 0.423600
#
# Coordination Sequence:
#
# PCOD9376487 Si02
#       8
#     8   8   8   8   8   4   8   8
#     4  12  25  40  64  90 133 176 227 272 333 393
#     4  11  22  40  58  94 133 184 219 276 322 401
#     4  12  25  42  67  95 135 170 224 272 339 384
#     4  12  24  44  63  95 129 174 219 277 327 403
#     4  12  22  37  62  97 132 186 212 276 327 403
#     4  10  20  38  60  86 138 174 226 260 328 390
#     4  12  24  41  64  96 130 174 224 273 328 397
#     4  12  24  37  64  96 141 176 232 264 334 399
#
# _framework density 20.673831
#
# number of rings (size 3 to 8) (size 9 to 14) (size 15 to 20)
#    0.000    0.267    4.000    7.200    1.867    0.000 
#    0.000    0.000    0.000    0.800    0.000    3.733 
#    0.000    0.000    0.000    0.000    0.000    0.000 
#
# Total GULP energy -167560.594327 kJ/mol
# GULP energy per Si atom -5585.353144 kJ/mol
# Density = 2.062678 g / cm^3
# Si number density = 20.673831 Si / 1000 Ang^3
#
#
#
# Elastic Constant Matrix: (Units=GPa)
#
#
# Indices 1 2 3 4 5 6 
#
# 1 118.7548 33.2325 46.4781 0.0000 0.0000 0.0000
# 2 33.2325 33.7782 4.8079 0.0000 0.0000 0.0000
# 3 46.4781 4.8079 120.5896 0.0000 0.0000 0.0000
# 4 0.0000 0.0000 0.0000 35.9753 0.0000 0.0000
# 5 0.0000 0.0000 0.0000 0.0000 26.3171 0.0000
# 6 0.0000 0.0000 0.0000 0.0000 0.0000 34.1949
#
#
#
# Elastic Compliance Matrix: (Units=1/GPa)
#
#
# Indices 1 2 3 4 5 6 
#
# 1 0.013981 -0.013063 -0.004868 0.000000 0.000000 0.000000
# 2 -0.013063 0.041978 0.003361 0.000000 0.000000 0.000000
# 3 -0.004868 0.003361 0.010035 0.000000 0.000000 0.000000
# 4 0.000000 0.000000 0.000000 0.027797 0.000000 0.000000
# 5 0.000000 0.000000 0.000000 0.000000 0.037998 0.000000
# 6 0.000000 0.000000 0.000000 0.000000 0.000000 0.029244
#
#
# Mechanical properties :
#
#
# Convention : Reuss Voigt Hill
#
# Bulk Modulus (GPa) = 27.13327 49.12887 38.13107
# Shear Modulus (GPa) = 24.69652 31.87106 28.28379
#
# Velocity S-wave (km/s) = 3.46002 3.93060 3.70279
# Velocity P-wave (km/s) = 5.39585 6.66445 6.06342
#
# Compressibility (1/GPa) = 0.03685512
#
# Stress axis : x y z
#
# Youngs Moduli (GPa) = 71.52363 23.82191 99.65309
#
# Poissons Ratio (x) = 0.31118 0.48511
# Poissons Ratio (y) = 0.93429 -0.33493
# Poissons Ratio (z) = 0.34817 -0.08006
#
# Static dielectric constant tensor:
#      x y z
#    x 2.031150 0.000000 0.000000 
#    y 0.000000 1.721240 0.000000 
#    z 0.000000 0.000000 1.826660 
# 
# From -- ./inp_files/2533.got.cif
#   From: 2010.05.17/outbox.cif.g08.bks.cpg/sg45_2_cif.got.tgz:2533.got - 2010.06.03 19:51:22.
