data_PCOD9376429
_publ_section_title
;
Structure prediction by ZEFSAII (Michael W. Deem and Ramdas Pophale) SiO2 
 PCOD9376429
Probable space group: I B A 2
;
_chemical_formula_sum "Si O2"
_cell_formula_units_Z 64
_cell_length_a 8.449070
_cell_length_b 23.107994
_cell_length_c 14.394803
_cell_angle_alpha 90.000000
_cell_angle_beta 90.000000
_cell_angle_gamma 90.000000
_cell_volume 2810.456580
_symmetry_space_group_name_H-M "I B A 2"
_symmetry_group_IT_number 45
_symmetry_cell_setting 'orthorhombic'
loop_
_space_group_symop_operation_xyz
x,y,z
-x,-y,z
-x,y,1/2+z
x,-y,1/2+z
1/2+x,1/2+y,1/2+z
1/2-x,1/2-y,1/2+z
1/2-x,1/2+y,z
1/2+x,1/2-y,z
loop_
_atom_site_type_symbol
_atom_site_label
_atom_site_fract_x
_atom_site_fract_y
_atom_site_fract_z
Si Si1 0.660147 0.537223 0.793190
Si Si2 0.166539 0.775598 0.437883
Si Si3 0.937951 0.556179 0.658192
Si Si4 0.586818 0.181359 0.686157
Si Si5 0.059261 0.198191 0.133061
Si Si6 0.503333 0.831800 0.402527
Si Si7 0.948039 0.860452 0.797551
Si Si8 0.144706 0.437454 0.345850
O O1 0.500000 0.500000 0.777381
O O2 0.761190 0.546261 0.699036
O O3 0.598506 0.600073 0.824279
O O4 0.774487 0.500196 0.861660
O O5 0.092899 0.809233 0.525253
O O6 0.347106 0.795321 0.429558
O O7 0.071401 0.799338 0.348615
O O8 0.144011 0.706542 0.445943
O O9 0.943976 0.622835 0.627261
O O10 0.000000 0.500000 0.602649
O O11 0.051723 0.556210 0.749172
O O12 0.773178 0.193346 0.684959
O O13 0.505423 0.237491 0.645152
O O14 0.530246 0.171745 0.791235
O O15 0.950861 0.152786 0.187787
O O16 0.464308 0.900067 0.415435
O O17 0.794424 0.896145 0.827115
#
# Coordination Sequence:
#
# PCOD9376429 Si02
#       8
#     8   8   8   8   8   8   8   8
#     4   9  16  32  56  88 116 157 207 261 307 384
#     4  11  23  37  56  89 127 165 208 256 312 382
#     4   9  17  32  55  91 115 152 209 261 309 377
#     4  11  22  37  60  88 124 163 204 262 312 383
#     4  12  24  37  58  92 128 165 215 255 322 381
#     4  10  20  38  57  85 120 163 201 260 311 375
#     4  10  20  36  59  84 125 163 203 255 316 378
#     4   8  18  31  57  85 116 153 210 253 310 372
#
# _framework density 22.772099000000001
#
# number of rings (size 3 to 8) (size 9 to 14) (size 15 to 20)
#    0.000    2.000    2.500    1.500    3.500    0.000 
#    0.000    0.000    0.000   11.250    0.000   21.875 
#    0.000    0.000    0.000    0.000    0.000    0.000 
#
# Total GULP energy -178436.464228 kJ/mol
# GULP energy per Si atom -5576.139507 kJ/mol
# Density = 2.272027 g / cm^3
# Si number density = 22.772099 Si / 1000 Ang^3
#
#
#
# Elastic Constant Matrix: (Units=GPa)
#
#
# Indices 1 2 3 4 5 6 
#
# 1 52.2153 28.8533 -8.6005 0.0000 0.0000 0.0000
# 2 28.8533 132.4083 -22.0843 0.0000 0.0000 0.0000
# 3 -8.6005 -22.0843 47.2971 -0.0001 -0.0001 0.0000
# 4 0.0000 0.0000 -0.0001 11.3291 0.0000 0.0000
# 5 0.0000 0.0000 -0.0001 0.0000 7.0237 0.0000
# 6 0.0000 0.0000 0.0000 0.0000 0.0000 30.6253
#
#
#
# Elastic Compliance Matrix: (Units=1/GPa)
#
#
# Indices 1 2 3 4 5 6 
#
# 1 0.021930 -0.004461 0.001905 0.000000 0.000000 0.000000
# 2 -0.004461 0.009098 0.003437 0.000000 0.000000 0.000000
# 3 0.001905 0.003437 0.023094 0.000000 0.000000 0.000000
# 4 0.000000 0.000000 0.000000 0.088268 0.000001 0.000000
# 5 0.000000 0.000000 0.000000 0.000001 0.142375 0.000000
# 6 0.000000 0.000000 0.000000 0.000000 0.000000 0.032653
#
#
# Mechanical properties :
#
#
# Convention : Reuss Voigt Hill
#
# Bulk Modulus (GPa) = 17.89456 25.36196 21.62826
# Shear Modulus (GPa) = 14.95731 25.37911 20.16821
#
# Velocity S-wave (km/s) = 2.56564 3.34201 2.97922
# Velocity P-wave (km/s) = 4.08067 5.10426 4.62090
#
# Compressibility (1/GPa) = 0.05588289
#
# Stress axis : x y z
#
# Youngs Moduli (GPa) = 45.59881 109.91723 43.30124
#
# Poissons Ratio (x) = 0.49036 -0.08248
# Poissons Ratio (y) = 0.20342 -0.14882
# Poissons Ratio (z) = -0.08686 -0.37776
#
# Static dielectric constant tensor:
#      x y z
#    x 1.871530 0.000000 0.000000 
#    y 0.000000 1.980080 0.000000 
#    z 0.000000 0.000000 1.853210 
# 
# From -- ./inp_files/5851.got.cif
#   From: 2010.05.17/outbox.cif.g08.bks.cpg/sg45_3_cif.got.tgz:5851.got - 2010.06.03 19:51:22.
