data_PCOD9376037
_publ_section_title
;
Structure prediction by ZEFSAII (Michael W. Deem and Ramdas Pophale) SiO2 
 PCOD9376037
Probable space group: I B A 2
;
_chemical_formula_sum "Si O2"
_cell_formula_units_Z 64
_cell_length_a 20.281425
_cell_length_b 26.445958
_cell_length_c 5.463501
_cell_angle_alpha 90.000000
_cell_angle_beta 90.000000
_cell_angle_gamma 90.000000
_cell_volume 2930.412759
_symmetry_space_group_name_H-M "I B A 2"
_symmetry_group_IT_number 45
_symmetry_cell_setting 'orthorhombic'
loop_
_space_group_symop_operation_xyz
x,y,z
-x,-y,z
-x,y,1/2+z
x,-y,1/2+z
1/2+x,1/2+y,1/2+z
1/2-x,1/2-y,1/2+z
1/2-x,1/2+y,z
1/2+x,1/2-y,z
loop_
_atom_site_type_symbol
_atom_site_label
_atom_site_fract_x
_atom_site_fract_y
_atom_site_fract_z
Si Si1 0.462064 0.122461 0.471830
Si Si2 0.272614 0.179552 0.396699
Si Si3 0.460175 0.761048 0.932581
Si Si4 0.077786 0.518901 0.317836
Si Si5 0.363462 0.671210 0.891400
Si Si6 0.971497 0.057198 0.995447
Si Si7 0.786267 0.290740 0.897302
Si Si8 0.853453 0.116625 0.891605
O O1 0.483127 0.115161 0.754718
O O2 0.443381 0.180018 0.437460
O O3 0.414891 0.076668 0.401792
O O4 0.223459 0.229964 0.395487
O O5 0.313155 0.187285 0.645439
O O6 0.225483 0.129977 0.395975
O O7 0.314404 0.188545 0.150568
O O8 0.502030 0.751497 0.178152
O O9 0.400862 0.722596 0.938385
O O10 0.105690 0.487948 0.547156
O O11 0.000000 0.500000 0.298193
O O12 0.286600 0.685188 0.896834
O O13 0.378520 0.649893 0.622243
O O14 0.374855 0.634410 0.121491
O O15 0.992461 0.080196 0.256959
O O16 0.893062 0.064405 0.945693
O O17 0.000000 0.000000 0.009066
#
# Coordination Sequence:
#
# PCOD9376037 Si02
#       8
#     8   8   8   8   8   8   8   8
#     4  10  16  25  34  47  67  94 121 157 203 223
#     4   8  14  25  41  64  83 106 132 169 216 255
#     4  10  21  30  38  51  79 114 146 179 202 245
#     4  10  14  20  34  50  62  79 110 153 189 234
#     4  10  19  30  43  63  84 116 153 180 218 262
#     4  10  21  35  48  65  89 122 153 192 246 283
#     4   8  14  25  41  59  86 108 132 169 216 256
#     4  10  19  30  48  65  84 111 150 187 214 270
#
# _framework density 21.839926999999999
#
# number of rings (size 3 to 8) (size 9 to 14) (size 15 to 20)
#    0.000    2.500    2.500    1.500    0.000    3.000 
#    0.000    0.000    0.000    0.000    0.000    0.000 
#    0.000    0.000    8.500    0.000    0.000    0.000 
#
# Total GULP energy -178169.559623 kJ/mol
# GULP energy per Si atom -5567.798738 kJ/mol
# Density = 2.179022 g / cm^3
# Si number density = 21.839927 Si / 1000 Ang^3
#
#
#
# Elastic Constant Matrix: (Units=GPa)
#
#
# Indices 1 2 3 4 5 6 
#
# 1 28.8821 3.5341 17.3821 0.0000 0.0000 0.0000
# 2 3.5341 26.6185 -8.6497 0.0000 0.0000 0.0000
# 3 17.3821 -8.6497 176.6478 0.0000 0.0000 0.0000
# 4 0.0000 0.0000 0.0000 29.2885 0.0000 0.0000
# 5 0.0000 0.0000 0.0000 0.0000 9.3256 0.0000
# 6 0.0000 0.0000 0.0000 0.0000 0.0000 18.3822
#
#
#
# Elastic Compliance Matrix: (Units=1/GPa)
#
#
# Indices 1 2 3 4 5 6 
#
# 1 0.037825 -0.006332 -0.004032 0.000000 0.000000 0.000000
# 2 -0.006332 0.039235 0.002544 0.000000 0.000000 0.000000
# 3 -0.004032 0.002544 0.006182 0.000000 0.000000 0.000000
# 4 0.000000 0.000000 0.000000 0.034143 0.000000 0.000000
# 5 0.000000 0.000000 0.000000 0.000000 0.107232 0.000000
# 6 0.000000 0.000000 0.000000 0.000000 0.000000 0.054400
#
#
# Mechanical properties :
#
#
# Convention : Reuss Voigt Hill
#
# Bulk Modulus (GPa) = 14.79228 28.52014 21.65621
# Shear Modulus (GPa) = 15.76333 26.05805 20.91069
#
# Velocity S-wave (km/s) = 2.68949 3.45793 3.09763
# Velocity P-wave (km/s) = 4.05366 5.38796 4.76772
#
# Compressibility (1/GPa) = 0.06760282
#
# Stress axis : x y z
#
# Youngs Moduli (GPa) = 26.43756 25.48722 161.75174
#
# Poissons Ratio (x) = 0.16139 0.65219
# Poissons Ratio (y) = 0.16741 -0.41154
# Poissons Ratio (z) = 0.10660 -0.06485
#
# Static dielectric constant tensor:
#      x y z
#    x 1.825840 0.000000 0.000000 
#    y 0.000000 1.720220 0.000000 
#    z 0.000000 0.000000 1.944140 
# 
# From -- ./inp_files/473.got.cif
#   From: 2010.05.17/outbox.cif.g08.bks.cpg/sg45_1_cif.got.tgz:473.got - 2010.06.03 19:51:22.
