data_PCOD9376689
_publ_section_title
;
Structure prediction by ZEFSAII (Michael W. Deem and Ramdas Pophale) SiO2 
 PCOD9376689
Probable space group: I B A 2
;
_chemical_formula_sum "Si O2"
_cell_formula_units_Z 56
_cell_length_a 30.660662
_cell_length_b 5.510250
_cell_length_c 15.096654
_cell_angle_alpha 90.000000
_cell_angle_beta 90.000000
_cell_angle_gamma 90.000000
_cell_volume 2550.548183
_symmetry_space_group_name_H-M "I B A 2"
_symmetry_group_IT_number 45
_symmetry_cell_setting 'orthorhombic'
loop_
_space_group_symop_operation_xyz
x,y,z
-x,-y,z
-x,y,1/2+z
x,-y,1/2+z
1/2+x,1/2+y,1/2+z
1/2-x,1/2-y,1/2+z
1/2-x,1/2+y,z
1/2+x,1/2-y,z
loop_
_atom_site_type_symbol
_atom_site_label
_atom_site_fract_x
_atom_site_fract_y
_atom_site_fract_z
Si Si1 0.008630 0.737502 0.375000
Si Si2 0.423063 0.787382 0.266194
Si Si3 0.381556 0.387748 0.594154
Si Si4 0.326833 0.885579 0.607104
Si Si5 0.101577 0.113527 0.893060
Si Si6 0.162145 0.435982 0.795393
Si Si7 0.775893 0.323713 0.926446
O O1 0.974290 0.706324 0.293212
O O2 0.000000 0.500000 0.432965
O O3 0.059626 0.742587 0.354148
O O4 0.000000 0.000000 0.415384
O O5 0.415241 0.638698 0.175626
O O6 0.404678 0.649841 0.352884
O O7 0.385048 0.987635 0.255346
O O8 0.348633 0.154129 0.595069
O O9 0.402663 0.377033 0.497602
O O10 0.358334 0.649414 0.601280
O O11 0.309744 0.876979 0.708503
O O12 0.293650 0.847012 0.526650
O O13 0.147316 0.220769 0.860427
O O14 0.185705 0.633699 0.855397
O O15 0.745420 0.560842 0.913204
#
# Coordination Sequence:
#
# PCOD9376689 Si02
#       7
#     8   8   8   8   8   8   8
#     4  10  21  37  60  92 136 178 213 273 332 369
#     4  10  22  41  65  99 136 176 225 278 327 396
#     4  11  23  38  70  97 127 178 230 268 326 397
#     4  11  24  44  68  99 130 173 221 275 332 403
#     4  11  21  40  67  96 134 180 224 273 328 395
#     4  11  23  42  74  95 131 180 224 265 340 410
#     4  12  28  45  68 101 136 168 215 284 337 401
#
# _framework density 21.956066
#
# number of rings (size 3 to 8) (size 9 to 14) (size 15 to 20)
#    0.000    1.143    4.286    1.714    2.000    1.143 
#    0.000    7.143    0.000    0.000    0.000    0.000 
#    0.000    0.000    0.000    0.000    0.000    0.000 
#
# Total GULP energy -155875.552201 kJ/mol
# GULP energy per Si atom -5566.984007 kJ/mol
# Density = 2.190609 g / cm^3
# Si number density = 21.956066 Si / 1000 Ang^3
#
#
#
# Elastic Constant Matrix: (Units=GPa)
#
#
# Indices 1 2 3 4 5 6 
#
# 1 73.0175 31.9530 41.8025 0.0000 0.0000 0.0000
# 2 31.9530 113.1327 -2.6799 0.0000 0.0000 0.0000
# 3 41.8025 -2.6799 99.0470 0.0000 0.0000 0.0000
# 4 0.0000 0.0000 0.0000 22.2093 0.0000 0.0000
# 5 0.0000 0.0000 0.0000 0.0000 27.5216 0.0000
# 6 0.0000 0.0000 0.0000 0.0000 0.0000 39.4803
#
#
#
# Elastic Compliance Matrix: (Units=1/GPa)
#
#
# Indices 1 2 3 4 5 6 
#
# 1 0.021885 -0.006404 -0.009410 0.000000 0.000000 0.000000
# 2 -0.006404 0.010719 0.002993 0.000000 0.000000 0.000000
# 3 -0.009410 0.002993 0.014149 0.000000 0.000000 0.000000
# 4 0.000000 0.000000 0.000000 0.045026 0.000000 0.000000
# 5 0.000000 0.000000 0.000000 0.000000 0.036335 0.000000
# 6 0.000000 0.000000 0.000000 0.000000 0.000000 0.025329
#
#
# Mechanical properties :
#
#
# Convention : Reuss Voigt Hill
#
# Bulk Modulus (GPa) = 47.37007 47.48314 47.42660
# Shear Modulus (GPa) = 26.86424 32.11702 29.49063
#
# Velocity S-wave (km/s) = 3.50172 3.82879 3.66890
# Velocity P-wave (km/s) = 6.16207 6.42024 6.29248
#
# Compressibility (1/GPa) = 0.02111038
#
# Stress axis : x y z
#
# Youngs Moduli (GPa) = 45.69377 93.29396 70.67874
#
# Poissons Ratio (x) = 0.59745 0.66507
# Poissons Ratio (y) = 0.29262 -0.21153
# Poissons Ratio (z) = 0.42996 -0.27921
#
# Static dielectric constant tensor:
#      x y z
#    x 1.907970 0.000000 0.000000 
#    y 0.000000 1.962680 0.000000 
#    z 0.000000 0.000000 1.796410 
# 
# From -- ./inp_files/5284.got.cif
#   From: 2010.05.17/outbox.cif.g08.bks.cpg/sg45_3_cif.got.tgz:5284.got - 2010.06.03 19:51:22.
