data_PCOD9376870
_publ_section_title
;
Structure prediction by ZEFSAII (Michael W. Deem and Ramdas Pophale) SiO2 
 PCOD9376870
Probable space group: I B A 2
;
_chemical_formula_sum "Si O2"
_cell_formula_units_Z 64
_cell_length_a 9.387523
_cell_length_b 22.101681
_cell_length_c 13.045115
_cell_angle_alpha 90.000000
_cell_angle_beta 90.000000
_cell_angle_gamma 90.000000
_cell_volume 2706.600965
_symmetry_space_group_name_H-M "I B A 2"
_symmetry_group_IT_number 45
_symmetry_cell_setting 'orthorhombic'
loop_
_space_group_symop_operation_xyz
x,y,z
-x,-y,z
-x,y,1/2+z
x,-y,1/2+z
1/2+x,1/2+y,1/2+z
1/2-x,1/2-y,1/2+z
1/2-x,1/2+y,z
1/2+x,1/2-y,z
loop_
_atom_site_type_symbol
_atom_site_label
_atom_site_fract_x
_atom_site_fract_y
_atom_site_fract_z
Si Si1 0.339685 0.869716 0.003440
Si Si2 0.946828 0.876631 0.272092
Si Si3 0.392549 0.449970 0.104400
Si Si4 0.294377 0.028791 0.263410
Si Si5 0.994649 0.635301 0.216073
Si Si6 0.083373 0.447859 0.448456
Si Si7 0.735907 0.358085 0.872390
Si Si8 0.271707 0.784240 0.828695
O O1 0.213733 0.914525 0.032425
O O2 0.431546 0.852397 0.103264
O O3 0.451337 0.903047 0.929607
O O4 0.279609 0.814735 0.940108
O O5 0.825370 0.924272 0.300583
O O6 0.870011 0.811399 0.274431
O O7 0.014597 0.900252 0.166042
O O8 0.077593 0.879500 0.349540
O O9 0.500000 0.500000 0.059335
O O10 0.289085 0.486792 0.182413
O O11 0.414983 0.072442 0.214029
O O12 0.351744 0.987890 0.356306
O O13 0.097022 0.688521 0.260893
O O14 0.852970 0.627643 0.284515
O O15 0.206096 0.397614 0.469338
O O16 0.000000 0.500000 0.514375
O O17 0.728967 0.285958 0.857047
#
# Coordination Sequence:
#
# PCOD9376870 Si02
#       8
#     8   8   8   8   8   8   8   8
#     4  12  26  46  72 113 149 194 259 309 368 459
#     4  10  21  43  73  97 143 192 236 305 374 436
#     4  10  22  43  73 109 151 195 242 311 383 447
#     4  10  21  42  72 108 145 185 243 305 383 456
#     4  11  23  48  76 102 145 200 249 307 374 447
#     4  12  23  41  70 106 143 184 246 304 375 439
#     4  12  22  45  77 100 141 198 244 307 379 437
#     4  11  26  48  71 110 148 194 259 308 370 449
#
# _framework density 23.645896
#
# number of rings (size 3 to 8) (size 9 to 14) (size 15 to 20)
#    0.000    1.000    5.000    1.500    1.750    0.000 
#    4.500    0.000    0.000    0.000    0.000    0.000 
#    0.000    0.000    0.000    0.000    0.000    0.000 
#
# Total GULP energy -178640.312580 kJ/mol
# GULP energy per Si atom -5582.509768 kJ/mol
# Density = 2.359208 g / cm^3
# Si number density = 23.645896 Si / 1000 Ang^3
#
#
#
# Elastic Constant Matrix: (Units=GPa)
#
#
# Indices 1 2 3 4 5 6 
#
# 1 151.8458 46.9958 33.2345 0.0000 0.0000 0.0000
# 2 46.9958 149.1831 35.6878 0.0001 0.0000 0.0000
# 3 33.2345 35.6878 76.4893 0.0001 0.0000 0.0000
# 4 0.0000 0.0001 0.0001 10.4295 0.0000 0.0000
# 5 0.0000 0.0000 0.0000 0.0000 39.1079 0.0000
# 6 0.0000 0.0000 0.0000 0.0000 0.0000 28.4875
#
#
#
# Elastic Compliance Matrix: (Units=1/GPa)
#
#
# Indices 1 2 3 4 5 6 
#
# 1 0.007697 -0.001829 -0.002491 0.000000 0.000000 0.000000
# 2 -0.001829 0.007980 -0.002929 0.000000 0.000000 0.000000
# 3 -0.002491 -0.002929 0.015522 0.000000 0.000000 0.000000
# 4 0.000000 0.000000 0.000000 0.095882 0.000000 0.000000
# 5 0.000000 0.000000 0.000000 0.000000 0.025570 0.000000
# 6 0.000000 0.000000 0.000000 0.000000 0.000000 0.035103
#
#
# Mechanical properties :
#
#
# Convention : Reuss Voigt Hill
#
# Bulk Modulus (GPa) = 59.87153 67.70605 63.78879
# Shear Modulus (GPa) = 24.05939 33.04498 28.55219
#
# Velocity S-wave (km/s) = 3.19327 3.74236 3.47867
# Velocity P-wave (km/s) = 6.24267 6.88253 6.57039
#
# Compressibility (1/GPa) = 0.01670243
#
# Stress axis : x y z
#
# Youngs Moduli (GPa) = 129.92363 125.31560 64.42272
#
# Poissons Ratio (x) = 0.22917 0.16048
# Poissons Ratio (y) = 0.23760 0.18867
# Poissons Ratio (z) = 0.32364 0.36700
#
# Static dielectric constant tensor:
#      x y z
#    x 1.910580 0.000000 0.000000 
#    y 0.000000 1.953770 0.000000 
#    z 0.000000 0.000000 2.032700 
# 
# From -- ./inp_files/5853.got.cif
#   From: 2010.05.17/outbox.cif.g08.bks.cpg/sg45_3_cif.got.tgz:5853.got - 2010.06.03 19:51:22.
