data_PCOD9376804
_publ_section_title
;
Structure prediction by ZEFSAII (Michael W. Deem and Ramdas Pophale) SiO2 
 PCOD9376804
Probable space group: I B A 2
;
_chemical_formula_sum "Si O2"
_cell_formula_units_Z 40
_cell_length_a 4.956604
_cell_length_b 26.773775
_cell_length_c 13.199624
_cell_angle_alpha 90.000000
_cell_angle_beta 90.000000
_cell_angle_gamma 90.000000
_cell_volume 1751.682506
_symmetry_space_group_name_H-M "I B A 2"
_symmetry_group_IT_number 45
_symmetry_cell_setting 'orthorhombic'
loop_
_space_group_symop_operation_xyz
x,y,z
-x,-y,z
-x,y,1/2+z
x,-y,1/2+z
1/2+x,1/2+y,1/2+z
1/2-x,1/2-y,1/2+z
1/2-x,1/2+y,z
1/2+x,1/2-y,z
loop_
_atom_site_type_symbol
_atom_site_label
_atom_site_fract_x
_atom_site_fract_y
_atom_site_fract_z
Si Si1 0.047716 0.443946 0.472950
Si Si2 0.828592 0.216978 0.531395
Si Si3 0.453573 0.154706 0.856075
Si Si4 0.957266 0.943706 0.617290
Si Si5 0.548292 0.342531 0.230451
O O1 0.028598 0.403461 0.385293
O O2 0.340859 0.440327 0.522313
O O3 0.000000 0.500000 0.435323
O O4 0.836226 0.435815 0.566149
O O5 0.636352 0.265168 0.521532
O O6 0.694162 0.180159 0.450553
O O7 0.833426 0.189770 0.639213
O O8 0.755918 0.168164 0.824819
O O9 0.258091 0.167998 0.762593
O O10 0.037464 0.900276 0.694772
O O11 0.000000 0.000000 0.658564
#
# Coordination Sequence:
#
# PCOD9376804 Si02
#       5
#     8   8   8   8   8
#     4  10  21  40  68  99 141 188 226 273 339 412
#     4  12  28  48  72  96 136 180 226 294 352 400
#     4  12  26  43  72 104 136 177 231 282 343 416
#     4  10  21  40  68  99 141 188 226 273 339 412
#     4  12  26  43  72 104 136 177 231 282 343 416
#
# _framework density 22.835187999999999
#
# number of rings (size 3 to 8) (size 9 to 14) (size 15 to 20)
#    0.000    0.800    2.000    4.800    2.800    6.400 
#    0.000    0.000    0.000    0.000    0.000    0.000 
#    0.000    0.000    0.000    0.000    0.000    0.000 
#
# Total GULP energy -111804.587686 kJ/mol
# GULP energy per Si atom -5590.229384 kJ/mol
# Density = 2.278321 g / cm^3
# Si number density = 22.835188 Si / 1000 Ang^3
#
#
#
# Elastic Constant Matrix: (Units=GPa)
#
#
# Indices 1 2 3 4 5 6 
#
# 1 96.5616 16.6584 13.1478 0.0000 0.0000 0.0000
# 2 16.6584 61.7659 40.8354 0.0000 0.0000 0.0001
# 3 13.1478 40.8354 65.4390 -0.0001 0.0000 0.0003
# 4 0.0000 0.0000 -0.0001 -118.8681 0.0000 0.0001
# 5 0.0000 0.0000 0.0000 0.0000 19.8863 -0.0001
# 6 0.0000 0.0001 0.0003 0.0001 -0.0001 -16.2784
#
#
#
# Elastic Compliance Matrix: (Units=1/GPa)
#
#
# Indices 1 2 3 4 5 6 
#
# 1 0.010875 -0.002534 -0.000604 0.000000 0.000000 0.000000
# 2 -0.002534 0.028151 -0.017058 0.000000 0.000000 0.000000
# 3 -0.000604 -0.017058 0.026047 0.000000 0.000000 0.000000
# 4 0.000000 0.000000 0.000000 -0.008413 0.000000 0.000000
# 5 0.000000 0.000000 0.000000 0.000000 0.050286 0.000000
# 6 0.000000 0.000000 0.000000 0.000000 0.000000 -0.061431
#
#
# Mechanical properties :
#
#
# Convention : Reuss Voigt Hill
#
# Bulk Modulus (GPa) = 40.51442 40.56110 40.53776
# Shear Modulus (GPa) = 53.11565 -12.84372 20.13596
#
# Velocity S-wave (km/s) = 4.82814 -2.37418 2.97273
# Velocity P-wave (km/s) = 6.99013 3.20709 5.43817
#
# Compressibility (1/GPa) = 0.02468257
#
# Stress axis : x y z
#
# Youngs Moduli (GPa) = 91.95025 35.52273 38.39192
#
# Poissons Ratio (x) = 0.09001 0.02318
# Poissons Ratio (y) = 0.23299 0.65488
# Poissons Ratio (z) = 0.05552 0.60594
#
# Static dielectric constant tensor:
#      x y z
#    x 1.788010 0.000000 0.000000 
#    y 0.000000 1.887490 0.000000 
#    z 0.000000 0.000000 1.825350 
# 
# From -- ./inp_files/2925.got.cif
#   From: 2010.05.17/outbox.cif.g08.bks.cpg/sg45_2_cif.got.tgz:2925.got - 2010.06.03 19:51:22.
