data_PCOD9376598
_publ_section_title
;
Structure prediction by ZEFSAII (Michael W. Deem and Ramdas Pophale) SiO2 
 PCOD9376598
Probable space group: I B A 2
;
_chemical_formula_sum "Si O2"
_cell_formula_units_Z 36
_cell_length_a 8.379547
_cell_length_b 14.585515
_cell_length_c 13.219639
_cell_angle_alpha 90.000000
_cell_angle_beta 90.000000
_cell_angle_gamma 90.000000
_cell_volume 1615.704390
_symmetry_space_group_name_H-M "I B A 2"
_symmetry_group_IT_number 45
_symmetry_cell_setting 'orthorhombic'
loop_
_space_group_symop_operation_xyz
x,y,z
-x,-y,z
-x,y,1/2+z
x,-y,1/2+z
1/2+x,1/2+y,1/2+z
1/2-x,1/2-y,1/2+z
1/2-x,1/2+y,z
1/2+x,1/2-y,z
loop_
_atom_site_type_symbol
_atom_site_label
_atom_site_fract_x
_atom_site_fract_y
_atom_site_fract_z
Si Si1 0.500000 0.500000 0.682600
Si Si2 0.700324 0.925621 0.124046
Si Si3 0.924607 0.341922 0.325292
Si Si4 0.224221 0.843235 0.252752
Si Si5 0.612455 0.869150 0.553057
O O1 0.391016 0.429194 0.618290
O O2 0.618335 0.434706 0.744757
O O3 0.653547 0.907654 0.240957
O O4 0.578659 0.858539 0.067049
O O5 0.654391 0.026672 0.084618
O O6 0.882498 0.238791 0.293350
O O7 0.853752 0.355684 0.436323
O O8 0.114939 0.357067 0.317883
O O9 0.292337 0.816189 0.140654
#
# Coordination Sequence:
#
# PCOD9376598 Si02
#       5
#     4   8   8   8   8
#     4  10  20  42  64  90 130 170 212 278 334 384
#     4   9  20  38  62  90 126 166 217 269 321 395
#     4  11  22  42  67  97 132 173 223 277 336 398
#     4  10  23  41  67  96 130 171 222 279 332 403
#     4   9  21  40  63  93 129 174 214 270 337 389
#
# _framework density 22.281302
#
# number of rings (size 3 to 8) (size 9 to 14) (size 15 to 20)
#    0.000    2.222    0.000    2.667    0.000   14.222 
#    0.000   14.444    0.000    0.000    0.000    0.000 
#    0.000    0.000    0.000    0.000    0.000    0.000 
#
# Total GULP energy -100364.950675 kJ/mol
# GULP energy per Si atom -5575.830593 kJ/mol
# Density = 2.223059 g / cm^3
# Si number density = 22.281302 Si / 1000 Ang^3
#
#
#
# Elastic Constant Matrix: (Units=GPa)
#
#
# Indices 1 2 3 4 5 6 
#
# 1 98.3890 19.7856 -6.8353 0.0000 0.0000 0.0000
# 2 19.7856 76.6334 22.7631 0.0000 0.0000 0.0000
# 3 -6.8353 22.7631 140.6976 0.0000 0.0000 0.0000
# 4 0.0000 0.0000 0.0000 16.7160 0.0000 0.0000
# 5 0.0000 0.0000 0.0000 0.0000 3.8323 0.0000
# 6 0.0000 0.0000 0.0000 0.0000 0.0000 39.6071
#
#
#
# Elastic Compliance Matrix: (Units=1/GPa)
#
#
# Indices 1 2 3 4 5 6 
#
# 1 0.010861 -0.003110 0.001031 0.000000 0.000000 0.000000
# 2 -0.003110 0.014599 -0.002513 0.000000 0.000000 0.000000
# 3 0.001031 -0.002513 0.007564 0.000000 0.000000 0.000000
# 4 0.000000 0.000000 0.000000 0.059823 0.000000 0.000000
# 5 0.000000 0.000000 0.000000 0.000000 0.260937 0.000000
# 6 0.000000 0.000000 0.000000 0.000000 0.000000 0.025248
#
#
# Mechanical properties :
#
#
# Convention : Reuss Voigt Hill
#
# Bulk Modulus (GPa) = 41.94867 43.01631 42.48249
# Shear Modulus (GPa) = 12.62107 30.69821 21.65964
#
# Velocity S-wave (km/s) = 2.38259 3.71584 3.12123
# Velocity P-wave (km/s) = 5.14166 6.14474 5.66545
#
# Compressibility (1/GPa) = 0.02383866
#
# Stress axis : x y z
#
# Youngs Moduli (GPa) = 92.07409 68.49963 132.20361
#
# Poissons Ratio (x) = 0.21305 -0.13628
# Poissons Ratio (y) = 0.28638 0.33222
# Poissons Ratio (z) = -0.09491 0.17214
#
# Static dielectric constant tensor:
#      x y z
#    x 1.919300 0.000000 0.000000 
#    y 0.000000 1.847630 0.000000 
#    z 0.000000 0.000000 1.800730 
# 
# From -- ./inp_files/5441.got.cif
#   From: 2010.05.17/outbox.cif.g08.bks.cpg/sg45_3_cif.got.tgz:5441.got - 2010.06.03 19:51:22.
