data_PCOD9376335
_publ_section_title
;
Structure prediction by ZEFSAII (Michael W. Deem and Ramdas Pophale) SiO2 
 PCOD9376335
Probable space group: I B A 2
;
_chemical_formula_sum "Si O2"
_cell_formula_units_Z 48
_cell_length_a 16.590169
_cell_length_b 8.435253
_cell_length_c 14.234418
_cell_angle_alpha 90.000000
_cell_angle_beta 90.000000
_cell_angle_gamma 90.000000
_cell_volume 1991.996807
_symmetry_space_group_name_H-M "I B A 2"
_symmetry_group_IT_number 45
_symmetry_cell_setting 'orthorhombic'
loop_
_space_group_symop_operation_xyz
x,y,z
-x,-y,z
-x,y,1/2+z
x,-y,1/2+z
1/2+x,1/2+y,1/2+z
1/2-x,1/2-y,1/2+z
1/2-x,1/2+y,z
1/2+x,1/2-y,z
loop_
_atom_site_type_symbol
_atom_site_label
_atom_site_fract_x
_atom_site_fract_y
_atom_site_fract_z
Si Si1 0.060052 0.826360 0.417990
Si Si2 0.064508 0.645499 0.803854
Si Si3 0.172546 0.058796 0.495988
Si Si4 0.573653 0.880538 0.598645
Si Si5 0.210682 0.632567 0.110657
Si Si6 0.696600 0.106237 0.834161
O O1 0.051188 0.723170 0.511281
O O2 0.137265 0.749595 0.363171
O O3 0.983879 0.783486 0.354306
O O4 0.088706 0.995909 0.455628
O O5 0.083341 0.701886 0.698819
O O6 0.144773 0.558588 0.842373
O O7 0.000000 0.500000 0.804906
O O8 0.173645 0.207969 0.566454
O O9 0.229912 0.096819 0.406819
O O10 0.208016 0.911156 0.556177
O O11 0.500000 0.000000 0.611037
O O12 0.652539 0.986276 0.583825
O O13 0.217838 0.631039 0.223848
#
# Coordination Sequence:
#
# PCOD9376335 Si02
#       6
#     8   8   8   8   8   8
#     4  11  21  40  69 101 137 180 243 298 358 435
#     4   8  18  36  67 101 124 184 240 286 348 439
#     4  12  24  42  66 107 143 189 235 309 374 434
#     4  10  19  40  72  96 131 183 236 289 352 444
#     4  11  24  40  66 103 141 187 239 297 370 443
#     4  10  21  40  68 100 146 186 241 292 366 449
#
# _framework density 24.096423999999999
#
# number of rings (size 3 to 8) (size 9 to 14) (size 15 to 20)
#    0.000    1.667    3.333    2.500    2.333    0.000 
#    0.000    0.833    0.000    4.000    0.000    0.000 
#    0.000    0.000    0.000    0.000    0.000    0.000 
#
# Total GULP energy -134300.445237 kJ/mol
# GULP energy per Si atom -5595.851885 kJ/mol
# Density = 2.404158 g / cm^3
# Si number density = 24.096424 Si / 1000 Ang^3
#
#
#
# Elastic Constant Matrix: (Units=GPa)
#
#
# Indices 1 2 3 4 5 6 
#
# 1 71.0468 25.4291 42.5013 0.0000 0.0000 0.0000
# 2 25.4291 69.9398 51.0343 0.0000 0.0000 0.0000
# 3 42.5013 51.0343 149.0284 0.0000 0.0000 0.0000
# 4 0.0000 0.0000 0.0000 -19.4957 0.0000 0.0000
# 5 0.0000 0.0000 0.0000 0.0000 31.3079 0.0000
# 6 0.0000 0.0000 0.0000 0.0000 0.0000 33.3148
#
#
#
# Elastic Compliance Matrix: (Units=1/GPa)
#
#
# Indices 1 2 3 4 5 6 
#
# 1 0.017645 -0.003658 -0.003780 0.000000 0.000000 0.000000
# 2 -0.003658 0.019819 -0.005744 0.000000 0.000000 0.000000
# 3 -0.003780 -0.005744 0.009755 0.000000 0.000000 0.000000
# 4 0.000000 0.000000 0.000000 -0.051293 0.000000 0.000000
# 5 0.000000 0.000000 0.000000 0.000000 0.031941 0.000000
# 6 0.000000 0.000000 0.000000 0.000000 0.000000 0.030017
#
#
# Mechanical properties :
#
#
# Convention : Reuss Voigt Hill
#
# Bulk Modulus (GPa) = 47.94521 58.66050 53.30285
# Shear Modulus (GPa) = 54.82535 20.42875 37.62705
#
# Velocity S-wave (km/s) = 4.77513 2.91485 3.95589
# Velocity P-wave (km/s) = 7.09528 5.97707 6.56004
#
# Compressibility (1/GPa) = 0.02085714
#
# Stress axis : x y z
#
# Youngs Moduli (GPa) = 56.67181 50.45636 102.51094
#
# Poissons Ratio (x) = 0.18455 0.38747
# Poissons Ratio (y) = 0.20728 0.58881
# Poissons Ratio (z) = 0.21421 0.28982
#
# Static dielectric constant tensor:
#      x y z
#    x 2.699190 0.000000 0.000000 
#    y 0.000000 1.954310 0.000000 
#    z 0.000000 0.000000 1.895690 
# 
# From -- ./inp_files/5616.got.cif
#   From: 2010.05.17/outbox.cif.g08.bks.cpg/sg45_3_cif.got.tgz:5616.got - 2010.06.03 19:51:22.
