data_PCOD9376379
_publ_section_title
;
Structure prediction by ZEFSAII (Michael W. Deem and Ramdas Pophale) SiO2 
 PCOD9376379
Probable space group: I B A 2
;
_chemical_formula_sum "Si O2"
_cell_formula_units_Z 60
_cell_length_a 27.368802
_cell_length_b 11.387792
_cell_length_c 8.990939
_cell_angle_alpha 90.000000
_cell_angle_beta 90.000000
_cell_angle_gamma 90.000000
_cell_volume 2802.207976
_symmetry_space_group_name_H-M "I B A 2"
_symmetry_group_IT_number 45
_symmetry_cell_setting 'orthorhombic'
loop_
_space_group_symop_operation_xyz
x,y,z
-x,-y,z
-x,y,1/2+z
x,-y,1/2+z
1/2+x,1/2+y,1/2+z
1/2-x,1/2-y,1/2+z
1/2-x,1/2+y,z
1/2+x,1/2-y,z
loop_
_atom_site_type_symbol
_atom_site_label
_atom_site_fract_x
_atom_site_fract_y
_atom_site_fract_z
Si Si1 0.057225 0.631653 0.019380
Si Si2 0.500000 0.000000 0.263906
Si Si3 0.826246 0.646810 0.265573
Si Si4 0.345782 0.002720 0.526751
Si Si5 0.652200 0.447862 0.741860
Si Si6 0.886717 0.150783 0.930719
Si Si7 0.250604 0.596663 0.180767
Si Si8 0.275793 0.716908 0.892515
O O1 0.108562 0.577229 0.075074
O O2 0.020485 0.601173 0.153761
O O3 0.039199 0.558471 0.875336
O O4 0.066875 0.765860 0.968365
O O5 0.847948 0.631346 0.099931
O O6 0.844561 0.530871 0.354425
O O7 0.849644 0.758309 0.349307
O O8 0.769006 0.651903 0.305718
O O9 0.294094 0.963369 0.596457
O O10 0.633001 0.392836 0.589618
O O11 0.614535 0.535044 0.825842
O O12 0.700508 0.523754 0.703583
O O13 0.673998 0.344425 0.845123
O O14 0.231309 0.652268 0.333288
O O15 0.265502 0.699285 0.064894
#
# Coordination Sequence:
#
# PCOD9376379 Si02
#       8
#     8   4   8   8   8   8   8   8
#     4  10  21  43  72 104 131 158 204 271 349 412
#     4  10  22  44  80 106 128 156 194 272 364 436
#     4  10  20  34  53  82 122 169 212 271 305 366
#     4  10  20  35  56  91 128 160 208 266 312 382
#     4  12  22  40  57  85 134 185 227 266 307 366
#     4  11  24  42  60  89 133 173 223 270 316 382
#     4  11  23  35  56  84 125 184 227 263 310 360
#     4  11  21  34  52  79 117 178 233 262 305 353
#
# _framework density 21.411687000000001
#
# number of rings (size 3 to 8) (size 9 to 14) (size 15 to 20)
#    0.000    1.333    4.000    4.000    0.000    1.067 
#    0.000    5.333    0.000    2.400    0.000    0.000 
#    0.000    0.000    0.000    0.000    0.000    0.000 
#
# Total GULP energy -167298.366527 kJ/mol
# GULP energy per Si atom -5576.612218 kJ/mol
# Density = 2.136295 g / cm^3
# Si number density = 21.411687 Si / 1000 Ang^3
#
#
#
# Elastic Constant Matrix: (Units=GPa)
#
#
# Indices 1 2 3 4 5 6 
#
# 1 39.9759 28.4629 10.7295 0.0000 0.0000 0.0000
# 2 28.4629 78.7111 46.0077 0.0000 0.0000 0.0000
# 3 10.7295 46.0077 97.9897 0.0000 0.0000 0.0000
# 4 0.0000 0.0000 0.0000 60.0620 0.0000 0.0000
# 5 0.0000 0.0000 0.0000 0.0000 23.9864 0.0000
# 6 0.0000 0.0000 0.0000 0.0000 0.0000 35.7411
#
#
#
# Elastic Compliance Matrix: (Units=1/GPa)
#
#
# Indices 1 2 3 4 5 6 
#
# 1 0.034255 -0.014051 0.002846 0.000000 0.000000 0.000000
# 2 -0.014051 0.023273 -0.009389 0.000000 0.000000 0.000000
# 3 0.002846 -0.009389 0.014302 0.000000 0.000000 0.000000
# 4 0.000000 0.000000 0.000000 0.016649 0.000000 0.000000
# 5 0.000000 0.000000 0.000000 0.000000 0.041690 0.000000
# 6 0.000000 0.000000 0.000000 0.000000 0.000000 0.027979
#
#
# Mechanical properties :
#
#
# Convention : Reuss Voigt Hill
#
# Bulk Modulus (GPa) = 32.63296 43.00854 37.82075
# Shear Modulus (GPa) = 23.86058 32.72300 28.29179
#
# Velocity S-wave (km/s) = 3.34184 3.91356 3.63895
# Velocity P-wave (km/s) = 5.49221 6.36799 5.94625
#
# Compressibility (1/GPa) = 0.03064387
#
# Stress axis : x y z
#
# Youngs Moduli (GPa) = 29.19251 42.96733 69.92188
#
# Poissons Ratio (x) = 0.60373 -0.19902
# Poissons Ratio (y) = 0.41018 0.65648
# Poissons Ratio (z) = -0.08309 0.40341
#
# Static dielectric constant tensor:
#      x y z
#    x 1.784850 0.000000 0.000000 
#    y 0.000000 1.928940 0.000000 
#    z 0.000000 0.000000 1.801870 
# 
# From -- ./inp_files/2763.got.cif
#   From: 2010.05.17/outbox.cif.g08.bks.cpg/sg45_2_cif.got.tgz:2763.got - 2010.06.03 19:51:22.
