data_PCOD9376768
_publ_section_title
;
Structure prediction by ZEFSAII (Michael W. Deem and Ramdas Pophale) SiO2 
 PCOD9376768
Probable space group: I B A 2
;
_chemical_formula_sum "Si O2"
_cell_formula_units_Z 56
_cell_length_a 14.979984
_cell_length_b 8.218270
_cell_length_c 20.338379
_cell_angle_alpha 90.000000
_cell_angle_beta 90.000000
_cell_angle_gamma 90.000000
_cell_volume 2503.848750
_symmetry_space_group_name_H-M "I B A 2"
_symmetry_group_IT_number 45
_symmetry_cell_setting 'orthorhombic'
loop_
_space_group_symop_operation_xyz
x,y,z
-x,-y,z
-x,y,1/2+z
x,-y,1/2+z
1/2+x,1/2+y,1/2+z
1/2-x,1/2-y,1/2+z
1/2-x,1/2+y,z
1/2+x,1/2-y,z
loop_
_atom_site_type_symbol
_atom_site_label
_atom_site_fract_x
_atom_site_fract_y
_atom_site_fract_z
Si Si1 0.824972 0.633322 0.253060
Si Si2 0.454768 0.671890 0.630383
Si Si3 0.238722 0.053508 0.444170
Si Si4 0.154915 0.668672 0.030873
Si Si5 0.005045 0.198393 0.273618
Si Si6 0.670494 0.303191 0.852154
Si Si7 0.288185 0.170098 0.167324
O O1 0.735426 0.625117 0.296381
O O2 0.802054 0.771493 0.199243
O O3 0.833689 0.464615 0.213794
O O4 0.906471 0.705120 0.295019
O O5 0.500000 0.500000 0.614666
O O6 0.438946 0.788264 0.567005
O O7 0.500541 0.742600 0.695816
O O8 0.352274 0.670484 0.657885
O O9 0.191866 0.167701 0.497501
O O10 0.277114 0.154740 0.383808
O O11 0.324490 0.964522 0.476134
O O12 0.167360 0.929830 0.412539
O O13 0.215994 0.612237 0.092609
O O14 0.921850 0.245157 0.318940
O O15 0.000000 0.000000 0.275520
#
# Coordination Sequence:
#
# PCOD9376768 Si02
#       7
#     8   8   8   8   8   8   8
#     4  12  23  40  70 102 136 172 221 289 353 422
#     4   9  21  39  65  98 138 162 219 280 348 411
#     4  10  21  39  67  90 130 186 230 265 329 400
#     4   9  20  39  65  95 129 176 221 273 328 403
#     4  11  23  40  68  99 135 173 219 285 355 413
#     4  11  22  42  64  97 132 178 231 279 332 407
#     4  10  22  39  70 100 133 171 220 277 362 411
#
# _framework density 22.365569000000001
#
# number of rings (size 3 to 8) (size 9 to 14) (size 15 to 20)
#    0.857    0.857    1.429    3.429    2.000    0.571 
#    0.000    3.571    0.000    3.429    0.000    0.000 
#    0.000    0.000    0.000    0.000    0.000    0.000 
#
# Total GULP energy -155953.009986 kJ/mol
# GULP energy per Si atom -5569.750357 kJ/mol
# Density = 2.231466 g / cm^3
# Si number density = 22.365569 Si / 1000 Ang^3
#
#
#
# Elastic Constant Matrix: (Units=GPa)
#
#
# Indices 1 2 3 4 5 6 
#
# 1 86.6725 12.2904 15.1154 0.0000 0.0000 0.0000
# 2 12.2904 76.4845 18.6320 0.0000 0.0000 0.0000
# 3 15.1154 18.6320 75.0992 0.0000 0.0000 0.0000
# 4 0.0000 0.0000 0.0000 34.7470 0.0000 0.0000
# 5 0.0000 0.0000 0.0000 0.0000 24.5380 0.0000
# 6 0.0000 0.0000 0.0000 0.0000 0.0000 15.5850
#
#
#
# Elastic Compliance Matrix: (Units=1/GPa)
#
#
# Indices 1 2 3 4 5 6 
#
# 1 0.012104 -0.001439 -0.002079 0.000000 0.000000 0.000000
# 2 -0.001439 0.014087 -0.003205 0.000000 0.000000 0.000000
# 3 -0.002079 -0.003205 0.014529 0.000000 0.000000 0.000000
# 4 0.000000 0.000000 0.000000 0.028779 0.000000 0.000000
# 5 0.000000 0.000000 0.000000 0.000000 0.040753 0.000000
# 6 0.000000 0.000000 0.000000 0.000000 0.000000 0.064164
#
#
# Mechanical properties :
#
#
# Convention : Reuss Voigt Hill
#
# Bulk Modulus (GPa) = 36.66507 36.70354 36.68430
# Shear Modulus (GPa) = 25.38656 27.78859 26.58757
#
# Velocity S-wave (km/s) = 3.37274 3.52870 3.45160
# Velocity P-wave (km/s) = 5.62106 5.74879 5.68528
#
# Compressibility (1/GPa) = 0.02727391
#
# Stress axis : x y z
#
# Youngs Moduli (GPa) = 82.61518 70.98984 68.82566
#
# Poissons Ratio (x) = 0.10212 0.14311
# Poissons Ratio (y) = 0.11884 0.22061
# Poissons Ratio (z) = 0.17179 0.22754
#
# Static dielectric constant tensor:
#      x y z
#    x 1.854460 0.000000 0.000000 
#    y 0.000000 1.877180 0.000000 
#    z 0.000000 0.000000 1.873280 
# 
# From -- ./inp_files/9176.got.cif
#   From: 2010.05.17/outbox.cif.g08.bks.cpg/sg45_5_cif.got.tgz:9176.got - 2010.06.03 19:51:22.
