data_PCOD9376630
_publ_section_title
;
Structure prediction by ZEFSAII (Michael W. Deem and Ramdas Pophale) SiO2 
 PCOD9376630
Probable space group: I B A 2
;
_chemical_formula_sum "Si O2"
_cell_formula_units_Z 40
_cell_length_a 14.748083
_cell_length_b 9.888418
_cell_length_c 10.781769
_cell_angle_alpha 90.000000
_cell_angle_beta 90.000000
_cell_angle_gamma 90.000000
_cell_volume 1572.361540
_symmetry_space_group_name_H-M "I B A 2"
_symmetry_group_IT_number 45
_symmetry_cell_setting 'orthorhombic'
loop_
_space_group_symop_operation_xyz
x,y,z
-x,-y,z
-x,y,1/2+z
x,-y,1/2+z
1/2+x,1/2+y,1/2+z
1/2-x,1/2-y,1/2+z
1/2-x,1/2+y,z
1/2+x,1/2-y,z
loop_
_atom_site_type_symbol
_atom_site_label
_atom_site_fract_x
_atom_site_fract_y
_atom_site_fract_z
Si Si1 0.258150 0.400504 0.576690
Si Si2 0.555193 0.749909 0.573589
Si Si3 0.101217 0.336489 0.420942
Si Si4 0.184036 0.066637 0.343616
Si Si5 0.500000 0.000000 0.248572
Si Si6 0.000000 0.000000 0.741707
O O1 0.338766 0.289016 0.559527
O O2 0.157250 0.351644 0.547456
O O3 0.264694 0.456745 0.714965
O O4 0.275448 0.511888 0.470323
O O5 0.496452 0.770487 0.449333
O O6 0.513996 0.625491 0.650642
O O7 0.529397 0.879872 0.656216
O O8 0.161287 0.226265 0.348956
O O9 0.081893 0.475109 0.348693
O O10 0.088563 0.991228 0.325184
#
# Coordination Sequence:
#
# PCOD9376630 Si02
#       6
#     8   8   8   8   4   4
#     4  11  27  47  81 113 161 215 288 340 426 509
#     4  11  25  49  76 113 160 214 279 345 427 518
#     4  12  26  46  78 116 165 218 274 362 432 512
#     4  11  24  48  76 116 149 215 281 346 411 516
#     4  12  26  48  72 118 170 210 276 344 452 498
#     4  10  20  48  78 102 144 210 280 334 404 512
#
# _framework density 25.439442
#
# number of rings (size 3 to 8) (size 9 to 14) (size 15 to 20)
#    0.000    0.800    4.000    4.200    2.800    7.200 
#    0.000    0.000    0.000    0.000    0.000    0.000 
#    0.000    0.000    0.000    0.000    0.000    0.000 
#
# Total GULP energy -111825.592561 kJ/mol
# GULP energy per Si atom -5591.279628 kJ/mol
# Density = 2.538154 g / cm^3
# Si number density = 25.439442 Si / 1000 Ang^3
#
#
#
# Elastic Constant Matrix: (Units=GPa)
#
#
# Indices 1 2 3 4 5 6 
#
# 1 114.7592 37.6258 36.9183 0.0000 0.0000 0.0000
# 2 37.6258 121.7765 31.8871 0.0000 0.0000 0.0000
# 3 36.9183 31.8871 139.8010 0.0000 0.0000 0.0000
# 4 0.0000 0.0000 0.0000 32.7931 0.0000 0.0000
# 5 0.0000 0.0000 0.0000 0.0000 46.7482 0.0000
# 6 0.0000 0.0000 0.0000 0.0000 0.0000 18.7204
#
#
#
# Elastic Compliance Matrix: (Units=1/GPa)
#
#
# Indices 1 2 3 4 5 6 
#
# 1 0.010250 -0.002614 -0.002110 0.000000 0.000000 0.000000
# 2 -0.002614 0.009400 -0.001454 0.000000 0.000000 0.000000
# 3 -0.002110 -0.001454 0.008042 0.000000 0.000000 0.000000
# 4 0.000000 0.000000 0.000000 0.030494 0.000000 0.000000
# 5 0.000000 0.000000 0.000000 0.000000 0.021391 0.000000
# 6 0.000000 0.000000 0.000000 0.000000 0.000000 0.053418
#
#
# Mechanical properties :
#
#
# Convention : Reuss Voigt Hill
#
# Bulk Modulus (GPa) = 65.21011 65.46658 65.33835
# Shear Modulus (GPa) = 33.23057 37.64605 35.43831
#
# Velocity S-wave (km/s) = 3.61815 3.85103 3.73640
# Velocity P-wave (km/s) = 6.56839 6.75011 6.65987
#
# Compressibility (1/GPa) = 0.01533504
#
# Stress axis : x y z
#
# Youngs Moduli (GPa) = 97.56086 106.38090 124.34834
#
# Poissons Ratio (x) = 0.27812 0.26244
# Poissons Ratio (y) = 0.25506 0.18076
# Poissons Ratio (z) = 0.20590 0.15464
#
# Static dielectric constant tensor:
#      x y z
#    x 2.071460 0.000000 0.000000 
#    y 0.000000 2.034990 0.000000 
#    z 0.000000 0.000000 2.042500 
# 
# From -- ./inp_files/3167.got.cif
#   From: 2010.05.17/outbox.cif.g08.bks.cpg/sg45_2_cif.got.tgz:3167.got - 2010.06.03 19:51:22.
