data_PCOD9376536
_publ_section_title
;
Structure prediction by ZEFSAII (Michael W. Deem and Ramdas Pophale) SiO2 
 PCOD9376536
Probable space group: I B A 2
;
_chemical_formula_sum "Si O2"
_cell_formula_units_Z 48
_cell_length_a 16.011181
_cell_length_b 9.687318
_cell_length_c 15.218237
_cell_angle_alpha 90.000000
_cell_angle_beta 90.000000
_cell_angle_gamma 90.000000
_cell_volume 2360.430766
_symmetry_space_group_name_H-M "I B A 2"
_symmetry_group_IT_number 45
_symmetry_cell_setting 'orthorhombic'
loop_
_space_group_symop_operation_xyz
x,y,z
-x,-y,z
-x,y,1/2+z
x,-y,1/2+z
1/2+x,1/2+y,1/2+z
1/2-x,1/2-y,1/2+z
1/2-x,1/2+y,z
1/2+x,1/2-y,z
loop_
_atom_site_type_symbol
_atom_site_label
_atom_site_fract_x
_atom_site_fract_y
_atom_site_fract_z
Si Si1 0.213677 0.312753 0.020220
Si Si2 0.851475 0.592788 0.468337
Si Si3 0.919485 0.659726 0.660100
Si Si4 0.144321 0.584519 0.776777
Si Si5 0.809814 0.086093 0.190095
Si Si6 0.905384 0.182604 0.654682
O O1 0.258143 0.399544 0.099004
O O2 0.138862 0.225583 0.063573
O O3 0.179910 0.435372 0.961220
O O4 0.277915 0.206027 0.977597
O O5 0.901956 0.612503 0.559249
O O6 0.891849 0.610582 0.373223
O O7 0.909370 0.524796 0.720493
O O8 0.849245 0.762958 0.697885
O O9 0.002636 0.752559 0.658201
O O10 0.242790 0.545055 0.764872
O O11 0.142526 0.730592 0.728288
O O12 0.883525 0.975369 0.175138
#
# Coordination Sequence:
#
# PCOD9376536 Si02
#       6
#     8   8   8   8   8   8
#     4  10  20  39  64  89 115 161 209 255 304 361
#     4  11  23  39  64  92 121 163 216 253 305 373
#     4  11  23  42  62  93 127 168 200 260 325 367
#     4  11  23  39  64  92 126 162 214 256 308 373
#     4  10  20  40  65  87 121 162 210 253 304 375
#     4  11  21  41  62  90 127 161 203 261 316 375
#
# _framework density 20.335272
#
# number of rings (size 3 to 8) (size 9 to 14) (size 15 to 20)
#    0.000    1.333    5.000    3.000    4.667    0.000 
#    6.000    0.000    0.000    2.000    0.000    0.000 
#    0.000    0.000    0.000    0.000    0.000    0.000 
#
# Total GULP energy -133748.493472 kJ/mol
# GULP energy per Si atom -5572.853895 kJ/mol
# Density = 2.028899 g / cm^3
# Si number density = 20.335272 Si / 1000 Ang^3
#
#
#
# Elastic Constant Matrix: (Units=GPa)
#
#
# Indices 1 2 3 4 5 6 
#
# 1 75.5503 0.7885 20.3473 0.0000 0.0000 0.0000
# 2 0.7885 87.8059 26.5122 0.0000 0.0000 0.0000
# 3 20.3473 26.5122 87.1071 0.0000 0.0000 0.0000
# 4 0.0000 0.0000 0.0000 12.0891 0.0000 0.0000
# 5 0.0000 0.0000 0.0000 0.0000 1.5270 0.0000
# 6 0.0000 0.0000 0.0000 0.0000 0.0000 26.4804
#
#
#
# Elastic Compliance Matrix: (Units=1/GPa)
#
#
# Indices 1 2 3 4 5 6 
#
# 1 0.014198 0.000962 -0.003609 0.000000 0.000000 0.000000
# 2 0.000962 0.012607 -0.004062 0.000000 0.000000 0.000000
# 3 -0.003609 -0.004062 0.013560 0.000000 0.000000 0.000000
# 4 0.000000 0.000000 0.000000 0.082719 0.000000 0.000000
# 5 0.000000 0.000000 0.000000 0.000000 0.654897 0.000000
# 6 0.000000 0.000000 0.000000 0.000000 0.000000 0.037764
#
#
# Mechanical properties :
#
#
# Convention : Reuss Voigt Hill
#
# Bulk Modulus (GPa) = 37.11053 38.41772 37.76412
# Shear Modulus (GPa) = 5.96556 21.54031 13.75294
#
# Velocity S-wave (km/s) = 1.71463 3.25816 2.60342
# Velocity P-wave (km/s) = 4.71263 5.75215 5.25815
#
# Compressibility (1/GPa) = 0.02694653
#
# Stress axis : x y z
#
# Youngs Moduli (GPa) = 70.43109 79.32400 73.74900
#
# Poissons Ratio (x) = -0.07634 0.26619
# Poissons Ratio (y) = -0.06778 0.29955
# Poissons Ratio (z) = 0.25422 0.32220
#
# Static dielectric constant tensor:
#      x y z
#    x 1.833070 0.000000 0.000000 
#    y 0.000000 1.726470 0.000000 
#    z 0.000000 0.000000 1.743060 
# 
# From -- ./inp_files/5606.got.cif
#   From: 2010.05.17/outbox.cif.g08.bks.cpg/sg45_3_cif.got.tgz:5606.got - 2010.06.03 19:51:22.
