data_PCOD9376661
_publ_section_title
;
Structure prediction by ZEFSAII (Michael W. Deem and Ramdas Pophale) SiO2 
 PCOD9376661
Probable space group: I B A 2
;
_chemical_formula_sum "Si O2"
_cell_formula_units_Z 56
_cell_length_a 5.102186
_cell_length_b 16.327386
_cell_length_c 34.530139
_cell_angle_alpha 90.000000
_cell_angle_beta 90.000000
_cell_angle_gamma 90.000000
_cell_volume 2876.545669
_symmetry_space_group_name_H-M "I B A 2"
_symmetry_group_IT_number 45
_symmetry_cell_setting 'orthorhombic'
loop_
_space_group_symop_operation_xyz
x,y,z
-x,-y,z
-x,y,1/2+z
x,-y,1/2+z
1/2+x,1/2+y,1/2+z
1/2-x,1/2-y,1/2+z
1/2-x,1/2+y,z
1/2+x,1/2-y,z
loop_
_atom_site_type_symbol
_atom_site_label
_atom_site_fract_x
_atom_site_fract_y
_atom_site_fract_z
Si Si1 0.745939 0.057306 0.746730
Si Si2 0.376710 0.693466 0.399022
Si Si3 0.012398 0.099129 0.477415
Si Si4 0.341282 0.803826 0.684701
Si Si5 0.786602 0.304016 0.096708
Si Si6 0.511564 0.901761 0.024077
Si Si7 0.747577 0.942358 0.335799
O O1 0.739187 0.130575 0.716513
O O2 0.718057 0.086687 0.791300
O O3 0.500000 0.000000 0.738403
O O4 0.000000 0.000000 0.743802
O O5 0.661302 0.735061 0.397153
O O6 0.385517 0.641642 0.438693
O O7 0.300498 0.631561 0.364764
O O8 0.722045 0.123758 0.491157
O O9 0.220967 0.122726 0.510787
O O10 0.000000 0.000000 0.472648
O O11 0.637056 0.771330 0.688810
O O12 0.314332 0.835896 0.640650
O O13 0.490543 0.271800 0.092745
O O14 0.879995 0.366180 0.063969
O O15 0.500000 0.000000 0.026254
O O16 0.500000 0.000000 0.345967
O O17 0.000000 0.000000 0.337144
#
# Coordination Sequence:
#
# PCOD9376661 Si02
#       7
#     8   8   8   8   8   8   8
#     4  10  21  38  61  88 113 147 194 235 277 335
#     4  12  25  38  58  90 117 144 192 241 282 334
#     4  10  22  39  57  78 111 151 186 227 285 340
#     4  10  21  37  57  84 118 154 188 229 288 345
#     4  10  21  36  55  80 112 149 184 224 281 337
#     4  10  21  37  57  81 107 144 192 234 275 328
#     4  10  22  41  62  83 115 155 188 226 286 347
#
# _framework density 19.467793
#
# number of rings (size 3 to 8) (size 9 to 14) (size 15 to 20)
#    0.000    1.714    0.000    3.857    0.000    6.857 
#    0.000    2.143    0.000    0.000    0.000    0.000 
#    0.000    0.000    0.000    0.000    0.000    0.000 
#
# Total GULP energy -156382.646467 kJ/mol
# GULP energy per Si atom -5585.094517 kJ/mol
# Density = 1.942348 g / cm^3
# Si number density = 19.467793 Si / 1000 Ang^3
#
#
#
# Elastic Constant Matrix: (Units=GPa)
#
#
# Indices 1 2 3 4 5 6 
#
# 1 79.3759 3.9363 -2.4362 0.0000 0.0000 0.0000
# 2 3.9363 38.0599 57.0317 0.0000 0.0000 0.0000
# 3 -2.4362 57.0317 102.4286 0.0000 0.0000 0.0000
# 4 0.0000 0.0000 0.0000 36.2699 0.0000 0.0000
# 5 0.0000 0.0000 0.0000 0.0000 28.3692 0.0000
# 6 0.0000 0.0000 0.0000 0.0000 0.0000 22.4037
#
#
#
# Elastic Compliance Matrix: (Units=1/GPa)
#
#
# Indices 1 2 3 4 5 6 
#
# 1 0.013356 -0.011212 0.006560 0.000000 0.000000 0.000000
# 2 -0.011212 0.168019 -0.093819 0.000000 0.000000 0.000000
# 3 0.006560 -0.093819 0.062157 0.000000 0.000000 0.000000
# 4 0.000000 0.000000 0.000000 0.027571 0.000000 0.000000
# 5 0.000000 0.000000 0.000000 0.000000 0.035249 0.000000
# 6 0.000000 0.000000 0.000000 0.000000 0.000000 0.044635
#
#
# Mechanical properties :
#
#
# Convention : Reuss Voigt Hill
#
# Bulk Modulus (GPa) = 21.46341 37.43647 29.44994
# Shear Modulus (GPa) = 8.87376 28.16407 18.51892
#
# Velocity S-wave (km/s) = 2.13730 3.80768 3.08759
# Velocity P-wave (km/s) = 4.14002 6.21312 5.27933
#
# Compressibility (1/GPa) = 0.04659092
#
# Stress axis : x y z
#
# Youngs Moduli (GPa) = 74.87483 5.95170 16.08832
#
# Poissons Ratio (x) = 0.06673 -0.10554
# Poissons Ratio (y) = 0.83947 1.50939
# Poissons Ratio (z) = -0.49120 0.55838
#
# Static dielectric constant tensor:
#      x y z
#    x 1.665650 0.000000 0.000000 
#    y 0.000000 1.639120 0.000000 
#    z 0.000000 0.000000 1.682340 
# 
# From -- ./inp_files/10129.got.cif
#   From: 2010.05.17/outbox.cif.g08.bks.cpg/sg45_6_cif.got.tgz:10129.got - 2010.06.03 19:51:22.
