data_PCOD9376312
_publ_section_title
;
Structure prediction by ZEFSAII (Michael W. Deem and Ramdas Pophale) SiO2 
 PCOD9376312
Probable space group: I B A 2
;
_chemical_formula_sum "Si O2"
_cell_formula_units_Z 64
_cell_length_a 12.539066
_cell_length_b 14.786456
_cell_length_c 17.307575
_cell_angle_alpha 90.000000
_cell_angle_beta 90.000000
_cell_angle_gamma 90.000000
_cell_volume 3208.968883
_symmetry_space_group_name_H-M "I B A 2"
_symmetry_group_IT_number 45
_symmetry_cell_setting 'orthorhombic'
loop_
_space_group_symop_operation_xyz
x,y,z
-x,-y,z
-x,y,1/2+z
x,-y,1/2+z
1/2+x,1/2+y,1/2+z
1/2-x,1/2-y,1/2+z
1/2-x,1/2+y,z
1/2+x,1/2-y,z
loop_
_atom_site_type_symbol
_atom_site_label
_atom_site_fract_x
_atom_site_fract_y
_atom_site_fract_z
Si Si1 0.337217 0.813300 0.927020
Si Si2 0.431915 0.340502 0.803003
Si Si3 0.342076 0.716612 0.759083
Si Si4 0.167786 0.029075 0.407372
Si Si5 0.723107 0.366839 0.003977
Si Si6 0.571959 0.149451 0.392291
Si Si7 0.807611 0.444301 0.770941
Si Si8 0.237239 0.618740 0.183533
O O1 0.325847 0.763543 0.843277
O O2 0.249002 0.891415 0.935240
O O3 0.454641 0.856015 0.927356
O O4 0.326510 0.731385 0.986830
O O5 0.545989 0.334491 0.762646
O O6 0.428744 0.417381 0.868513
O O7 0.416710 0.247512 0.851066
O O8 0.339116 0.359631 0.739955
O O9 0.247308 0.647178 0.740415
O O10 0.342707 0.798956 0.700032
O O11 0.155336 0.950319 0.469361
O O12 0.225674 0.979984 0.335855
O O13 0.735086 0.382121 0.094293
O O14 0.835612 0.365285 0.956017
O O15 0.589499 0.081247 0.320904
O O16 0.813866 0.524172 0.710049
#
# Coordination Sequence:
#
# PCOD9376312 Si02
#       8
#     8   8   8   8   8   8   8   8
#     4  11  20  39  65  91 116 161 212 258 305 361
#     4  10  20  39  65  86 115 159 210 258 300 361
#     4  11  20  39  65  91 116 161 212 258 305 361
#     4  10  19  38  60  88 119 157 211 251 306 362
#     4  11  23  39  61  92 130 162 201 252 321 385
#     4  10  20  39  65  86 115 159 210 258 300 361
#     4  10  19  38  60  88 119 157 211 251 306 362
#     4  11  23  39  61  92 130 162 201 252 321 385
#
# _framework density 19.944101
#
# number of rings (size 3 to 8) (size 9 to 14) (size 15 to 20)
#    0.000    1.500    7.500    0.000    0.000    6.000 
#    0.000    0.000   11.000    0.000    0.000    0.000 
#    0.000    0.000    0.000    0.000    0.000    0.000 
#
# Total GULP energy -178598.497492 kJ/mol
# GULP energy per Si atom -5581.203047 kJ/mol
# Density = 1.989871 g / cm^3
# Si number density = 19.944101 Si / 1000 Ang^3
#
#
#
# Elastic Constant Matrix: (Units=GPa)
#
#
# Indices 1 2 3 4 5 6 
#
# 1 81.4725 5.3044 4.4074 0.0000 0.0000 0.0000
# 2 5.3044 82.8169 29.0471 0.0000 0.0000 0.0000
# 3 4.4074 29.0471 105.8204 0.0000 0.0000 0.0000
# 4 0.0000 0.0000 0.0000 17.9707 0.0000 0.0000
# 5 0.0000 0.0000 0.0000 0.0000 9.6077 0.0000
# 6 0.0000 0.0000 0.0000 0.0000 0.0000 24.0246
#
#
#
# Elastic Compliance Matrix: (Units=1/GPa)
#
#
# Indices 1 2 3 4 5 6 
#
# 1 0.012336 -0.000675 -0.000329 0.000000 0.000000 0.000000
# 2 -0.000675 0.013398 -0.003650 0.000000 0.000000 0.000000
# 3 -0.000329 -0.003650 0.010465 0.000000 0.000000 0.000000
# 4 0.000000 0.000000 0.000000 0.055646 0.000000 0.000000
# 5 0.000000 0.000000 0.000000 0.000000 0.104084 0.000000
# 6 0.000000 0.000000 0.000000 0.000000 0.000000 0.041624
#
#
# Mechanical properties :
#
#
# Convention : Reuss Voigt Hill
#
# Bulk Modulus (GPa) = 37.18394 38.62530 37.90462
# Shear Modulus (GPa) = 19.54472 25.74398 22.64435
#
# Velocity S-wave (km/s) = 3.13385 3.59668 3.37321
# Velocity P-wave (km/s) = 5.63731 6.05450 5.84962
#
# Compressibility (1/GPa) = 0.02689333
#
# Stress axis : x y z
#
# Youngs Moduli (GPa) = 81.06495 74.63740 95.55248
#
# Poissons Ratio (x) = 0.05037 0.03139
# Poissons Ratio (y) = 0.05471 0.34873
# Poissons Ratio (z) = 0.02663 0.27240
#
# Static dielectric constant tensor:
#      x y z
#    x 1.769890 0.000000 0.000000 
#    y 0.000000 1.765790 0.000000 
#    z 0.000000 0.000000 1.673140 
# 
# From -- ./inp_files/8278.got.cif
#   From: 2010.05.17/outbox.cif.g08.bks.cpg/sg45_5_cif.got.tgz:8278.got - 2010.06.03 19:51:22.
