data_PCOD9376237
_publ_section_title
;
Structure prediction by ZEFSAII (Michael W. Deem and Ramdas Pophale) SiO2 
 PCOD9376237
Probable space group: I B A 2
;
_chemical_formula_sum "Si O2"
_cell_formula_units_Z 56
_cell_length_a 13.051419
_cell_length_b 19.673811
_cell_length_c 8.560150
_cell_angle_alpha 90.000000
_cell_angle_beta 90.000000
_cell_angle_gamma 90.000000
_cell_volume 2197.999566
_symmetry_space_group_name_H-M "I B A 2"
_symmetry_group_IT_number 45
_symmetry_cell_setting 'orthorhombic'
loop_
_space_group_symop_operation_xyz
x,y,z
-x,-y,z
-x,y,1/2+z
x,-y,1/2+z
1/2+x,1/2+y,1/2+z
1/2-x,1/2-y,1/2+z
1/2-x,1/2+y,z
1/2+x,1/2-y,z
loop_
_atom_site_type_symbol
_atom_site_label
_atom_site_fract_x
_atom_site_fract_y
_atom_site_fract_z
Si Si1 0.607593 0.401001 0.202560
Si Si2 0.246181 0.084315 0.771409
Si Si3 0.633930 0.480070 0.489364
Si Si4 0.958844 0.382565 0.853779
Si Si5 0.352845 0.132772 0.193305
Si Si6 0.294293 0.740118 0.873846
Si Si7 0.098963 0.243893 0.208500
O O1 0.578492 0.432213 0.367231
O O2 0.732857 0.390531 0.189792
O O3 0.551047 0.329577 0.182243
O O4 0.580911 0.458810 0.081317
O O5 0.191305 0.068354 0.610371
O O6 0.368783 0.080610 0.758912
O O7 0.212579 0.159349 0.836001
O O8 0.212533 0.024060 0.884747
O O9 0.959008 0.309081 0.768618
O O10 0.075848 0.404169 0.824151
O O11 0.911675 0.378326 0.028294
O O12 0.343381 0.212309 0.241058
O O13 0.177582 0.764945 0.854067
O O14 0.343824 0.756304 0.041919
#
# Coordination Sequence:
#
# PCOD9376237 Si02
#       7
#     8   8   8   8   8   8   8
#     4  10  20  36  55  80 110 138 184 216 265 309
#     4  10  20  36  55  80 110 138 184 216 265 309
#     4  10  20  34  55  78 109 146 178 220 250 318
#     4  11  23  37  54  79 109 143 179 223 274 321
#     4  11  23  37  54  79 109 143 179 223 274 321
#     4  10  19  33  55  80 105 136 177 226 272 312
#     4  10  19  33  55  80 105 136 177 226 272 312
#
# _framework density 25.477713000000001
#
# number of rings (size 3 to 8) (size 9 to 14) (size 15 to 20)
#    0.000    1.714    2.857    3.429   12.000    0.000 
#    0.000    4.286    0.000    0.000    0.000    6.000 
#    0.000    0.000    0.000    0.000    0.000    0.000 
#
# Total GULP energy -156347.083086 kJ/mol
# GULP energy per Si atom -5583.824396 kJ/mol
# Density = 2.541972 g / cm^3
# Si number density = 25.477713 Si / 1000 Ang^3
#
#
#
# Elastic Constant Matrix: (Units=GPa)
#
#
# Indices 1 2 3 4 5 6 
#
# 1 69.7330 12.6279 26.0429 0.0000 0.0000 0.0000
# 2 12.6279 71.8862 26.4712 0.0000 0.0000 0.0000
# 3 26.0429 26.4712 130.3261 0.0000 0.0000 0.0000
# 4 0.0000 0.0000 0.0000 24.1068 0.0000 0.0000
# 5 0.0000 0.0000 0.0000 0.0000 32.5859 0.0000
# 6 0.0000 0.0000 0.0000 0.0000 0.0000 5.4173
#
#
#
# Elastic Compliance Matrix: (Units=1/GPa)
#
#
# Indices 1 2 3 4 5 6 
#
# 1 0.015694 -0.001732 -0.002784 0.000000 0.000000 0.000000
# 2 -0.001732 0.015226 -0.002747 0.000000 0.000000 0.000000
# 3 -0.002784 -0.002747 0.008787 0.000000 0.000000 0.000000
# 4 0.000000 0.000000 0.000000 0.041482 0.000000 0.000000
# 5 0.000000 0.000000 0.000000 0.000000 0.030688 0.000000
# 6 0.000000 0.000000 0.000000 0.000000 0.000000 0.184592
#
#
# Mechanical properties :
#
#
# Convention : Reuss Voigt Hill
#
# Bulk Modulus (GPa) = 39.71025 44.69215 42.20120
# Shear Modulus (GPa) = 15.65486 26.20890 20.93188
#
# Velocity S-wave (km/s) = 2.48151 3.21081 2.86942
# Velocity P-wave (km/s) = 4.88166 5.59692 5.25148
#
# Compressibility (1/GPa) = 0.02518241
#
# Stress axis : x y z
#
# Youngs Moduli (GPa) = 63.71926 65.67499 113.79985
#
# Poissons Ratio (x) = 0.11372 0.31686
# Poissons Ratio (y) = 0.11033 0.31258
# Poissons Ratio (z) = 0.17742 0.18039
#
# Static dielectric constant tensor:
#      x y z
#    x 2.179590 0.000000 0.000000 
#    y 0.000000 2.070060 0.000000 
#    z 0.000000 0.000000 1.998120 
# 
# From -- ./inp_files/2180.got.cif
#   From: 2010.05.17/outbox.cif.g08.bks.cpg/sg45_2_cif.got.tgz:2180.got - 2010.06.03 19:51:22.
