data_PCOD9376664
_publ_section_title
;
Structure prediction by ZEFSAII (Michael W. Deem and Ramdas Pophale) SiO2 
 PCOD9376664
Probable space group: I B A 2
;
_chemical_formula_sum "Si O2"
_cell_formula_units_Z 40
_cell_length_a 17.623789
_cell_length_b 11.053227
_cell_length_c 8.705451
_cell_angle_alpha 90.000000
_cell_angle_beta 90.000000
_cell_angle_gamma 90.000000
_cell_volume 1695.819595
_symmetry_space_group_name_H-M "I B A 2"
_symmetry_group_IT_number 45
_symmetry_cell_setting 'orthorhombic'
loop_
_space_group_symop_operation_xyz
x,y,z
-x,-y,z
-x,y,1/2+z
x,-y,1/2+z
1/2+x,1/2+y,1/2+z
1/2-x,1/2-y,1/2+z
1/2-x,1/2+y,z
1/2+x,1/2-y,z
loop_
_atom_site_type_symbol
_atom_site_label
_atom_site_fract_x
_atom_site_fract_y
_atom_site_fract_z
Si Si1 0.733801 0.409730 0.286290
Si Si2 0.908261 0.161606 0.934835
Si Si3 0.152990 0.090933 0.966515
Si Si4 0.512333 0.196911 0.174387
Si Si5 0.102427 0.643020 0.409744
O O1 0.703728 0.543779 0.325933
O O2 0.707764 0.388645 0.112344
O O3 0.926215 0.617501 0.081445
O O4 0.819444 0.402680 0.340794
O O5 0.818191 0.176373 0.896726
O O6 0.946892 0.196123 0.772060
O O7 0.950305 0.243904 0.059038
O O8 0.906124 0.020796 0.986293
O O9 0.111227 0.211630 0.921638
O O10 0.465595 0.120297 0.295365
#
# Coordination Sequence:
#
# PCOD9376664 Si02
#       5
#     8   8   8   8   8
#     4  10  23  39  59  89 118 159 203 240 294 355
#     4   9  21  36  55  89 123 155 191 240 301 352
#     4  10  21  39  58  92 114 157 198 245 298 345
#     4  10  21  36  58  92 124 155 188 247 307 361
#     4  11  22  38  63  89 120 157 196 247 302 357
#
# _framework density 23.587415
#
# number of rings (size 3 to 8) (size 9 to 14) (size 15 to 20)
#    1.200    0.800    2.000    1.200    2.800    4.800 
#    0.000    0.000    0.000    3.600    0.000    0.000 
#    0.000    0.000    0.000    0.000    0.000    0.000 
#
# Total GULP energy -111535.682371 kJ/mol
# GULP energy per Si atom -5576.784119 kJ/mol
# Density = 2.353373 g / cm^3
# Si number density = 23.587415 Si / 1000 Ang^3
#
#
#
# Elastic Constant Matrix: (Units=GPa)
#
#
# Indices 1 2 3 4 5 6 
#
# 1 127.4103 17.9146 39.5964 0.0000 0.0000 0.0000
# 2 17.9146 50.5381 27.4947 0.0000 0.0000 0.0000
# 3 39.5964 27.4947 106.9380 0.0000 0.0000 0.0000
# 4 0.0000 0.0000 0.0000 6.1181 0.0000 0.0000
# 5 0.0000 0.0000 0.0000 0.0000 43.0381 0.0000
# 6 0.0000 0.0000 0.0000 0.0000 0.0000 16.4388
#
#
#
# Elastic Compliance Matrix: (Units=1/GPa)
#
#
# Indices 1 2 3 4 5 6 
#
# 1 0.008979 -0.001598 -0.002914 0.000000 0.000000 0.000000
# 2 -0.001598 0.023289 -0.005396 0.000000 0.000000 0.000000
# 3 -0.002914 -0.005396 0.011818 0.000000 0.000000 0.000000
# 4 0.000000 0.000000 0.000000 0.163449 0.000000 0.000000
# 5 0.000000 0.000000 0.000000 0.000000 0.023235 0.000000
# 6 0.000000 0.000000 0.000000 0.000000 0.000000 0.060832
#
#
# Mechanical properties :
#
#
# Convention : Reuss Voigt Hill
#
# Bulk Modulus (GPa) = 41.20296 50.54419 45.87358
# Shear Modulus (GPa) = 15.64913 26.44439 21.04676
#
# Velocity S-wave (km/s) = 2.57855 3.35195 2.99036
# Velocity P-wave (km/s) = 5.13530 6.03786 5.60478
#
# Compressibility (1/GPa) = 0.02427010
#
# Stress axis : x y z
#
# Youngs Moduli (GPa) = 111.37276 42.93849 84.61949
#
# Poissons Ratio (x) = 0.06859 0.24657
# Poissons Ratio (y) = 0.17792 0.45663
# Poissons Ratio (z) = 0.32453 0.23171
#
# Static dielectric constant tensor:
#      x y z
#    x 1.964730 0.000000 0.000000 
#    y 0.000000 1.914410 0.000000 
#    z 0.000000 0.000000 1.939390 
# 
# From -- ./inp_files/2054.got.cif
#   From: 2010.05.17/outbox.cif.g08.bks.cpg/sg45_2_cif.got.tgz:2054.got - 2010.06.03 19:51:22.
