data_PCOD9376424
_publ_section_title
;
Structure prediction by ZEFSAII (Michael W. Deem and Ramdas Pophale) SiO2 
 PCOD9376424
Probable space group: I B A 2
;
_chemical_formula_sum "Si O2"
_cell_formula_units_Z 64
_cell_length_a 5.328107
_cell_length_b 15.247090
_cell_length_c 31.796999
_cell_angle_alpha 90.000000
_cell_angle_beta 90.000000
_cell_angle_gamma 90.000000
_cell_volume 2583.128642
_symmetry_space_group_name_H-M "I B A 2"
_symmetry_group_IT_number 45
_symmetry_cell_setting 'orthorhombic'
loop_
_space_group_symop_operation_xyz
x,y,z
-x,-y,z
-x,y,1/2+z
x,-y,1/2+z
1/2+x,1/2+y,1/2+z
1/2-x,1/2-y,1/2+z
1/2-x,1/2+y,z
1/2+x,1/2-y,z
loop_
_atom_site_type_symbol
_atom_site_label
_atom_site_fract_x
_atom_site_fract_y
_atom_site_fract_z
Si Si1 0.678636 0.584077 0.534920
Si Si2 0.427826 0.697321 0.325498
Si Si3 0.014239 0.405502 0.121444
Si Si4 0.004380 0.843559 0.422528
Si Si5 0.131164 0.142699 0.740740
Si Si6 0.636347 0.155359 0.706863
Si Si7 0.501870 0.857389 0.456577
Si Si8 0.612025 0.304468 0.583003
O O1 0.500000 0.500000 0.529396
O O2 0.838685 0.586329 0.579118
O O3 0.887278 0.611644 0.500978
O O4 0.465459 0.660084 0.537401
O O5 0.637138 0.774950 0.320381
O O6 0.448587 0.667919 0.373551
O O7 0.527060 0.635603 0.288115
O O8 0.000000 0.500000 0.142190
O O9 0.924467 0.339618 0.157622
O O10 0.306227 0.388468 0.109625
O O11 0.775733 0.892432 0.445254
O O12 0.028570 0.747253 0.445418
O O13 0.275831 0.886765 0.426330
O O14 0.903237 0.109739 0.712525
O O15 0.160579 0.246342 0.726566
O O16 0.406851 0.109238 0.730864
O O17 0.371538 0.245415 0.589853
#
# Coordination Sequence:
#
# PCOD9376424 Si02
#       8
#     8   8   8   8   8   8   8   8
#     4  12  28  48  69  95 139 191 243 297 372 438
#     4  12  16  32  58  92 142 168 202 268 354 410
#     4  12  28  48  69  95 139 189 240 292 364 430
#     4  10  20  36  57  98 131 168 211 280 337 411
#     4  10  20  36  57  98 131 168 211 278 334 409
#     4  10  22  35  58  86 128 164 217 275 333 387
#     4  10  22  35  58  86 128 164 219 277 336 390
#     4  12  28  44  70 100 122 172 235 299 356 409
#
# _framework density 24.776154999999999
#
# number of rings (size 3 to 8) (size 9 to 14) (size 15 to 20)
#    0.000    1.000    7.500    0.000   10.500    0.000 
#    0.000    0.000    0.000    0.000    0.000    5.250 
#    0.000    0.000    0.000    0.000    0.000    0.000 
#
# Total GULP energy -178383.563375 kJ/mol
# GULP energy per Si atom -5574.486355 kJ/mol
# Density = 2.471976 g / cm^3
# Si number density = 24.776155 Si / 1000 Ang^3
#
#
#
# Elastic Constant Matrix: (Units=GPa)
#
#
# Indices 1 2 3 4 5 6 
#
# 1 140.5421 9.4167 -18.2675 0.0000 0.0000 0.0000
# 2 9.4167 38.5157 14.5044 0.0000 0.0000 0.0000
# 3 -18.2675 14.5044 126.6445 0.0000 0.0000 0.0000
# 4 0.0000 0.0000 0.0000 5.9377 0.0000 0.0000
# 5 0.0000 0.0000 0.0000 0.0000 44.9107 0.0000
# 6 0.0000 0.0000 0.0000 0.0000 0.0000 20.7735
#
#
#
# Elastic Compliance Matrix: (Units=1/GPa)
#
#
# Indices 1 2 3 4 5 6 
#
# 1 0.007445 -0.002325 0.001340 0.000000 0.000000 0.000000
# 2 -0.002325 0.027860 -0.003526 0.000000 0.000000 0.000000
# 3 0.001340 -0.003526 0.008493 0.000000 0.000000 0.000000
# 4 0.000000 0.000000 0.000000 0.168415 0.000000 0.000000
# 5 0.000000 0.000000 0.000000 0.000000 0.022266 0.000000
# 6 0.000000 0.000000 0.000000 0.000000 0.000000 0.048138
#
#
# Mechanical properties :
#
#
# Convention : Reuss Voigt Hill
#
# Bulk Modulus (GPa) = 28.75502 35.22328 31.98915
# Shear Modulus (GPa) = 16.48900 34.32761 25.40830
#
# Velocity S-wave (km/s) = 2.58256 3.72628 3.20584
# Velocity P-wave (km/s) = 4.53034 5.72373 5.16164
#
# Compressibility (1/GPa) = 0.03477654
#
# Stress axis : x y z
#
# Youngs Moduli (GPa) = 134.31324 35.89406 117.74023
#
# Poissons Ratio (x) = 0.08345 -0.15780
# Poissons Ratio (y) = 0.31228 0.41516
# Poissons Ratio (z) = -0.18001 0.12657
#
# Static dielectric constant tensor:
#      x y z
#    x 2.098720 0.000000 0.000000 
#    y 0.000000 2.398620 0.000000 
#    z 0.000000 0.000000 1.969960 
# 
# From -- ./inp_files/10149.got.cif
#   From: 2010.05.17/outbox.cif.g08.bks.cpg/sg45_6_cif.got.tgz:10149.got - 2010.06.03 19:51:22.
