data_PCOD9376173
_publ_section_title
;
Structure prediction by ZEFSAII (Michael W. Deem and Ramdas Pophale) SiO2 
 PCOD9376173
Probable space group: I B A 2
;
_chemical_formula_sum "Si O2"
_cell_formula_units_Z 36
_cell_length_a 9.304905
_cell_length_b 14.606427
_cell_length_c 9.217374
_cell_angle_alpha 90.000000
_cell_angle_beta 90.000000
_cell_angle_gamma 90.000000
_cell_volume 1252.746349
_symmetry_space_group_name_H-M "I B A 2"
_symmetry_group_IT_number 45
_symmetry_cell_setting 'orthorhombic'
loop_
_space_group_symop_operation_xyz
x,y,z
-x,-y,z
-x,y,1/2+z
x,-y,1/2+z
1/2+x,1/2+y,1/2+z
1/2-x,1/2-y,1/2+z
1/2-x,1/2+y,z
1/2+x,1/2-y,z
loop_
_atom_site_type_symbol
_atom_site_label
_atom_site_fract_x
_atom_site_fract_y
_atom_site_fract_z
Si Si1 0.500000 0.839448 0.468830
Si Si2 0.822302 0.430635 0.218830
Si Si3 0.425013 0.716985 0.218830
Si Si4 0.330292 0.398992 0.218830
Si Si5 0.000000 0.000000 0.468830
O O1 0.401216 0.897793 0.574804
O O2 0.598784 0.897793 0.362856
O O3 0.401976 0.776332 0.362902
O O4 0.598025 0.776332 0.574758
O O5 0.668124 0.375952 0.218830
O O6 0.813178 0.541007 0.218830
O O7 0.599875 0.701237 0.218830
O O8 0.403063 0.438425 0.365376
O O9 0.403063 0.438425 0.072283
#
# Coordination Sequence:
#
# PCOD9376173 Si02
#       5
#     8   8   8   8   4
#     4  10  25  40  67 107 149 186 242 294 407 408
#     4  11  22  43  65 103 146 196 235 311 351 469
#     4  11  20  41  69 111 130 191 245 314 346 451
#     4  11  22  38  74 108 137 177 254 303 365 408
#     4  10  18  38  60 112 126 174 236 308 356 402
#
# _framework density 28.73686
#
# number of rings (size 3 to 8) (size 9 to 14) (size 15 to 20)
#    0.000    1.333    4.444    2.667    0.000    0.000 
#    0.000    6.667    0.000    4.000    0.000    0.000 
#    0.000    0.000    0.000    0.000    0.000    0.000 
#
# Total GULP energy -100986.266944 kJ/mol
# GULP energy per Si atom -5610.348164 kJ/mol
# Density = 2.867145 g / cm^3
# Si number density = 28.736860 Si / 1000 Ang^3
#
#
#
# Elastic Constant Matrix: (Units=GPa)
#
#
# Indices 1 2 3 4 5 6 
#
# 1 126.7314 47.7162 49.9404 0.0000 0.0000 0.0000
# 2 47.7162 140.4903 43.9141 0.0002 0.0000 0.0000
# 3 49.9404 43.9141 199.6900 0.0006 0.0001 0.0000
# 4 0.0000 0.0002 0.0006 21.0424 0.0000 0.0000
# 5 0.0000 0.0000 0.0001 0.0000 26.0182 0.0000
# 6 0.0000 0.0000 0.0000 0.0000 0.0000 54.2559
#
#
#
# Elastic Compliance Matrix: (Units=1/GPa)
#
#
# Indices 1 2 3 4 5 6 
#
# 1 0.009622 -0.002702 -0.001812 0.000000 0.000000 0.000000
# 2 -0.002702 0.008402 -0.001172 0.000000 0.000000 0.000000
# 3 -0.001812 -0.001172 0.005719 0.000000 0.000000 0.000000
# 4 0.000000 0.000000 0.000000 0.047523 0.000000 0.000000
# 5 0.000000 0.000000 0.000000 0.000000 0.038435 0.000000
# 6 0.000000 0.000000 0.000000 0.000000 0.000000 0.018431
#
#
# Mechanical properties :
#
#
# Convention : Reuss Voigt Hill
#
# Bulk Modulus (GPa) = 80.83488 83.33922 82.08705
# Shear Modulus (GPa) = 34.81245 41.95272 38.38258
#
# Velocity S-wave (km/s) = 3.48432 3.82500 3.65863
# Velocity P-wave (km/s) = 6.66166 6.96931 6.81722
#
# Compressibility (1/GPa) = 0.01237090
#
# Stress axis : x y z
#
# Youngs Moduli (GPa) = 103.92815 119.02165 174.86392
#
# Poissons Ratio (x) = 0.32154 0.31690
# Poissons Ratio (y) = 0.28077 0.20494
# Poissons Ratio (z) = 0.18835 0.13950
#
# Static dielectric constant tensor:
#      x y z
#    x 2.410520 0.000000 0.000000 
#    y 0.000000 2.238900 0.000000 
#    z 0.000000 0.000000 2.084770 
# 
# From -- ./inp_files/933.got.cif
#   From: 2010.05.17/outbox.cif.g08.bks.cpg/sg45_1_cif.got.tgz:933.got - 2010.06.03 19:51:22.
