data_PCOD9376158
_publ_section_title
;
Structure prediction by ZEFSAII (Michael W. Deem and Ramdas Pophale) SiO2 
 PCOD9376158
Probable space group: I B A 2
;
_chemical_formula_sum "Si O2"
_cell_formula_units_Z 40
_cell_length_a 24.011462
_cell_length_b 4.987979
_cell_length_c 13.193763
_cell_angle_alpha 90.000000
_cell_angle_beta 90.000000
_cell_angle_gamma 90.000000
_cell_volume 1580.199423
_symmetry_space_group_name_H-M "I B A 2"
_symmetry_group_IT_number 45
_symmetry_cell_setting 'orthorhombic'
loop_
_space_group_symop_operation_xyz
x,y,z
-x,-y,z
-x,y,1/2+z
x,-y,1/2+z
1/2+x,1/2+y,1/2+z
1/2-x,1/2-y,1/2+z
1/2-x,1/2+y,z
1/2+x,1/2-y,z
loop_
_atom_site_type_symbol
_atom_site_label
_atom_site_fract_x
_atom_site_fract_y
_atom_site_fract_z
Si Si1 0.786540 0.782629 0.300940
Si Si2 0.124356 0.570668 0.392472
Si Si3 0.155855 0.812240 0.594232
Si Si4 0.500000 0.000000 0.373554
Si Si5 0.000000 0.000000 0.726475
Si Si6 0.101926 0.692735 0.165738
O O1 0.739563 0.565515 0.325061
O O2 0.842433 0.696766 0.359863
O O3 0.797964 0.760642 0.179765
O O4 0.159190 0.712622 0.480299
O O5 0.059438 0.547122 0.427404
O O6 0.118676 0.720937 0.284115
O O7 0.106539 0.617115 0.638049
O O8 0.143415 0.127001 0.600220
O O9 0.515195 0.256139 0.302859
O O10 0.955823 0.846260 0.657013
#
# Coordination Sequence:
#
# PCOD9376158 Si02
#       6
#     8   8   8   4   4   8
#     4  11  24  43  67  96 129 169 221 272 322 387
#     4  10  24  44  68  98 138 176 216 275 336 390
#     4  11  24  41  65  95 129 172 222 271 329 393
#     4  10  22  38  66  98 130 176 222 260 328 414
#     4  10  18  36  60  86 130 176 212 266 322 372
#     4  10  22  39  61  92 130 171 218 267 320 391
#
# _framework density 25.313262999999999
#
# number of rings (size 3 to 8) (size 9 to 14) (size 15 to 20)
#    0.000    1.600    0.000    6.000    0.000   12.800 
#    0.000    2.000    0.000    0.000    0.000    0.000 
#    0.000    0.000    0.000    0.000    0.000    0.000 
#
# Total GULP energy -111723.946760 kJ/mol
# GULP energy per Si atom -5586.197338 kJ/mol
# Density = 2.525565 g / cm^3
# Si number density = 25.313263 Si / 1000 Ang^3
#
#
#
# Elastic Constant Matrix: (Units=GPa)
#
#
# Indices 1 2 3 4 5 6 
#
# 1 109.6930 11.2653 15.8459 0.0000 0.0000 0.0000
# 2 11.2653 63.8695 -0.4056 0.0000 0.0000 0.0000
# 3 15.8459 -0.4056 111.6465 0.0000 0.0000 0.0000
# 4 0.0000 0.0000 0.0000 23.0661 0.0000 0.0000
# 5 0.0000 0.0000 0.0000 0.0000 14.1844 0.0000
# 6 0.0000 0.0000 0.0000 0.0000 0.0000 27.8402
#
#
#
# Elastic Compliance Matrix: (Units=1/GPa)
#
#
# Indices 1 2 3 4 5 6 
#
# 1 0.009484 -0.001681 -0.001352 0.000000 0.000000 0.000000
# 2 -0.001681 0.015955 0.000297 0.000000 0.000000 0.000000
# 3 -0.001352 0.000297 0.009150 0.000000 0.000000 0.000000
# 4 0.000000 0.000000 0.000000 0.043354 0.000000 0.000000
# 5 0.000000 0.000000 0.000000 0.000000 0.070500 0.000000
# 6 0.000000 0.000000 0.000000 0.000000 0.000000 0.035919
#
#
# Mechanical properties :
#
#
# Convention : Reuss Voigt Hill
#
# Bulk Modulus (GPa) = 34.34601 37.62450 35.98525
# Shear Modulus (GPa) = 25.05743 30.25170 27.65457
#
# Velocity S-wave (km/s) = 3.14967 3.46076 3.30887
# Velocity P-wave (km/s) = 5.17929 5.55563 5.37076
#
# Compressibility (1/GPa) = 0.02911546
#
# Stress axis : x y z
#
# Youngs Moduli (GPa) = 105.43657 62.67482 109.29158
#
# Poissons Ratio (x) = 0.10538 0.14779
# Poissons Ratio (y) = 0.17729 -0.03242
# Poissons Ratio (z) = 0.14257 -0.01859
#
# Static dielectric constant tensor:
#      x y z
#    x 2.113490 0.000000 0.000000 
#    y 0.000000 1.944680 0.000000 
#    z 0.000000 0.000000 1.989990 
# 
# From -- ./inp_files/4838.got.cif
#   From: 2010.05.17/outbox.cif.g08.bks.cpg/sg45_3_cif.got.tgz:4838.got - 2010.06.03 19:51:22.
