data_PCOD9376020
_publ_section_title
;
Structure prediction by ZEFSAII (Michael W. Deem and Ramdas Pophale) SiO2 
 PCOD9376020
Probable space group: I M M 2
;
_chemical_formula_sum "Si O2"
_cell_formula_units_Z 32
_cell_length_a 9.000000
_cell_length_b 24.000000
_cell_length_c 15.000000
_cell_angle_alpha 90.000000
_cell_angle_beta 90.000000
_cell_angle_gamma 90.000000
_cell_volume 3240.000000
_symmetry_space_group_name_H-M "I M M 2"
_symmetry_group_IT_number 44
_symmetry_cell_setting 'orthorhombic'
loop_
_space_group_symop_operation_xyz
x,y,z
-x,-y,z
-x,y,z
x,-y,z
1/2+x,1/2+y,1/2+z
1/2-x,1/2-y,1/2+z
1/2-x,1/2+y,1/2+z
1/2+x,1/2-y,1/2+z
loop_
_atom_site_type_symbol
_atom_site_label
_atom_site_fract_x
_atom_site_fract_y
_atom_site_fract_z
Si Si1 0.162814 0.565756 0.834970
Si Si2 0.669628 0.354721 0.160173
Si Si3 0.671922 0.637550 0.706858
Si Si4 0.171310 0.356663 0.338457
Si Si5 0.836329 0.565593 0.045438
Si Si6 0.324136 0.770869 0.532087
Si Si7 0.823063 0.649656 0.532655
Si Si8 0.672744 0.277469 0.850347
O O1 0.161839 0.500000 0.820223
O O2 0.297005 0.592803 0.782923
O O3 0.000000 0.588319 0.805801
O O4 0.174110 0.574842 0.940207
O O5 0.500000 0.337128 0.161533
O O6 0.725072 0.372141 0.257292
O O7 0.702505 0.405975 0.095555
O O8 0.767685 0.306426 0.115304
O O9 0.500000 0.643069 0.682215
O O10 0.766442 0.620568 0.621298
O O11 0.721342 0.694050 0.758077
O O12 0.216229 0.376679 0.437022
O O13 0.178329 0.289150 0.343036
O O14 0.000000 0.372365 0.321255
O O15 0.836527 0.500000 0.060982
O O16 0.000000 0.587807 0.074660
O O17 0.500000 0.767980 0.531232
O O18 0.254400 0.709740 0.538047
O O19 0.265653 0.794604 0.437281
O O20 0.000000 0.656875 0.532403
O O21 0.500000 0.293240 0.864640
#
# Coordination Sequence:
#
# PCOD9376020 Si02
#       8
#     8   8   8   8   8   8   8   8
#     4   9  19  36  56  78 105 137 173 212 255 305
#     4  12  23  33  51  78 107 139 174 212 256 309
#     4  11  21  32  52  80 108 138 172 211 257 310
#     4   9  19  36  54  72 100 138 177 216 256 300
#     4   9  19  37  59  81 106 136 170 210 256 306
#     4  11  21  33  51  75 106 141 176 215 256 302
#     4  10  21  37  55  74 101 137 176 218 260 304
#     4   9  19  34  50  74 107 139 172 211 256 307
#
# _framework density 9.8765429999999999
#
# number of rings (size 3 to 8) (size 9 to 14) (size 15 to 20)
#    0.000    2.000    0.000    6.000    0.000    7.500 
#    0.000    1.250    0.000    0.750    0.000    5.250 
#    0.000    0.000    0.000    0.000    0.000    0.000 
#
# Total GULP energy -178501.825947 kJ/mol
# GULP energy per Si atom -5578.182061 kJ/mol
# Density = 0.985406 g / cm^3
# Si number density = 9.876543 Si / 1000 Ang^3
#
#
#
# Elastic Constant Matrix: (Units=GPa)
#
#
# Indices 1 2 3 4 5 6 
#
# 1 49.0871 -4.6751 27.8615 0.0000 0.0000 0.0000
# 2 -4.6751 18.3098 -10.2028 0.0000 0.0000 0.0000
# 3 27.8615 -10.2028 67.4081 0.0000 0.0000 0.0000
# 4 0.0000 0.0000 0.0000 19.1008 0.0000 0.0000
# 5 0.0000 0.0000 0.0000 0.0000 25.2303 0.0000
# 6 0.0000 0.0000 0.0000 0.0000 0.0000 15.9447
#
#
#
# Elastic Compliance Matrix: (Units=1/GPa)
#
#
# Indices 1 2 3 4 5 6 
#
# 1 0.026625 0.000727 -0.010895 0.000000 0.000000 0.000000
# 2 0.000727 0.059666 0.008730 0.000000 0.000000 0.000000
# 3 -0.010895 0.008730 0.020659 0.000000 0.000000 0.000000
# 4 0.000000 0.000000 0.000000 0.052354 0.000000 0.000000
# 5 0.000000 0.000000 0.000000 0.000000 0.039635 0.000000
# 6 0.000000 0.000000 0.000000 0.000000 0.000000 0.062717
#
#
# Mechanical properties :
#
#
# Convention : Reuss Voigt Hill
#
# Bulk Modulus (GPa) = 9.60830 17.86357 13.73593
# Shear Modulus (GPa) = 16.70999 20.17659 18.44329
#
# Velocity S-wave (km/s) = 2.91167 3.19946 3.05895
# Velocity P-wave (km/s) = 4.02225 4.76569 4.40967
#
# Compressibility (1/GPa) = 0.10407671
#
# Stress axis : x y z
#
# Youngs Moduli (GPa) = 37.55872 16.75992 48.40392
#
# Poissons Ratio (x) = -0.01219 0.52735
# Poissons Ratio (y) = -0.02732 -0.42258
# Poissons Ratio (z) = 0.40919 -0.14632
#
# Static dielectric constant tensor:
#      x y z
#    x 1.702070 0.000000 0.000000 
#    y 0.000000 1.712880 0.000000 
#    z 0.000000 0.000000 1.748620 
# 
# From -- ./inp_files/16767.got.cif
#   From: 2010.05.17/outbox.ucp.g08.bks.cvg/sg44_9_cif.got.tgz:16767.got - 2010.06.11 16:32:36.
