data_PCOD9376907
_publ_section_title
;
Structure prediction by ZEFSAII (Michael W. Deem and Ramdas Pophale) SiO2 
 PCOD9376907
Probable space group: I B A 2
;
_chemical_formula_sum "Si O2"
_cell_formula_units_Z 64
_cell_length_a 15.550104
_cell_length_b 12.393097
_cell_length_c 12.693224
_cell_angle_alpha 90.000000
_cell_angle_beta 90.000000
_cell_angle_gamma 90.000000
_cell_volume 2446.161300
_symmetry_space_group_name_H-M "I B A 2"
_symmetry_group_IT_number 45
_symmetry_cell_setting 'orthorhombic'
loop_
_space_group_symop_operation_xyz
x,y,z
-x,-y,z
-x,y,1/2+z
x,-y,1/2+z
1/2+x,1/2+y,1/2+z
1/2-x,1/2-y,1/2+z
1/2-x,1/2+y,z
1/2+x,1/2-y,z
loop_
_atom_site_type_symbol
_atom_site_label
_atom_site_fract_x
_atom_site_fract_y
_atom_site_fract_z
Si Si1 0.993641 0.814900 0.243600
Si Si2 0.746013 0.933862 0.766479
Si Si3 0.360690 0.734807 0.089308
Si Si4 0.312631 0.180423 0.972378
Si Si5 0.626064 0.390319 0.574963
Si Si6 0.412393 0.419857 0.417464
Si Si7 0.594423 0.962292 0.532773
Si Si8 0.920259 0.417969 0.292270
O O1 0.048087 0.867091 0.151072
O O2 0.007428 0.890626 0.343479
O O3 0.043227 0.698715 0.256573
O O4 0.897869 0.810602 0.197928
O O5 0.854429 0.572399 0.518007
O O6 0.791920 0.907809 0.653967
O O7 0.831771 0.947983 0.840161
O O8 0.703215 0.843886 0.847590
O O9 0.267933 0.699869 0.049798
O O10 0.374507 0.862690 0.101502
O O11 0.410850 0.689334 0.988016
O O12 0.363267 0.289599 0.995564
O O13 0.601490 0.493027 0.507527
O O14 0.593297 0.912388 0.416684
O O15 0.500000 0.000000 0.562899
O O16 0.672144 0.028367 0.756071
O O17 0.000000 0.500000 0.278261
#
# Coordination Sequence:
#
# PCOD9376907 Si02
#       8
#     8   8   8   8   8   8   8   8
#     4  11  25  48  75 118 153 215 282 348 429 521
#     4   9  23  46  75 115 155 216 281 347 420 507
#     4  11  24  44  79 114 161 211 274 347 427 498
#     4  10  24  43  78 123 165 216 284 357 440 509
#     4  11  25  46  77 111 160 223 279 338 434 521
#     4  10  24  49  78 107 160 216 274 351 412 517
#     4  10  21  45  78 117 158 220 283 357 424 497
#     4  10  22  41  76 113 163 201 274 358 423 490
#
# _framework density 26.163443999999998
#
# number of rings (size 3 to 8) (size 9 to 14) (size 15 to 20)
#    0.000    1.750    1.250    0.750    7.000    4.000 
#    0.000    8.750    0.000    0.000    0.000    0.000 
#    0.000    0.000    0.000    0.000    0.000    0.000 
#
# Total GULP energy -178757.892773 kJ/mol
# GULP energy per Si atom -5586.184149 kJ/mol
# Density = 2.610390 g / cm^3
# Si number density = 26.163444 Si / 1000 Ang^3
#
#
#
# Elastic Constant Matrix: (Units=GPa)
#
#
# Indices 1 2 3 4 5 6 
#
# 1 114.5189 44.0382 47.8569 0.0000 0.0000 0.0000
# 2 44.0382 188.4070 88.6180 0.0000 0.0000 0.0000
# 3 47.8569 88.6180 135.1425 0.0000 0.0000 0.0000
# 4 0.0000 0.0000 0.0000 54.4066 0.0000 0.0000
# 5 0.0000 0.0000 0.0000 0.0000 49.7529 0.0000
# 6 0.0000 0.0000 0.0000 0.0000 0.0000 50.0794
#
#
#
# Elastic Compliance Matrix: (Units=1/GPa)
#
#
# Indices 1 2 3 4 5 6 
#
# 1 0.010380 -0.001008 -0.003015 0.000000 0.000000 0.000000
# 2 -0.001008 0.007773 -0.004740 0.000000 0.000000 0.000000
# 3 -0.003015 -0.004740 0.011575 0.000000 0.000000 0.000000
# 4 0.000000 0.000000 0.000000 0.018380 0.000000 0.000000
# 5 0.000000 0.000000 0.000000 0.000000 0.020099 0.000000
# 6 0.000000 0.000000 0.000000 0.000000 0.000000 0.019968
#
#
# Mechanical properties :
#
#
# Convention : Reuss Voigt Hill
#
# Bulk Modulus (GPa) = 81.95119 88.78830 85.36975
# Shear Modulus (GPa) = 45.55062 48.01811 46.78437
#
# Velocity S-wave (km/s) = 4.17706 4.28870 4.23325
# Velocity P-wave (km/s) = 7.39287 7.65073 7.52290
#
# Compressibility (1/GPa) = 0.01220239
#
# Stress axis : x y z
#
# Youngs Moduli (GPa) = 96.34225 128.65507 86.39170
#
# Poissons Ratio (x) = 0.12972 0.26043
# Poissons Ratio (y) = 0.09714 0.40948
# Poissons Ratio (z) = 0.29043 0.60980
#
# Static dielectric constant tensor:
#      x y z
#    x 2.207760 0.000000 0.000000 
#    y 0.000000 2.047570 0.000000 
#    z 0.000000 0.000000 2.024760 
# 
# From -- ./inp_files/4546.got.cif
#   From: 2010.05.17/outbox.cif.g08.bks.cpg/sg45_3_cif.got.tgz:4546.got - 2010.06.03 19:51:22.
