data_PCOD9376963
_publ_section_title
;
Structure prediction by ZEFSAII (Michael W. Deem and Ramdas Pophale) SiO2 
 PCOD9376963
Probable space group: I B A 2
;
_chemical_formula_sum "Si O2"
_cell_formula_units_Z 64
_cell_length_a 14.536863
_cell_length_b 22.785175
_cell_length_c 9.122357
_cell_angle_alpha 90.000000
_cell_angle_beta 90.000000
_cell_angle_gamma 90.000000
_cell_volume 3021.552400
_symmetry_space_group_name_H-M "I B A 2"
_symmetry_group_IT_number 45
_symmetry_cell_setting 'orthorhombic'
loop_
_space_group_symop_operation_xyz
x,y,z
-x,-y,z
-x,y,1/2+z
x,-y,1/2+z
1/2+x,1/2+y,1/2+z
1/2-x,1/2-y,1/2+z
1/2-x,1/2+y,z
1/2+x,1/2-y,z
loop_
_atom_site_type_symbol
_atom_site_label
_atom_site_fract_x
_atom_site_fract_y
_atom_site_fract_z
Si Si1 0.579714 0.611262 0.929830
Si Si2 0.021256 0.580808 0.296226
Si Si3 0.625077 0.939324 0.028825
Si Si4 0.779959 0.023304 0.063295
Si Si5 0.401195 0.414173 0.609654
Si Si6 0.264638 0.826984 0.597268
Si Si7 0.366896 0.119593 0.580482
Si Si8 0.228330 0.205157 0.441266
O O1 0.560150 0.610906 0.759854
O O2 0.630079 0.672581 0.969381
O O3 0.660356 0.564566 0.960478
O O4 0.487803 0.588056 0.004304
O O5 0.092465 0.606134 0.417334
O O6 0.947502 0.553145 0.403543
O O7 0.953758 0.620948 0.191427
O O8 0.079314 0.542376 0.182310
O O9 0.652810 0.872397 0.065445
O O10 0.712546 0.977286 0.987488
O O11 0.706181 0.069215 0.132693
O O12 0.853259 0.977934 0.135629
O O13 0.324101 0.367215 0.562532
O O14 0.255075 0.807411 0.769476
O O15 0.274657 0.772468 0.488752
O O16 0.304276 0.176161 0.549650
#
# Coordination Sequence:
#
# PCOD9376963 Si02
#       8
#     8   8   8   8   8   8   8   8
#     4  10  23  44  63  93 124 162 207 257 308 369
#     4  10  22  39  60  90 128 162 210 245 302 376
#     4  10  22  40  60  92 126 166 203 255 309 369
#     4  10  23  37  66  88 128 164 202 255 313 362
#     4  10  23  44  63  93 124 162 207 257 308 369
#     4  10  22  43  65  89 125 161 207 259 316 368
#     4  10  22  40  60  92 126 166 203 255 309 369
#     4  10  22  43  65  89 125 161 207 259 316 368
#
# _framework density 21.181165
#
# number of rings (size 3 to 8) (size 9 to 14) (size 15 to 20)
#    0.000    2.000    1.250    0.375    5.250    6.000 
#    9.000    0.000    0.000    0.000    0.000    0.000 
#    0.000    0.000    0.000    0.000    0.000    0.000 
#
# Total GULP energy -178257.731343 kJ/mol
# GULP energy per Si atom -5570.554104 kJ/mol
# Density = 2.113296 g / cm^3
# Si number density = 21.181165 Si / 1000 Ang^3
#
#
#
# Elastic Constant Matrix: (Units=GPa)
#
#
# Indices 1 2 3 4 5 6 
#
# 1 105.3828 28.1816 34.9832 -0.0001 0.0000 0.0000
# 2 28.1816 114.6123 22.7250 0.0000 0.0000 0.0000
# 3 34.9832 22.7250 65.9746 -0.0002 0.0000 0.0000
# 4 -0.0001 0.0000 -0.0002 18.6417 0.0000 0.0000
# 5 0.0000 0.0000 0.0000 0.0000 12.5802 0.0000
# 6 0.0000 0.0000 0.0000 0.0000 0.0000 15.2783
#
#
#
# Elastic Compliance Matrix: (Units=1/GPa)
#
#
# Indices 1 2 3 4 5 6 
#
# 1 0.011849 -0.001790 -0.005666 0.000000 0.000000 0.000000
# 2 -0.001790 0.009635 -0.002370 0.000000 0.000000 0.000000
# 3 -0.005666 -0.002370 0.018978 0.000000 0.000000 0.000000
# 4 0.000000 0.000000 0.000000 0.053643 0.000000 0.000000
# 5 0.000000 0.000000 0.000000 0.000000 0.079490 0.000000
# 6 0.000000 0.000000 0.000000 0.000000 0.000000 0.065452
#
#
# Mechanical properties :
#
#
# Convention : Reuss Voigt Hill
#
# Bulk Modulus (GPa) = 48.05346 50.86103 49.45724
# Shear Modulus (GPa) = 18.82273 22.63871 20.73072
#
# Velocity S-wave (km/s) = 2.98426 3.27282 3.13187
# Velocity P-wave (km/s) = 5.88308 6.19244 6.03974
#
# Compressibility (1/GPa) = 0.02081016
#
# Stress axis : x y z
#
# Youngs Moduli (GPa) = 84.39589 103.78783 52.69206
#
# Poissons Ratio (x) = 0.18578 0.29857
# Poissons Ratio (y) = 0.15107 0.12486
# Poissons Ratio (z) = 0.47822 0.24594
#
# Static dielectric constant tensor:
#      x y z
#    x 1.844360 0.000000 0.000000 
#    y 0.000000 1.794380 0.000000 
#    z 0.000000 0.000000 1.772110 
# 
# From -- ./inp_files/1932.got.cif
#   From: 2010.05.17/outbox.cif.g08.bks.cpg/sg45_1_cif.got.tgz:1932.got - 2010.06.03 19:51:22.
