data_PCOD9376690
_publ_section_title
;
Structure prediction by ZEFSAII (Michael W. Deem and Ramdas Pophale) SiO2 
 PCOD9376690
Probable space group: I B A 2
;
_chemical_formula_sum "Si O2"
_cell_formula_units_Z 56
_cell_length_a 5.411474
_cell_length_b 28.843565
_cell_length_c 14.901814
_cell_angle_alpha 90.000000
_cell_angle_beta 90.000000
_cell_angle_gamma 90.000000
_cell_volume 2325.967551
_symmetry_space_group_name_H-M "I B A 2"
_symmetry_group_IT_number 45
_symmetry_cell_setting 'orthorhombic'
loop_
_space_group_symop_operation_xyz
x,y,z
-x,-y,z
-x,y,1/2+z
x,-y,1/2+z
1/2+x,1/2+y,1/2+z
1/2-x,1/2-y,1/2+z
1/2-x,1/2+y,z
1/2+x,1/2-y,z
loop_
_atom_site_type_symbol
_atom_site_label
_atom_site_fract_x
_atom_site_fract_y
_atom_site_fract_z
Si Si1 0.588782 0.639922 0.572610
Si Si2 0.177924 0.737432 0.253925
Si Si3 0.680519 0.357461 0.267390
Si Si4 0.253444 0.971685 0.225447
Si Si5 0.303474 0.685331 0.903227
Si Si6 0.397864 0.916148 0.048462
Si Si7 0.954200 0.589543 0.362301
O O1 0.522753 0.641589 0.677460
O O2 0.638721 0.684778 0.509415
O O3 0.350064 0.614205 0.531140
O O4 0.850837 0.611751 0.575293
O O5 0.443924 0.740083 0.208110
O O6 0.118356 0.683209 0.251111
O O7 0.237915 0.766497 0.347698
O O8 0.532886 0.335998 0.349619
O O9 0.818488 0.403557 0.294799
O O10 0.319893 0.949788 0.128818
O O11 0.238716 0.932854 0.303707
O O12 0.500000 0.000000 0.251742
O O13 0.000000 0.000000 0.219836
O O14 0.111608 0.642234 0.893982
O O15 0.472697 0.937249 0.952098
#
# Coordination Sequence:
#
# PCOD9376690 Si02
#       7
#     8   8   8   8   8   8   8
#     4  11  23  38  71 101 131 188 242 283 347 428
#     4  10  21  37  60  93 139 182 224 287 347 390
#     4  11  21  40  69  99 141 188 241 289 352 419
#     4  12  28  47  73 106 143 182 233 305 363 434
#     4  10  22  41  66 100 141 185 236 290 348 415
#     4  11  24  45  70 103 137 181 233 291 355 427
#     4  11  23  44  75 100 138 192 237 285 359 442
#
# _framework density 24.076004000000001
#
# number of rings (size 3 to 8) (size 9 to 14) (size 15 to 20)
#    0.000    1.143    4.286    1.714    2.000    0.571 
#    0.000    7.143    0.000    0.000    0.000    0.000 
#    0.000    0.000    0.000    0.000    0.000    0.000 
#
# Total GULP energy -155980.225019 kJ/mol
# GULP energy per Si atom -5570.722322 kJ/mol
# Density = 2.402121 g / cm^3
# Si number density = 24.076004 Si / 1000 Ang^3
#
#
#
# Elastic Constant Matrix: (Units=GPa)
#
#
# Indices 1 2 3 4 5 6 
#
# 1 122.0144 22.7414 17.1951 0.0000 0.0000 0.0000
# 2 22.7414 51.5825 32.0046 0.0000 0.0000 0.0000
# 3 17.1951 32.0046 139.9646 0.0000 0.0000 0.0000
# 4 0.0000 0.0000 0.0000 33.0514 0.0000 0.0000
# 5 0.0000 0.0000 0.0000 0.0000 25.9946 0.0000
# 6 0.0000 0.0000 0.0000 0.0000 0.0000 39.9866
#
#
#
# Elastic Compliance Matrix: (Units=1/GPa)
#
#
# Indices 1 2 3 4 5 6 
#
# 1 0.008936 -0.003797 -0.000230 0.000000 0.000000 0.000000
# 2 -0.003797 0.024205 -0.005068 0.000000 0.000000 0.000000
# 3 -0.000230 -0.005068 0.008332 0.000000 0.000000 0.000000
# 4 0.000000 0.000000 0.000000 0.030256 0.000000 0.000000
# 5 0.000000 0.000000 0.000000 0.000000 0.038470 0.000000
# 6 0.000000 0.000000 0.000000 0.000000 0.000000 0.025008
#
#
# Mechanical properties :
#
#
# Convention : Reuss Voigt Hill
#
# Bulk Modulus (GPa) = 42.95020 50.82707 46.88863
# Shear Modulus (GPa) = 31.02555 35.91455 33.47005
#
# Velocity S-wave (km/s) = 3.59367 3.86646 3.73256
# Velocity P-wave (km/s) = 5.92431 6.41012 6.17200
#
# Compressibility (1/GPa) = 0.02328278
#
# Stress axis : x y z
#
# Youngs Moduli (GPa) = 111.90909 41.31350 120.02212
#
# Poissons Ratio (x) = 0.15687 0.02755
# Poissons Ratio (y) = 0.42494 0.60831
# Poissons Ratio (z) = 0.02569 0.20939
#
# Static dielectric constant tensor:
#      x y z
#    x 1.979690 0.000000 0.000000 
#    y 0.000000 2.124820 0.000000 
#    z 0.000000 0.000000 1.999520 
# 
# From -- ./inp_files/5264.got.cif
#   From: 2010.05.17/outbox.cif.g08.bks.cpg/sg45_3_cif.got.tgz:5264.got - 2010.06.03 19:51:22.
