data_PCOD9376279
_publ_section_title
;
Structure prediction by ZEFSAII (Michael W. Deem and Ramdas Pophale) SiO2 
 PCOD9376279
Probable space group: I B A 2
;
_chemical_formula_sum "Si O2"
_cell_formula_units_Z 36
_cell_length_a 5.136240
_cell_length_b 10.330630
_cell_length_c 25.787769
_cell_angle_alpha 90.000000
_cell_angle_beta 90.000000
_cell_angle_gamma 90.000000
_cell_volume 1368.314368
_symmetry_space_group_name_H-M "I B A 2"
_symmetry_group_IT_number 45
_symmetry_cell_setting 'orthorhombic'
loop_
_space_group_symop_operation_xyz
x,y,z
-x,-y,z
-x,y,1/2+z
x,-y,1/2+z
1/2+x,1/2+y,1/2+z
1/2-x,1/2-y,1/2+z
1/2-x,1/2+y,z
1/2+x,1/2-y,z
loop_
_atom_site_type_symbol
_atom_site_label
_atom_site_fract_x
_atom_site_fract_y
_atom_site_fract_z
Si Si1 0.623042 0.678699 0.218330
Si Si2 0.500000 0.000000 0.423748
Si Si3 0.786880 0.660907 0.114899
Si Si4 0.195044 0.839747 0.003575
Si Si5 0.256822 0.922604 0.328748
O O1 0.319085 0.700727 0.211255
O O2 0.729079 0.593328 0.170120
O O3 0.659328 0.654455 0.279298
O O4 0.720679 0.938199 0.459056
O O5 0.390422 0.889007 0.383836
O O6 0.572087 0.776757 0.113690
O O7 0.738339 0.593892 0.059926
O O8 0.410834 0.724013 0.000412
O O9 0.500000 0.000000 0.304343
O O10 0.000000 0.000000 0.344652
#
# Coordination Sequence:
#
# PCOD9376279 Si02
#       5
#     8   4   8   8   8
#     4  10  19  35  62  84 110 150 192 239 298 355
#     4  10  26  40  60  86 124 156 206 252 278 364
#     4   8  16  33  56  84 111 140 186 238 285 352
#     4  10  22  39  63  87 117 158 196 244 304 347
#     4  10  23  39  52  79 123 148 189 249 286 335
#
# _framework density 26.309744999999999
#
# number of rings (size 3 to 8) (size 9 to 14) (size 15 to 20)
#    0.667    1.778    0.000    1.333    3.111    1.778 
#    2.000    0.000    0.000    0.000    0.000    0.000 
#    0.000    0.000    0.000    0.000    0.000    0.000 
#
# Total GULP energy -100290.637758 kJ/mol
# GULP energy per Si atom -5571.702098 kJ/mol
# Density = 2.624986 g / cm^3
# Si number density = 26.309745 Si / 1000 Ang^3
#
#
#
# Elastic Constant Matrix: (Units=GPa)
#
#
# Indices 1 2 3 4 5 6 
#
# 1 143.9267 27.5527 10.2782 0.0000 0.0000 0.0000
# 2 27.5527 37.2454 29.2530 0.0000 0.0000 0.0000
# 3 10.2782 29.2530 245.8630 0.0000 0.0000 0.0000
# 4 0.0000 0.0000 0.0000 41.3929 0.0000 0.0000
# 5 0.0000 0.0000 0.0000 0.0000 -24.5362 0.0000
# 6 0.0000 0.0000 0.0000 0.0000 0.0000 36.8615
#
#
#
# Elastic Compliance Matrix: (Units=1/GPa)
#
#
# Indices 1 2 3 4 5 6 
#
# 1 0.008132 -0.006342 0.000415 0.000000 0.000000 0.000000
# 2 -0.006342 0.034562 -0.003847 0.000000 0.000000 0.000000
# 3 0.000415 -0.003847 0.004508 0.000000 0.000000 0.000000
# 4 0.000000 0.000000 0.000000 0.024159 0.000000 0.000000
# 5 0.000000 0.000000 0.000000 0.000000 -0.040756 0.000000
# 6 0.000000 0.000000 0.000000 0.000000 0.000000 0.027129
#
#
# Mechanical properties :
#
#
# Convention : Reuss Voigt Hill
#
# Bulk Modulus (GPa) = 36.16163 62.35585 49.25874
# Shear Modulus (GPa) = 57.80395 34.74039 46.27217
#
# Velocity S-wave (km/s) = 4.69236 3.63773 4.19829
# Velocity P-wave (km/s) = 6.56750 6.43399 6.50109
#
# Compressibility (1/GPa) = 0.02765362
#
# Stress axis : x y z
#
# Youngs Moduli (GPa) = 122.96513 28.93366 221.84235
#
# Poissons Ratio (x) = 0.18349 -0.09197
# Poissons Ratio (y) = 0.77980 0.85345
# Poissons Ratio (z) = -0.05098 0.11131
#
# Static dielectric constant tensor:
#      x y z
#    x 1.976190 0.000000 0.000000 
#    y 0.000000 2.226310 0.000000 
#    z 0.000000 0.000000 2.177590 
# 
# From -- ./inp_files/8609.got.cif
#   From: 2010.05.17/outbox.cif.g08.bks.cpg/sg45_5_cif.got.tgz:8609.got - 2010.06.03 19:51:22.
