data_PCOD9376470
_publ_section_title
;
Structure prediction by ZEFSAII (Michael W. Deem and Ramdas Pophale) SiO2 
 PCOD9376470
Probable space group: I B A 2
;
_chemical_formula_sum "Si O2"
_cell_formula_units_Z 60
_cell_length_a 5.193806
_cell_length_b 27.121099
_cell_length_c 21.098289
_cell_angle_alpha 90.000000
_cell_angle_beta 90.000000
_cell_angle_gamma 90.000000
_cell_volume 2971.941419
_symmetry_space_group_name_H-M "I B A 2"
_symmetry_group_IT_number 45
_symmetry_cell_setting 'orthorhombic'
loop_
_space_group_symop_operation_xyz
x,y,z
-x,-y,z
-x,y,1/2+z
x,-y,1/2+z
1/2+x,1/2+y,1/2+z
1/2-x,1/2-y,1/2+z
1/2-x,1/2+y,z
1/2+x,1/2-y,z
loop_
_atom_site_type_symbol
_atom_site_label
_atom_site_fract_x
_atom_site_fract_y
_atom_site_fract_z
Si Si1 0.657437 0.936135 0.054770
Si Si2 0.581654 0.716266 0.214240
Si Si3 0.866318 0.886889 0.512113
Si Si4 0.107579 0.056146 0.386239
Si Si5 0.889718 0.782255 0.564616
Si Si6 0.017096 0.555513 0.697407
Si Si7 0.500000 0.000000 0.449040
Si Si8 0.019269 0.893958 0.752188
O O1 0.932301 0.910519 0.061564
O O2 0.548633 0.949321 0.123228
O O3 0.427621 0.902426 0.026067
O O4 0.696640 0.979433 0.002552
O O5 0.345480 0.753908 0.226691
O O6 0.590256 0.703037 0.139005
O O7 0.538805 0.664411 0.249630
O O8 0.957637 0.908486 0.444976
O O9 0.897945 0.829194 0.519960
O O10 0.405388 0.043178 0.403036
O O11 0.032844 0.083194 0.322446
O O12 0.000000 0.000000 0.386210
O O13 0.624735 0.754203 0.554051
O O14 0.294048 0.578144 0.713517
O O15 0.000000 0.500000 0.725334
O O16 0.797461 0.591874 0.723848
#
# Coordination Sequence:
#
# PCOD9376470 Si02
#       8
#     8   8   8   8   8   8   4   8
#     4  11  21  38  62  89 127 158 216 261 323 371
#     4  10  21  42  65  90 123 163 212 276 340 385
#     4  11  23  38  64  94 122 168 213 261 315 389
#     4  11  24  43  64  88 134 180 218 255 306 385
#     4  10  20  37  63  91 124 156 202 269 336 384
#     4  12  24  40  60  96 135 168 209 275 325 385
#     4  10  22  40  62  88 122 176 214 254 312 376
#     4  12  27  41  65  95 129 177 224 261 321 399
#
# _framework density 20.188821000000001
#
# number of rings (size 3 to 8) (size 9 to 14) (size 15 to 20)
#    0.000    1.067    2.000    5.200    2.800    2.133 
#    0.000    1.333    0.000    0.000    0.000    0.000 
#    0.000    0.000    0.000    0.000    0.000    0.000 
#
# Total GULP energy -167381.399761 kJ/mol
# GULP energy per Si atom -5579.379992 kJ/mol
# Density = 2.014287 g / cm^3
# Si number density = 20.188821 Si / 1000 Ang^3
#
#
#
# Elastic Constant Matrix: (Units=GPa)
#
#
# Indices 1 2 3 4 5 6 
#
# 1 107.3854 34.4686 19.8686 0.0000 0.0000 0.0000
# 2 34.4686 145.4897 56.3511 0.0000 0.0000 0.0000
# 3 19.8686 56.3511 102.1848 0.0000 0.0000 0.0000
# 4 0.0000 0.0000 0.0000 33.6944 0.0000 0.0000
# 5 0.0000 0.0000 0.0000 0.0000 15.6486 0.0000
# 6 0.0000 0.0000 0.0000 0.0000 0.0000 13.3818
#
#
#
# Elastic Compliance Matrix: (Units=1/GPa)
#
#
# Indices 1 2 3 4 5 6 
#
# 1 0.010133 -0.002082 -0.000822 0.000000 0.000000 0.000000
# 2 -0.002082 0.009168 -0.004651 0.000000 0.000000 0.000000
# 3 -0.000822 -0.004651 0.012511 0.000000 0.000000 0.000000
# 4 0.000000 0.000000 0.000000 0.029678 0.000000 0.000000
# 5 0.000000 0.000000 0.000000 0.000000 0.063903 0.000000
# 6 0.000000 0.000000 0.000000 0.000000 0.000000 0.074728
#
#
# Mechanical properties :
#
#
# Convention : Reuss Voigt Hill
#
# Bulk Modulus (GPa) = 59.87538 64.04848 61.96193
# Shear Modulus (GPa) = 22.64504 28.83643 25.74073
#
# Velocity S-wave (km/s) = 3.35276 3.78343 3.57459
# Velocity P-wave (km/s) = 6.68656 7.13298 6.91337
#
# Compressibility (1/GPa) = 0.01670136
#
# Stress axis : x y z
#
# Youngs Moduli (GPa) = 98.69063 109.07421 79.93062
#
# Poissons Ratio (x) = 0.22712 0.06569
# Poissons Ratio (y) = 0.20550 0.37176
# Poissons Ratio (z) = 0.08111 0.50730
#
# Static dielectric constant tensor:
#      x y z
#    x 1.798470 0.000000 0.000000 
#    y 0.000000 1.727190 0.000000 
#    z 0.000000 0.000000 1.713530 
# 
# From -- ./inp_files/8720.got.cif
#   From: 2010.05.17/outbox.cif.g08.bks.cpg/sg45_5_cif.got.tgz:8720.got - 2010.06.03 19:51:22.
