data_PCOD9376528
_publ_section_title
;
Structure prediction by ZEFSAII (Michael W. Deem and Ramdas Pophale) SiO2 
 PCOD9376528
Probable space group: I B A 2
;
_chemical_formula_sum "Si O2"
_cell_formula_units_Z 44
_cell_length_a 14.616573
_cell_length_b 8.733761
_cell_length_c 12.913098
_cell_angle_alpha 90.000000
_cell_angle_beta 90.000000
_cell_angle_gamma 90.000000
_cell_volume 1648.455812
_symmetry_space_group_name_H-M "I B A 2"
_symmetry_group_IT_number 45
_symmetry_cell_setting 'orthorhombic'
loop_
_space_group_symop_operation_xyz
x,y,z
-x,-y,z
-x,y,1/2+z
x,-y,1/2+z
1/2+x,1/2+y,1/2+z
1/2-x,1/2-y,1/2+z
1/2-x,1/2+y,z
1/2+x,1/2-y,z
loop_
_atom_site_type_symbol
_atom_site_label
_atom_site_fract_x
_atom_site_fract_y
_atom_site_fract_z
Si Si1 0.573153 0.621539 0.641230
Si Si2 0.500000 0.500000 0.452065
Si Si3 0.402841 0.957470 0.969415
Si Si4 0.826685 0.660799 0.777907
Si Si5 0.869860 0.769554 0.350288
Si Si6 0.752467 0.081382 0.136379
O O1 0.500000 0.500000 0.686038
O O2 0.529495 0.641042 0.528340
O O3 0.589744 0.739325 0.732847
O O4 0.670085 0.544857 0.613658
O O5 0.583315 0.425618 0.391961
O O6 0.406623 0.854388 0.862936
O O7 0.621259 0.875141 0.923633
O O8 0.677773 0.898635 0.545537
O O9 0.500000 0.000000 0.021793
O O10 0.736971 0.698132 0.843207
O O11 0.815609 0.781368 0.683171
O O12 0.805616 0.497692 0.727506
#
# Coordination Sequence:
#
# PCOD9376528 Si02
#       6
#     8   4   8   8   8   8
#     4   9  22  41  75 114 148 209 266 332 398 510
#     4  10  20  38  76 112 154 200 268 334 396 502
#     4  12  30  48  79 119 164 211 277 364 423 507
#     4  11  26  50  76 109 160 213 264 340 414 516
#     4  11  23  48  72 117 156 208 279 336 417 504
#     4  11  26  48  78 111 160 215 267 336 428 507
#
# _framework density 26.691645000000001
#
# number of rings (size 3 to 8) (size 9 to 14) (size 15 to 20)
#    0.545    0.727    2.727    1.091    7.636    3.636 
#    0.000    0.000    0.000    0.000    0.000    0.000 
#    0.000    0.000    0.000    0.000    0.000    0.000 
#
# Total GULP energy -122773.259560 kJ/mol
# GULP energy per Si atom -5580.602707 kJ/mol
# Density = 2.663089 g / cm^3
# Si number density = 26.691645 Si / 1000 Ang^3
#
#
#
# Elastic Constant Matrix: (Units=GPa)
#
#
# Indices 1 2 3 4 5 6 
#
# 1 98.3702 9.3183 37.4164 0.0000 0.0000 0.0000
# 2 9.3183 102.0119 34.4683 0.0000 0.0000 0.0000
# 3 37.4164 34.4683 100.7193 0.0000 0.0000 0.0000
# 4 0.0000 0.0000 0.0000 38.8806 0.0000 0.0000
# 5 0.0000 0.0000 0.0000 0.0000 36.1508 0.0000
# 6 0.0000 0.0000 0.0000 0.0000 0.0000 42.8031
#
#
#
# Elastic Compliance Matrix: (Units=1/GPa)
#
#
# Indices 1 2 3 4 5 6 
#
# 1 0.011857 0.000458 -0.004562 0.000000 0.000000 0.000000
# 2 0.000458 0.011102 -0.003970 0.000000 0.000000 0.000000
# 3 -0.004562 -0.003970 0.012982 0.000000 0.000000 0.000000
# 4 0.000000 0.000000 0.000000 0.025720 0.000000 0.000000
# 5 0.000000 0.000000 0.000000 0.000000 0.027662 0.000000
# 6 0.000000 0.000000 0.000000 0.000000 0.000000 0.023363
#
#
# Mechanical properties :
#
#
# Convention : Reuss Voigt Hill
#
# Bulk Modulus (GPa) = 50.51778 51.50084 51.00931
# Shear Modulus (GPa) = 36.91931 38.22678 37.57305
#
# Velocity S-wave (km/s) = 3.72315 3.78850 3.75596
# Velocity P-wave (km/s) = 6.11964 6.20271 6.16131
#
# Compressibility (1/GPa) = 0.01979501
#
# Stress axis : x y z
#
# Youngs Moduli (GPa) = 84.33558 90.07218 77.03135
#
# Poissons Ratio (x) = -0.04127 0.35140
# Poissons Ratio (y) = -0.03864 0.30579
# Poissons Ratio (z) = 0.38472 0.35755
#
# Static dielectric constant tensor:
#      x y z
#    x 2.052730 0.000000 0.000000 
#    y 0.000000 2.174130 0.000000 
#    z 0.000000 0.000000 2.177620 
# 
# From -- ./inp_files/6083.got.cif
#   From: 2010.05.17/outbox.cif.g08.bks.cpg/sg45_4_cif.got.tgz:6083.got - 2010.06.03 19:51:22.
