data_PCOD9376186
_publ_section_title
;
Structure prediction by ZEFSAII (Michael W. Deem and Ramdas Pophale) SiO2 
 PCOD9376186
Probable space group: I B A 2
;
_chemical_formula_sum "Si O2"
_cell_formula_units_Z 40
_cell_length_a 11.192498
_cell_length_b 12.023765
_cell_length_c 11.865729
_cell_angle_alpha 90.000000
_cell_angle_beta 90.000000
_cell_angle_gamma 90.000000
_cell_volume 1596.841939
_symmetry_space_group_name_H-M "I B A 2"
_symmetry_group_IT_number 45
_symmetry_cell_setting 'orthorhombic'
loop_
_space_group_symop_operation_xyz
x,y,z
-x,-y,z
-x,y,1/2+z
x,-y,1/2+z
1/2+x,1/2+y,1/2+z
1/2-x,1/2-y,1/2+z
1/2-x,1/2+y,z
1/2+x,1/2-y,z
loop_
_atom_site_type_symbol
_atom_site_label
_atom_site_fract_x
_atom_site_fract_y
_atom_site_fract_z
Si Si1 0.116237 0.352680 0.825880
Si Si2 0.557494 0.669523 0.154216
Si Si3 0.500000 0.000000 0.491134
Si Si4 0.000000 0.000000 0.825558
Si Si5 0.227554 0.507964 0.146232
Si Si6 0.137612 0.156043 0.978600
O O1 0.076106 0.284762 0.716251
O O2 0.008592 0.398488 0.902250
O O3 0.190264 0.453555 0.771494
O O4 0.180187 0.259539 0.903893
O O5 0.472382 0.600329 0.240558
O O6 0.676007 0.592578 0.145221
O O7 0.488954 0.682361 0.038121
O O8 0.388480 0.021557 0.572661
O O9 0.104137 0.049867 0.901921
O O10 0.277464 0.613623 0.076254
#
# Coordination Sequence:
#
# PCOD9376186 Si02
#       6
#     8   8   4   4   8   8
#     4  11  29  46  76 110 154 207 247 317 391 468
#     4  11  23  47  79 110 148 188 269 320 384 452
#     4  12  30  52  68 102 166 206 250 306 408 452
#     4  10  18  40  72 116 136 180 242 328 370 432
#     4  12  26  49  72 110 155 202 253 325 375 479
#     4  11  23  45  77 116 140 196 254 327 382 450
#
# _framework density 25.049441000000002
#
# number of rings (size 3 to 8) (size 9 to 14) (size 15 to 20)
#    0.000    0.800    4.000    1.800    8.400    1.600 
#    0.000    0.000    0.000    0.000    0.000    0.000 
#    0.000    0.000    0.000    0.000    0.000    0.000 
#
# Total GULP energy -111818.316127 kJ/mol
# GULP energy per Si atom -5590.915806 kJ/mol
# Density = 2.499243 g / cm^3
# Si number density = 25.049441 Si / 1000 Ang^3
#
#
#
# Elastic Constant Matrix: (Units=GPa)
#
#
# Indices 1 2 3 4 5 6 
#
# 1 91.6524 37.2737 65.0166 0.0000 0.0000 0.0000
# 2 37.2737 94.1202 46.4347 0.0000 0.0000 0.0000
# 3 65.0166 46.4347 134.6043 0.0000 0.0000 0.0000
# 4 0.0000 0.0000 0.0000 62.4762 0.0000 0.0000
# 5 0.0000 0.0000 0.0000 0.0000 39.6748 0.0000
# 6 0.0000 0.0000 0.0000 0.0000 0.0000 27.4884
#
#
#
# Elastic Compliance Matrix: (Units=1/GPa)
#
#
# Indices 1 2 3 4 5 6 
#
# 1 0.017414 -0.003310 -0.007269 0.000000 0.000000 0.000000
# 2 -0.003310 0.013433 -0.003035 0.000000 0.000000 0.000000
# 3 -0.007269 -0.003035 0.011987 0.000000 0.000000 0.000000
# 4 0.000000 0.000000 0.000000 0.016006 0.000000 0.000000
# 5 0.000000 0.000000 0.000000 0.000000 0.025205 0.000000
# 6 0.000000 0.000000 0.000000 0.000000 0.000000 0.036379
#
#
# Mechanical properties :
#
#
# Convention : Reuss Voigt Hill
#
# Bulk Modulus (GPa) = 64.08124 68.64745 66.36435
# Shear Modulus (GPa) = 32.71084 37.37133 35.04108
#
# Velocity S-wave (km/s) = 3.61758 3.86671 3.74421
# Velocity P-wave (km/s) = 6.56404 6.88473 6.72629
#
# Compressibility (1/GPa) = 0.01560519
#
# Stress axis : x y z
#
# Youngs Moduli (GPa) = 57.42656 74.44379 83.42035
#
# Poissons Ratio (x) = 0.24640 0.60641
# Poissons Ratio (y) = 0.19007 0.25320
# Poissons Ratio (z) = 0.41745 0.22596
#
# Static dielectric constant tensor:
#      x y z
#    x 2.080360 0.000000 0.000000 
#    y 0.000000 2.008180 0.000000 
#    z 0.000000 0.000000 1.970060 
# 
# From -- ./inp_files/3606.got.cif
#   From: 2010.05.17/outbox.cif.g08.bks.cpg/sg45_2_cif.got.tgz:3606.got - 2010.06.03 19:51:22.
