data_PCOD9376737
_publ_section_title
;
Structure prediction by ZEFSAII (Michael W. Deem and Ramdas Pophale) SiO2 
 PCOD9376737
Probable space group: I B A 2
;
_chemical_formula_sum "Si O2"
_cell_formula_units_Z 40
_cell_length_a 19.637059
_cell_length_b 9.548456
_cell_length_c 8.771273
_cell_angle_alpha 90.000000
_cell_angle_beta 90.000000
_cell_angle_gamma 90.000000
_cell_volume 1644.645210
_symmetry_space_group_name_H-M "I B A 2"
_symmetry_group_IT_number 45
_symmetry_cell_setting 'orthorhombic'
loop_
_space_group_symop_operation_xyz
x,y,z
-x,-y,z
-x,y,1/2+z
x,-y,1/2+z
1/2+x,1/2+y,1/2+z
1/2-x,1/2-y,1/2+z
1/2-x,1/2+y,z
1/2+x,1/2-y,z
loop_
_atom_site_type_symbol
_atom_site_label
_atom_site_fract_x
_atom_site_fract_y
_atom_site_fract_z
Si Si1 0.094070 0.986097 0.209940
Si Si2 0.959060 0.203842 0.957073
Si Si3 0.224068 0.400592 0.094548
Si Si4 0.617459 0.293811 0.956450
Si Si5 0.314788 0.177235 0.943794
O O1 0.139702 0.879847 0.307615
O O2 0.059655 0.085772 0.334043
O O3 0.047411 0.880598 0.114426
O O4 0.125718 0.095586 0.093608
O O5 0.897498 0.314959 0.948151
O O6 0.037578 0.246048 0.941188
O O7 0.209277 0.358309 0.270887
O O8 0.161639 0.337995 0.995541
O O9 0.287937 0.326260 0.009623
O O10 0.217638 0.564969 0.060341
#
# Coordination Sequence:
#
# PCOD9376737 Si02
#       5
#     8   8   8   8   8
#     4  10  21  38  70 112 144 180 229 288 349 410
#     4  11  22  41  71 106 143 184 234 288 347 413
#     4  12  30  51  73 103 141 188 236 291 357 423
#     4  11  22  41  71 106 143 184 234 288 347 413
#     4  12  30  51  73 103 141 188 236 291 357 423
#
# _framework density 24.321352999999998
#
# number of rings (size 3 to 8) (size 9 to 14) (size 15 to 20)
#    0.000    0.800    2.000    6.000   11.200    0.800 
#    0.000    2.000    0.000    0.000    0.000    0.000 
#    0.000    0.000    0.000    0.000    0.000    0.000 
#
# Total GULP energy -111899.600418 kJ/mol
# GULP energy per Si atom -5594.980021 kJ/mol
# Density = 2.426600 g / cm^3
# Si number density = 24.321353 Si / 1000 Ang^3
#
#
#
# Elastic Constant Matrix: (Units=GPa)
#
#
# Indices 1 2 3 4 5 6 
#
# 1 166.8546 20.0383 10.5726 0.0000 0.0000 0.0000
# 2 20.0383 64.1885 7.5635 0.0000 0.0000 0.0000
# 3 10.5726 7.5635 144.0148 0.0000 0.0000 0.0000
# 4 0.0000 0.0000 0.0000 31.6208 0.0000 0.0000
# 5 0.0000 0.0000 0.0000 0.0000 24.9385 0.0000
# 6 0.0000 0.0000 0.0000 0.0000 0.0000 40.6483
#
#
#
# Elastic Compliance Matrix: (Units=1/GPa)
#
#
# Indices 1 2 3 4 5 6 
#
# 1 0.006245 -0.001907 -0.000358 0.000000 0.000000 0.000000
# 2 -0.001907 0.016259 -0.000714 0.000000 0.000000 0.000000
# 3 -0.000358 -0.000714 0.007008 0.000000 0.000000 0.000000
# 4 0.000000 0.000000 0.000000 0.031625 0.000000 0.000000
# 5 0.000000 0.000000 0.000000 0.000000 0.040099 0.000000
# 6 0.000000 0.000000 0.000000 0.000000 0.000000 0.024601
#
#
# Mechanical properties :
#
#
# Convention : Reuss Voigt Hill
#
# Bulk Modulus (GPa) = 42.45887 50.15629 46.30758
# Shear Modulus (GPa) = 35.80492 41.90042 38.85267
#
# Velocity S-wave (km/s) = 3.84104 4.15515 4.00117
# Velocity P-wave (km/s) = 6.09645 6.60964 6.35823
#
# Compressibility (1/GPa) = 0.02355221
#
# Stress axis : x y z
#
# Youngs Moduli (GPa) = 160.12793 61.50562 142.70369
#
# Poissons Ratio (x) = 0.11731 0.05113
# Poissons Ratio (y) = 0.30542 0.10187
# Poissons Ratio (z) = 0.05737 0.04391
#
# Static dielectric constant tensor:
#      x y z
#    x 2.082570 0.000000 0.000000 
#    y 0.000000 1.880730 0.000000 
#    z 0.000000 0.000000 1.937290 
# 
# From -- ./inp_files/2455.got.cif
#   From: 2010.05.17/outbox.cif.g08.bks.cpg/sg45_2_cif.got.tgz:2455.got - 2010.06.03 19:51:22.
