data_PCOD9376525
_publ_section_title
;
Structure prediction by ZEFSAII (Michael W. Deem and Ramdas Pophale) SiO2 
 PCOD9376525
Probable space group: I B A 2
;
_chemical_formula_sum "Si O2"
_cell_formula_units_Z 48
_cell_length_a 12.636803
_cell_length_b 13.191843
_cell_length_c 11.775700
_cell_angle_alpha 90.000000
_cell_angle_beta 90.000000
_cell_angle_gamma 90.000000
_cell_volume 1963.041234
_symmetry_space_group_name_H-M "I B A 2"
_symmetry_group_IT_number 45
_symmetry_cell_setting 'orthorhombic'
loop_
_space_group_symop_operation_xyz
x,y,z
-x,-y,z
-x,y,1/2+z
x,-y,1/2+z
1/2+x,1/2+y,1/2+z
1/2-x,1/2-y,1/2+z
1/2-x,1/2+y,z
1/2+x,1/2-y,z
loop_
_atom_site_type_symbol
_atom_site_label
_atom_site_fract_x
_atom_site_fract_y
_atom_site_fract_z
Si Si1 0.307589 0.375515 0.490000
Si Si2 0.071103 0.862716 0.770261
Si Si3 0.629747 0.819971 0.618677
Si Si4 0.500000 0.000000 0.168555
Si Si5 0.692786 0.888336 0.205794
Si Si6 0.336781 0.651002 0.731785
Si Si7 0.500000 0.500000 0.472594
O O1 0.352235 0.264265 0.523035
O O2 0.205942 0.390572 0.568419
O O3 0.299255 0.383848 0.356076
O O4 0.397067 0.454398 0.529809
O O5 0.095086 0.746754 0.730183
O O6 0.188138 0.908617 0.748778
O O7 0.040918 0.905295 0.894300
O O8 0.956983 0.884520 0.709623
O O9 0.743890 0.870214 0.642854
O O10 0.543208 0.904600 0.598575
O O11 0.399979 0.037475 0.240950
O O12 0.661380 0.773812 0.236403
#
# Coordination Sequence:
#
# PCOD9376525 Si02
#       7
#     8   8   8   4   8   8   4
#     4   9  21  43  65 103 125 171 223 283 331 396
#     4   9  19  39  65  95 122 167 216 287 324 393
#     4  10  23  42  64  93 141 176 218 273 339 397
#     4  12  24  46  62  98 140 190 216 262 338 416
#     4  10  23  41  63  94 139 179 221 266 345 388
#     4   9  18  43  69  94 127 170 224 280 330 397
#     4  10  20  38  72  98 128 162 244 274 348 396
#
# _framework density 24.451854000000001
#
# number of rings (size 3 to 8) (size 9 to 14) (size 15 to 20)
#    0.000    2.667    1.667    0.000    4.667    2.667 
#   18.000    1.667    0.000    0.000    0.000    0.000 
#    0.000    0.000    0.000    0.000    0.000    0.000 
#
# Total GULP energy -133850.960459 kJ/mol
# GULP energy per Si atom -5577.123352 kJ/mol
# Density = 2.439620 g / cm^3
# Si number density = 24.451854 Si / 1000 Ang^3
#
#
#
# Elastic Constant Matrix: (Units=GPa)
#
#
# Indices 1 2 3 4 5 6 
#
# 1 190.5505 47.1202 22.1563 0.0000 0.0000 0.0000
# 2 47.1202 108.7129 26.4033 0.0000 0.0000 0.0000
# 3 22.1563 26.4033 37.8825 0.0000 0.0000 0.0000
# 4 0.0000 0.0000 0.0000 19.5475 0.0000 0.0000
# 5 0.0000 0.0000 0.0000 0.0000 17.9574 0.0000
# 6 0.0000 0.0000 0.0000 0.0000 0.0000 65.6622
#
#
#
# Elastic Compliance Matrix: (Units=1/GPa)
#
#
# Indices 1 2 3 4 5 6 
#
# 1 0.006007 -0.002107 -0.002045 0.000000 0.000000 0.000000
# 2 -0.002107 0.011812 -0.007000 0.000000 0.000000 0.000000
# 3 -0.002045 -0.007000 0.032472 0.000000 0.000000 0.000000
# 4 0.000000 0.000000 0.000000 0.051158 0.000000 0.000000
# 5 0.000000 0.000000 0.000000 0.000000 0.055687 0.000000
# 6 0.000000 0.000000 0.000000 0.000000 0.000000 0.015229
#
#
# Mechanical properties :
#
#
# Convention : Reuss Voigt Hill
#
# Bulk Modulus (GPa) = 35.73076 58.72283 47.22679
# Shear Modulus (GPa) = 24.50999 36.73114 30.62057
#
# Velocity S-wave (km/s) = 3.16947 3.88000 3.54260
# Velocity P-wave (km/s) = 5.29514 6.64383 6.00745
#
# Compressibility (1/GPa) = 0.02798709
#
# Stress axis : x y z
#
# Youngs Moduli (GPa) = 166.48051 84.65991 30.79540
#
# Poissons Ratio (x) = 0.17837 0.06297
# Poissons Ratio (y) = 0.35077 0.21558
# Poissons Ratio (z) = 0.34039 0.59265
#
# Static dielectric constant tensor:
#      x y z
#    x 1.928350 0.000000 0.000000 
#    y 0.000000 2.009030 0.000000 
#    z 0.000000 0.000000 1.939620 
# 
# From -- ./inp_files/6128.got.cif
#   From: 2010.05.17/outbox.cif.g08.bks.cpg/sg45_4_cif.got.tgz:6128.got - 2010.06.03 19:51:22.
