data_PCOD9376500
_publ_section_title
;
Structure prediction by ZEFSAII (Michael W. Deem and Ramdas Pophale) SiO2 
 PCOD9376500
Probable space group: I B A 2
;
_chemical_formula_sum "Si O2"
_cell_formula_units_Z 32
_cell_length_a 14.016638
_cell_length_b 4.973793
_cell_length_c 18.966054
_cell_angle_alpha 90.000000
_cell_angle_beta 90.000000
_cell_angle_gamma 90.000000
_cell_volume 1322.234689
_symmetry_space_group_name_H-M "I B A 2"
_symmetry_group_IT_number 45
_symmetry_cell_setting 'orthorhombic'
loop_
_space_group_symop_operation_xyz
x,y,z
-x,-y,z
-x,y,1/2+z
x,-y,1/2+z
1/2+x,1/2+y,1/2+z
1/2-x,1/2-y,1/2+z
1/2-x,1/2+y,z
1/2+x,1/2-y,z
loop_
_atom_site_type_symbol
_atom_site_label
_atom_site_fract_x
_atom_site_fract_y
_atom_site_fract_z
Si Si1 0.115108 0.999540 0.224380
Si Si2 0.064992 0.245404 0.004787
Si Si3 0.883635 0.502627 0.139035
Si Si4 0.690527 0.524227 0.379650
O O1 0.145371 0.792232 0.163052
O O2 0.153217 0.926547 0.300873
O O3 0.354662 0.795209 0.200746
O O4 0.000000 0.000000 0.228139
O O5 0.116375 0.119061 0.938015
O O6 0.000000 0.500000 0.984092
O O7 0.137597 0.366083 0.063359
O O8 0.000000 0.000000 0.035437
O O9 0.000000 0.500000 0.137290
O O10 0.717089 0.213315 0.388837
#
# Coordination Sequence:
#
# PCOD9376500 Si02
#       4
#     8   8   8   8
#     4  10  20  38  63  88 115 154 200 247 297 355
#     4  11  22  41  66  91 118 159 206 251 300 360
#     4   9  18  35  63  92 113 142 200 259 296 343
#     4  12  26  42  58  89 130 165 200 247 300 360
#
# _framework density 24.201453999999998
#
# number of rings (size 3 to 8) (size 9 to 14) (size 15 to 20)
#    0.000    1.500    0.000    7.500    0.000    3.000 
#    0.000    7.500    0.000    0.000    0.000    0.000 
#    0.000    0.000    0.000    0.000    0.000    0.000 
#
# Total GULP energy -89578.063593 kJ/mol
# GULP energy per Si atom -5598.628975 kJ/mol
# Density = 2.414637 g / cm^3
# Si number density = 24.201454 Si / 1000 Ang^3
#
#
#
# Elastic Constant Matrix: (Units=GPa)
#
#
# Indices 1 2 3 4 5 6 
#
# 1 60.5349 -2.2059 16.0684 0.0000 0.0000 0.0000
# 2 -2.2059 107.2694 15.9989 0.0000 0.0000 0.0000
# 3 16.0684 15.9989 145.1583 0.0000 0.0000 0.0000
# 4 0.0000 0.0000 0.0000 46.1152 0.0000 0.0000
# 5 0.0000 0.0000 0.0000 0.0000 11.3920 0.0000
# 6 0.0000 0.0000 0.0000 0.0000 0.0000 26.3015
#
#
#
# Elastic Compliance Matrix: (Units=1/GPa)
#
#
# Indices 1 2 3 4 5 6 
#
# 1 0.017063 0.000643 -0.001960 0.000000 0.000000 0.000000
# 2 0.000643 0.009502 -0.001119 0.000000 0.000000 0.000000
# 3 -0.001960 -0.001119 0.007229 0.000000 0.000000 0.000000
# 4 0.000000 0.000000 0.000000 0.021685 0.000000 0.000000
# 5 0.000000 0.000000 0.000000 0.000000 0.087781 0.000000
# 6 0.000000 0.000000 0.000000 0.000000 0.000000 0.038021
#
#
# Mechanical properties :
#
#
# Convention : Reuss Voigt Hill
#
# Bulk Modulus (GPa) = 34.57271 41.40950 37.99110
# Shear Modulus (GPa) = 25.53726 35.63514 30.58620
#
# Velocity S-wave (km/s) = 3.25190 3.84140 3.55888
# Velocity P-wave (km/s) = 5.33069 6.06816 5.71134
#
# Compressibility (1/GPa) = 0.02892455
#
# Stress axis : x y z
#
# Youngs Moduli (GPa) = 58.60626 105.23684 138.32716
#
# Poissons Ratio (x) = -0.06769 0.27108
# Poissons Ratio (y) = -0.03769 0.15472
# Poissons Ratio (z) = 0.11485 0.11771
#
# Static dielectric constant tensor:
#      x y z
#    x 2.006300 0.000000 0.000000 
#    y 0.000000 1.879880 0.000000 
#    z 0.000000 0.000000 1.907130 
# 
# From -- ./inp_files/8591.got.cif
#   From: 2010.05.17/outbox.cif.g08.bks.cpg/sg45_5_cif.got.tgz:8591.got - 2010.06.03 19:51:22.
