data_PCOD9376831
_publ_section_title
;
Structure prediction by ZEFSAII (Michael W. Deem and Ramdas Pophale) SiO2 
 PCOD9376831
Probable space group: I B A 2
;
_chemical_formula_sum "Si O2"
_cell_formula_units_Z 44
_cell_length_a 9.488458
_cell_length_b 21.752722
_cell_length_c 8.790654
_cell_angle_alpha 90.000000
_cell_angle_beta 90.000000
_cell_angle_gamma 90.000000
_cell_volume 1814.389131
_symmetry_space_group_name_H-M "I B A 2"
_symmetry_group_IT_number 45
_symmetry_cell_setting 'orthorhombic'
loop_
_space_group_symop_operation_xyz
x,y,z
-x,-y,z
-x,y,1/2+z
x,-y,1/2+z
1/2+x,1/2+y,1/2+z
1/2-x,1/2-y,1/2+z
1/2-x,1/2+y,z
1/2+x,1/2-y,z
loop_
_atom_site_type_symbol
_atom_site_label
_atom_site_fract_x
_atom_site_fract_y
_atom_site_fract_z
Si Si1 0.218082 0.451610 0.331020
Si Si2 0.411537 0.927477 0.831665
Si Si3 0.327106 0.612356 0.569129
Si Si4 0.086714 0.296317 0.700235
Si Si5 0.000000 0.000000 0.495567
Si Si6 0.143974 0.764247 0.893220
O O1 0.161916 0.514394 0.245626
O O2 0.259016 0.390653 0.235885
O O3 0.360918 0.474407 0.410209
O O4 0.065615 0.438776 0.405103
O O5 0.430178 0.868329 0.727175
O O6 0.299179 0.910208 0.960783
O O7 0.444163 0.559451 0.582818
O O8 0.386996 0.672558 0.487189
O O9 0.130143 0.284942 0.527289
O O10 0.204899 0.273771 0.818863
O O11 0.953427 0.256331 0.753315
#
# Coordination Sequence:
#
# PCOD9376831 Si02
#       6
#     8   8   8   8   4   8
#     4  10  21  41  66  93 133 170 218 286 339 411
#     4   9  23  41  67  96 128 176 235 277 347 412
#     4  10  23  42  62  98 133 173 229 275 352 417
#     4  11  25  48  68 106 137 189 235 293 354 424
#     4  10  22  40  62 102 130 176 212 282 348 412
#     4  11  26  44  72 100 142 183 238 289 353 424
#
# _framework density 24.250586999999999
#
# number of rings (size 3 to 8) (size 9 to 14) (size 15 to 20)
#    0.000    1.818    0.000    1.636   10.182    5.818 
#    9.818    0.000    0.000    0.000    0.000    0.000 
#    0.000    0.000    0.000    0.000    0.000    0.000 
#
# Total GULP energy -122715.987297 kJ/mol
# GULP energy per Si atom -5577.999423 kJ/mol
# Density = 2.419539 g / cm^3
# Si number density = 24.250587 Si / 1000 Ang^3
#
#
#
# Elastic Constant Matrix: (Units=GPa)
#
#
# Indices 1 2 3 4 5 6 
#
# 1 108.2330 31.8208 6.0337 0.0000 0.0000 0.0000
# 2 31.8208 67.8768 -0.6940 0.0001 0.0000 0.0000
# 3 6.0337 -0.6940 50.8430 0.0001 -0.0004 -0.0002
# 4 0.0000 0.0001 0.0001 31.5767 0.0000 0.0000
# 5 0.0000 0.0000 -0.0004 0.0000 20.3015 0.0000
# 6 0.0000 0.0000 -0.0002 0.0000 0.0000 28.8112
#
#
#
# Elastic Compliance Matrix: (Units=1/GPa)
#
#
# Indices 1 2 3 4 5 6 
#
# 1 0.010808 -0.005081 -0.001352 0.000000 0.000000 0.000000
# 2 -0.005081 0.017123 0.000837 0.000000 0.000000 0.000000
# 3 -0.001352 0.000837 0.019840 0.000000 0.000000 0.000000
# 4 0.000000 0.000000 0.000000 0.031669 0.000000 0.000000
# 5 0.000000 0.000000 0.000000 0.000000 0.049257 0.000000
# 6 0.000000 0.000000 0.000000 0.000000 0.000000 0.034709
#
#
# Mechanical properties :
#
#
# Convention : Reuss Voigt Hill
#
# Bulk Modulus (GPa) = 27.33780 33.47486 30.40633
# Shear Modulus (GPa) = 26.76769 28.79071 27.77920
#
# Velocity S-wave (km/s) = 3.32595 3.44934 3.38820
# Velocity P-wave (km/s) = 5.10360 5.44955 5.27941
#
# Compressibility (1/GPa) = 0.03657938
#
# Stress axis : x y z
#
# Youngs Moduli (GPa) = 92.51984 58.40081 50.40259
#
# Poissons Ratio (x) = 0.29673 0.06815
# Poissons Ratio (y) = 0.47008 -0.04217
# Poissons Ratio (z) = 0.12509 -0.04886
#
# Static dielectric constant tensor:
#      x y z
#    x 1.908820 0.000000 0.000000 
#    y 0.000000 2.009700 0.000000 
#    z 0.000000 0.000000 1.944020 
# 
# From -- ./inp_files/3242.got.cif
#   From: 2010.05.17/outbox.cif.g08.bks.cpg/sg45_2_cif.got.tgz:3242.got - 2010.06.03 19:51:22.
