data_PCOD9376866
_publ_section_title
;
Structure prediction by ZEFSAII (Michael W. Deem and Ramdas Pophale) SiO2 
 PCOD9376866
Probable space group: I B A 2
;
_chemical_formula_sum "Si O2"
_cell_formula_units_Z 60
_cell_length_a 12.214342
_cell_length_b 25.162651
_cell_length_c 8.928245
_cell_angle_alpha 90.000000
_cell_angle_beta 90.000000
_cell_angle_gamma 90.000000
_cell_volume 2744.053468
_symmetry_space_group_name_H-M "I B A 2"
_symmetry_group_IT_number 45
_symmetry_cell_setting 'orthorhombic'
loop_
_space_group_symop_operation_xyz
x,y,z
-x,-y,z
-x,y,1/2+z
x,-y,1/2+z
1/2+x,1/2+y,1/2+z
1/2-x,1/2-y,1/2+z
1/2-x,1/2+y,z
1/2+x,1/2-y,z
loop_
_atom_site_type_symbol
_atom_site_label
_atom_site_fract_x
_atom_site_fract_y
_atom_site_fract_z
Si Si1 0.426040 0.135677 0.994120
Si Si2 0.864813 0.206000 0.727392
Si Si3 0.333512 0.904841 0.997210
Si Si4 0.000000 0.000000 0.867896
Si Si5 0.768557 0.905618 0.162151
Si Si6 0.273389 0.788207 0.005747
Si Si7 0.530457 0.788815 0.270103
Si Si8 0.653669 0.523799 0.120568
O O1 0.534862 0.098786 0.000882
O O2 0.439629 0.173235 0.849885
O O3 0.316176 0.103459 0.025464
O O4 0.429219 0.176182 0.133124
O O5 0.846258 0.145832 0.677171
O O6 0.831877 0.212281 0.900866
O O7 0.784341 0.243802 0.630516
O O8 0.981763 0.233658 0.713075
O O9 0.296369 0.908657 0.822167
O O10 0.290228 0.848349 0.059275
O O11 0.270146 0.948910 0.093031
O O12 0.079444 0.035878 0.764966
O O13 0.921205 0.033905 0.975343
O O14 0.829020 0.960621 0.135110
O O15 0.376200 0.780501 0.892756
#
# Coordination Sequence:
#
# PCOD9376866 Si02
#       8
#     8   8   8   4   8   8   8   8
#     4  11  20  40  67  96 142 170 210 279 339 395
#     4  11  21  39  63  91 133 177 213 270 323 398
#     4  10  21  42  68  94 131 175 212 280 341 400
#     4  10  24  46  72  88 130 166 216 286 332 378
#     4  11  23  43  65 100 133 167 230 277 330 411
#     4  10  22  39  61  94 130 170 218 264 328 395
#     4  11  20  38  60  91 135 178 207 262 335 388
#     4  11  23  47  70  95 126 175 221 278 337 392
#
# _framework density 21.865462999999998
#
# number of rings (size 3 to 8) (size 9 to 14) (size 15 to 20)
#    0.000    1.333    8.000    0.800    0.000    1.600 
#    4.800    2.667    0.000    0.000    0.000    0.000 
#    0.000    0.000    0.000    0.000    0.000    0.000 
#
# Total GULP energy -167574.310212 kJ/mol
# GULP energy per Si atom -5585.810340 kJ/mol
# Density = 2.181570 g / cm^3
# Si number density = 21.865463 Si / 1000 Ang^3
#
#
#
# Elastic Constant Matrix: (Units=GPa)
#
#
# Indices 1 2 3 4 5 6 
#
# 1 64.3050 29.0219 -3.0260 -0.0006 0.0005 0.0001
# 2 29.0219 109.5601 7.9072 -0.0001 0.0002 0.0000
# 3 -3.0260 7.9072 62.4958 -0.0027 0.0017 0.0000
# 4 -0.0006 -0.0001 -0.0027 16.5061 0.0005 0.0000
# 5 0.0005 0.0002 0.0017 0.0005 36.4301 -0.0001
# 6 0.0001 0.0000 0.0000 0.0000 -0.0001 39.8405
#
#
#
# Elastic Compliance Matrix: (Units=1/GPa)
#
#
# Indices 1 2 3 4 5 6 
#
# 1 0.017796 -0.004820 0.001472 0.000001 0.000000 0.000000
# 2 -0.004820 0.010517 -0.001564 0.000000 0.000000 0.000000
# 3 0.001472 -0.001564 0.016270 0.000003 -0.000001 0.000000
# 4 0.000001 0.000000 0.000003 0.060584 -0.000001 0.000000
# 5 0.000000 0.000000 -0.000001 -0.000001 0.027450 0.000000
# 6 0.000000 0.000000 0.000000 0.000000 0.000000 0.025100
#
#
# Mechanical properties :
#
#
# Convention : Reuss Voigt Hill
#
# Bulk Modulus (GPa) = 28.77073 33.79632 31.28352
# Shear Modulus (GPa) = 27.91307 32.05254 29.98280
#
# Velocity S-wave (km/s) = 3.57681 3.83286 3.70704
# Velocity P-wave (km/s) = 5.49952 5.92265 5.71500
#
# Compressibility (1/GPa) = 0.03475754
#
# Stress axis : x y z
#
# Youngs Moduli (GPa) = 56.19379 95.08302 61.46196
#
# Poissons Ratio (x) = 0.45831 -0.09044
# Poissons Ratio (y) = 0.27086 0.09613
# Poissons Ratio (z) = -0.08269 0.14871
#
# Static dielectric constant tensor:
#      x y z
#    x 1.826960 0.000000 0.000000 
#    y 0.000000 1.775090 0.000000 
#    z 0.000000 0.000000 1.832250 
# 
# From -- ./inp_files/1463.got.cif
#   From: 2010.05.17/outbox.cif.g08.bks.cpg/sg45_1_cif.got.tgz:1463.got - 2010.06.03 19:51:22.
