data_PCOD9376370
_publ_section_title
;
Structure prediction by ZEFSAII (Michael W. Deem and Ramdas Pophale) SiO2 
 PCOD9376370
Probable space group: I B A 2
;
_chemical_formula_sum "Si O2"
_cell_formula_units_Z 60
_cell_length_a 12.912626
_cell_length_b 15.419413
_cell_length_c 13.515582
_cell_angle_alpha 90.000000
_cell_angle_beta 90.000000
_cell_angle_gamma 90.000000
_cell_volume 2691.021484
_symmetry_space_group_name_H-M "I B A 2"
_symmetry_group_IT_number 45
_symmetry_cell_setting 'orthorhombic'
loop_
_space_group_symop_operation_xyz
x,y,z
-x,-y,z
-x,y,1/2+z
x,-y,1/2+z
1/2+x,1/2+y,1/2+z
1/2-x,1/2-y,1/2+z
1/2-x,1/2+y,z
1/2+x,1/2-y,z
loop_
_atom_site_type_symbol
_atom_site_label
_atom_site_fract_x
_atom_site_fract_y
_atom_site_fract_z
Si Si1 0.944219 0.619176 0.208440
Si Si2 0.254238 0.280828 0.119432
Si Si3 0.323593 0.022911 0.866402
Si Si4 0.640793 0.647129 0.311111
Si Si5 0.977968 0.259223 0.887173
Si Si6 0.677570 0.379864 0.422337
Si Si7 0.117029 0.624402 0.051979
Si Si8 0.000000 0.000000 0.363698
O O1 0.857313 0.680697 0.154492
O O2 0.891752 0.540372 0.269630
O O3 0.988802 0.675027 0.298641
O O4 0.037537 0.598492 0.136280
O O5 0.329326 0.303761 0.211769
O O6 0.282718 0.180312 0.090392
O O7 0.285835 0.339478 0.025051
O O8 0.240360 0.100538 0.854538
O O9 0.270090 0.929584 0.868183
O O10 0.365574 0.044431 0.976168
O O11 0.584505 0.707165 0.391294
O O12 0.558309 0.569925 0.296112
O O13 0.880456 0.196379 0.863450
O O14 0.946761 0.306500 0.986190
O O15 0.586367 0.452003 0.429813
#
# Coordination Sequence:
#
# PCOD9376370 Si02
#       8
#     8   8   8   8   8   8   8   4
#     4  10  20  37  58  88 118 153 203 250 298 361
#     4  10  20  33  56  83 117 153 202 247 293 363
#     4   9  20  36  58  84 124 155 192 248 304 360
#     4   9  16  32  54  82 117 148 185 245 304 361
#     4   9  18  34  59  86 121 150 194 252 305 360
#     4   9  18  36  56  84 120 159 194 241 307 363
#     4  10  20  35  57  89 116 156 202 245 305 363
#     4   8  16  30  54  80 114 154 184 242 306 354
#
# _framework density 22.296367
#
# number of rings (size 3 to 8) (size 9 to 14) (size 15 to 20)
#    0.000    2.667    1.333    0.000    1.867    0.533 
#    0.000    6.000    0.000    4.800    0.000    0.000 
#    0.000    0.000    0.000    0.000    0.000    0.000 
#
# Total GULP energy -167356.910943 kJ/mol
# GULP energy per Si atom -5578.563698 kJ/mol
# Density = 2.224562 g / cm^3
# Si number density = 22.296367 Si / 1000 Ang^3
#
#
#
# Elastic Constant Matrix: (Units=GPa)
#
#
# Indices 1 2 3 4 5 6 
#
# 1 79.3236 24.9229 37.0073 0.0000 0.0000 0.0000
# 2 24.9229 59.6916 24.6912 0.0000 0.0000 0.0000
# 3 37.0073 24.6912 81.1517 0.0000 0.0000 0.0000
# 4 0.0000 0.0000 0.0000 14.0854 0.0000 0.0000
# 5 0.0000 0.0000 0.0000 0.0000 35.0649 0.0000
# 6 0.0000 0.0000 0.0000 0.0000 0.0000 20.1373
#
#
#
# Elastic Compliance Matrix: (Units=1/GPa)
#
#
# Indices 1 2 3 4 5 6 
#
# 1 0.016987 -0.004448 -0.006393 0.000000 0.000000 0.000000
# 2 -0.004448 0.020329 -0.004157 0.000000 0.000000 0.000000
# 3 -0.006393 -0.004157 0.016503 0.000000 0.000000 0.000000
# 4 0.000000 0.000000 0.000000 0.070995 0.000000 0.000000
# 5 0.000000 0.000000 0.000000 0.000000 0.028519 0.000000
# 6 0.000000 0.000000 0.000000 0.000000 0.000000 0.049659
#
#
# Mechanical properties :
#
#
# Convention : Reuss Voigt Hill
#
# Bulk Modulus (GPa) = 41.97645 43.71217 42.84431
# Shear Modulus (GPa) = 20.75299 22.76054 21.75677
#
# Velocity S-wave (km/s) = 3.05418 3.19849 3.12717
# Velocity P-wave (km/s) = 5.59507 5.76958 5.68300
#
# Compressibility (1/GPa) = 0.02382288
#
# Stress axis : x y z
#
# Youngs Moduli (GPa) = 58.86968 49.18964 60.59572
#
# Poissons Ratio (x) = 0.21879 0.38739
# Poissons Ratio (y) = 0.26185 0.25190
# Poissons Ratio (z) = 0.37636 0.20448
#
# Static dielectric constant tensor:
#      x y z
#    x 1.894900 0.000000 0.000000 
#    y 0.000000 1.867820 0.000000 
#    z 0.000000 0.000000 1.783180 
# 
# From -- ./inp_files/6324.got.cif
#   From: 2010.05.17/outbox.cif.g08.bks.cpg/sg45_4_cif.got.tgz:6324.got - 2010.06.03 19:51:22.
