data_PCOD9376276
_publ_section_title
;
Structure prediction by ZEFSAII (Michael W. Deem and Ramdas Pophale) SiO2 
 PCOD9376276
Probable space group: I B A 2
;
_chemical_formula_sum "Si O2"
_cell_formula_units_Z 56
_cell_length_a 7.672947
_cell_length_b 22.388734
_cell_length_c 16.168276
_cell_angle_alpha 90.000000
_cell_angle_beta 90.000000
_cell_angle_gamma 90.000000
_cell_volume 2777.508835
_symmetry_space_group_name_H-M "I B A 2"
_symmetry_group_IT_number 45
_symmetry_cell_setting 'orthorhombic'
loop_
_space_group_symop_operation_xyz
x,y,z
-x,-y,z
-x,y,1/2+z
x,-y,1/2+z
1/2+x,1/2+y,1/2+z
1/2-x,1/2-y,1/2+z
1/2-x,1/2+y,z
1/2+x,1/2-y,z
loop_
_atom_site_type_symbol
_atom_site_label
_atom_site_fract_x
_atom_site_fract_y
_atom_site_fract_z
Si Si1 0.841081 0.670028 0.165090
Si Si2 0.579791 0.192856 0.348500
Si Si3 0.812376 0.185927 0.903932
Si Si4 0.749676 0.367143 0.998875
Si Si5 0.926501 0.062185 0.947184
Si Si6 0.129705 0.747325 0.078400
Si Si7 0.413107 0.060618 0.558890
O O1 0.914926 0.668186 0.256608
O O2 0.666618 0.708548 0.154826
O O3 0.836173 0.604265 0.128163
O O4 0.959209 0.709859 0.102891
O O5 0.395108 0.184716 0.393379
O O6 0.616891 0.263365 0.343639
O O7 0.722650 0.161736 0.407709
O O8 0.881517 0.119281 0.890445
O O9 0.865224 0.211933 0.995062
O O10 0.582920 0.409917 0.002693
O O11 0.743738 0.309542 0.058615
O O12 0.924627 0.404538 0.017194
O O13 0.747141 0.049676 0.996320
O O14 0.000000 0.000000 0.911667
O O15 0.500000 0.000000 0.590622
#
# Coordination Sequence:
#
# PCOD9376276 Si02
#       7
#     8   8   8   8   8   8   8
#     4  11  22  37  62  93 128 173 202 267 340 381
#     4  11  22  38  62  93 136 167 202 271 344 380
#     4  11  20  38  60  94 128 165 213 268 311 384
#     4  10  21  38  63  94 122 163 216 270 315 382
#     4  12  22  36  67  93 117 165 219 269 312 361
#     4  10  19  35  60  90 120 160 217 265 318 376
#     4  11  22  42  62  91 127 165 225 270 308 379
#
# _framework density 20.161951999999999
#
# number of rings (size 3 to 8) (size 9 to 14) (size 15 to 20)
#    0.000    1.143    4.286    5.143    0.000    0.000 
#    0.000    2.143    0.000    0.857    0.000    0.000 
#    0.000    0.000    0.000    0.000    0.000    0.000 
#
# Total GULP energy -156134.225906 kJ/mol
# GULP energy per Si atom -5576.222354 kJ/mol
# Density = 2.011606 g / cm^3
# Si number density = 20.161952 Si / 1000 Ang^3
#
#
#
# Elastic Constant Matrix: (Units=GPa)
#
#
# Indices 1 2 3 4 5 6 
#
# 1 71.9087 19.4039 -9.6212 0.0000 0.0000 0.0000
# 2 19.4039 144.4160 3.2413 0.0000 0.0000 0.0000
# 3 -9.6212 3.2413 42.7076 0.0000 0.0000 0.0000
# 4 0.0000 0.0000 0.0000 13.5153 0.0000 0.0000
# 5 0.0000 0.0000 0.0000 0.0000 13.3056 0.0000
# 6 0.0000 0.0000 0.0000 0.0000 0.0000 36.6068
#
#
#
# Elastic Compliance Matrix: (Units=1/GPa)
#
#
# Indices 1 2 3 4 5 6 
#
# 1 0.014941 -0.002087 0.003524 0.000000 0.000000 0.000000
# 2 -0.002087 0.007228 -0.001019 0.000000 0.000000 0.000000
# 3 0.003524 -0.001019 0.024286 0.000000 0.000000 0.000000
# 4 0.000000 0.000000 0.000000 0.073990 0.000000 0.000000
# 5 0.000000 0.000000 0.000000 0.000000 0.075156 0.000000
# 6 0.000000 0.000000 0.000000 0.000000 0.000000 0.027317
#
#
# Mechanical properties :
#
#
# Convention : Reuss Voigt Hill
#
# Bulk Modulus (GPa) = 21.14463 31.67558 26.41011
# Shear Modulus (GPa) = 21.02210 29.08610 25.05410
#
# Velocity S-wave (km/s) = 3.23253 3.80231 3.52894
# Velocity P-wave (km/s) = 4.94394 5.91789 5.45270
#
# Compressibility (1/GPa) = 0.04729332
#
# Stress axis : x y z
#
# Youngs Moduli (GPa) = 66.92937 138.35732 41.17542
#
# Poissons Ratio (x) = 0.28870 -0.14512
# Poissons Ratio (y) = 0.13966 0.04194
# Poissons Ratio (z) = -0.23588 0.14093
#
# Static dielectric constant tensor:
#      x y z
#    x 1.845620 0.000000 0.000000 
#    y 0.000000 1.738510 0.000000 
#    z 0.000000 0.000000 1.694120 
# 
# From -- ./inp_files/7733.got.cif
#   From: 2010.05.17/outbox.cif.g08.bks.cpg/sg45_4_cif.got.tgz:7733.got - 2010.06.03 19:51:22.
