data_PCOD9376916
_publ_section_title
;
Structure prediction by ZEFSAII (Michael W. Deem and Ramdas Pophale) SiO2 
 PCOD9376916
Probable space group: I B A 2
;
_chemical_formula_sum "Si O2"
_cell_formula_units_Z 56
_cell_length_a 11.044059
_cell_length_b 25.429570
_cell_length_c 10.353035
_cell_angle_alpha 90.000000
_cell_angle_beta 90.000000
_cell_angle_gamma 90.000000
_cell_volume 2907.605066
_symmetry_space_group_name_H-M "I B A 2"
_symmetry_group_IT_number 45
_symmetry_cell_setting 'orthorhombic'
loop_
_space_group_symop_operation_xyz
x,y,z
-x,-y,z
-x,y,1/2+z
x,-y,1/2+z
1/2+x,1/2+y,1/2+z
1/2-x,1/2-y,1/2+z
1/2-x,1/2+y,z
1/2+x,1/2-y,z
loop_
_atom_site_type_symbol
_atom_site_label
_atom_site_fract_x
_atom_site_fract_y
_atom_site_fract_z
Si Si1 0.717306 0.123275 0.852600
Si Si2 0.832034 0.219005 0.230716
Si Si3 0.167955 0.219001 0.437350
Si Si4 0.638849 0.071899 0.584037
Si Si5 0.849564 0.552822 0.084036
Si Si6 0.282697 0.876723 0.315474
Si Si7 0.999996 0.702420 0.834039
O O1 0.833818 0.160058 0.879651
O O2 0.692515 0.100705 0.710257
O O3 0.605487 0.163369 0.879563
O O4 0.709013 0.077296 0.956377
O O5 0.749991 0.250003 0.334028
O O6 0.833810 0.160063 0.288423
O O7 0.949716 0.256207 0.229616
O O8 0.785740 0.216135 0.084031
O O9 0.050271 0.256202 0.438453
O O10 0.491493 0.070732 0.584036
O O11 0.692516 0.100704 0.457814
O O12 0.665561 0.009739 0.584040
O O13 0.790986 0.577300 0.211690
O O14 0.394520 0.836630 0.288519
#
# Coordination Sequence:
#
# PCOD9376916 Si02
#       7
#     8   8   8   8   8   8   8
#     4  11  21  36  55  81 114 148 179 229 275 322
#     4  10  23  36  55  80 110 150 191 223 278 332
#     4  10  23  36  55  80 110 150 191 223 278 332
#     4  11  22  34  55  82 114 148 186 218 281 332
#     4  11  20  36  55  80 112 152 184 224 269 332
#     4  11  21  36  55  81 114 148 179 229 275 322
#     4  10  22  34  53  78 115 148 182 224 264 332
#
# _framework density 19.259837000000001
#
# number of rings (size 3 to 8) (size 9 to 14) (size 15 to 20)
#    0.000    1.429    4.286    0.857   10.000    3.429 
#    0.000    0.000    0.000    0.000    0.000    6.000 
#    0.000    0.000    0.000    0.000    0.000    0.000 
#
# Total GULP energy -155884.805322 kJ/mol
# GULP energy per Si atom -5567.314476 kJ/mol
# Density = 1.921600 g / cm^3
# Si number density = 19.259837 Si / 1000 Ang^3
#
#
#
# Elastic Constant Matrix: (Units=GPa)
#
#
# Indices 1 2 3 4 5 6 
#
# 1 13.6640 25.1125 17.8407 -0.0001 0.0000 0.0000
# 2 25.1125 149.4855 76.8120 -0.0001 0.0000 0.0000
# 3 17.8407 76.8120 187.0859 0.0004 0.0006 0.0002
# 4 -0.0001 -0.0001 0.0004 14.7428 0.0001 0.0001
# 5 0.0000 0.0000 0.0006 0.0001 17.7969 0.0000
# 6 0.0000 0.0000 0.0002 0.0001 0.0000 36.8643
#
#
#
# Elastic Compliance Matrix: (Units=1/GPa)
#
#
# Indices 1 2 3 4 5 6 
#
# 1 0.107757 -0.016251 -0.003604 0.000001 0.000000 0.000000
# 2 -0.016251 0.010929 -0.002937 0.000000 0.000000 0.000000
# 3 -0.003604 -0.002937 0.006895 0.000000 0.000000 0.000000
# 4 0.000001 0.000000 0.000000 0.067830 -0.000001 0.000000
# 5 0.000000 0.000000 0.000000 -0.000001 0.056190 0.000000
# 6 0.000000 0.000000 0.000000 0.000000 0.000000 0.027127
#
#
# Mechanical properties :
#
#
# Convention : Reuss Voigt Hill
#
# Bulk Modulus (GPa) = 12.50047 65.52953 39.01500
# Shear Modulus (GPa) = 14.32765 29.24548 21.78657
#
# Velocity S-wave (km/s) = 2.73044 3.90098 3.36697
# Velocity P-wave (km/s) = 4.05523 7.37482 5.95117
#
# Compressibility (1/GPa) = 0.07999697
#
# Stress axis : x y z
#
# Youngs Moduli (GPa) = 9.28016 91.49993 145.03627
#
# Poissons Ratio (x) = 1.48693 0.52268
# Poissons Ratio (y) = 0.15081 0.42604
# Poissons Ratio (z) = 0.03344 0.26878
#
# Static dielectric constant tensor:
#      x y z
#    x 1.811320 0.000000 0.000000 
#    y 0.000000 1.690550 0.000000 
#    z 0.000000 0.000000 1.682150 
# 
# From -- ./inp_files/3870.got.cif
#   From: 2010.05.17/outbox.cif.g08.bks.cpg/sg45_2_cif.got.tgz:3870.got - 2010.06.03 19:51:22.
