data_PCOD9376998
_publ_section_title
;
Structure prediction by ZEFSAII (Michael W. Deem and Ramdas Pophale) SiO2 
 PCOD9376998
Probable space group: I B A 2
;
_chemical_formula_sum "Si O2"
_cell_formula_units_Z 40
_cell_length_a 14.171860
_cell_length_b 16.289646
_cell_length_c 7.910493
_cell_angle_alpha 90.000000
_cell_angle_beta 90.000000
_cell_angle_gamma 90.000000
_cell_volume 1826.173559
_symmetry_space_group_name_H-M "I B A 2"
_symmetry_group_IT_number 45
_symmetry_cell_setting 'orthorhombic'
loop_
_space_group_symop_operation_xyz
x,y,z
-x,-y,z
-x,y,1/2+z
x,-y,1/2+z
1/2+x,1/2+y,1/2+z
1/2-x,1/2-y,1/2+z
1/2-x,1/2+y,z
1/2+x,1/2-y,z
loop_
_atom_site_type_symbol
_atom_site_label
_atom_site_fract_x
_atom_site_fract_y
_atom_site_fract_z
Si Si1 0.500000 0.000000 0.622540
Si Si2 0.383742 0.275495 0.438511
Si Si3 0.625214 0.911895 0.365633
Si Si4 0.000000 0.000000 0.158934
Si Si5 0.914843 0.830358 0.557194
Si Si6 0.823463 0.112482 0.740343
O O1 0.411083 0.029285 0.513337
O O2 0.539724 0.075557 0.732763
O O3 0.362980 0.179607 0.434336
O O4 0.379256 0.305963 0.243323
O O5 0.491310 0.281973 0.505303
O O6 0.326208 0.333914 0.567824
O O7 0.724660 0.931283 0.277609
O O8 0.049842 0.924094 0.069028
O O9 0.909321 0.952682 0.235976
O O10 0.844943 0.827402 0.398966
#
# Coordination Sequence:
#
# PCOD9376998 Si02
#       6
#     4   8   8   4   8   8
#     4  10  26  52  74  96 136 200 250 312 360 410
#     4  11  23  43  67 106 143 188 234 291 358 434
#     4  11  26  49  72 103 140 191 254 304 360 437
#     4  10  22  40  66 106 152 170 232 282 354 452
#     4  11  22  39  68 101 145 191 221 291 365 417
#     4  11  26  42  70 109 142 193 229 298 369 428
#
# _framework density 21.903722999999999
#
# number of rings (size 3 to 8) (size 9 to 14) (size 15 to 20)
#    0.000    1.200    4.000    1.800    8.400    0.000 
#    3.600    0.000    0.000    0.000    0.000    0.000 
#    0.000    0.000    0.000    0.000    0.000    0.000 
#
# Total GULP energy -111506.452790 kJ/mol
# GULP energy per Si atom -5575.322640 kJ/mol
# Density = 2.185387 g / cm^3
# Si number density = 21.903723 Si / 1000 Ang^3
#
#
#
# Elastic Constant Matrix: (Units=GPa)
#
#
# Indices 1 2 3 4 5 6 
#
# 1 39.8073 33.7901 70.0132 0.0000 0.0000 0.0000
# 2 33.7901 84.3538 6.0351 0.0000 0.0000 0.0000
# 3 70.0132 6.0351 83.2994 0.0000 0.0000 0.0000
# 4 0.0000 0.0000 0.0000 38.0572 0.0000 0.0000
# 5 0.0000 0.0000 0.0000 0.0000 24.3707 0.0000
# 6 0.0000 0.0000 0.0000 0.0000 0.0000 14.6718
#
#
#
# Elastic Compliance Matrix: (Units=1/GPa)
#
#
# Indices 1 2 3 4 5 6 
#
# 1 -0.034642 0.011855 0.028258 0.000000 0.000000 0.000000
# 2 0.011855 0.007860 -0.010534 0.000000 0.000000 0.000000
# 3 0.028258 -0.010534 -0.010983 0.000000 0.000000 0.000000
# 4 0.000000 0.000000 0.000000 0.026276 0.000000 0.000000
# 5 0.000000 0.000000 0.000000 0.000000 0.041033 0.000000
# 6 0.000000 0.000000 0.000000 0.000000 0.000000 0.068158
#
#
# Mechanical properties :
#
#
# Convention : Reuss Voigt Hill
#
# Bulk Modulus (GPa) = 46.74351 47.45970 47.10161
# Shear Modulus (GPa) = 109.47088 21.92807 65.69948
#
# Velocity S-wave (km/s) = 7.07720 3.16747 5.48268
# Velocity P-wave (km/s) = 9.38984 5.92381 7.85050
#
# Compressibility (1/GPa) = 0.02139334
#
# Stress axis : x y z
#
# Youngs Moduli (GPa) = -28.86655 127.23312 -91.05221
#
# Poissons Ratio (x) = -1.50836 2.57294
# Poissons Ratio (y) = 0.34222 -0.95911
# Poissons Ratio (z) = 0.81571 1.34023
#
# Static dielectric constant tensor:
#      x y z
#    x 1.814610 0.000000 0.000000 
#    y 0.000000 1.750530 0.000000 
#    z 0.000000 0.000000 1.907470 
# 
# From -- ./inp_files/1285.got.cif
#   From: 2010.05.17/outbox.cif.g08.bks.cpg/sg45_1_cif.got.tgz:1285.got - 2010.06.03 19:51:22.
