data_PCOD9376340
_publ_section_title
;
Structure prediction by ZEFSAII (Michael W. Deem and Ramdas Pophale) SiO2 
 PCOD9376340
Probable space group: I B A 2
;
_chemical_formula_sum "Si O2"
_cell_formula_units_Z 48
_cell_length_a 9.391490
_cell_length_b 19.364176
_cell_length_c 13.802241
_cell_angle_alpha 90.000000
_cell_angle_beta 90.000000
_cell_angle_gamma 90.000000
_cell_volume 2510.054365
_symmetry_space_group_name_H-M "I B A 2"
_symmetry_group_IT_number 45
_symmetry_cell_setting 'orthorhombic'
loop_
_space_group_symop_operation_xyz
x,y,z
-x,-y,z
-x,y,1/2+z
x,-y,1/2+z
1/2+x,1/2+y,1/2+z
1/2-x,1/2-y,1/2+z
1/2-x,1/2+y,z
1/2+x,1/2-y,z
loop_
_atom_site_type_symbol
_atom_site_label
_atom_site_fract_x
_atom_site_fract_y
_atom_site_fract_z
Si Si1 0.204061 0.823130 0.676470
Si Si2 0.497765 0.770275 0.584209
Si Si3 0.500000 0.000000 0.680830
Si Si4 0.724681 0.931192 0.319193
Si Si5 0.500000 0.500000 0.875687
Si Si6 0.500433 0.620749 0.531107
Si Si7 0.677665 0.903173 0.540517
O O1 0.346141 0.796941 0.622289
O O2 0.088379 0.762057 0.673475
O O3 0.231631 0.855668 0.780461
O O4 0.127248 0.881790 0.609635
O O5 0.490595 0.703830 0.512243
O O6 0.592280 0.831406 0.542057
O O7 0.400129 0.954763 0.749322
O O8 0.597102 0.953228 0.612813
O O9 0.679480 0.930236 0.430723
O O10 0.861118 0.981316 0.314498
O O11 0.473710 0.567185 0.944345
O O12 0.342930 0.604157 0.570595
#
# Coordination Sequence:
#
# PCOD9376340 Si02
#       7
#     8   8   4   8   4   8   8
#     4  10  21  40  66  96 127 175 216 274 337 401
#     4  10  19  41  67  92 125 179 213 270 341 392
#     4  12  26  42  68  90 140 184 212 290 338 410
#     4  11  26  41  64 104 132 176 235 274 339 409
#     4  10  24  42  62 104 130 170 232 282 324 420
#     4   9  21  39  68  88 129 174 216 268 340 389
#     4  11  23  44  64  95 135 171 228 274 337 407
#
# _framework density 19.123093000000001
#
# number of rings (size 3 to 8) (size 9 to 14) (size 15 to 20)
#    1.000    0.667    3.333    0.500    7.000    1.333 
#    6.000    0.000    0.000    0.000    0.000    0.000 
#    0.000    0.000    0.000    0.000    0.000    0.000 
#
# Total GULP energy -133716.390624 kJ/mol
# GULP energy per Si atom -5571.516276 kJ/mol
# Density = 1.907957 g / cm^3
# Si number density = 19.123093 Si / 1000 Ang^3
#
#
#
# Elastic Constant Matrix: (Units=GPa)
#
#
# Indices 1 2 3 4 5 6 
#
# 1 126.8658 38.1108 42.3182 0.0000 0.0000 0.0000
# 2 38.1108 74.8976 19.1798 0.0000 0.0000 0.0000
# 3 42.3182 19.1798 67.1667 0.0000 0.0000 0.0000
# 4 0.0000 0.0000 0.0000 16.9468 0.0000 0.0000
# 5 0.0000 0.0000 0.0000 0.0000 39.4595 0.0000
# 6 0.0000 0.0000 0.0000 0.0000 0.0000 33.3046
#
#
#
# Elastic Compliance Matrix: (Units=1/GPa)
#
#
# Indices 1 2 3 4 5 6 
#
# 1 0.011056 -0.004145 -0.005782 0.000000 0.000000 0.000000
# 2 -0.004145 0.015959 -0.001946 0.000000 0.000000 0.000000
# 3 -0.005782 -0.001946 0.019087 0.000000 0.000000 0.000000
# 4 0.000000 0.000000 0.000000 0.059008 0.000000 0.000000
# 5 0.000000 0.000000 0.000000 0.000000 0.025342 0.000000
# 6 0.000000 0.000000 0.000000 0.000000 0.000000 0.030026
#
#
# Mechanical properties :
#
#
# Convention : Reuss Voigt Hill
#
# Bulk Modulus (GPa) = 44.73009 52.01640 48.37325
# Shear Modulus (GPa) = 26.08551 29.23024 27.65788
#
# Velocity S-wave (km/s) = 3.69736 3.91388 3.80716
# Velocity P-wave (km/s) = 6.45513 6.90540 6.68406
#
# Compressibility (1/GPa) = 0.02235631
#
# Stress axis : x y z
#
# Youngs Moduli (GPa) = 90.44567 62.66057 52.39156
#
# Poissons Ratio (x) = 0.25974 0.30295
# Poissons Ratio (y) = 0.37491 0.10193
# Poissons Ratio (z) = 0.52299 0.12191
#
# Static dielectric constant tensor:
#      x y z
#    x 1.669640 0.000000 0.000000 
#    y 0.000000 1.707480 0.000000 
#    z 0.000000 0.000000 1.646470 
# 
# From -- ./inp_files/5674.got.cif
#   From: 2010.05.17/outbox.cif.g08.bks.cpg/sg45_3_cif.got.tgz:5674.got - 2010.06.03 19:51:22.
