data_PCOD9376781
_publ_section_title
;
Structure prediction by ZEFSAII (Michael W. Deem and Ramdas Pophale) SiO2 
 PCOD9376781
Probable space group: I B A 2
;
_chemical_formula_sum "Si O2"
_cell_formula_units_Z 60
_cell_length_a 20.859337
_cell_length_b 9.158482
_cell_length_c 12.472205
_cell_angle_alpha 90.000000
_cell_angle_beta 90.000000
_cell_angle_gamma 90.000000
_cell_volume 2382.688328
_symmetry_space_group_name_H-M "I B A 2"
_symmetry_group_IT_number 45
_symmetry_cell_setting 'orthorhombic'
loop_
_space_group_symop_operation_xyz
x,y,z
-x,-y,z
-x,y,1/2+z
x,-y,1/2+z
1/2+x,1/2+y,1/2+z
1/2-x,1/2-y,1/2+z
1/2-x,1/2+y,z
1/2+x,1/2-y,z
loop_
_atom_site_type_symbol
_atom_site_label
_atom_site_fract_x
_atom_site_fract_y
_atom_site_fract_z
Si Si1 0.190681 0.560671 0.232150
Si Si2 0.585494 0.073980 0.091794
Si Si3 0.423913 0.286394 0.764337
Si Si4 0.785194 0.804041 0.564573
Si Si5 0.654834 0.757650 0.420036
Si Si6 0.571225 0.757613 0.002326
Si Si7 0.000000 0.000000 0.627980
Si Si8 0.320169 0.500527 0.763253
O O1 0.154053 0.464203 0.147035
O O2 0.221794 0.688649 0.161397
O O3 0.145858 0.629026 0.321865
O O4 0.246488 0.489017 0.299533
O O5 0.553399 0.153515 0.191080
O O6 0.600238 0.198602 0.004503
O O7 0.560171 0.920351 0.048278
O O8 0.449283 0.255639 0.880683
O O9 0.448775 0.430143 0.706678
O O10 0.349611 0.338343 0.769254
O O11 0.723541 0.786105 0.484153
O O12 0.851679 0.763066 0.506441
O O13 0.808944 0.944001 0.638772
O O14 0.648199 0.604881 0.354993
O O15 0.535629 0.627652 0.063831
#
# Coordination Sequence:
#
# PCOD9376781 Si02
#       8
#     8   8   8   8   8   8   4   8
#     4  10  22  36  58 101 147 188 235 281 354 452
#     4  11  25  45  71 104 151 192 243 307 375 452
#     4  12  27  48  77 109 140 192 255 316 378 458
#     4  10  21  40  62 100 152 191 240 299 364 445
#     4  11  23  36  66 105 151 202 234 288 368 450
#     4  11  26  50  75 106 146 192 249 319 385 451
#     4  12  28  54  80 106 140 186 252 330 392 446
#     4  11  23  38  67 107 151 200 254 295 362 463
#
# _framework density 25.181640000000002
#
# number of rings (size 3 to 8) (size 9 to 14) (size 15 to 20)
#    0.000    1.067    2.667    2.800    9.333    2.667 
#    0.000    1.333    0.000    0.000    0.000    0.000 
#    0.000    0.000    0.000    0.000    0.000    0.000 
#
# Total GULP energy -167343.915048 kJ/mol
# GULP energy per Si atom -5578.130502 kJ/mol
# Density = 2.512433 g / cm^3
# Si number density = 25.181640 Si / 1000 Ang^3
#
#
#
# Elastic Constant Matrix: (Units=GPa)
#
#
# Indices 1 2 3 4 5 6 
#
# 1 55.5044 22.9748 26.1549 0.0000 0.0000 0.0000
# 2 22.9748 106.0495 68.5266 0.0000 0.0000 0.0000
# 3 26.1549 68.5266 169.9288 0.0000 0.0000 0.0000
# 4 0.0000 0.0000 0.0000 31.5743 0.0000 0.0000
# 5 0.0000 0.0000 0.0000 0.0000 57.5360 0.0000
# 6 0.0000 0.0000 0.0000 0.0000 0.0000 7.3190
#
#
#
# Elastic Compliance Matrix: (Units=1/GPa)
#
#
# Indices 1 2 3 4 5 6 
#
# 1 0.020198 -0.003201 -0.001818 0.000000 0.000000 0.000000
# 2 -0.003201 0.013260 -0.004855 0.000000 0.000000 0.000000
# 3 -0.001818 -0.004855 0.008122 0.000000 0.000000 0.000000
# 4 0.000000 0.000000 0.000000 0.031671 0.000000 0.000000
# 5 0.000000 0.000000 0.000000 0.000000 0.017380 0.000000
# 6 0.000000 0.000000 0.000000 0.000000 0.000000 0.136632
#
#
# Mechanical properties :
#
#
# Convention : Reuss Voigt Hill
#
# Bulk Modulus (GPa) = 45.80161 62.97726 54.38944
# Shear Modulus (GPa) = 19.66267 33.54095 26.60181
#
# Velocity S-wave (km/s) = 2.79737 3.65356 3.25375
# Velocity P-wave (km/s) = 5.35366 6.54687 5.98010
#
# Compressibility (1/GPa) = 0.02183329
#
# Stress axis : x y z
#
# Youngs Moduli (GPa) = 49.50920 75.41494 123.11724
#
# Poissons Ratio (x) = 0.24141 0.22382
# Poissons Ratio (y) = 0.15848 0.59769
# Poissons Ratio (z) = 0.09001 0.36611
#
# Static dielectric constant tensor:
#      x y z
#    x 1.775910 0.000000 0.000000 
#    y 0.000000 2.102960 0.000000 
#    z 0.000000 0.000000 1.950270 
# 
# From -- ./inp_files/4891.got.cif
#   From: 2010.05.17/outbox.cif.g08.bks.cpg/sg45_3_cif.got.tgz:4891.got - 2010.06.03 19:51:22.
