data_PCOD9376985
_publ_section_title
;
Structure prediction by ZEFSAII (Michael W. Deem and Ramdas Pophale) SiO2 
 PCOD9376985
Probable space group: I B A 2
;
_chemical_formula_sum "Si O2"
_cell_formula_units_Z 48
_cell_length_a 13.843469
_cell_length_b 15.138129
_cell_length_c 11.324787
_cell_angle_alpha 90.000000
_cell_angle_beta 90.000000
_cell_angle_gamma 90.000000
_cell_volume 2373.270149
_symmetry_space_group_name_H-M "I B A 2"
_symmetry_group_IT_number 45
_symmetry_cell_setting 'orthorhombic'
loop_
_space_group_symop_operation_xyz
x,y,z
-x,-y,z
-x,y,1/2+z
x,-y,1/2+z
1/2+x,1/2+y,1/2+z
1/2-x,1/2-y,1/2+z
1/2-x,1/2+y,z
1/2+x,1/2-y,z
loop_
_atom_site_type_symbol
_atom_site_label
_atom_site_fract_x
_atom_site_fract_y
_atom_site_fract_z
Si Si1 0.156704 0.886208 0.086670
Si Si2 0.843296 0.613792 0.963672
Si Si3 0.950883 0.327798 0.690510
Si Si4 0.000000 0.500000 0.828190
Si Si5 0.549116 0.327798 0.359833
Si Si6 0.500000 0.500000 0.722151
Si Si7 0.859804 0.750000 0.775171
O O1 0.081286 0.953518 0.143067
O O2 0.191146 0.819860 0.190665
O O3 0.250000 0.927618 0.025170
O O4 0.098615 0.833161 0.985810
O O5 0.808854 0.680140 0.859677
O O6 0.918715 0.546483 0.907276
O O7 0.901384 0.666839 0.064533
O O8 0.910358 0.250000 0.775172
O O9 0.949302 0.423924 0.750680
O O10 0.065169 0.303399 0.690562
O O11 0.550696 0.423924 0.299661
O O12 0.434830 0.303399 0.359780
#
# Coordination Sequence:
#
# PCOD9376985 Si02
#       7
#     8   8   8   4   8   4   8
#     4  11  22  38  64  95 128 165 214 268 315 378
#     4  11  22  38  64  95 128 165 214 268 315 378
#     4   9  20  39  62  86 124 173 210 256 317 376
#     4  10  22  40  62  92 128 170 218 258 320 376
#     4   9  20  39  62  86 124 173 210 256 317 376
#     4  10  22  40  62  92 128 170 218 258 320 376
#     4   8  20  36  62  86 120 172 210 250 320 374
#
# _framework density 20.225256999999999
#
# number of rings (size 3 to 8) (size 9 to 14) (size 15 to 20)
#    1.000    1.333    0.000    2.000    2.333    1.333 
#    0.000    1.667    0.000    0.000    0.000    0.000 
#    0.000    0.000    0.000    0.000    0.000    0.000 
#
# Total GULP energy -133706.209165 kJ/mol
# GULP energy per Si atom -5571.092049 kJ/mol
# Density = 2.017922 g / cm^3
# Si number density = 20.225257 Si / 1000 Ang^3
#
#
#
# Elastic Constant Matrix: (Units=GPa)
#
#
# Indices 1 2 3 4 5 6 
#
# 1 46.3043 13.4184 31.6125 0.0000 0.0000 0.0000
# 2 13.4184 119.1589 62.6262 0.0000 0.0000 0.0000
# 3 31.6125 62.6262 106.9024 0.0000 0.0000 0.0000
# 4 0.0000 0.0000 0.0000 39.3739 0.0000 0.0000
# 5 0.0000 0.0000 0.0000 0.0000 21.2109 0.0000
# 6 0.0000 0.0000 0.0000 0.0000 0.0000 8.2764
#
#
#
# Elastic Compliance Matrix: (Units=1/GPa)
#
#
# Indices 1 2 3 4 5 6 
#
# 1 0.027292 0.001688 -0.009060 0.000000 0.000000 0.000000
# 2 0.001688 0.012230 -0.007664 0.000000 0.000000 0.000000
# 3 -0.009060 -0.007664 0.016523 0.000000 0.000000 0.000000
# 4 0.000000 0.000000 0.000000 0.025398 0.000000 0.000000
# 5 0.000000 0.000000 0.000000 0.000000 0.047146 0.000000
# 6 0.000000 0.000000 0.000000 0.000000 0.000000 0.120825
#
#
# Mechanical properties :
#
#
# Convention : Reuss Voigt Hill
#
# Bulk Modulus (GPa) = 38.49929 54.18664 46.34297
# Shear Modulus (GPa) = 17.35257 24.75282 21.05270
#
# Velocity S-wave (km/s) = 2.93228 3.50216 3.22982
# Velocity P-wave (km/s) = 5.52639 6.57292 6.07224
#
# Compressibility (1/GPa) = 0.02597450
#
# Stress axis : x y z
#
# Youngs Moduli (GPa) = 36.64056 81.76680 60.52160
#
# Poissons Ratio (x) = -0.13803 0.54830
# Poissons Ratio (y) = -0.06185 0.46382
# Poissons Ratio (z) = 0.33195 0.62664
#
# Static dielectric constant tensor:
#      x y z
#    x 1.728330 0.000000 0.000000 
#    y 0.000000 1.752430 0.000000 
#    z 0.000000 0.000000 1.711130 
# 
# From -- ./inp_files/4121.got.cif
#   From: 2010.05.17/outbox.cif.g08.bks.cpg/sg45_3_cif.got.tgz:4121.got - 2010.06.03 19:51:22.
