data_PCOD9376570
_publ_section_title
;
Structure prediction by ZEFSAII (Michael W. Deem and Ramdas Pophale) SiO2 
 PCOD9376570
Probable space group: I B A 2
;
_chemical_formula_sum "Si O2"
_cell_formula_units_Z 60
_cell_length_a 9.549390
_cell_length_b 14.041104
_cell_length_c 21.194983
_cell_angle_alpha 90.000000
_cell_angle_beta 90.000000
_cell_angle_gamma 90.000000
_cell_volume 2841.907637
_symmetry_space_group_name_H-M "I B A 2"
_symmetry_group_IT_number 45
_symmetry_cell_setting 'orthorhombic'
loop_
_space_group_symop_operation_xyz
x,y,z
-x,-y,z
-x,y,1/2+z
x,-y,1/2+z
1/2+x,1/2+y,1/2+z
1/2-x,1/2-y,1/2+z
1/2-x,1/2+y,z
1/2+x,1/2-y,z
loop_
_atom_site_type_symbol
_atom_site_label
_atom_site_fract_x
_atom_site_fract_y
_atom_site_fract_z
Si Si1 0.070928 0.857880 0.957740
Si Si2 0.339249 0.348882 0.292170
Si Si3 0.726026 0.314065 0.937437
Si Si4 0.413085 0.756046 0.217126
Si Si5 0.500000 0.500000 0.845744
Si Si6 0.128991 0.938278 0.092784
Si Si7 0.661143 0.780517 0.133688
Si Si8 0.360250 0.061027 0.035213
O O1 0.186339 0.779009 0.949719
O O2 0.923858 0.806590 0.969934
O O3 0.055577 0.920101 0.894340
O O4 0.098050 0.919252 0.019081
O O5 0.303074 0.317426 0.363104
O O6 0.483632 0.303081 0.264085
O O7 0.202878 0.319676 0.252688
O O8 0.378049 0.459098 0.301625
O O9 0.794291 0.409698 0.967270
O O10 0.530627 0.810948 0.177187
O O11 0.310919 0.700802 0.167441
O O12 0.149125 0.834451 0.123740
O O13 0.267543 0.001098 0.085298
O O14 0.000000 0.000000 0.119709
O O15 0.636143 0.835989 0.069033
O O16 0.500000 0.000000 0.025936
#
# Coordination Sequence:
#
# PCOD9376570 Si02
#       8
#     8   8   8   8   4   8   8   8
#     4  11  22  39  66 100 137 171 219 276 346 431
#     4  10  21  44  69  92 130 173 228 288 333 410
#     4  11  23  41  70  99 134 180 221 279 361 410
#     4  10  23  45  69  91 129 184 240 275 344 400
#     4  10  20  40  66 102 130 170 228 274 346 422
#     4  12  22  41  68  99 139 183 224 275 352 424
#     4  11  24  45  68  98 141 182 233 292 337 415
#     4  12  26  41  67 108 146 176 229 289 357 426
#
# _framework density 21.112580999999999
#
# number of rings (size 3 to 8) (size 9 to 14) (size 15 to 20)
#    0.000    1.067    3.333    4.000    1.867    0.000 
#   12.000    0.000    2.933    0.000    0.000    0.000 
#    0.000    0.000    0.000    0.000    0.000    0.000 
#
# Total GULP energy -167304.891994 kJ/mol
# GULP energy per Si atom -5576.829733 kJ/mol
# Density = 2.106453 g / cm^3
# Si number density = 21.112581 Si / 1000 Ang^3
#
#
#
# Elastic Constant Matrix: (Units=GPa)
#
#
# Indices 1 2 3 4 5 6 
#
# 1 120.8502 45.3317 32.3892 0.0000 0.0000 0.0000
# 2 45.3317 97.6738 20.0131 0.0000 0.0000 0.0000
# 3 32.3892 20.0131 85.8968 0.0000 0.0000 0.0000
# 4 0.0000 0.0000 0.0000 32.1228 0.0000 0.0000
# 5 0.0000 0.0000 0.0000 0.0000 29.5835 0.0000
# 6 0.0000 0.0000 0.0000 0.0000 0.0000 67.8863
#
#
#
# Elastic Compliance Matrix: (Units=1/GPa)
#
#
# Indices 1 2 3 4 5 6 
#
# 1 0.010720 -0.004355 -0.003027 0.000000 0.000000 0.000000
# 2 -0.004355 0.012521 -0.001275 0.000000 0.000000 0.000000
# 3 -0.003027 -0.001275 0.013081 0.000000 0.000000 0.000000
# 4 0.000000 0.000000 0.000000 0.031131 0.000000 0.000000
# 5 0.000000 0.000000 0.000000 0.000000 0.033803 0.000000
# 6 0.000000 0.000000 0.000000 0.000000 0.000000 0.014731
#
#
# Mechanical properties :
#
#
# Convention : Reuss Voigt Hill
#
# Bulk Modulus (GPa) = 52.61487 55.54318 54.07902
# Shear Modulus (GPa) = 35.80782 39.69765 37.75273
#
# Velocity S-wave (km/s) = 4.12277 4.34093 4.23325
# Velocity P-wave (km/s) = 6.90204 7.17566 7.04018
#
# Compressibility (1/GPa) = 0.01900603
#
# Stress axis : x y z
#
# Youngs Moduli (GPa) = 93.28700 79.86876 76.44953
#
# Poissons Ratio (x) = 0.34781 0.23145
# Poissons Ratio (y) = 0.40625 0.09748
# Poissons Ratio (z) = 0.28242 0.10184
#
# Static dielectric constant tensor:
#      x y z
#    x 1.773580 0.000000 0.000000 
#    y 0.000000 1.833550 0.000000 
#    z 0.000000 0.000000 1.802100 
# 
# From -- ./inp_files/9568.got.cif
#   From: 2010.05.17/outbox.cif.g08.bks.cpg/sg45_5_cif.got.tgz:9568.got - 2010.06.03 19:51:22.
