data_PCOD9376143
_publ_section_title
;
Structure prediction by ZEFSAII (Michael W. Deem and Ramdas Pophale) SiO2 
 PCOD9376143
Probable space group: I B A 2
;
_chemical_formula_sum "Si O2"
_cell_formula_units_Z 64
_cell_length_a 8.903657
_cell_length_b 13.062127
_cell_length_c 23.216193
_cell_angle_alpha 90.000000
_cell_angle_beta 90.000000
_cell_angle_gamma 90.000000
_cell_volume 2700.059462
_symmetry_space_group_name_H-M "I B A 2"
_symmetry_group_IT_number 45
_symmetry_cell_setting 'orthorhombic'
loop_
_space_group_symop_operation_xyz
x,y,z
-x,-y,z
-x,y,1/2+z
x,-y,1/2+z
1/2+x,1/2+y,1/2+z
1/2-x,1/2-y,1/2+z
1/2-x,1/2+y,z
1/2+x,1/2-y,z
loop_
_atom_site_type_symbol
_atom_site_label
_atom_site_fract_x
_atom_site_fract_y
_atom_site_fract_z
Si Si1 0.871817 0.684251 0.052510
Si Si2 0.128183 0.184251 0.781875
Si Si3 0.566495 0.401390 0.996808
Si Si4 0.263118 0.368204 0.935274
Si Si5 0.566496 0.901390 0.337576
Si Si6 0.369578 0.291980 0.708600
Si Si7 0.236881 0.631797 0.899111
Si Si8 0.369577 0.208020 0.125784
O O1 0.728727 0.702062 0.094855
O O2 0.029561 0.647664 0.079515
O O3 0.904264 0.802878 0.034757
O O4 0.825037 0.623756 0.995731
O O5 0.095738 0.302878 0.799627
O O6 0.271274 0.202061 0.739530
O O7 0.174963 0.123756 0.838654
O O8 0.970439 0.147664 0.754869
O O9 0.500000 0.500000 0.029071
O O10 0.437486 0.376575 0.950239
O O11 0.707864 0.426747 0.956139
O O12 0.207863 0.426748 0.878246
O O13 0.236696 0.250000 0.917192
O O14 0.437486 0.876574 0.384146
O O15 0.500000 0.000000 0.305314
O O16 0.500000 0.250000 0.667192
O O17 0.250000 0.348027 0.667192
#
# Coordination Sequence:
#
# PCOD9376143 Si02
#       8
#     8   8   8   8   8   8   8   8
#     4  10  18  34  57  80 107 140 180 221 268 316
#     4  10  18  34  57  80 107 140 180 221 268 316
#     4  11  22  34  51  81 118 144 175 214 267 326
#     4  10  20  34  54  78 109 147 184 214 254 320
#     4  11  22  34  51  81 118 144 175 214 267 326
#     4   9  18  32  56  86  99 126 183 240 265 304
#     4  10  20  34  54  78 109 147 184 214 254 320
#     4   9  18  32  56  86  99 126 183 240 265 304
#
# _framework density 23.703181000000001
#
# number of rings (size 3 to 8) (size 9 to 14) (size 15 to 20)
#    0.000    2.000    2.500    3.000    3.500    0.000 
#    0.000    0.000    0.000    4.500    0.000    0.000 
#    0.000    0.000    0.000    0.000    0.000    0.000 
#
# Total GULP energy -178473.234655 kJ/mol
# GULP energy per Si atom -5577.288583 kJ/mol
# Density = 2.364923 g / cm^3
# Si number density = 23.703181 Si / 1000 Ang^3
#
#
#
# Elastic Constant Matrix: (Units=GPa)
#
#
# Indices 1 2 3 4 5 6 
#
# 1 139.9393 11.3086 51.3341 0.0000 0.0000 0.0000
# 2 11.3086 56.2363 20.6879 0.0000 0.0000 0.0000
# 3 51.3341 20.6879 87.2427 0.0000 0.0000 0.0000
# 4 0.0000 0.0000 0.0000 11.3389 0.0000 0.0000
# 5 0.0000 0.0000 0.0000 0.0000 59.7192 0.0000
# 6 0.0000 0.0000 0.0000 0.0000 0.0000 23.5397
#
#
#
# Elastic Compliance Matrix: (Units=1/GPa)
#
#
# Indices 1 2 3 4 5 6 
#
# 1 0.009114 0.000153 -0.005399 0.000000 0.000000 0.000000
# 2 0.000153 0.019484 -0.004711 0.000000 0.000000 0.000000
# 3 -0.005399 -0.004711 0.015756 0.000000 0.000000 0.000000
# 4 0.000000 0.000000 0.000000 0.088192 0.000000 0.000000
# 5 0.000000 0.000000 0.000000 0.000000 0.016745 0.000000
# 6 0.000000 0.000000 0.000000 0.000000 0.000000 0.042481
#
#
# Mechanical properties :
#
#
# Convention : Reuss Voigt Hill
#
# Bulk Modulus (GPa) = 40.91338 50.00881 45.46110
# Shear Modulus (GPa) = 22.74452 32.25873 27.50162
#
# Velocity S-wave (km/s) = 3.10103 3.69310 3.40994
# Velocity P-wave (km/s) = 5.48817 6.27129 5.89275
#
# Compressibility (1/GPa) = 0.02444188
#
# Stress axis : x y z
#
# Youngs Moduli (GPa) = 109.71946 51.32371 63.46694
#
# Poissons Ratio (x) = -0.00788 0.34267
# Poissons Ratio (y) = -0.01684 0.29897
# Poissons Ratio (z) = 0.59240 0.24177
#
# Static dielectric constant tensor:
#      x y z
#    x 1.930760 0.000000 0.000000 
#    y 0.000000 2.051230 0.000000 
#    z 0.000000 0.000000 1.968830 
# 
# From -- ./inp_files/1924.got.cif
#   From: 2010.05.17/outbox.cif.g08.bks.cpg/sg45_1_cif.got.tgz:1924.got - 2010.06.03 19:51:22.
