data_PCOD9376309
_publ_section_title
;
Structure prediction by ZEFSAII (Michael W. Deem and Ramdas Pophale) SiO2 
 PCOD9376309
Probable space group: I B A 2
;
_chemical_formula_sum "Si O2"
_cell_formula_units_Z 56
_cell_length_a 29.965573
_cell_length_b 5.511398
_cell_length_c 13.740433
_cell_angle_alpha 90.000000
_cell_angle_beta 90.000000
_cell_angle_gamma 90.000000
_cell_volume 2269.262727
_symmetry_space_group_name_H-M "I B A 2"
_symmetry_group_IT_number 45
_symmetry_cell_setting 'orthorhombic'
loop_
_space_group_symop_operation_xyz
x,y,z
-x,-y,z
-x,y,1/2+z
x,-y,1/2+z
1/2+x,1/2+y,1/2+z
1/2-x,1/2-y,1/2+z
1/2-x,1/2+y,z
1/2+x,1/2-y,z
loop_
_atom_site_type_symbol
_atom_site_label
_atom_site_fract_x
_atom_site_fract_y
_atom_site_fract_z
Si Si1 0.917491 0.324087 0.493300
Si Si2 0.135016 0.448881 0.672479
Si Si3 0.925993 0.665908 0.322825
Si Si4 0.000000 0.000000 0.565191
Si Si5 0.228813 0.873933 0.832375
Si Si6 0.263517 0.083997 0.110989
Si Si7 0.131262 0.925041 0.332060
Si Si8 0.000000 0.500000 0.674911
O O1 0.897717 0.454547 0.588784
O O2 0.937217 0.528956 0.421608
O O3 0.875361 0.237187 0.428841
O O4 0.955000 0.119993 0.516997
O O5 0.120876 0.594832 0.769895
O O6 0.184859 0.469214 0.633282
O O7 0.132309 0.183976 0.722579
O O8 0.961769 0.594025 0.245098
O O9 0.916968 0.945212 0.336375
O O10 0.985301 0.748851 0.620078
O O11 0.241814 0.604844 0.866329
O O12 0.238619 0.876544 0.715243
O O13 0.177738 0.941799 0.849073
O O14 0.258122 0.347688 0.062401
#
# Coordination Sequence:
#
# PCOD9376309 Si02
#       8
#     8   8   8   4   8   8   8   4
#     4  11  29  47  78 115 161 207 266 344 399 490
#     4  11  23  47  73 112 155 208 268 317 406 474
#     4  11  27  47  77 114 149 202 257 333 399 485
#     4  12  30  56  80 116 156 212 264 336 414 484
#     4  10  19  38  70 108 150 211 259 317 386 460
#     4  10  19  37  70 103 145 205 257 314 377 461
#     4  11  25  44  78 114 163 211 269 328 406 481
#     4  12  30  52  86 110 148 206 268 322 420 488
#
# _framework density 24.677617000000001
#
# number of rings (size 3 to 8) (size 9 to 14) (size 15 to 20)
#    0.000    1.143    4.286    1.714   10.000    1.143 
#    0.000    1.429    0.000    0.000    0.000    0.000 
#    0.000    0.000    0.000    0.000    0.000    0.000 
#
# Total GULP energy -156117.399765 kJ/mol
# GULP energy per Si atom -5575.621420 kJ/mol
# Density = 2.462145 g / cm^3
# Si number density = 24.677617 Si / 1000 Ang^3
#
#
#
# Elastic Constant Matrix: (Units=GPa)
#
#
# Indices 1 2 3 4 5 6 
#
# 1 144.5233 59.2410 60.8650 0.0000 0.0000 0.0000
# 2 59.2410 113.1459 54.7098 0.0000 0.0000 0.0000
# 3 60.8650 54.7098 125.2457 0.0000 0.0000 0.0000
# 4 0.0000 0.0000 0.0000 36.6906 0.0000 0.0000
# 5 0.0000 0.0000 0.0000 0.0000 9.5179 0.0000
# 6 0.0000 0.0000 0.0000 0.0000 0.0000 38.4533
#
#
#
# Elastic Compliance Matrix: (Units=1/GPa)
#
#
# Indices 1 2 3 4 5 6 
#
# 1 0.009709 -0.003552 -0.003166 0.000000 0.000000 0.000000
# 2 -0.003552 0.012505 -0.003736 0.000000 0.000000 0.000000
# 3 -0.003166 -0.003736 0.011155 0.000000 0.000000 0.000000
# 4 0.000000 0.000000 0.000000 0.027255 0.000000 0.000000
# 5 0.000000 0.000000 0.000000 0.000000 0.105066 0.000000
# 6 0.000000 0.000000 0.000000 0.000000 0.000000 0.026006
#
#
# Mechanical properties :
#
#
# Convention : Reuss Voigt Hill
#
# Bulk Modulus (GPa) = 80.26292 81.39405 80.82849
# Shear Modulus (GPa) = 23.06731 30.80565 26.93648
#
# Velocity S-wave (km/s) = 3.06068 3.53700 3.30742
# Velocity P-wave (km/s) = 6.71458 7.05230 6.88551
#
# Compressibility (1/GPa) = 0.01245905
#
# Stress axis : x y z
#
# Youngs Moduli (GPa) = 102.99762 79.97118 89.64571
#
# Poissons Ratio (x) = 0.28408 0.28386
# Poissons Ratio (y) = 0.36588 0.33491
# Poissons Ratio (z) = 0.32614 0.29876
#
# Static dielectric constant tensor:
#      x y z
#    x 1.966880 0.000000 0.000000 
#    y 0.000000 2.364330 0.000000 
#    z 0.000000 0.000000 1.978970 
# 
# From -- ./inp_files/7181.got.cif
#   From: 2010.05.17/outbox.cif.g08.bks.cpg/sg45_4_cif.got.tgz:7181.got - 2010.06.03 19:51:22.
