data_PCOD9376095
_publ_section_title
;
Structure prediction by ZEFSAII (Michael W. Deem and Ramdas Pophale) SiO2 
 PCOD9376095
Probable space group: I B A 2
;
_chemical_formula_sum "Si O2"
_cell_formula_units_Z 64
_cell_length_a 16.030903
_cell_length_b 9.264320
_cell_length_c 19.141285
_cell_angle_alpha 90.000000
_cell_angle_beta 90.000000
_cell_angle_gamma 90.000000
_cell_volume 2842.775891
_symmetry_space_group_name_H-M "I B A 2"
_symmetry_group_IT_number 45
_symmetry_cell_setting 'orthorhombic'
loop_
_space_group_symop_operation_xyz
x,y,z
-x,-y,z
-x,y,1/2+z
x,-y,1/2+z
1/2+x,1/2+y,1/2+z
1/2-x,1/2-y,1/2+z
1/2-x,1/2+y,z
1/2+x,1/2-y,z
loop_
_atom_site_type_symbol
_atom_site_label
_atom_site_fract_x
_atom_site_fract_y
_atom_site_fract_z
Si Si1 0.951272 0.261538 0.112490
Si Si2 0.625518 0.655745 0.825849
Si Si3 0.696114 0.868605 0.723216
Si Si4 0.788466 0.454355 0.961643
Si Si5 0.821375 0.605330 0.826192
Si Si6 0.636658 0.649517 0.978379
Si Si7 0.390850 0.651767 0.759762
Si Si8 0.620461 0.918262 0.586910
O O1 0.915491 0.162485 0.049649
O O2 0.939347 0.190518 0.188905
O O3 0.906831 0.419769 0.110703
O O4 0.044914 0.307405 0.093370
O O5 0.626913 0.772360 0.763458
O O6 0.726223 0.654859 0.840219
O O7 0.596370 0.505745 0.791844
O O8 0.588748 0.669619 0.903875
O O9 0.791969 0.840703 0.741648
O O10 0.688335 0.861335 0.640965
O O11 0.678472 0.027737 0.751769
O O12 0.693361 0.506658 0.970642
O O13 0.802608 0.289477 0.981581
O O14 0.842827 0.556852 0.011254
O O15 0.826910 0.482843 0.885074
O O16 0.891968 0.726919 0.820978
#
# Coordination Sequence:
#
# PCOD9376095 Si02
#       8
#     8   8   8   8   8   8   8   8
#     4  10  21  38  57  81 117 156 195 239 282 345
#     4   9  19  31  55  87 113 145 180 245 294 338
#     4  10  17  34  56  85 112 144 191 240 293 344
#     4  10  20  35  58  89 113 149 193 243 293 349
#     4   9  17  31  55  84 113 138 188 240 289 336
#     4  10  20  36  59  87 116 148 193 240 296 344
#     4  10  19  34  58  87 115 146 190 242 293 343
#     4  10  21  37  58  80 117 156 197 236 283 347
#
# _framework density 22.513204999999999
#
# number of rings (size 3 to 8) (size 9 to 14) (size 15 to 20)
#    0.000    2.250    2.500    0.750    5.250    0.000 
#    2.250    1.875    2.750    0.000    0.000    0.000 
#    0.000    0.000    0.000    0.000    0.000    0.000 
#
# Total GULP energy -178359.542378 kJ/mol
# GULP energy per Si atom -5573.735699 kJ/mol
# Density = 2.246196 g / cm^3
# Si number density = 22.513205 Si / 1000 Ang^3
#
#
#
# Elastic Constant Matrix: (Units=GPa)
#
#
# Indices 1 2 3 4 5 6 
#
# 1 34.8543 1.9907 21.0793 0.0000 0.0000 0.0000
# 2 1.9907 63.0436 4.4695 0.0000 0.0000 0.0000
# 3 21.0793 4.4695 86.2466 0.0000 0.0000 0.0000
# 4 0.0000 0.0000 0.0000 32.4528 0.0000 0.0000
# 5 0.0000 0.0000 0.0000 0.0000 5.6326 0.0000
# 6 0.0000 0.0000 0.0000 0.0000 0.0000 9.2127
#
#
#
# Elastic Compliance Matrix: (Units=1/GPa)
#
#
# Indices 1 2 3 4 5 6 
#
# 1 0.033682 -0.000482 -0.008207 0.000000 0.000000 0.000000
# 2 -0.000482 0.015927 -0.000708 0.000000 0.000000 0.000000
# 3 -0.008207 -0.000708 0.013637 0.000000 0.000000 0.000000
# 4 0.000000 0.000000 0.000000 0.030814 0.000000 0.000000
# 5 0.000000 0.000000 0.000000 0.000000 0.177539 0.000000
# 6 0.000000 0.000000 0.000000 0.000000 0.000000 0.108545
#
#
# Mechanical properties :
#
#
# Convention : Reuss Voigt Hill
#
# Bulk Modulus (GPa) = 22.49540 26.58038 24.53789
# Shear Modulus (GPa) = 12.08443 19.89995 15.99219
#
# Velocity S-wave (km/s) = 2.31934 2.97631 2.66813
# Velocity P-wave (km/s) = 4.14563 4.86245 4.51828
#
# Compressibility (1/GPa) = 0.04445352
#
# Stress axis : x y z
#
# Youngs Moduli (GPa) = 29.68951 62.78476 73.32870
#
# Poissons Ratio (x) = 0.03024 0.60182
# Poissons Ratio (y) = 0.01430 0.05189
# Poissons Ratio (z) = 0.24367 0.04443
#
# Static dielectric constant tensor:
#      x y z
#    x 1.843870 0.000000 0.000000 
#    y 0.000000 1.895850 0.000000 
#    z 0.000000 0.000000 1.868130 
# 
# From -- ./inp_files/8457.got.cif
#   From: 2010.05.17/outbox.cif.g08.bks.cpg/sg45_5_cif.got.tgz:8457.got - 2010.06.03 19:51:22.
