data_PCOD9376792
_publ_section_title
;
Structure prediction by ZEFSAII (Michael W. Deem and Ramdas Pophale) SiO2 
 PCOD9376792
Probable space group: I B A 2
;
_chemical_formula_sum "Si O2"
_cell_formula_units_Z 64
_cell_length_a 13.136327
_cell_length_b 8.849103
_cell_length_c 27.155445
_cell_angle_alpha 90.000000
_cell_angle_beta 90.000000
_cell_angle_gamma 90.000000
_cell_volume 3156.676847
_symmetry_space_group_name_H-M "I B A 2"
_symmetry_group_IT_number 45
_symmetry_cell_setting 'orthorhombic'
loop_
_space_group_symop_operation_xyz
x,y,z
-x,-y,z
-x,y,1/2+z
x,-y,1/2+z
1/2+x,1/2+y,1/2+z
1/2-x,1/2-y,1/2+z
1/2-x,1/2+y,z
1/2+x,1/2-y,z
loop_
_atom_site_type_symbol
_atom_site_label
_atom_site_fract_x
_atom_site_fract_y
_atom_site_fract_z
Si Si1 0.316212 0.398051 0.784350
Si Si2 0.107599 0.090182 0.980613
Si Si3 0.643000 0.707477 0.228195
Si Si4 0.108652 0.089278 0.866836
Si Si5 0.747517 0.525488 0.567060
Si Si6 0.443611 0.151463 0.554858
Si Si7 0.999333 0.322501 0.801511
Si Si8 0.126097 0.793036 0.112376
O O1 0.353383 0.532846 0.747156
O O2 0.227934 0.308930 0.755973
O O3 0.308160 0.497824 0.834674
O O4 0.393140 0.266113 0.801919
O O5 0.083383 0.244321 0.009025
O O6 0.201642 0.021455 0.011915
O O7 0.135762 0.107390 0.923612
O O8 0.000000 0.000000 0.983359
O O9 0.539340 0.781307 0.247307
O O10 0.646663 0.722962 0.169922
O O11 0.078383 0.243503 0.839205
O O12 0.000000 0.000000 0.864665
O O13 0.840473 0.412587 0.577536
O O14 0.796916 0.683750 0.582138
O O15 0.652347 0.465256 0.598387
O O16 0.515857 0.239806 0.593090
O O17 0.500000 0.000000 0.537587
O O18 0.000000 0.500000 0.809383
#
# Coordination Sequence:
#
# PCOD9376792 Si02
#       8
#     8   8   8   8   8   8   8   8
#     4  10  21  42  61  96 130 162 217 273 318 403
#     4  11  20  40  67  91 124 176 216 271 333 388
#     4  11  22  38  63  91 129 169 214 263 333 388
#     4   8  19  38  63  91 127 164 212 270 329 389
#     4  11  22  40  59  89 131 165 222 272 318 394
#     4  10  23  40  60  89 133 164 219 276 321 394
#     4  10  21  40  64  92 129 163 210 269 326 399
#     4  11  23  39  60  93 125 177 216 270 328 390
#
# _framework density 20.274486
#
# number of rings (size 3 to 8) (size 9 to 14) (size 15 to 20)
#    0.000    1.750    2.500    2.625    0.000    3.000 
#    9.000    0.000    5.500    0.000    0.000    0.000 
#    0.000    0.000    0.000    0.000    0.000    0.000 
#
# Total GULP energy -178272.452716 kJ/mol
# GULP energy per Si atom -5571.014147 kJ/mol
# Density = 2.022834 g / cm^3
# Si number density = 20.274486 Si / 1000 Ang^3
#
#
#
# Elastic Constant Matrix: (Units=GPa)
#
#
# Indices 1 2 3 4 5 6 
#
# 1 53.6847 25.9458 13.9035 0.0000 0.0000 0.0000
# 2 25.9458 96.2340 -1.9614 0.0000 0.0000 0.0000
# 3 13.9035 -1.9614 107.2626 0.0000 0.0000 0.0000
# 4 0.0000 0.0000 0.0000 12.5734 0.0000 0.0000
# 5 0.0000 0.0000 0.0000 0.0000 330.3568 0.0000
# 6 0.0000 0.0000 0.0000 0.0000 0.0000 26.3132
#
#
#
# Elastic Compliance Matrix: (Units=1/GPa)
#
#
# Indices 1 2 3 4 5 6 
#
# 1 0.022348 -0.006087 -0.003008 0.000000 0.000000 0.000000
# 2 -0.006087 0.012053 0.001009 0.000000 0.000000 0.000000
# 3 -0.003008 0.001009 0.009731 0.000000 0.000000 0.000000
# 4 0.000000 0.000000 0.000000 0.079533 0.000000 0.000000
# 5 0.000000 0.000000 0.000000 0.000000 0.003027 0.000000
# 6 0.000000 0.000000 0.000000 0.000000 0.000000 0.038004
#
#
# Mechanical properties :
#
#
# Convention : Reuss Voigt Hill
#
# Bulk Modulus (GPa) = 35.76336 36.99522 36.37929
# Shear Modulus (GPa) = 26.28993 88.46825 57.37909
#
# Velocity S-wave (km/s) = 3.60488 6.61287 5.32565
# Velocity P-wave (km/s) = 5.91648 8.75177 7.46988
#
# Compressibility (1/GPa) = 0.02796158
#
# Stress axis : x y z
#
# Youngs Moduli (GPa) = 44.74683 82.96748 102.76141
#
# Poissons Ratio (x) = 0.50499 0.30911
# Poissons Ratio (y) = 0.27235 -0.10372
# Poissons Ratio (z) = 0.13460 -0.08374
#
# Static dielectric constant tensor:
#      x y z
#    x -0.067320 0.000000 0.000000 
#    y 0.000000 1.771640 0.000000 
#    z 0.000000 0.000000 1.687510 
# 
# From -- ./inp_files/9797.got.cif
#   From: 2010.05.17/outbox.cif.g08.bks.cpg/sg45_5_cif.got.tgz:9797.got - 2010.06.03 19:51:22.
