data_PCOD9376214
_publ_section_title
;
Structure prediction by ZEFSAII (Michael W. Deem and Ramdas Pophale) SiO2 
 PCOD9376214
Probable space group: I B A 2
;
_chemical_formula_sum "Si O2"
_cell_formula_units_Z 48
_cell_length_a 19.457464
_cell_length_b 20.754147
_cell_length_c 5.386206
_cell_angle_alpha 90.000000
_cell_angle_beta 90.000000
_cell_angle_gamma 90.000000
_cell_volume 2175.074232
_symmetry_space_group_name_H-M "I B A 2"
_symmetry_group_IT_number 45
_symmetry_cell_setting 'orthorhombic'
loop_
_space_group_symop_operation_xyz
x,y,z
-x,-y,z
-x,y,1/2+z
x,-y,1/2+z
1/2+x,1/2+y,1/2+z
1/2-x,1/2-y,1/2+z
1/2-x,1/2+y,z
1/2+x,1/2-y,z
loop_
_atom_site_type_symbol
_atom_site_label
_atom_site_fract_x
_atom_site_fract_y
_atom_site_fract_z
Si Si1 0.594485 0.034630 0.878890
Si Si2 0.036319 0.789476 0.693456
Si Si3 0.227216 0.339897 0.275036
Si Si4 0.752706 0.481953 0.913668
Si Si5 0.905980 0.678709 0.930096
Si Si6 0.342665 0.273545 0.029024
O O1 0.573942 0.108351 0.835997
O O2 0.572450 0.990464 0.648767
O O3 0.677802 0.025327 0.892694
O O4 0.042397 0.712330 0.626932
O O5 0.008676 0.813411 0.428073
O O6 0.113650 0.799032 0.795635
O O7 0.224153 0.407837 0.412223
O O8 0.301690 0.330602 0.156861
O O9 0.214050 0.278909 0.450332
O O10 0.165541 0.334445 0.076776
O O11 0.714427 0.497590 0.659994
O O12 0.890456 0.731548 0.715615
#
# Coordination Sequence:
#
# PCOD9376214 Si02
#       6
#     8   8   8   8   8   8
#     4  10  19  31  51  78 104 152 189 224 283 355
#     4  11  24  43  59  78 108 157 209 247 294 343
#     4  11  21  32  55  91 127 147 193 230 317 370
#     4  10  19  33  50  75 116 162 183 221 273 374
#     4  11  21  36  59  82 116 150 195 242 297 363
#     4  11  22  35  58  91 120 158 182 261 300 377
#
# _framework density 22.068211999999999
#
# number of rings (size 3 to 8) (size 9 to 14) (size 15 to 20)
#    0.000    1.333    6.667    2.000    2.333    0.000 
#    0.000    0.000    0.000    3.000    0.000    0.000 
#    0.000    4.000    0.000    0.000    0.000    0.000 
#
# Total GULP energy -133905.420531 kJ/mol
# GULP energy per Si atom -5579.392522 kJ/mol
# Density = 2.201798 g / cm^3
# Si number density = 22.068212 Si / 1000 Ang^3
#
#
#
# Elastic Constant Matrix: (Units=GPa)
#
#
# Indices 1 2 3 4 5 6 
#
# 1 46.7093 2.9186 9.5725 0.0000 0.0000 0.0000
# 2 2.9186 28.3936 -0.8905 0.0000 0.0000 0.0000
# 3 9.5725 -0.8905 115.3157 0.0000 0.0000 0.0000
# 4 0.0000 0.0000 0.0000 21.7102 0.0000 0.0000
# 5 0.0000 0.0000 0.0000 0.0000 43.9166 0.0000
# 6 0.0000 0.0000 0.0000 0.0000 0.0000 14.2396
#
#
#
# Elastic Compliance Matrix: (Units=1/GPa)
#
#
# Indices 1 2 3 4 5 6 
#
# 1 0.021930 -0.002312 -0.001838 0.000000 0.000000 0.000000
# 2 -0.002312 0.035471 0.000466 0.000000 0.000000 0.000000
# 3 -0.001838 0.000466 0.008828 0.000000 0.000000 0.000000
# 4 0.000000 0.000000 0.000000 0.046061 0.000000 0.000000
# 5 0.000000 0.000000 0.000000 0.000000 0.022770 0.000000
# 6 0.000000 0.000000 0.000000 0.000000 0.000000 0.070227
#
#
# Mechanical properties :
#
#
# Convention : Reuss Voigt Hill
#
# Bulk Modulus (GPa) = 16.98918 23.73553 20.36236
# Shear Modulus (GPa) = 21.52603 27.89449 24.71026
#
# Velocity S-wave (km/s) = 3.12658 3.55915 3.34985
# Velocity P-wave (km/s) = 4.55513 5.26013 4.92027
#
# Compressibility (1/GPa) = 0.05886098
#
# Stress axis : x y z
#
# Youngs Moduli (GPa) = 45.59923 28.19172 113.27537
#
# Poissons Ratio (x) = 0.06518 0.20823
# Poissons Ratio (y) = 0.10542 -0.05277
# Poissons Ratio (z) = 0.08383 -0.01313
#
# Static dielectric constant tensor:
#      x y z
#    x 1.849150 0.000000 0.000000 
#    y 0.000000 1.758330 0.000000 
#    z 0.000000 0.000000 1.957320 
# 
# From -- ./inp_files/289.got.cif
#   From: 2010.05.17/outbox.cif.g08.bks.cpg/sg45_1_cif.got.tgz:289.got - 2010.06.03 19:51:22.
