data_PCOD9376374
_publ_section_title
;
Structure prediction by ZEFSAII (Michael W. Deem and Ramdas Pophale) SiO2 
 PCOD9376374
Probable space group: I B A 2
;
_chemical_formula_sum "Si O2"
_cell_formula_units_Z 56
_cell_length_a 23.231207
_cell_length_b 10.420206
_cell_length_c 8.874476
_cell_angle_alpha 90.000000
_cell_angle_beta 90.000000
_cell_angle_gamma 90.000000
_cell_volume 2148.279571
_symmetry_space_group_name_H-M "I B A 2"
_symmetry_group_IT_number 45
_symmetry_cell_setting 'orthorhombic'
loop_
_space_group_symop_operation_xyz
x,y,z
-x,-y,z
-x,y,1/2+z
x,-y,1/2+z
1/2+x,1/2+y,1/2+z
1/2-x,1/2-y,1/2+z
1/2-x,1/2+y,z
1/2+x,1/2-y,z
loop_
_atom_site_type_symbol
_atom_site_label
_atom_site_fract_x
_atom_site_fract_y
_atom_site_fract_z
Si Si1 0.808324 0.510438 0.372920
Si Si2 0.582606 0.361843 0.050980
Si Si3 0.191730 0.742160 0.054772
Si Si4 0.383717 0.919561 0.088775
Si Si5 0.999696 0.165952 0.286251
Si Si6 0.431077 0.801391 0.523110
Si Si7 0.298294 0.347496 0.388247
O O1 0.811028 0.586860 0.536471
O O2 0.848186 0.397457 0.430341
O O3 0.844327 0.580870 0.241271
O O4 0.740767 0.524817 0.348404
O O5 0.579833 0.209587 0.086056
O O6 0.550474 0.412881 0.200040
O O7 0.541023 0.394512 0.913775
O O8 0.648609 0.384191 0.996568
O O9 0.129714 0.772039 0.986510
O O10 0.190949 0.792575 0.222208
O O11 0.252011 0.751373 0.967476
O O12 0.420641 0.050008 0.068348
O O13 0.958016 0.225429 0.161363
O O14 0.029647 0.281551 0.379619
#
# Coordination Sequence:
#
# PCOD9376374 Si02
#       7
#     8   8   8   8   8   8   8
#     4   9  22  32  54  78 105 140 183 227 285 321
#     4  11  21  34  55  73 116 149 185 231 266 321
#     4   9  19  34  51  75  97 140 184 227 279 325
#     4  11  20  35  52  79 110 149 182 232 263 326
#     4  10  22  33  48  78 105 159 190 222 254 327
#     4  10  20  34  48  73 112 144 193 224 260 316
#     4  10  20  36  54  77 100 148 182 237 283 331
#
# _framework density 26.067368999999999
#
# number of rings (size 3 to 8) (size 9 to 14) (size 15 to 20)
#    0.857    1.143    1.429    3.429    4.000    3.429 
#    0.000    0.000    0.000    0.000    0.000    0.000 
#    0.000    3.429    0.000    0.000    0.000    0.000 
#
# Total GULP energy -155868.312321 kJ/mol
# GULP energy per Si atom -5566.725440 kJ/mol
# Density = 2.600804 g / cm^3
# Si number density = 26.067369 Si / 1000 Ang^3
#
#
#
# Elastic Constant Matrix: (Units=GPa)
#
#
# Indices 1 2 3 4 5 6 
#
# 1 161.3680 18.5193 59.2255 0.0000 0.0000 0.0000
# 2 18.5193 62.0084 38.0191 0.0000 0.0000 0.0000
# 3 59.2255 38.0191 127.8981 0.0000 0.0000 0.0000
# 4 0.0000 0.0000 0.0000 31.3770 0.0000 0.0000
# 5 0.0000 0.0000 0.0000 0.0000 61.0063 0.0000
# 6 0.0000 0.0000 0.0000 0.0000 0.0000 22.4666
#
#
#
# Elastic Compliance Matrix: (Units=1/GPa)
#
#
# Indices 1 2 3 4 5 6 
#
# 1 0.007467 -0.000135 -0.003418 0.000000 0.000000 0.000000
# 2 -0.000135 0.019724 -0.005801 0.000000 0.000000 0.000000
# 3 -0.003418 -0.005801 0.011126 0.000000 0.000000 0.000000
# 4 0.000000 0.000000 0.000000 0.031870 0.000000 0.000000
# 5 0.000000 0.000000 0.000000 0.000000 0.016392 0.000000
# 6 0.000000 0.000000 0.000000 0.000000 0.000000 0.044510
#
#
# Mechanical properties :
#
#
# Convention : Reuss Voigt Hill
#
# Bulk Modulus (GPa) = 50.99392 64.75582 57.87487
# Shear Modulus (GPa) = 31.98334 38.67069 35.32702
#
# Velocity S-wave (km/s) = 3.50658 3.85579 3.68532
# Velocity P-wave (km/s) = 5.99997 6.68719 6.35288
#
# Compressibility (1/GPa) = 0.01961018
#
# Stress axis : x y z
#
# Youngs Moduli (GPa) = 133.92603 50.70062 89.88233
#
# Poissons Ratio (x) = 0.00682 0.30719
# Poissons Ratio (y) = 0.01802 0.52138
# Poissons Ratio (z) = 0.45771 0.29410
#
# Static dielectric constant tensor:
#      x y z
#    x 2.233680 0.000000 0.000000 
#    y 0.000000 2.399600 0.000000 
#    z 0.000000 0.000000 2.011940 
# 
# From -- ./inp_files/2556.got.cif
#   From: 2010.05.17/outbox.cif.g08.bks.cpg/sg45_2_cif.got.tgz:2556.got - 2010.06.03 19:51:22.
