data_PCOD9376432
_publ_section_title
;
Structure prediction by ZEFSAII (Michael W. Deem and Ramdas Pophale) SiO2 
 PCOD9376432
Probable space group: I B A 2
;
_chemical_formula_sum "Si O2"
_cell_formula_units_Z 60
_cell_length_a 11.392058
_cell_length_b 23.990419
_cell_length_c 8.695057
_cell_angle_alpha 90.000000
_cell_angle_beta 90.000000
_cell_angle_gamma 90.000000
_cell_volume 2376.361206
_symmetry_space_group_name_H-M "I B A 2"
_symmetry_group_IT_number 45
_symmetry_cell_setting 'orthorhombic'
loop_
_space_group_symop_operation_xyz
x,y,z
-x,-y,z
-x,y,1/2+z
x,-y,1/2+z
1/2+x,1/2+y,1/2+z
1/2-x,1/2-y,1/2+z
1/2-x,1/2+y,z
1/2+x,1/2-y,z
loop_
_atom_site_type_symbol
_atom_site_label
_atom_site_fract_x
_atom_site_fract_y
_atom_site_fract_z
Si Si1 0.989328 0.913003 0.302010
Si Si2 0.332468 0.463834 0.072419
Si Si3 0.657291 0.059379 0.547309
Si Si4 0.195026 0.359952 0.044633
Si Si5 0.772704 0.153610 0.692668
Si Si6 0.390570 0.697388 0.756377
Si Si7 0.406344 0.753698 0.071090
Si Si8 0.500000 0.000000 0.799045
O O1 0.915741 0.942582 0.435016
O O2 0.890813 0.884387 0.193504
O O3 0.084440 0.952185 0.218335
O O4 0.056810 0.856471 0.347093
O O5 0.278390 0.523958 0.045339
O O6 0.215992 0.424525 0.080224
O O7 0.688672 0.123986 0.569126
O O8 0.585856 0.037452 0.695666
O O9 0.578463 0.040792 0.404421
O O10 0.291944 0.329779 0.150597
O O11 0.086753 0.320556 0.086165
O O12 0.222703 0.353852 0.864314
O O13 0.807502 0.217315 0.661174
O O14 0.476232 0.726723 0.635023
O O15 0.375846 0.740143 0.895092
#
# Coordination Sequence:
#
# PCOD9376432 Si02
#       8
#     8   8   8   8   8   8   8   4
#     4   9  18  36  60  92 131 161 191 247 322 383
#     4  10  21  39  63  92 127 163 201 253 317 384
#     4  11  24  45  68  92 124 169 218 263 315 372
#     4  10  21  40  62  89 124 166 210 254 309 376
#     4  10  21  40  64  92 126 163 207 258 316 385
#     4  10  20  36  60  90 131 169 200 258 324 369
#     4  11  21  38  61  89 125 166 208 255 315 376
#     4  10  24  46  68  86 124 172 214 274 324 348
#
# _framework density 25.248688999999999
#
# number of rings (size 3 to 8) (size 9 to 14) (size 15 to 20)
#    0.000    1.867    0.000    6.400    0.000    3.733 
#    0.000   17.333    0.000    0.000    0.000    0.000 
#    0.000    0.000    0.000    0.000    0.000    0.000 
#
# Total GULP energy -167774.379101 kJ/mol
# GULP energy per Si atom -5592.479303 kJ/mol
# Density = 2.519122 g / cm^3
# Si number density = 25.248689 Si / 1000 Ang^3
#
#
#
# Elastic Constant Matrix: (Units=GPa)
#
#
# Indices 1 2 3 4 5 6 
#
# 1 44.9333 4.5196 17.2547 0.0001 0.0000 0.0000
# 2 4.5196 73.5200 -1.2886 -0.0002 0.0000 0.0000
# 3 17.2547 -1.2886 86.5457 -0.0008 0.0002 0.0000
# 4 0.0001 -0.0002 -0.0008 10.0845 -0.0001 0.0001
# 5 0.0000 0.0000 0.0002 -0.0001 20.1153 0.0001
# 6 0.0000 0.0000 0.0000 0.0001 0.0001 7.2744
#
#
#
# Elastic Compliance Matrix: (Units=1/GPa)
#
#
# Indices 1 2 3 4 5 6 
#
# 1 0.024282 -0.001578 -0.004865 -0.000001 0.000000 0.000000
# 2 -0.001578 0.013708 0.000519 0.000000 0.000000 0.000000
# 3 -0.004865 0.000519 0.012532 0.000001 0.000000 0.000000
# 4 -0.000001 0.000000 0.000001 0.099162 0.000001 -0.000001
# 5 0.000000 0.000000 0.000000 0.000001 0.049713 -0.000001
# 6 0.000000 0.000000 0.000000 -0.000001 -0.000001 0.137469
#
#
# Mechanical properties :
#
#
# Convention : Reuss Voigt Hill
#
# Bulk Modulus (GPa) = 25.85703 27.33003 26.59353
# Shear Modulus (GPa) = 13.82722 19.79573 16.81147
#
# Velocity S-wave (km/s) = 2.34271 2.80309 2.58318
# Velocity P-wave (km/s) = 4.19296 4.61782 4.41051
#
# Compressibility (1/GPa) = 0.03867420
#
# Stress axis : x y z
#
# Youngs Moduli (GPa) = 41.18285 72.95095 79.79461
#
# Poissons Ratio (x) = 0.11512 0.38817
# Poissons Ratio (y) = 0.06499 -0.04139
# Poissons Ratio (z) = 0.20034 -0.03784
#
# Static dielectric constant tensor:
#      x y z
#    x 2.061780 0.000000 0.000000 
#    y 0.000000 2.056440 0.000000 
#    z 0.000000 0.000000 1.967580 
# 
# From -- ./inp_files/1451.got.cif
#   From: 2010.05.17/outbox.cif.g08.bks.cpg/sg45_1_cif.got.tgz:1451.got - 2010.06.03 19:51:22.
