data_PCOD9376485
_publ_section_title
;
Structure prediction by ZEFSAII (Michael W. Deem and Ramdas Pophale) SiO2 
 PCOD9376485
Probable space group: I B A 2
;
_chemical_formula_sum "Si O2"
_cell_formula_units_Z 48
_cell_length_a 29.562598
_cell_length_b 5.069265
_cell_length_c 16.718074
_cell_angle_alpha 90.000000
_cell_angle_beta 90.000000
_cell_angle_gamma 90.000000
_cell_volume 2505.381325
_symmetry_space_group_name_H-M "I B A 2"
_symmetry_group_IT_number 45
_symmetry_cell_setting 'orthorhombic'
loop_
_space_group_symop_operation_xyz
x,y,z
-x,-y,z
-x,y,1/2+z
x,-y,1/2+z
1/2+x,1/2+y,1/2+z
1/2-x,1/2-y,1/2+z
1/2-x,1/2+y,z
1/2+x,1/2-y,z
loop_
_atom_site_type_symbol
_atom_site_label
_atom_site_fract_x
_atom_site_fract_y
_atom_site_fract_z
Si Si1 0.374801 0.342175 0.888030
Si Si2 0.530449 0.242469 0.116947
Si Si3 0.407854 0.870973 0.975493
Si Si4 0.280639 0.255401 0.972129
Si Si5 0.341672 0.107325 0.111954
Si Si6 0.625097 0.368415 0.199952
O O1 0.388499 0.601052 0.938678
O O2 0.374825 0.402677 0.794624
O O3 0.408543 0.101163 0.909624
O O4 0.324841 0.250988 0.916046
O O5 0.500000 0.500000 0.119232
O O6 0.575403 0.280823 0.169830
O O7 0.500000 0.000000 0.144761
O O8 0.547437 0.188142 0.026272
O O9 0.374082 0.990851 0.042492
O O10 0.255818 0.529524 0.958008
O O11 0.298267 0.206890 0.062877
O O12 0.362950 0.360253 0.155136
O O13 0.339978 0.862793 0.173183
#
# Coordination Sequence:
#
# PCOD9376485 Si02
#       6
#     8   8   8   8   8   8
#     4  11  22  39  61  86 119 157 192 235 297 361
#     4  11  21  37  59  86 114 150 199 250 286 332
#     4  10  20  38  60  82 110 155 198 229 281 360
#     4  11  21  37  59  86 114 150 196 246 283 327
#     4  10  20  38  60  82 111 156 200 229 279 358
#     4  11  22  39  61  86 118 158 193 235 296 360
#
# _framework density 19.158759
#
# number of rings (size 3 to 8) (size 9 to 14) (size 15 to 20)
#    0.000    1.333    0.000   11.000    0.000    0.000 
#    0.000   10.000    0.000    0.000    0.000    0.000 
#    0.000    0.000    0.000    0.000    0.000    0.000 
#
# Total GULP energy -133972.483750 kJ/mol
# GULP energy per Si atom -5582.186823 kJ/mol
# Density = 1.911515 g / cm^3
# Si number density = 19.158759 Si / 1000 Ang^3
#
#
#
# Elastic Constant Matrix: (Units=GPa)
#
#
# Indices 1 2 3 4 5 6 
#
# 1 109.9339 145.7917 54.8021 0.0000 0.0000 0.0000
# 2 145.7917 435.6746 82.3445 0.0000 0.0000 0.0000
# 3 54.8021 82.3445 106.0980 0.0000 0.0000 0.0000
# 4 0.0000 0.0000 0.0000 20.4831 0.0000 0.0000
# 5 0.0000 0.0000 0.0000 0.0000 25.0341 0.0000
# 6 0.0000 0.0000 0.0000 0.0000 0.0000 24.4897
#
#
#
# Elastic Compliance Matrix: (Units=1/GPa)
#
#
# Indices 1 2 3 4 5 6 
#
# 1 0.018887 -0.005246 -0.005684 0.000000 0.000000 0.000000
# 2 -0.005246 0.004147 -0.000509 0.000000 0.000000 0.000000
# 3 -0.005684 -0.000509 0.012756 0.000000 0.000000 0.000000
# 4 0.000000 0.000000 0.000000 0.048821 0.000000 0.000000
# 5 0.000000 0.000000 0.000000 0.000000 0.039946 0.000000
# 6 0.000000 0.000000 0.000000 0.000000 0.000000 0.040833
#
#
# Mechanical properties :
#
#
# Convention : Reuss Voigt Hill
#
# Bulk Modulus (GPa) = 77.44581 135.28701 106.36641
# Shear Modulus (GPa) = 25.96440 38.58593 32.27516
#
# Velocity S-wave (km/s) = 3.68533 4.49264 4.10886
# Velocity P-wave (km/s) = 7.65636 9.88325 8.84021
#
# Compressibility (1/GPa) = 0.01291226
#
# Stress axis : x y z
#
# Youngs Moduli (GPa) = 52.94689 241.14265 78.39352
#
# Poissons Ratio (x) = 1.26500 0.44559
# Poissons Ratio (y) = 0.27775 0.03989
# Poissons Ratio (z) = 0.30095 0.12271
#
# Static dielectric constant tensor:
#      x y z
#    x 1.684030 0.000000 0.000000 
#    y 0.000000 1.661750 0.000000 
#    z 0.000000 0.000000 1.675190 
# 
# From -- ./inp_files/7149.got.cif
#   From: 2010.05.17/outbox.cif.g08.bks.cpg/sg45_4_cif.got.tgz:7149.got - 2010.06.03 19:51:22.
