data_PCOD9376744
_publ_section_title
;
Structure prediction by ZEFSAII (Michael W. Deem and Ramdas Pophale) SiO2 
 PCOD9376744
Probable space group: I B A 2
;
_chemical_formula_sum "Si O2"
_cell_formula_units_Z 60
_cell_length_a 22.364752
_cell_length_b 14.848131
_cell_length_c 8.685782
_cell_angle_alpha 90.000000
_cell_angle_beta 90.000000
_cell_angle_gamma 90.000000
_cell_volume 2884.329038
_symmetry_space_group_name_H-M "I B A 2"
_symmetry_group_IT_number 45
_symmetry_cell_setting 'orthorhombic'
loop_
_space_group_symop_operation_xyz
x,y,z
-x,-y,z
-x,y,1/2+z
x,-y,1/2+z
1/2+x,1/2+y,1/2+z
1/2-x,1/2-y,1/2+z
1/2-x,1/2+y,z
1/2+x,1/2-y,z
loop_
_atom_site_type_symbol
_atom_site_label
_atom_site_fract_x
_atom_site_fract_y
_atom_site_fract_z
Si Si1 0.470719 0.128619 0.500000
Si Si2 0.154268 0.938369 0.472058
Si Si3 0.500000 0.000000 0.747679
Si Si4 0.117504 0.235333 0.127840
Si Si5 0.205281 0.443594 0.433113
Si Si6 0.353642 0.623443 0.618980
Si Si7 0.604423 0.800599 0.980070
Si Si8 0.784992 0.623086 0.084541
O O1 0.433786 0.217977 0.526009
O O2 0.540956 0.151365 0.499983
O O3 0.458631 0.062170 0.642471
O O4 0.461435 0.067695 0.350794
O O5 0.124211 0.868387 0.588451
O O6 0.226533 0.934125 0.495316
O O7 0.143704 0.908648 0.295945
O O8 0.131197 0.038080 0.511483
O O9 0.107968 0.260081 0.306398
O O10 0.177782 0.286109 0.076399
O O11 0.157577 0.373273 0.501716
O O12 0.206559 0.421550 0.252389
O O13 0.191823 0.548157 0.465644
O O14 0.389541 0.714661 0.590771
O O15 0.284936 0.643990 0.571553
#
# Coordination Sequence:
#
# PCOD9376744 Si02
#       8
#     8   8   4   8   8   8   8   8
#     4  11  24  40  61  88 120 156 197 234 289 340
#     4  10  21  39  61  85 116 153 194 242 293 344
#     4  10  24  42  60  82 126 158 192 238 284 340
#     4  11  23  38  59  86 120 154 197 242 287 345
#     4   9  20  35  56  87 119 154 192 235 290 346
#     4  10  21  39  61  85 116 153 194 242 293 344
#     4  11  23  38  59  86 120 154 197 242 287 345
#     4   9  20  35  56  87 119 154 192 235 290 346
#
# _framework density 20.802064000000001
#
# number of rings (size 3 to 8) (size 9 to 14) (size 15 to 20)
#    0.000    1.867    1.333    1.600    5.600    2.133 
#    0.000    0.667    0.000    3.200    0.000    0.000 
#    0.000    0.000    0.000    0.000    0.000    0.000 
#
# Total GULP energy -167642.196628 kJ/mol
# GULP energy per Si atom -5588.073221 kJ/mol
# Density = 2.075472 g / cm^3
# Si number density = 20.802064 Si / 1000 Ang^3
#
#
#
# Elastic Constant Matrix: (Units=GPa)
#
#
# Indices 1 2 3 4 5 6 
#
# 1 31.9757 16.9347 8.7587 0.0000 0.0000 0.0000
# 2 16.9347 74.2348 8.3398 0.0000 0.0000 0.0000
# 3 8.7587 8.3398 41.5273 0.0000 0.0000 0.0000
# 4 0.0000 0.0000 0.0000 36.8703 0.0000 0.0000
# 5 0.0000 0.0000 0.0000 0.0000 13.1365 0.0000
# 6 0.0000 0.0000 0.0000 0.0000 0.0000 14.1773
#
#
#
# Elastic Compliance Matrix: (Units=1/GPa)
#
#
# Indices 1 2 3 4 5 6 
#
# 1 0.037100 -0.007759 -0.006267 0.000000 0.000000 0.000000
# 2 -0.007759 0.015405 -0.001457 0.000000 0.000000 0.000000
# 3 -0.006267 -0.001457 0.025695 0.000000 0.000000 0.000000
# 4 0.000000 0.000000 0.000000 0.027122 0.000000 0.000000
# 5 0.000000 0.000000 0.000000 0.000000 0.076124 0.000000
# 6 0.000000 0.000000 0.000000 0.000000 0.000000 0.070535
#
#
# Mechanical properties :
#
#
# Convention : Reuss Voigt Hill
#
# Bulk Modulus (GPa) = 21.17156 23.97825 22.57490
# Shear Modulus (GPa) = 16.73972 20.41713 18.57842
#
# Velocity S-wave (km/s) = 2.83983 3.13628 2.99173
# Velocity P-wave (km/s) = 4.57739 4.96658 4.77595
#
# Compressibility (1/GPa) = 0.04723318
#
# Stress axis : x y z
#
# Youngs Moduli (GPa) = 26.95435 64.91589 38.91821
#
# Poissons Ratio (x) = 0.50370 0.24388
# Poissons Ratio (y) = 0.20915 0.05671
# Poissons Ratio (z) = 0.16891 0.09459
#
# Static dielectric constant tensor:
#      x y z
#    x 1.750280 0.000000 0.000000 
#    y 0.000000 1.716150 0.000000 
#    z 0.000000 0.000000 1.766640 
# 
# From -- ./inp_files/2523.got.cif
#   From: 2010.05.17/outbox.cif.g08.bks.cpg/sg45_2_cif.got.tgz:2523.got - 2010.06.03 19:51:22.
