data_PCOD9376733
_publ_section_title
;
Structure prediction by ZEFSAII (Michael W. Deem and Ramdas Pophale) SiO2 
 PCOD9376733
Probable space group: I B A 2
;
_chemical_formula_sum "Si O2"
_cell_formula_units_Z 48
_cell_length_a 17.317714
_cell_length_b 8.635128
_cell_length_c 14.370788
_cell_angle_alpha 90.000000
_cell_angle_beta 90.000000
_cell_angle_gamma 90.000000
_cell_volume 2149.017367
_symmetry_space_group_name_H-M "I B A 2"
_symmetry_group_IT_number 45
_symmetry_cell_setting 'orthorhombic'
loop_
_space_group_symop_operation_xyz
x,y,z
-x,-y,z
-x,y,1/2+z
x,-y,1/2+z
1/2+x,1/2+y,1/2+z
1/2-x,1/2-y,1/2+z
1/2-x,1/2+y,z
1/2+x,1/2-y,z
loop_
_atom_site_type_symbol
_atom_site_label
_atom_site_fract_x
_atom_site_fract_y
_atom_site_fract_z
Si Si1 0.444842 0.367139 0.407000
Si Si2 0.193666 0.648557 0.811597
Si Si3 0.833665 0.838709 0.560986
Si Si4 0.204985 0.164436 0.989700
Si Si5 0.441235 0.875627 0.435395
Si Si6 0.160066 0.983136 0.745123
O O1 0.500000 0.500000 0.449315
O O2 0.384103 0.290949 0.478644
O O3 0.503805 0.236846 0.375385
O O4 0.394285 0.445254 0.325906
O O5 0.124372 0.562942 0.865610
O O6 0.250705 0.537588 0.756273
O O7 0.161135 0.797961 0.757459
O O8 0.248617 0.707398 0.896329
O O9 0.757373 0.731715 0.572108
O O10 0.896596 0.729575 0.511290
O O11 0.864174 0.931445 0.650150
O O12 0.802172 0.979413 0.497408
O O13 0.500000 0.000000 0.476286
#
# Coordination Sequence:
#
# PCOD9376733 Si02
#       6
#     8   8   8   8   8   8
#     4  11  20  42  62  90 123 176 222 266 326 410
#     4  10  21  40  65  93 122 178 222 268 320 405
#     4  11  23  42  62 103 130 172 222 287 339 386
#     4  10  21  38  67  89 127 172 227 266 329 409
#     4  11  24  40  66  96 130 173 230 266 330 415
#     4  11  23  40  66  93 134 165 225 280 334 387
#
# _framework density 22.335791
#
# number of rings (size 3 to 8) (size 9 to 14) (size 15 to 20)
#    0.000    1.333    3.333    4.000    9.333    0.000 
#    3.000    0.833    0.000    0.000    0.000    0.000 
#    0.000    0.000    0.000    0.000    0.000    0.000 
#
# Total GULP energy -133791.001208 kJ/mol
# GULP energy per Si atom -5574.625050 kJ/mol
# Density = 2.228495 g / cm^3
# Si number density = 22.335791 Si / 1000 Ang^3
#
#
#
# Elastic Constant Matrix: (Units=GPa)
#
#
# Indices 1 2 3 4 5 6 
#
# 1 134.7188 38.8415 23.0911 0.0000 0.0000 0.0000
# 2 38.8415 79.7797 29.9335 0.0000 0.0000 0.0000
# 3 23.0911 29.9335 66.3854 0.0000 0.0000 0.0000
# 4 0.0000 0.0000 0.0000 27.7122 0.0000 0.0000
# 5 0.0000 0.0000 0.0000 0.0000 16.8147 0.0000
# 6 0.0000 0.0000 0.0000 0.0000 0.0000 50.7543
#
#
#
# Elastic Compliance Matrix: (Units=1/GPa)
#
#
# Indices 1 2 3 4 5 6 
#
# 1 0.008734 -0.003746 -0.001349 0.000000 0.000000 0.000000
# 2 -0.003746 0.016694 -0.006224 0.000000 0.000000 0.000000
# 3 -0.001349 -0.006224 0.018339 0.000000 0.000000 0.000000
# 4 0.000000 0.000000 0.000000 0.036085 0.000000 0.000000
# 5 0.000000 0.000000 0.000000 0.000000 0.059472 0.000000
# 6 0.000000 0.000000 0.000000 0.000000 0.000000 0.019703
#
#
# Mechanical properties :
#
#
# Convention : Reuss Voigt Hill
#
# Bulk Modulus (GPa) = 47.32928 51.62401 49.47665
# Shear Modulus (GPa) = 26.49592 31.65743 29.07668
#
# Velocity S-wave (km/s) = 3.44794 3.76884 3.61196
# Velocity P-wave (km/s) = 6.08991 6.48859 6.29240
#
# Compressibility (1/GPa) = 0.02112857
#
# Stress axis : x y z
#
# Youngs Moduli (GPa) = 114.49300 59.90269 54.52784
#
# Poissons Ratio (x) = 0.22441 0.07355
# Poissons Ratio (y) = 0.42892 0.33939
# Poissons Ratio (z) = 0.15443 0.37285
#
# Static dielectric constant tensor:
#      x y z
#    x 1.873390 0.000000 0.000000 
#    y 0.000000 1.883310 0.000000 
#    z 0.000000 0.000000 1.893350 
# 
# From -- ./inp_files/8303.got.cif
#   From: 2010.05.17/outbox.cif.g08.bks.cpg/sg45_5_cif.got.tgz:8303.got - 2010.06.03 19:51:22.
