data_PCOD9376564
_publ_section_title
;
Structure prediction by ZEFSAII (Michael W. Deem and Ramdas Pophale) SiO2 
 PCOD9376564
Probable space group: I B A 2
;
_chemical_formula_sum "Si O2"
_cell_formula_units_Z 44
_cell_length_a 17.554092
_cell_length_b 9.207016
_cell_length_c 14.218995
_cell_angle_alpha 90.000000
_cell_angle_beta 90.000000
_cell_angle_gamma 90.000000
_cell_volume 2298.085431
_symmetry_space_group_name_H-M "I B A 2"
_symmetry_group_IT_number 45
_symmetry_cell_setting 'orthorhombic'
loop_
_space_group_symop_operation_xyz
x,y,z
-x,-y,z
-x,y,1/2+z
x,-y,1/2+z
1/2+x,1/2+y,1/2+z
1/2-x,1/2-y,1/2+z
1/2-x,1/2+y,z
1/2+x,1/2-y,z
loop_
_atom_site_type_symbol
_atom_site_label
_atom_site_fract_x
_atom_site_fract_y
_atom_site_fract_z
Si Si1 0.500000 0.500000 0.736011
Si Si2 0.969885 0.719791 0.860931
Si Si3 0.734652 0.434004 0.364553
Si Si4 0.108054 0.435357 0.304024
Si Si5 0.858894 0.825486 0.183460
Si Si6 0.670122 0.306531 0.973431
O O1 0.525032 0.367170 0.802481
O O2 0.429202 0.437565 0.677809
O O3 0.930225 0.593615 0.798254
O O4 0.914250 0.745529 0.948640
O O5 0.054864 0.656841 0.876390
O O6 0.806629 0.533242 0.335801
O O7 0.693236 0.376202 0.270963
O O8 0.679664 0.537144 0.424523
O O9 0.770312 0.304166 0.425717
O O10 0.110266 0.333813 0.212615
O O11 0.817766 0.818243 0.084180
#
# Coordination Sequence:
#
# PCOD9376564 Si02
#       6
#     4   8   8   8   8   8
#     4  10  20  40  64  92 124 178 206 282 312 374
#     4   9  19  40  65  87 125 166 214 259 331 368
#     4  11  22  42  61  94 132 167 207 277 323 386
#     4   9  20  40  63  86 126 171 200 269 321 377
#     4  11  23  40  64  94 130 170 223 262 329 394
#     4  11  24  39  65  95 124 173 215 262 330 391
#
# _framework density 19.146372
#
# number of rings (size 3 to 8) (size 9 to 14) (size 15 to 20)
#    0.000    1.818    3.636    0.000    2.545    0.727 
#    0.000   14.545    0.000    0.000    0.000    0.000 
#    0.000    0.000    0.000    0.000    0.000    0.000 
#
# Total GULP energy -122656.830031 kJ/mol
# GULP energy per Si atom -5575.310456 kJ/mol
# Density = 1.910279 g / cm^3
# Si number density = 19.146372 Si / 1000 Ang^3
#
#
#
# Elastic Constant Matrix: (Units=GPa)
#
#
# Indices 1 2 3 4 5 6 
#
# 1 79.6824 22.1275 37.4043 0.0000 0.0000 0.0000
# 2 22.1275 119.3103 48.4758 0.0000 0.0000 0.0000
# 3 37.4043 48.4758 122.2785 0.0000 0.0000 0.0000
# 4 0.0000 0.0000 0.0000 14.6120 0.0000 0.0000
# 5 0.0000 0.0000 0.0000 0.0000 17.1687 0.0000
# 6 0.0000 0.0000 0.0000 0.0000 0.0000 15.5886
#
#
#
# Elastic Compliance Matrix: (Units=1/GPa)
#
#
# Indices 1 2 3 4 5 6 
#
# 1 0.014769 -0.001077 -0.004091 0.000000 0.000000 0.000000
# 2 -0.001077 0.010069 -0.003662 0.000000 0.000000 0.000000
# 3 -0.004091 -0.003662 0.010881 0.000000 0.000000 0.000000
# 4 0.000000 0.000000 0.000000 0.068437 0.000000 0.000000
# 5 0.000000 0.000000 0.000000 0.000000 0.058246 0.000000
# 6 0.000000 0.000000 0.000000 0.000000 0.000000 0.064150
#
#
# Mechanical properties :
#
#
# Convention : Reuss Voigt Hill
#
# Bulk Modulus (GPa) = 55.37307 59.69849 57.53578
# Shear Modulus (GPa) = 19.98145 23.69143 21.83644
#
# Velocity S-wave (km/s) = 3.23401 3.52146 3.38079
# Velocity P-wave (km/s) = 6.55201 6.91245 6.73464
#
# Compressibility (1/GPa) = 0.01805932
#
# Stress axis : x y z
#
# Youngs Moduli (GPa) = 67.70840 99.31197 91.90061
#
# Poissons Ratio (x) = 0.10696 0.37595
# Poissons Ratio (y) = 0.07292 0.33658
# Poissons Ratio (z) = 0.27698 0.36372
#
# Static dielectric constant tensor:
#      x y z
#    x 1.725930 0.000000 0.000000 
#    y 0.000000 1.686700 0.000000 
#    z 0.000000 0.000000 1.616140 
# 
# From -- ./inp_files/5552.got.cif
#   From: 2010.05.17/outbox.cif.g08.bks.cpg/sg45_3_cif.got.tgz:5552.got - 2010.06.03 19:51:22.
