data_PCOD9376932
_publ_section_title
;
Structure prediction by ZEFSAII (Michael W. Deem and Ramdas Pophale) SiO2 
 PCOD9376932
Probable space group: I B A 2
;
_chemical_formula_sum "Si O2"
_cell_formula_units_Z 60
_cell_length_a 30.287048
_cell_length_b 10.795066
_cell_length_c 8.818371
_cell_angle_alpha 90.000000
_cell_angle_beta 90.000000
_cell_angle_gamma 90.000000
_cell_volume 2883.172414
_symmetry_space_group_name_H-M "I B A 2"
_symmetry_group_IT_number 45
_symmetry_cell_setting 'orthorhombic'
loop_
_space_group_symop_operation_xyz
x,y,z
-x,-y,z
-x,y,1/2+z
x,-y,1/2+z
1/2+x,1/2+y,1/2+z
1/2-x,1/2-y,1/2+z
1/2-x,1/2+y,z
1/2+x,1/2-y,z
loop_
_atom_site_type_symbol
_atom_site_label
_atom_site_fract_x
_atom_site_fract_y
_atom_site_fract_z
Si Si1 0.131803 0.916355 0.015100
Si Si2 0.881714 0.282600 0.247797
Si Si3 0.558433 0.384237 0.912907
Si Si4 0.500000 0.500000 0.152790
Si Si5 0.694862 0.240722 0.969901
Si Si6 0.192710 0.066841 0.243197
Si Si7 0.733074 0.893549 0.906111
Si Si8 0.175153 0.495983 0.149620
O O1 0.110592 0.798754 0.097415
O O2 0.166277 0.971456 0.135378
O O3 0.158842 0.880201 0.866632
O O4 0.097285 0.023300 0.968709
O O5 0.921414 0.248088 0.363213
O O6 0.839501 0.227337 0.339018
O O7 0.866282 0.419043 0.194272
O O8 0.536688 0.443352 0.763239
O O9 0.521869 0.396054 0.044441
O O10 0.743803 0.258873 0.899727
O O11 0.700404 0.327681 0.116179
O O12 0.674633 0.111883 0.025066
O O13 0.229659 0.989640 0.339697
O O14 0.693086 0.922605 0.794628
O O15 0.713164 0.917812 0.073301
#
# Coordination Sequence:
#
# PCOD9376932 Si02
#       8
#     8   8   8   4   8   8   8   8
#     4  12  20  37  64  97 134 179 217 270 349 423
#     4  12  25  44  63  92 143 185 231 279 355 436
#     4  11  20  40  67 108 151 169 205 280 338 443
#     4  10  22  36  70 118 148 166 212 260 374 422
#     4  12  26  42  63  87 129 182 240 300 355 408
#     4  12  21  37  62  93 123 181 233 284 355 401
#     4  12  24  42  59  87 127 172 245 316 354 387
#     4  12  29  43  57  91 126 184 244 302 356 414
#
# _framework density 20.810410000000001
#
# number of rings (size 3 to 8) (size 9 to 14) (size 15 to 20)
#    0.000    0.267    9.333    0.000    5.600    0.000 
#    0.000    0.000    0.000    0.000    0.000    2.800 
#    0.000    0.000    0.000    0.000    0.000    0.000 
#
# Total GULP energy -167175.246113 kJ/mol
# GULP energy per Si atom -5572.508204 kJ/mol
# Density = 2.076304 g / cm^3
# Si number density = 20.810410 Si / 1000 Ang^3
#
#
#
# Elastic Constant Matrix: (Units=GPa)
#
#
# Indices 1 2 3 4 5 6 
#
# 1 37.3961 31.4971 12.7785 0.0000 0.0000 0.0000
# 2 31.4971 96.5346 28.7488 0.0000 0.0000 0.0000
# 3 12.7785 28.7488 99.2018 0.0000 0.0000 0.0000
# 4 0.0000 0.0000 0.0000 34.8388 0.0000 0.0000
# 5 0.0000 0.0000 0.0000 0.0000 26.2618 0.0000
# 6 0.0000 0.0000 0.0000 0.0000 0.0000 23.5065
#
#
#
# Elastic Compliance Matrix: (Units=1/GPa)
#
#
# Indices 1 2 3 4 5 6 
#
# 1 0.037048 -0.011674 -0.001389 0.000000 0.000000 0.000000
# 2 -0.011674 0.015016 -0.002848 0.000000 0.000000 0.000000
# 3 -0.001389 -0.002848 0.011085 0.000000 0.000000 0.000000
# 4 0.000000 0.000000 0.000000 0.028704 0.000000 0.000000
# 5 0.000000 0.000000 0.000000 0.000000 0.038078 0.000000
# 6 0.000000 0.000000 0.000000 0.000000 0.000000 0.042542
#
#
# Mechanical properties :
#
#
# Convention : Reuss Voigt Hill
#
# Bulk Modulus (GPa) = 31.92187 42.13126 37.02657
# Shear Modulus (GPa) = 23.28428 27.59527 25.43978
#
# Velocity S-wave (km/s) = 3.34859 3.64542 3.50015
# Velocity P-wave (km/s) = 5.50667 6.16507 5.84515
#
# Compressibility (1/GPa) = 0.03132649
#
# Stress axis : x y z
#
# Youngs Moduli (GPa) = 26.99190 66.59479 90.21428
#
# Poissons Ratio (x) = 0.77745 0.12531
# Poissons Ratio (y) = 0.31511 0.25692
# Poissons Ratio (z) = 0.03749 0.18966
#
# Static dielectric constant tensor:
#      x y z
#    x 1.790040 0.000000 0.000000 
#    y 0.000000 1.857090 0.000000 
#    z 0.000000 0.000000 1.795850 
# 
# From -- ./inp_files/2769.got.cif
#   From: 2010.05.17/outbox.cif.g08.bks.cpg/sg45_2_cif.got.tgz:2769.got - 2010.06.03 19:51:22.
