data_PCOD9376981
_publ_section_title
;
Structure prediction by ZEFSAII (Michael W. Deem and Ramdas Pophale) SiO2 
 PCOD9376981
Probable space group: I B A 2
;
_chemical_formula_sum "Si O2"
_cell_formula_units_Z 52
_cell_length_a 10.662352
_cell_length_b 28.664857
_cell_length_c 8.882010
_cell_angle_alpha 90.000000
_cell_angle_beta 90.000000
_cell_angle_gamma 90.000000
_cell_volume 2714.651309
_symmetry_space_group_name_H-M "I B A 2"
_symmetry_group_IT_number 45
_symmetry_cell_setting 'orthorhombic'
loop_
_space_group_symop_operation_xyz
x,y,z
-x,-y,z
-x,y,1/2+z
x,-y,1/2+z
1/2+x,1/2+y,1/2+z
1/2-x,1/2-y,1/2+z
1/2-x,1/2+y,z
1/2+x,1/2-y,z
loop_
_atom_site_type_symbol
_atom_site_label
_atom_site_fract_x
_atom_site_fract_y
_atom_site_fract_z
Si Si1 0.167138 0.309841 0.028550
Si Si2 0.330917 0.122173 0.052196
Si Si3 0.500000 0.500000 0.375943
Si Si4 0.914719 0.932757 0.134450
Si Si5 0.978095 0.645395 0.286632
Si Si6 0.076911 0.840451 0.162816
Si Si7 0.154363 0.798525 0.488277
O O1 0.302196 0.334103 0.054354
O O2 0.095553 0.315981 0.188702
O O3 0.078581 0.333395 0.903200
O O4 0.180404 0.256111 0.983550
O O5 0.214913 0.092887 0.107969
O O6 0.445007 0.116377 0.165270
O O7 0.380083 0.115422 0.883261
O O8 0.277996 0.175245 0.049600
O O9 0.441492 0.461444 0.483830
O O10 0.589725 0.470543 0.266935
O O11 0.021364 0.893189 0.164980
O O12 0.117348 0.821692 0.327506
O O13 0.962571 0.809634 0.097600
#
# Coordination Sequence:
#
# PCOD9376981 Si02
#       7
#     8   8   4   8   8   8   8
#     4  11  24  37  58  84 125 169 223 252 303 356
#     4  10  22  40  60  86 127 160 214 250 308 381
#     4  10  22  40  72 100 120 148 192 274 336 398
#     4  10  22  42  67 101 121 154 204 261 340 379
#     4  10  23  39  56  86 115 179 200 257 293 367
#     4  11  24  39  62  90 126 171 206 272 308 379
#     4  11  24  36  57  88 125 168 218 267 303 349
#
# _framework density 19.155315000000002
#
# number of rings (size 3 to 8) (size 9 to 14) (size 15 to 20)
#    0.000    1.538    1.538    2.769   12.923    0.000 
#    0.000    0.000    0.000    2.769    0.000    0.000 
#    0.000    0.000    0.000    0.000    0.000    0.000 
#
# Total GULP energy -145118.389284 kJ/mol
# GULP energy per Si atom -5581.476511 kJ/mol
# Density = 1.911172 g / cm^3
# Si number density = 19.155315 Si / 1000 Ang^3
#
#
#
# Elastic Constant Matrix: (Units=GPa)
#
#
# Indices 1 2 3 4 5 6 
#
# 1 82.5049 22.8420 22.4015 0.0025 -0.0007 0.0000
# 2 22.8420 90.4423 32.4284 0.0007 -0.0007 -0.0002
# 3 22.4015 32.4284 97.7020 0.0019 0.0083 -0.0002
# 4 0.0025 0.0007 0.0019 35.1951 -0.0024 -0.0003
# 5 -0.0007 -0.0007 0.0083 -0.0024 6.4817 0.0001
# 6 0.0000 -0.0002 -0.0002 -0.0003 0.0001 3.6865
#
#
#
# Elastic Compliance Matrix: (Units=1/GPa)
#
#
# Indices 1 2 3 4 5 6 
#
# 1 0.013443 -0.002599 -0.002219 -0.000001 0.000004 0.000000
# 2 -0.002599 0.013053 -0.003736 0.000000 0.000006 0.000000
# 3 -0.002219 -0.003736 0.011984 0.000000 -0.000016 0.000000
# 4 -0.000001 0.000000 0.000000 0.028413 0.000011 0.000003
# 5 0.000004 0.000006 -0.000016 0.000011 0.154279 -0.000004
# 6 0.000000 0.000000 0.000000 0.000003 -0.000004 0.271263
#
#
# Mechanical properties :
#
#
# Convention : Reuss Voigt Hill
#
# Bulk Modulus (GPa) = 46.79554 47.33255 47.06405
# Shear Modulus (GPa) = 9.67737 21.93781 15.80759
#
# Velocity S-wave (km/s) = 2.25012 3.38784 2.87580
# Velocity P-wave (km/s) = 5.58867 6.32983 5.97076
#
# Compressibility (1/GPa) = 0.02136956
#
# Stress axis : x y z
#
# Youngs Moduli (GPa) = 74.38956 76.61097 83.44277
#
# Poissons Ratio (x) = 0.19913 0.18520
# Poissons Ratio (y) = 0.19336 0.31178
# Poissons Ratio (z) = 0.16511 0.28625
#
# Static dielectric constant tensor:
#      x y z
#    x 1.678480 0.000000 0.000000 
#    y 0.000000 1.632480 0.000000 
#    z 0.000000 0.000000 1.707040 
# 
# From -- ./inp_files/1413.got.cif
#   From: 2010.05.17/outbox.cif.g08.bks.cpg/sg45_1_cif.got.tgz:1413.got - 2010.06.03 19:51:22.
