data_PCOD9376826
_publ_section_title
;
Structure prediction by ZEFSAII (Michael W. Deem and Ramdas Pophale) SiO2 
 PCOD9376826
Probable space group: I B A 2
;
_chemical_formula_sum "Si O2"
_cell_formula_units_Z 40
_cell_length_a 14.449433
_cell_length_b 23.045961
_cell_length_c 5.310600
_cell_angle_alpha 90.000000
_cell_angle_beta 90.000000
_cell_angle_gamma 90.000000
_cell_volume 1768.435479
_symmetry_space_group_name_H-M "I B A 2"
_symmetry_group_IT_number 45
_symmetry_cell_setting 'orthorhombic'
loop_
_space_group_symop_operation_xyz
x,y,z
-x,-y,z
-x,y,1/2+z
x,-y,1/2+z
1/2+x,1/2+y,1/2+z
1/2-x,1/2-y,1/2+z
1/2-x,1/2+y,z
1/2+x,1/2-y,z
loop_
_atom_site_type_symbol
_atom_site_label
_atom_site_fract_x
_atom_site_fract_y
_atom_site_fract_z
Si Si1 0.061484 0.264461 0.006540
Si Si2 0.396178 0.523140 0.087325
Si Si3 0.670494 0.643930 0.463086
Si Si4 0.461696 0.934483 0.881690
Si Si5 0.291745 0.131391 0.462619
O O1 0.117046 0.204219 0.976965
O O2 0.134573 0.316547 0.989659
O O3 0.010074 0.266840 0.274606
O O4 0.500000 0.500000 0.124455
O O5 0.350598 0.512441 0.358581
O O6 0.397225 0.589528 0.005843
O O7 0.722761 0.635124 0.198430
O O8 0.740642 0.639517 0.697617
O O9 0.478711 0.907165 0.607933
O O10 0.500000 0.000000 0.852818
O O11 0.355676 0.926271 0.957621
#
# Coordination Sequence:
#
# PCOD9376826 Si02
#       5
#     8   8   8   8   8
#     4  12  26  44  76 102 138 186 231 275 349 423
#     4  10  23  43  68  93 139 178 230 280 333 411
#     4  12  26  44  71 103 142 178 226 295 350 399
#     4  10  21  41  65  90 129 177 224 274 325 407
#     4  12  24  46  68 106 140 177 229 290 349 396
#
# _framework density 22.618862
#
# number of rings (size 3 to 8) (size 9 to 14) (size 15 to 20)
#    0.000    0.800    0.000    7.200    5.600    0.000 
#   21.600    0.000    0.000    0.000    0.000    0.000 
#    0.000    0.000    0.000    0.000    0.000    0.000 
#
# Total GULP energy -111890.768115 kJ/mol
# GULP energy per Si atom -5594.538406 kJ/mol
# Density = 2.256738 g / cm^3
# Si number density = 22.618862 Si / 1000 Ang^3
#
#
#
# Elastic Constant Matrix: (Units=GPa)
#
#
# Indices 1 2 3 4 5 6 
#
# 1 75.0730 34.8721 7.8597 0.0000 -0.0001 0.0001
# 2 34.8721 105.0782 -16.9395 0.0000 0.0000 0.0000
# 3 7.8597 -16.9395 151.7619 0.0000 -0.0007 0.0007
# 4 0.0000 0.0000 0.0000 23.9805 0.0000 0.0001
# 5 -0.0001 0.0000 -0.0007 0.0000 32.3583 0.0000
# 6 0.0001 0.0000 0.0007 0.0001 0.0000 29.9239
#
#
#
# Elastic Compliance Matrix: (Units=1/GPa)
#
#
# Indices 1 2 3 4 5 6 
#
# 1 0.016056 -0.005563 -0.001452 0.000000 0.000000 0.000000
# 2 -0.005563 0.011618 0.001585 0.000000 0.000000 0.000000
# 3 -0.001452 0.001585 0.006841 0.000000 0.000000 0.000000
# 4 0.000000 0.000000 0.000000 0.041701 0.000000 0.000000
# 5 0.000000 0.000000 0.000000 0.000000 0.030904 0.000000
# 6 0.000000 0.000000 0.000000 0.000000 0.000000 0.033418
#
#
# Mechanical properties :
#
#
# Convention : Reuss Voigt Hill
#
# Bulk Modulus (GPa) = 42.27345 42.61086 42.44216
# Shear Modulus (GPa) = 31.39038 37.66059 34.52549
#
# Velocity S-wave (km/s) = 3.72936 4.08488 3.91116
# Velocity P-wave (km/s) = 6.10526 6.41310 6.26107
#
# Compressibility (1/GPa) = 0.02365551
#
# Stress axis : x y z
#
# Youngs Moduli (GPa) = 62.28054 86.07090 146.16894
#
# Poissons Ratio (x) = 0.47879 0.21230
# Poissons Ratio (y) = 0.34645 -0.23167
# Poissons Ratio (z) = 0.09046 -0.13642
#
# Static dielectric constant tensor:
#      x y z
#    x 1.945300 0.000000 0.000000 
#    y 0.000000 2.001140 0.000000 
#    z 0.000000 0.000000 1.899880 
# 
# From -- ./inp_files/93.got.cif
#   From: 2010.05.17/outbox.cif.g08.bks.cpg/sg45_1_cif.got.tgz:93.got - 2010.06.03 19:51:22.
