data_PCOD9376072
_publ_section_title
;
Structure prediction by ZEFSAII (Michael W. Deem and Ramdas Pophale) SiO2 
 PCOD9376072
Probable space group: I B A 2
;
_chemical_formula_sum "Si O2"
_cell_formula_units_Z 56
_cell_length_a 8.812693
_cell_length_b 19.650803
_cell_length_c 14.953396
_cell_angle_alpha 90.000000
_cell_angle_beta 90.000000
_cell_angle_gamma 90.000000
_cell_volume 2589.576693
_symmetry_space_group_name_H-M "I B A 2"
_symmetry_group_IT_number 45
_symmetry_cell_setting 'orthorhombic'
loop_
_space_group_symop_operation_xyz
x,y,z
-x,-y,z
-x,y,1/2+z
x,-y,1/2+z
1/2+x,1/2+y,1/2+z
1/2-x,1/2-y,1/2+z
1/2-x,1/2+y,z
1/2+x,1/2-y,z
loop_
_atom_site_type_symbol
_atom_site_label
_atom_site_fract_x
_atom_site_fract_y
_atom_site_fract_z
Si Si1 0.500000 0.500000 0.864210
Si Si2 0.070068 0.278160 0.462859
Si Si3 0.764174 0.348261 0.710729
Si Si4 0.235826 0.651739 0.517692
Si Si5 0.929932 0.721840 0.765561
Si Si6 0.248763 0.595484 0.907217
Si Si7 0.748763 0.904516 0.321204
Si Si8 0.000000 0.500000 0.364210
O O1 0.397000 0.550875 0.923572
O O2 0.397000 0.449125 0.804849
O O3 0.138917 0.211001 0.505586
O O4 0.208650 0.332177 0.450226
O O5 0.930104 0.312999 0.513042
O O6 1.000000 0.263593 0.364210
O O7 0.745379 0.381916 0.614210
O O8 0.638918 0.288998 0.722834
O O9 0.751308 0.393116 0.799634
O O10 0.930104 0.312999 0.715379
O O11 0.248692 0.606884 0.428786
O O12 0.791350 0.667823 0.778195
O O13 0.104647 0.547834 0.924068
O O14 0.604647 0.952166 0.304353
#
# Coordination Sequence:
#
# PCOD9376072 Si02
#       8
#     4   8   8   8   8   8   8   4
#     4  10  24  34  64  82 108 150 206 236 268 318
#     4  10  20  37  60  85 116 149 193 231 279 342
#     4  11  22  36  58  90 120 147 179 239 298 336
#     4  11  22  36  58  90 120 147 179 239 298 336
#     4  10  20  37  60  85 116 149 193 231 279 342
#     4  10  20  37  60  85 107 149 198 235 272 338
#     4  10  20  37  60  85 107 149 198 235 272 338
#     4  10  16  38  60  78 104 146 206 232 260 330
#
# _framework density 21.625156
#
# number of rings (size 3 to 8) (size 9 to 14) (size 15 to 20)
#    0.000    1.714    4.286    4.286    6.000    0.000 
#    0.000    1.429    0.000    0.000    0.000    0.000 
#    0.000    0.000    0.000    0.000    0.000    0.000 
#
# Total GULP energy -156274.431146 kJ/mol
# GULP energy per Si atom -5581.229684 kJ/mol
# Density = 2.157594 g / cm^3
# Si number density = 21.625156 Si / 1000 Ang^3
#
#
#
# Elastic Constant Matrix: (Units=GPa)
#
#
# Indices 1 2 3 4 5 6 
#
# 1 102.4378 19.3161 -7.1905 0.0000 0.0000 0.0000
# 2 19.3161 56.8827 8.5031 0.0000 0.0000 0.0000
# 3 -7.1905 8.5031 78.5191 0.0000 0.0000 0.0000
# 4 0.0000 0.0000 0.0000 -0.1190 0.0000 0.0000
# 5 0.0000 0.0000 0.0000 0.0000 -0.5095 0.0000
# 6 0.0000 0.0000 0.0000 0.0000 0.0000 48.7321
#
#
#
# Elastic Compliance Matrix: (Units=1/GPa)
#
#
# Indices 1 2 3 4 5 6 
#
# 1 0.010575 -0.003797 0.001380 0.000000 0.000000 0.000000
# 2 -0.003797 0.019233 -0.002431 0.000000 0.000000 0.000000
# 3 0.001380 -0.002431 0.013125 0.000002 0.000000 0.000000
# 4 0.000000 0.000000 0.000002 -8.404604 0.000014 0.000000
# 5 0.000000 0.000000 0.000000 0.000014 -1.962776 0.000000
# 6 0.000000 0.000000 0.000000 0.000000 0.000000 0.020520
#
#
# Mechanical properties :
#
#
# Convention : Reuss Voigt Hill
#
# Bulk Modulus (GPa) = 30.08716 31.01077 30.54897
# Shear Modulus (GPa) = -0.48623 24.10145 11.80761
#
# Velocity S-wave (km/s) = -0.47469 3.34205 2.33923
# Velocity P-wave (km/s) = 3.69362 5.40959 4.63176
#
# Compressibility (1/GPa) = 0.03323676
#
# Stress axis : x y z
#
# Youngs Moduli (GPa) = 94.56372 51.99447 76.18868
#
# Poissons Ratio (x) = 0.19743 -0.10511
# Poissons Ratio (y) = 0.35908 0.18518
# Poissons Ratio (z) = -0.13046 0.12637
#
# Static dielectric constant tensor:
#      x y z
#    x 1.842420 0.000000 0.000000 
#    y 0.000000 1.801790 0.000000 
#    z 0.000000 0.000000 1.829340 
# 
# From -- ./inp_files/5766.got.cif
#   From: 2010.05.17/outbox.cif.g08.bks.cpg/sg45_3_cif.got.tgz:5766.got - 2010.06.03 19:51:22.
