data_PCOD9376198
_publ_section_title
;
Structure prediction by ZEFSAII (Michael W. Deem and Ramdas Pophale) SiO2 
 PCOD9376198
Probable space group: I B A 2
;
_chemical_formula_sum "Si O2"
_cell_formula_units_Z 44
_cell_length_a 27.713204
_cell_length_b 5.285610
_cell_length_c 13.194554
_cell_angle_alpha 90.000000
_cell_angle_beta 90.000000
_cell_angle_gamma 90.000000
_cell_volume 1932.753948
_symmetry_space_group_name_H-M "I B A 2"
_symmetry_group_IT_number 45
_symmetry_cell_setting 'orthorhombic'
loop_
_space_group_symop_operation_xyz
x,y,z
-x,-y,z
-x,y,1/2+z
x,-y,1/2+z
1/2+x,1/2+y,1/2+z
1/2-x,1/2-y,1/2+z
1/2-x,1/2+y,z
1/2+x,1/2-y,z
loop_
_atom_site_type_symbol
_atom_site_label
_atom_site_fract_x
_atom_site_fract_y
_atom_site_fract_z
Si Si1 0.269602 0.146857 0.524220
Si Si2 0.530287 0.756490 0.664486
Si Si3 0.768126 0.971748 0.295540
Si Si4 0.855518 0.212719 0.396331
Si Si5 0.500000 0.000000 0.470990
Si Si6 0.413302 0.774423 0.354182
O O1 0.238497 0.372672 0.571480
O O2 0.246758 0.089685 0.412272
O O3 0.323574 0.232628 0.497048
O O4 0.500000 0.500000 0.672634
O O5 0.533857 0.833891 0.546570
O O6 0.576707 0.731132 0.734911
O O7 0.500000 0.000000 0.704275
O O8 0.768765 0.685305 0.254624
O O9 0.818668 0.117521 0.307455
O O10 0.881544 0.473576 0.368585
O O11 0.890022 0.971652 0.404883
O O12 0.464884 0.826400 0.406181
#
# Coordination Sequence:
#
# PCOD9376198 Si02
#       6
#     8   8   8   8   4   8
#     4   8  13  25  43  67 114 146 160 206 274 323
#     4  10  23  41  59  74 106 148 189 220 294 341
#     4   8  13  25  43  67 114 146 160 206 274 323
#     4  10  19  28  49  86 111 136 179 239 263 310
#     4  10  26  40  60  74 110 156 182 234 288 342
#     4  12  22  35  59  82 109 136 197 235 269 327
#
# _framework density 22.765442
#
# number of rings (size 3 to 8) (size 9 to 14) (size 15 to 20)
#    0.545    2.182    0.909    5.455    2.545    0.000 
#    0.000    0.000    0.000    0.000    0.000    0.000 
#    0.000  261.818    0.000    0.000    0.000    0.000 
#
# Total GULP energy -122537.888012 kJ/mol
# GULP energy per Si atom -5569.904001 kJ/mol
# Density = 2.271363 g / cm^3
# Si number density = 22.765442 Si / 1000 Ang^3
#
#
#
# Elastic Constant Matrix: (Units=GPa)
#
#
# Indices 1 2 3 4 5 6 
#
# 1 50.0710 15.8463 12.2599 0.0000 0.0000 0.0000
# 2 15.8463 187.7184 23.6546 0.0000 0.0000 0.0000
# 3 12.2599 23.6546 56.6070 0.0000 0.0000 0.0000
# 4 0.0000 0.0000 0.0000 -9.5200 0.0000 0.0000
# 5 0.0000 0.0000 0.0000 0.0000 -3.7837 0.0000
# 6 0.0000 0.0000 0.0000 0.0000 0.0000 59.8550
#
#
#
# Elastic Compliance Matrix: (Units=1/GPa)
#
#
# Indices 1 2 3 4 5 6 
#
# 1 0.021382 -0.001289 -0.004092 0.000000 0.000000 0.000000
# 2 -0.001289 0.005701 -0.002103 0.000000 0.000000 0.000000
# 3 -0.004092 -0.002103 0.019431 0.000000 0.000000 0.000000
# 4 0.000000 0.000000 0.000000 -0.105043 0.000000 0.000000
# 5 0.000000 0.000000 0.000000 0.000000 -0.264288 0.000000
# 6 0.000000 0.000000 0.000000 0.000000 0.000000 0.016707
#
#
# Mechanical properties :
#
#
# Convention : Reuss Voigt Hill
#
# Bulk Modulus (GPa) = 31.70123 44.21310 37.95716
# Shear Modulus (GPa) = -17.81726 25.48595 3.83434
#
# Velocity S-wave (km/s) = -2.80061 3.34953 1.29921
# Velocity P-wave (km/s) = 1.87015 5.86706 4.35430
#
# Compressibility (1/GPa) = 0.03154452
#
# Stress axis : x y z
#
# Youngs Moduli (GPa) = 46.76914 175.40865 51.46485
#
# Poissons Ratio (x) = 0.22615 0.21060
# Poissons Ratio (y) = 0.06030 0.10823
# Poissons Ratio (z) = 0.19138 0.36889
#
# Static dielectric constant tensor:
#      x y z
#    x 1.880820 0.000000 0.000000 
#    y 0.000000 1.951230 0.000000 
#    z 0.000000 0.000000 2.008610 
# 
# From -- ./inp_files/5216.got.cif
#   From: 2010.05.17/outbox.cif.g08.bks.cpg/sg45_3_cif.got.tgz:5216.got - 2010.06.03 19:51:22.
