data_PCOD9376519
_publ_section_title
;
Structure prediction by ZEFSAII (Michael W. Deem and Ramdas Pophale) SiO2 
 PCOD9376519
Probable space group: I B A 2
;
_chemical_formula_sum "Si O2"
_cell_formula_units_Z 52
_cell_length_a 11.400370
_cell_length_b 13.015601
_cell_length_c 17.638503
_cell_angle_alpha 90.000000
_cell_angle_beta 90.000000
_cell_angle_gamma 90.000000
_cell_volume 2617.248120
_symmetry_space_group_name_H-M "I B A 2"
_symmetry_group_IT_number 45
_symmetry_cell_setting 'orthorhombic'
loop_
_space_group_symop_operation_xyz
x,y,z
-x,-y,z
-x,y,1/2+z
x,-y,1/2+z
1/2+x,1/2+y,1/2+z
1/2-x,1/2-y,1/2+z
1/2-x,1/2+y,z
1/2+x,1/2-y,z
loop_
_atom_site_type_symbol
_atom_site_label
_atom_site_fract_x
_atom_site_fract_y
_atom_site_fract_z
Si Si1 0.858594 0.340355 0.419390
Si Si2 0.000000 0.500000 0.336168
Si Si3 0.920708 0.278651 0.151766
Si Si4 0.177094 0.690415 0.596159
Si Si5 0.337548 0.010515 0.197403
Si Si6 0.166943 0.069480 0.310983
Si Si7 0.579714 0.335973 0.812029
O O1 0.844215 0.335559 0.508407
O O2 0.752637 0.399668 0.378630
O O3 0.869247 0.229450 0.380829
O O4 0.970259 0.404332 0.389032
O O5 0.103698 0.475058 0.276767
O O6 0.803930 0.246624 0.104764
O O7 0.917890 0.402525 0.159521
O O8 0.901068 0.226182 0.234014
O O9 0.053970 0.255195 0.123121
O O10 0.189231 0.585708 0.645314
O O11 0.226977 0.075728 0.228359
O O12 0.058530 0.145528 0.317376
O O13 0.130699 0.950422 0.313769
#
# Coordination Sequence:
#
# PCOD9376519 Si02
#       7
#     8   4   8   8   8   8   8
#     4  11  26  41  66  99 137 179 220 291 349 408
#     4  10  20  38  68  96 118 174 230 272 328 394
#     4  12  24  43  70  99 132 181 224 278 337 408
#     4  12  27  43  66 102 140 175 223 286 349 408
#     4  11  20  43  67  96 127 172 236 277 330 402
#     4  10  23  41  69  98 128 182 228 284 337 408
#     4  11  22  43  69  98 135 175 238 280 340 418
#
# _framework density 19.868198
#
# number of rings (size 3 to 8) (size 9 to 14) (size 15 to 20)
#    0.000    0.923    6.154    0.923    4.308    3.692 
#    0.000    0.000    0.000    0.000    0.000    0.000 
#    0.000    0.000    0.000    0.000    0.000    0.000 
#
# Total GULP energy -145020.818433 kJ/mol
# GULP energy per Si atom -5577.723786 kJ/mol
# Density = 1.982298 g / cm^3
# Si number density = 19.868198 Si / 1000 Ang^3
#
#
#
# Elastic Constant Matrix: (Units=GPa)
#
#
# Indices 1 2 3 4 5 6 
#
# 1 102.4452 20.8932 38.0322 0.0000 0.0000 0.0000
# 2 20.8932 68.6006 37.2890 0.0000 0.0000 0.0000
# 3 38.0322 37.2890 139.7666 0.0000 0.0000 0.0000
# 4 0.0000 0.0000 0.0000 8.9075 0.0000 0.0000
# 5 0.0000 0.0000 0.0000 0.0000 20.4224 0.0000
# 6 0.0000 0.0000 0.0000 0.0000 0.0000 26.7034
#
#
#
# Elastic Compliance Matrix: (Units=1/GPa)
#
#
# Indices 1 2 3 4 5 6 
#
# 1 0.011095 -0.002033 -0.002477 0.000000 0.000000 0.000000
# 2 -0.002033 0.017422 -0.004095 0.000000 0.000000 0.000000
# 3 -0.002477 -0.004095 0.008921 0.000000 0.000000 0.000000
# 4 0.000000 0.000000 0.000000 0.112265 0.000000 0.000000
# 5 0.000000 0.000000 0.000000 0.000000 0.048966 0.000000
# 6 0.000000 0.000000 0.000000 0.000000 0.000000 0.037448
#
#
# Mechanical properties :
#
#
# Convention : Reuss Voigt Hill
#
# Bulk Modulus (GPa) = 49.43294 55.91569 52.67432
# Shear Modulus (GPa) = 19.22552 25.51319 22.36936
#
# Velocity S-wave (km/s) = 3.11409 3.58735 3.35906
# Velocity P-wave (km/s) = 6.15341 6.73522 6.45088
#
# Compressibility (1/GPa) = 0.02022943
#
# Stress axis : x y z
#
# Youngs Moduli (GPa) = 90.12720 57.39814 112.09161
#
# Poissons Ratio (x) = 0.11669 0.27763
# Poissons Ratio (y) = 0.18322 0.45901
# Poissons Ratio (z) = 0.22323 0.23504
#
# Static dielectric constant tensor:
#      x y z
#    x 1.847800 0.000000 0.000000 
#    y 0.000000 1.764580 0.000000 
#    z 0.000000 0.000000 1.653060 
# 
# From -- ./inp_files/7935.got.cif
#   From: 2010.05.17/outbox.cif.g08.bks.cpg/sg45_4_cif.got.tgz:7935.got - 2010.06.03 19:51:22.
