data_PCOD9376065
_publ_section_title
;
Structure prediction by ZEFSAII (Michael W. Deem and Ramdas Pophale) SiO2 
 PCOD9376065
Probable space group: I B A 2
;
_chemical_formula_sum "Si O2"
_cell_formula_units_Z 48
_cell_length_a 16.095981
_cell_length_b 21.242790
_cell_length_c 5.563890
_cell_angle_alpha 90.000000
_cell_angle_beta 90.000000
_cell_angle_gamma 90.000000
_cell_volume 1902.424988
_symmetry_space_group_name_H-M "I B A 2"
_symmetry_group_IT_number 45
_symmetry_cell_setting 'orthorhombic'
loop_
_space_group_symop_operation_xyz
x,y,z
-x,-y,z
-x,y,1/2+z
x,-y,1/2+z
1/2+x,1/2+y,1/2+z
1/2-x,1/2-y,1/2+z
1/2-x,1/2+y,z
1/2+x,1/2-y,z
loop_
_atom_site_type_symbol
_atom_site_label
_atom_site_fract_x
_atom_site_fract_y
_atom_site_fract_z
Si Si1 0.114049 0.330326 0.876840
Si Si2 0.895866 0.533924 0.876835
Si Si3 0.107232 0.805355 0.376835
Si Si4 0.500005 0.602218 0.126828
Si Si5 0.787071 0.013926 0.376834
Si Si6 0.785163 0.343731 0.876840
O O1 0.066622 0.396613 0.876843
O O2 0.068068 0.263601 0.876829
O O3 0.164526 0.333570 0.623838
O O4 0.164525 0.333568 0.129844
O O5 0.915582 0.500002 0.626832
O O6 0.794068 0.532159 0.876835
O O7 0.076947 0.849061 0.157869
O O8 0.205437 0.798606 0.376847
O O9 0.076933 0.849057 0.595794
O O10 0.494309 0.568274 0.376827
O O11 0.751585 0.084889 0.376835
O O12 0.832408 0.000000 0.626834
#
# Coordination Sequence:
#
# PCOD9376065 Si02
#       6
#     8   8   8   8   8   8
#     4  12  22  31  52  82 117 135 163 214 268 328
#     4  10  16  32  46  68 108 143 172 186 243 322
#     4  10  24  36  56  78 104 142 176 220 266 298
#     4   8  20  40  54  66  98 136 196 210 242 310
#     4  10  16  32  46  68 108 143 172 186 243 322
#     4  12  22  31  52  82 117 135 163 214 268 328
#
# _framework density 25.230954000000001
#
# number of rings (size 3 to 8) (size 9 to 14) (size 15 to 20)
#    1.000    0.667    6.667    1.000    4.667    0.000 
#    0.000    0.000    0.000    0.000    0.000    7.000 
#    0.000    0.000    0.000    0.000    0.000    0.000 
#
# Total GULP energy -133978.587422 kJ/mol
# GULP energy per Si atom -5582.441143 kJ/mol
# Density = 2.517353 g / cm^3
# Si number density = 25.230954 Si / 1000 Ang^3
#
#
#
# Elastic Constant Matrix: (Units=GPa)
#
#
# Indices 1 2 3 4 5 6 
#
# 1 43.1196 -9.1945 33.1645 0.0000 0.0000 0.0000
# 2 -9.1945 153.1400 50.0100 0.0000 0.0000 0.0000
# 3 33.1645 50.0100 294.9310 0.0000 0.0000 0.0000
# 4 0.0000 0.0000 0.0000 -626.0083 0.0000 0.0000
# 5 0.0000 0.0000 0.0000 0.0000 40.8621 0.0000
# 6 0.0000 0.0000 0.0000 0.0000 0.0000 4.3591
#
#
#
# Elastic Compliance Matrix: (Units=1/GPa)
#
#
# Indices 1 2 3 4 5 6 
#
# 1 0.026404 0.002705 -0.003428 0.000000 0.000000 0.000000
# 2 0.002705 0.007190 -0.001523 0.000000 0.000000 0.000000
# 3 -0.003428 -0.001523 0.004034 0.000000 0.000000 0.000000
# 4 0.000000 0.000000 0.000000 -0.001597 0.000000 0.000000
# 5 0.000000 0.000000 0.000000 0.000000 0.024473 0.000000
# 6 0.000000 0.000000 0.000000 0.000000 0.000000 0.229407
#
#
# Mechanical properties :
#
#
# Convention : Reuss Voigt Hill
#
# Bulk Modulus (GPa) = 30.17874 71.01673 50.59773
# Shear Modulus (GPa) = 16.36935 -88.34339 -35.98702
#
# Velocity S-wave (km/s) = 2.54988 -5.92367 -3.78074
# Velocity P-wave (km/s) = 4.54490 4.31031 1.01916
#
# Compressibility (1/GPa) = 0.03313591
#
# Stress axis : x y z
#
# Youngs Moduli (GPa) = 37.87247 139.08571 247.87058
#
# Poissons Ratio (x) = -0.37619 0.84964
# Poissons Ratio (y) = -0.10243 0.37758
# Poissons Ratio (z) = 0.12982 0.21187
#
# Static dielectric constant tensor:
#      x y z
#    x 2.015930 0.000000 0.000000 
#    y 0.000000 1.993080 0.000000 
#    z 0.000000 0.000000 2.039280 
# 
# From -- ./inp_files/401.got.cif
#   From: 2010.05.17/outbox.cif.g08.bks.cpg/sg45_1_cif.got.tgz:401.got - 2010.06.03 19:51:22.
