data_PCOD9376408
_publ_section_title
;
Structure prediction by ZEFSAII (Michael W. Deem and Ramdas Pophale) SiO2 
 PCOD9376408
Probable space group: I B A 2
;
_chemical_formula_sum "Si O2"
_cell_formula_units_Z 48
_cell_length_a 22.286098
_cell_length_b 5.482886
_cell_length_c 18.065862
_cell_angle_alpha 90.000000
_cell_angle_beta 90.000000
_cell_angle_gamma 90.000000
_cell_volume 2207.506243
_symmetry_space_group_name_H-M "I B A 2"
_symmetry_group_IT_number 45
_symmetry_cell_setting 'orthorhombic'
loop_
_space_group_symop_operation_xyz
x,y,z
-x,-y,z
-x,y,1/2+z
x,-y,1/2+z
1/2+x,1/2+y,1/2+z
1/2-x,1/2-y,1/2+z
1/2-x,1/2+y,z
1/2+x,1/2-y,z
loop_
_atom_site_type_symbol
_atom_site_label
_atom_site_fract_x
_atom_site_fract_y
_atom_site_fract_z
Si Si1 0.500000 0.000000 0.416700
Si Si2 0.277028 0.563930 0.611781
Si Si3 0.500000 0.500000 0.560509
Si Si4 0.728839 0.880672 0.444605
Si Si5 0.098037 0.623481 0.510948
Si Si6 0.967252 0.255830 0.272550
Si Si7 0.601065 0.775171 0.140932
O O1 0.443915 0.926342 0.467713
O O2 0.471556 0.197137 0.360400
O O3 0.250557 0.314643 0.643252
O O4 0.261615 0.580493 0.524435
O O5 0.347848 0.584016 0.619731
O O6 0.448159 0.348300 0.518346
O O7 0.463379 0.684905 0.612559
O O8 0.757449 0.641716 0.407332
O O9 0.658999 0.842631 0.465322
O O10 0.113982 0.515673 0.592066
O O11 0.904542 0.275321 0.229564
O O12 0.000000 0.500000 0.242792
O O13 0.000000 0.000000 0.259058
#
# Coordination Sequence:
#
# PCOD9376408 Si02
#       7
#     4   8   4   8   8   8   8
#     4  10  26  40  56  92 126 170 206 250 318 388
#     4  10  20  35  56  91 123 153 196 254 316 364
#     4  12  22  32  60 102 118 156 206 260 326 374
#     4  10  20  38  55  90 123 158 197 252 314 366
#     4  12  23  37  64  94 129 162 202 273 315 380
#     4  10  24  43  58  85 128 165 206 245 309 385
#     4  12  22  37  64  91 130 160 206 267 319 375
#
# _framework density 21.743993
#
# number of rings (size 3 to 8) (size 9 to 14) (size 15 to 20)
#    0.500    0.667    5.833    3.000    1.167    0.000 
#    0.000    0.000    0.000    2.000    0.000    0.000 
#    0.000    0.000    0.000    0.000    0.000    0.000 
#
# Total GULP energy -133684.880292 kJ/mol
# GULP energy per Si atom -5570.203345 kJ/mol
# Density = 2.169450 g / cm^3
# Si number density = 21.743993 Si / 1000 Ang^3
#
#
#
# Elastic Constant Matrix: (Units=GPa)
#
#
# Indices 1 2 3 4 5 6 
#
# 1 100.6333 19.3199 14.1717 0.0000 0.0000 0.0000
# 2 19.3199 144.1143 12.4403 0.0000 0.0000 0.0000
# 3 14.1717 12.4403 61.2561 0.0000 0.0000 0.0000
# 4 0.0000 0.0000 0.0000 7.8727 0.0000 0.0000
# 5 0.0000 0.0000 0.0000 0.0000 12.0746 0.0000
# 6 0.0000 0.0000 0.0000 0.0000 0.0000 38.5992
#
#
#
# Elastic Compliance Matrix: (Units=1/GPa)
#
#
# Indices 1 2 3 4 5 6 
#
# 1 0.010477 -0.001217 -0.002177 0.000000 0.000000 0.000000
# 2 -0.001217 0.007204 -0.001182 0.000000 0.000000 0.000000
# 3 -0.002177 -0.001182 0.017068 0.000000 0.000000 0.000000
# 4 0.000000 0.000000 0.000000 0.127021 0.000000 0.000000
# 5 0.000000 0.000000 0.000000 0.000000 0.082819 0.000000
# 6 0.000000 0.000000 0.000000 0.000000 0.000000 0.025907
#
#
# Mechanical properties :
#
#
# Convention : Reuss Voigt Hill
#
# Bulk Modulus (GPa) = 39.06310 44.20751 41.63531
# Shear Modulus (GPa) = 17.35026 29.04741 23.19883
#
# Velocity S-wave (km/s) = 2.82784 3.65894 3.26990
# Velocity P-wave (km/s) = 5.35408 6.18268 5.78324
#
# Compressibility (1/GPa) = 0.02559961
#
# Stress axis : x y z
#
# Youngs Moduli (GPa) = 95.44536 138.81106 58.58750
#
# Poissons Ratio (x) = 0.16889 0.12753
# Poissons Ratio (y) = 0.11612 0.06923
# Poissons Ratio (z) = 0.20777 0.16402
#
# Static dielectric constant tensor:
#      x y z
#    x 1.812410 0.000000 0.000000 
#    y 0.000000 1.916750 0.000000 
#    z 0.000000 0.000000 1.856690 
# 
# From -- ./inp_files/8665.got.cif
#   From: 2010.05.17/outbox.cif.g08.bks.cpg/sg45_5_cif.got.tgz:8665.got - 2010.06.03 19:51:22.
