data_PCOD9376829
_publ_section_title
;
Structure prediction by ZEFSAII (Michael W. Deem and Ramdas Pophale) SiO2 
 PCOD9376829
Probable space group: I B A 2
;
_chemical_formula_sum "Si O2"
_cell_formula_units_Z 48
_cell_length_a 9.923485
_cell_length_b 9.776643
_cell_length_c 18.830769
_cell_angle_alpha 90.000000
_cell_angle_beta 90.000000
_cell_angle_gamma 90.000000
_cell_volume 1826.930517
_symmetry_space_group_name_H-M "I B A 2"
_symmetry_group_IT_number 45
_symmetry_cell_setting 'orthorhombic'
loop_
_space_group_symop_operation_xyz
x,y,z
-x,-y,z
-x,y,1/2+z
x,-y,1/2+z
1/2+x,1/2+y,1/2+z
1/2-x,1/2-y,1/2+z
1/2-x,1/2+y,z
1/2+x,1/2-y,z
loop_
_atom_site_type_symbol
_atom_site_label
_atom_site_fract_x
_atom_site_fract_y
_atom_site_fract_z
Si Si1 0.972899 0.292239 0.277090
Si Si2 0.855124 0.641535 0.640206
Si Si3 0.361511 0.198593 0.637477
Si Si4 0.653349 0.533386 0.944619
Si Si5 0.846364 0.030373 0.109476
Si Si6 0.773386 0.302806 0.865565
O O1 0.883149 0.387057 0.225666
O O2 0.859680 0.196209 0.314331
O O3 0.083862 0.253582 0.216061
O O4 0.080120 0.344137 0.334901
O O5 0.815128 0.814220 0.650328
O O6 0.692988 0.646301 0.607760
O O7 0.992554 0.676101 0.598379
O O8 0.326372 0.028019 0.625964
O O9 0.500000 0.500000 0.925869
O O10 0.739607 0.398563 0.931575
O O11 0.709938 0.648800 0.892974
O O12 0.654411 0.573746 0.026680
O O13 0.000000 0.000000 0.133755
#
# Coordination Sequence:
#
# PCOD9376829 Si02
#       6
#     8   8   8   8   8   8
#     4  10  22  44  70 106 144 188 252 308 390 444
#     4  10  21  41  66 100 140 179 236 308 376 445
#     4  10  21  41  66 100 140 179 236 308 376 445
#     4  11  28  50  73 111 153 210 258 317 374 462
#     4  11  25  43  68 100 148 199 251 310 383 455
#     4  12  24  50  78 108 154 204 258 318 380 464
#
# _framework density 26.273578000000001
#
# number of rings (size 3 to 8) (size 9 to 14) (size 15 to 20)
#    1.000    0.333    3.333    1.500    2.333    3.333 
#    6.000    3.333    0.000    0.000    0.000    0.000 
#    0.000    0.000    0.000    0.000    0.000    0.000 
#
# Total GULP energy -133602.239350 kJ/mol
# GULP energy per Si atom -5566.759973 kJ/mol
# Density = 2.621378 g / cm^3
# Si number density = 26.273578 Si / 1000 Ang^3
#
#
#
# Elastic Constant Matrix: (Units=GPa)
#
#
# Indices 1 2 3 4 5 6 
#
# 1 240.4676 107.1589 26.9455 0.0000 0.0000 0.0000
# 2 107.1589 156.6019 27.0066 0.0000 0.0000 0.0000
# 3 26.9455 27.0066 75.5148 0.0000 0.0000 0.0000
# 4 0.0000 0.0000 0.0000 28.2974 0.0000 0.0000
# 5 0.0000 0.0000 0.0000 0.0000 32.6348 0.0000
# 6 0.0000 0.0000 0.0000 0.0000 0.0000 80.4225
#
#
#
# Elastic Compliance Matrix: (Units=1/GPa)
#
#
# Indices 1 2 3 4 5 6 
#
# 1 0.006019 -0.003995 -0.000719 0.000000 0.000000 0.000000
# 2 -0.003995 0.009457 -0.001957 0.000000 0.000000 0.000000
# 3 -0.000719 -0.001957 0.014199 0.000000 0.000000 0.000000
# 4 0.000000 0.000000 0.000000 0.035339 0.000000 0.000000
# 5 0.000000 0.000000 0.000000 0.000000 0.030642 0.000000
# 6 0.000000 0.000000 0.000000 0.000000 0.000000 0.012434
#
#
# Mechanical properties :
#
#
# Convention : Reuss Voigt Hill
#
# Bulk Modulus (GPa) = 61.22340 88.31181 74.76761
# Shear Modulus (GPa) = 39.40859 49.03583 44.22221
#
# Velocity S-wave (km/s) = 3.87710 4.32482 4.10706
# Velocity P-wave (km/s) = 6.58752 7.65664 7.14211
#
# Compressibility (1/GPa) = 0.01633362
#
# Stress axis : x y z
#
# Youngs Moduli (GPa) = 166.12994 105.74574 70.42867
#
# Poissons Ratio (x) = 0.42244 0.05065
# Poissons Ratio (y) = 0.66367 0.13780
# Poissons Ratio (z) = 0.11947 0.20689
#
# Static dielectric constant tensor:
#      x y z
#    x 2.073500 0.000000 0.000000 
#    y 0.000000 2.143910 0.000000 
#    z 0.000000 0.000000 1.902000 
# 
# From -- ./inp_files/9528.got.cif
#   From: 2010.05.17/outbox.cif.g08.bks.cpg/sg45_5_cif.got.tgz:9528.got - 2010.06.03 19:51:22.
