data_PCOD9376526
_publ_section_title
;
Structure prediction by ZEFSAII (Michael W. Deem and Ramdas Pophale) SiO2 
 PCOD9376526
Probable space group: I B A 2
;
_chemical_formula_sum "Si O2"
_cell_formula_units_Z 56
_cell_length_a 7.392022
_cell_length_b 21.779073
_cell_length_c 15.206616
_cell_angle_alpha 90.000000
_cell_angle_beta 90.000000
_cell_angle_gamma 90.000000
_cell_volume 2448.134198
_symmetry_space_group_name_H-M "I B A 2"
_symmetry_group_IT_number 45
_symmetry_cell_setting 'orthorhombic'
loop_
_space_group_symop_operation_xyz
x,y,z
-x,-y,z
-x,y,1/2+z
x,-y,1/2+z
1/2+x,1/2+y,1/2+z
1/2-x,1/2-y,1/2+z
1/2-x,1/2+y,z
1/2+x,1/2-y,z
loop_
_atom_site_type_symbol
_atom_site_label
_atom_site_fract_x
_atom_site_fract_y
_atom_site_fract_z
Si Si1 0.815969 0.945880 0.393930
Si Si2 0.500000 0.500000 0.729034
Si Si3 0.461646 0.127969 0.076612
Si Si4 0.948085 0.127576 0.517074
Si Si5 0.000000 0.500000 0.981889
Si Si6 0.193796 0.878042 0.175098
Si Si7 0.682464 0.693063 0.347836
Si Si8 0.582330 0.176255 0.901698
O O1 0.679578 0.999435 0.423438
O O2 0.700248 0.883961 0.390147
O O3 0.972855 0.932433 0.465861
O O4 0.882782 0.960457 0.297132
O O5 0.625497 0.449481 0.680529
O O6 0.242891 0.126486 0.070017
O O7 0.589851 0.131283 0.161995
O O8 0.533384 0.178459 0.006136
O O9 0.511052 0.060874 0.038750
O O10 0.924853 0.172272 0.434405
O O11 0.098791 0.146201 0.586838
O O12 0.122427 0.839410 0.258276
O O13 0.675705 0.766204 0.355006
O O14 0.885237 0.669258 0.360426
#
# Coordination Sequence:
#
# PCOD9376526 Si02
#       8
#     8   4   8   8   4   8   8   8
#     4  11  22  45  76 108 146 211 248 299 394 447
#     4  12  28  42  72 108 162 198 250 322 362 468
#     4  10  24  44  70 108 143 194 253 308 371 452
#     4  11  23  49  76 100 153 198 253 305 388 442
#     4  10  20  38  74 102 144 194 246 302 364 454
#     4  12  27  48  69 118 150 199 264 305 383 461
#     4  11  25  49  77 107 153 198 251 325 378 452
#     4  10  23  47  76 105 143 197 251 310 379 452
#
# _framework density 22.874562000000001
#
# number of rings (size 3 to 8) (size 9 to 14) (size 15 to 20)
#    0.000    1.143    4.286    1.714    6.000    1.714 
#    2.571    0.000    0.000    0.000    0.000    0.000 
#    0.000    0.000    0.000    0.000    0.000    0.000 
#
# Total GULP energy -156273.270703 kJ/mol
# GULP energy per Si atom -5581.188239 kJ/mol
# Density = 2.282250 g / cm^3
# Si number density = 22.874562 Si / 1000 Ang^3
#
#
#
# Elastic Constant Matrix: (Units=GPa)
#
#
# Indices 1 2 3 4 5 6 
#
# 1 107.5039 17.7903 34.1009 0.0005 0.0000 0.0000
# 2 17.7903 85.8431 34.6560 -0.0005 0.0000 0.0000
# 3 34.1009 34.6560 104.7612 -0.0044 0.0000 0.0000
# 4 0.0005 -0.0005 -0.0044 2399.9276 0.0018 0.0006
# 5 0.0000 0.0000 0.0000 0.0018 36.3091 0.0000
# 6 0.0000 0.0000 0.0000 0.0006 0.0000 38.1539
#
#
#
# Elastic Compliance Matrix: (Units=1/GPa)
#
#
# Indices 1 2 3 4 5 6 
#
# 1 0.010435 -0.000913 -0.003095 0.000000 0.000000 0.000000
# 2 -0.000913 0.013525 -0.004177 0.000000 0.000000 0.000000
# 3 -0.003095 -0.004177 0.011935 0.000000 0.000000 0.000000
# 4 0.000000 0.000000 0.000000 0.000417 0.000000 0.000000
# 5 0.000000 0.000000 0.000000 0.000000 0.027541 0.000000
# 6 0.000000 0.000000 0.000000 0.000000 0.000000 0.026210
#
#
# Mechanical properties :
#
#
# Convention : Reuss Voigt Hill
#
# Bulk Modulus (GPa) = 51.21686 52.35583 51.78635
# Shear Modulus (GPa) = 44.27173 508.98219 276.62696
#
# Velocity S-wave (km/s) = 4.40411 14.93296 11.00884
# Velocity P-wave (km/s) = 6.94985 17.89587 13.57503
#
# Compressibility (1/GPa) = 0.01952482
#
# Stress axis : x y z
#
# Youngs Moduli (GPa) = 95.83400 73.93905 83.79041
#
# Poissons Ratio (x) = 0.06752 0.25929
# Poissons Ratio (y) = 0.08752 0.34998
# Poissons Ratio (z) = 0.29656 0.30883
#
# Static dielectric constant tensor:
#      x y z
#    x 1.949680 0.000000 0.000000 
#    y 0.000000 1.513590 0.000000 
#    z 0.000000 0.000000 1.856560 
# 
# From -- ./inp_files/5759.got.cif
#   From: 2010.05.17/outbox.cif.g08.bks.cpg/sg45_3_cif.got.tgz:5759.got - 2010.06.03 19:51:22.
