data_PCOD9376544
_publ_section_title
;
Structure prediction by ZEFSAII (Michael W. Deem and Ramdas Pophale) SiO2 
 PCOD9376544
Probable space group: I B A 2
;
_chemical_formula_sum "Si O2"
_cell_formula_units_Z 36
_cell_length_a 5.629032
_cell_length_b 18.637339
_cell_length_c 13.347312
_cell_angle_alpha 90.000000
_cell_angle_beta 90.000000
_cell_angle_gamma 90.000000
_cell_volume 1400.268873
_symmetry_space_group_name_H-M "I B A 2"
_symmetry_group_IT_number 45
_symmetry_cell_setting 'orthorhombic'
loop_
_space_group_symop_operation_xyz
x,y,z
-x,-y,z
-x,y,1/2+z
x,-y,1/2+z
1/2+x,1/2+y,1/2+z
1/2-x,1/2-y,1/2+z
1/2-x,1/2+y,z
1/2+x,1/2-y,z
loop_
_atom_site_type_symbol
_atom_site_label
_atom_site_fract_x
_atom_site_fract_y
_atom_site_fract_z
Si Si1 0.880287 0.429348 0.724380
Si Si2 0.122214 0.716041 0.192389
Si Si3 0.430270 0.730766 0.464111
Si Si4 0.000000 0.500000 0.912833
Si Si5 0.872674 0.076208 0.034008
O O1 0.669437 0.407178 0.651329
O O2 0.000000 0.500000 0.676530
O O3 0.068267 0.365548 0.722476
O O4 0.825250 0.458246 0.835192
O O5 0.383389 0.741320 0.224200
O O6 0.107607 0.727830 0.070866
O O7 0.668703 0.761929 0.415862
O O8 0.477084 0.646894 0.484916
O O9 0.125734 0.439926 0.977994
O O10 0.000000 0.000000 0.026628
#
# Coordination Sequence:
#
# PCOD9376544 Si02
#       5
#     8   8   8   4   8
#     4  10  23  43  72  95 140 191 236 296 363 442
#     4  10  20  39  67 102 133 179 239 291 356 433
#     4  10  22  39  69 103 136 180 241 295 360 435
#     4  10  26  46  62 108 144 182 248 296 366 438
#     4  12  25  42  76 101 141 193 244 302 368 439
#
# _framework density 25.709347999999999
#
# number of rings (size 3 to 8) (size 9 to 14) (size 15 to 20)
#    0.667    0.889    5.556    0.000    9.333    0.889 
#    4.000    2.222    0.000    0.000    0.000    0.000 
#    0.000    0.000    0.000    0.000    0.000    0.000 
#
# Total GULP energy -100617.725102 kJ/mol
# GULP energy per Si atom -5589.873617 kJ/mol
# Density = 2.565083 g / cm^3
# Si number density = 25.709348 Si / 1000 Ang^3
#
#
#
# Elastic Constant Matrix: (Units=GPa)
#
#
# Indices 1 2 3 4 5 6 
#
# 1 152.7306 60.1498 25.2138 0.0000 0.0000 0.0000
# 2 60.1498 177.5642 10.5662 0.0000 0.0000 0.0000
# 3 25.2138 10.5662 86.3206 0.0000 0.0000 0.0000
# 4 0.0000 0.0000 0.0000 9.9039 0.0000 0.0000
# 5 0.0000 0.0000 0.0000 0.0000 33.9745 0.0000
# 6 0.0000 0.0000 0.0000 0.0000 0.0000 52.8239
#
#
#
# Elastic Compliance Matrix: (Units=1/GPa)
#
#
# Indices 1 2 3 4 5 6 
#
# 1 0.007881 -0.002551 -0.001990 0.000000 0.000000 0.000000
# 2 -0.002551 0.006499 -0.000050 0.000000 0.000000 0.000000
# 3 -0.001990 -0.000050 0.012172 0.000000 0.000000 0.000000
# 4 0.000000 0.000000 0.000000 0.100970 0.000000 0.000000
# 5 0.000000 0.000000 0.000000 0.000000 0.029434 0.000000
# 6 0.000000 0.000000 0.000000 0.000000 0.000000 0.018931
#
#
# Mechanical properties :
#
#
# Convention : Reuss Voigt Hill
#
# Bulk Modulus (GPa) = 57.57245 67.60832 62.59038
# Shear Modulus (GPa) = 26.19746 40.71951 33.45849
#
# Velocity S-wave (km/s) = 3.19562 3.98407 3.61142
# Velocity P-wave (km/s) = 6.00485 6.89333 6.46437
#
# Compressibility (1/GPa) = 0.01736942
#
# Stress axis : x y z
#
# Youngs Moduli (GPa) = 126.89285 153.87050 82.15550
#
# Poissons Ratio (x) = 0.39255 0.16346
# Poissons Ratio (y) = 0.32373 0.00414
# Poissons Ratio (z) = 0.25247 0.00774
#
# Static dielectric constant tensor:
#      x y z
#    x 2.091760 0.000000 0.000000 
#    y 0.000000 1.950700 0.000000 
#    z 0.000000 0.000000 2.048610 
# 
# From -- ./inp_files/5083.got.cif
#   From: 2010.05.17/outbox.cif.g08.bks.cpg/sg45_3_cif.got.tgz:5083.got - 2010.06.03 19:51:22.
