data_PCOD9376543
_publ_section_title
;
Structure prediction by ZEFSAII (Michael W. Deem and Ramdas Pophale) SiO2 
 PCOD9376543
Probable space group: I B A 2
;
_chemical_formula_sum "Si O2"
_cell_formula_units_Z 64
_cell_length_a 8.187955
_cell_length_b 24.061219
_cell_length_c 15.083687
_cell_angle_alpha 90.000000
_cell_angle_beta 90.000000
_cell_angle_gamma 90.000000
_cell_volume 2971.670034
_symmetry_space_group_name_H-M "I B A 2"
_symmetry_group_IT_number 45
_symmetry_cell_setting 'orthorhombic'
loop_
_space_group_symop_operation_xyz
x,y,z
-x,-y,z
-x,y,1/2+z
x,-y,1/2+z
1/2+x,1/2+y,1/2+z
1/2-x,1/2-y,1/2+z
1/2-x,1/2+y,z
1/2+x,1/2-y,z
loop_
_atom_site_type_symbol
_atom_site_label
_atom_site_fract_x
_atom_site_fract_y
_atom_site_fract_z
Si Si1 0.828290 0.530505 0.535870
Si Si2 0.302102 0.204229 0.069435
Si Si3 0.713494 0.108838 0.708472
Si Si4 0.041868 0.063792 0.707727
Si Si5 0.190375 0.126450 0.929158
Si Si6 0.621547 0.421005 0.506175
Si Si7 0.141319 0.380939 0.258178
Si Si8 0.165807 0.324688 0.065866
O O1 0.804901 0.562097 0.630131
O O2 0.816301 0.579793 0.465082
O O3 0.698530 0.482622 0.509305
O O4 0.000000 0.500000 0.538510
O O5 0.282853 0.169086 0.160336
O O6 0.272239 0.269294 0.073497
O O7 0.484918 0.191858 0.036642
O O8 0.180434 0.175728 0.999887
O O9 0.549689 0.104537 0.767647
O O10 0.890708 0.097430 0.749953
O O11 0.044887 0.083642 0.605253
O O12 0.225255 0.070253 0.744464
O O13 0.000000 0.000000 0.712221
O O14 0.270021 0.149300 0.839602
O O15 0.018783 0.093691 0.936105
O O16 0.758239 0.373108 0.505887
O O17 0.149564 0.348711 0.165315
#
# Coordination Sequence:
#
# PCOD9376543 Si02
#       8
#     8   8   8   8   8   8   8   8
#     4  11  20  36  64  90 122 170 217 257 300 368
#     4  10  20  39  66  87 115 159 212 255 309 373
#     4  10  21  38  63  88 121 165 211 263 301 372
#     4  11  19  36  62  90 118 170 214 249 298 372
#     4  11  22  41  59  91 131 160 200 263 320 373
#     4  11  19  36  64  90 123 165 218 252 302 375
#     4  10  25  41  57  96 132 157 205 262 326 372
#     4  10  22  40  66  90 115 160 210 260 305 378
#
# _framework density 21.536712000000001
#
# number of rings (size 3 to 8) (size 9 to 14) (size 15 to 20)
#    0.000    1.500    3.750    4.125    1.750    1.000 
#    6.750    5.000    0.000    0.000    0.000    0.000 
#    0.000    0.000    0.000    0.000    0.000    0.000 
#
# Total GULP energy -178528.552741 kJ/mol
# GULP energy per Si atom -5579.017273 kJ/mol
# Density = 2.148769 g / cm^3
# Si number density = 21.536712 Si / 1000 Ang^3
#
#
#
# Elastic Constant Matrix: (Units=GPa)
#
#
# Indices 1 2 3 4 5 6 
#
# 1 77.0686 10.7050 2.8766 0.0000 0.0000 0.0000
# 2 10.7050 85.1779 -20.6212 0.0000 0.0000 0.0000
# 3 2.8766 -20.6212 30.8847 0.0000 0.0000 0.0000
# 4 0.0000 0.0000 0.0000 0.5104 0.0000 0.0000
# 5 0.0000 0.0000 0.0000 0.0000 22.0949 0.0000
# 6 0.0000 0.0000 0.0000 0.0000 0.0000 33.1750
#
#
#
# Elastic Compliance Matrix: (Units=1/GPa)
#
#
# Indices 1 2 3 4 5 6 
#
# 1 0.013411 -0.002371 -0.002832 0.000000 0.000000 0.000000
# 2 -0.002371 0.014423 0.009851 0.000000 0.000000 0.000000
# 3 -0.002832 0.009851 0.039220 -0.000001 0.000000 0.000000
# 4 0.000000 0.000000 -0.000001 1.959297 0.000000 0.000000
# 5 0.000000 0.000000 0.000000 0.000000 0.045259 0.000000
# 6 0.000000 0.000000 0.000000 0.000000 0.000000 0.030143
#
#
# Mechanical properties :
#
#
# Convention : Reuss Voigt Hill
#
# Bulk Modulus (GPa) = 13.09789 19.89467 16.49628
# Shear Modulus (GPa) = 2.36082 24.50077 13.43080
#
# Velocity S-wave (km/s) = 1.04812 3.37653 2.49995
# Velocity P-wave (km/s) = 2.74947 4.94560 4.00116
#
# Compressibility (1/GPa) = 0.07634820
#
# Stress axis : x y z
#
# Youngs Moduli (GPa) = 74.56833 69.33377 25.49747
#
# Poissons Ratio (x) = 0.16440 0.07221
# Poissons Ratio (y) = 0.17681 -0.25117
# Poissons Ratio (z) = 0.21119 -0.68300
#
# Static dielectric constant tensor:
#      x y z
#    x 1.853630 0.000000 0.000000 
#    y 0.000000 1.743850 0.000000 
#    z 0.000000 0.000000 1.857520 
# 
# From -- ./inp_files/5869.got.cif
#   From: 2010.05.17/outbox.cif.g08.bks.cpg/sg45_3_cif.got.tgz:5869.got - 2010.06.03 19:51:22.
