data_PCOD9376131
_publ_section_title
;
Structure prediction by ZEFSAII (Michael W. Deem and Ramdas Pophale) SiO2 
 PCOD9376131
Probable space group: I B A 2
;
_chemical_formula_sum "Si O2"
_cell_formula_units_Z 64
_cell_length_a 8.749350
_cell_length_b 22.961621
_cell_length_c 17.416989
_cell_angle_alpha 90.000000
_cell_angle_beta 90.000000
_cell_angle_gamma 90.000000
_cell_volume 3499.060179
_symmetry_space_group_name_H-M "I B A 2"
_symmetry_group_IT_number 45
_symmetry_cell_setting 'orthorhombic'
loop_
_space_group_symop_operation_xyz
x,y,z
-x,-y,z
-x,y,1/2+z
x,-y,1/2+z
1/2+x,1/2+y,1/2+z
1/2-x,1/2-y,1/2+z
1/2-x,1/2+y,z
1/2+x,1/2-y,z
loop_
_atom_site_type_symbol
_atom_site_label
_atom_site_fract_x
_atom_site_fract_y
_atom_site_fract_z
Si Si1 0.443937 0.680219 0.870780
Si Si2 0.671556 0.573804 0.650359
Si Si3 0.471327 0.856945 0.687962
Si Si4 0.850683 0.722827 0.291312
Si Si5 0.191313 0.749547 0.127910
Si Si6 0.435117 0.441778 0.288473
Si Si7 0.154798 0.465636 0.187306
Si Si8 0.451924 0.324905 0.550755
O O1 0.273349 0.702812 0.852893
O O2 0.555908 0.722676 0.823459
O O3 0.452397 0.615416 0.837890
O O4 0.477774 0.679345 0.960595
O O5 0.536817 0.566448 0.711598
O O6 0.746994 0.510390 0.634890
O O7 0.609194 0.612528 0.580484
O O8 0.808346 0.610558 0.690751
O O9 0.536047 0.829638 0.766597
O O10 0.436826 0.800878 0.636385
O O11 0.593914 0.903658 0.656741
O O12 0.760882 0.738827 0.212451
O O13 0.320559 0.721228 0.074968
O O14 0.105013 0.805776 0.095747
O O15 0.500000 0.500000 0.327209
O O16 0.263128 0.452378 0.259482
O O17 0.000000 0.500000 0.208830
#
# Coordination Sequence:
#
# PCOD9376131 Si02
#       8
#     8   8   8   8   8   8   8   8
#     4  12  24  37  57  89 126 157 196 252 324 368
#     4   9  20  36  58  83 110 151 201 249 293 359
#     4  10  18  32  58  86 111 140 199 253 288 343
#     4  12  21  36  61  88 115 158 204 245 298 372
#     4  11  20  37  58  84 118 159 203 244 296 365
#     4  10  20  37  61  83 113 156 210 258 293 365
#     4   9  18  34  58  89 107 142 199 264 296 341
#     4  11  23  37  55  85 127 157 190 251 317 370
#
# _framework density 18.290624999999999
#
# number of rings (size 3 to 8) (size 9 to 14) (size 15 to 20)
#    0.000    1.500    3.750    3.000    0.000    0.000 
#    0.000    1.875    0.000    3.750    0.000    0.000 
#    0.000    0.000    0.000    0.000    0.000    0.000 
#
# Total GULP energy -178428.706044 kJ/mol
# GULP energy per Si atom -5575.897064 kJ/mol
# Density = 1.824899 g / cm^3
# Si number density = 18.290625 Si / 1000 Ang^3
#
#
#
# Elastic Constant Matrix: (Units=GPa)
#
#
# Indices 1 2 3 4 5 6 
#
# 1 73.4928 36.3987 33.7656 0.0000 0.0000 0.0000
# 2 36.3987 102.8484 31.2474 0.0000 0.0000 0.0000
# 3 33.7656 31.2474 78.9203 0.0000 0.0000 0.0000
# 4 0.0000 0.0000 0.0000 13.1120 0.0000 0.0000
# 5 0.0000 0.0000 0.0000 0.0000 20.8437 0.0000
# 6 0.0000 0.0000 0.0000 0.0000 0.0000 31.5420
#
#
#
# Elastic Compliance Matrix: (Units=1/GPa)
#
#
# Indices 1 2 3 4 5 6 
#
# 1 0.018802 -0.004786 -0.006150 0.000000 0.000000 0.000000
# 2 -0.004786 0.012271 -0.002811 0.000000 0.000000 0.000000
# 3 -0.006150 -0.002811 0.016415 0.000000 0.000000 0.000000
# 4 0.000000 0.000000 0.000000 0.076266 0.000000 0.000000
# 5 0.000000 0.000000 0.000000 0.000000 0.047976 0.000000
# 6 0.000000 0.000000 0.000000 0.000000 0.000000 0.031704
#
#
# Mechanical properties :
#
#
# Convention : Reuss Voigt Hill
#
# Bulk Modulus (GPa) = 50.01115 50.89832 50.45473
# Shear Modulus (GPa) = 21.04445 23.35618 22.20031
#
# Velocity S-wave (km/s) = 3.39567 3.57732 3.48768
# Velocity P-wave (km/s) = 6.54033 6.70454 6.62295
#
# Compressibility (1/GPa) = 0.01999554
#
# Stress axis : x y z
#
# Youngs Moduli (GPa) = 53.18444 81.49425 60.91992
#
# Poissons Ratio (x) = 0.39003 0.37463
# Poissons Ratio (y) = 0.25454 0.17123
# Poissons Ratio (z) = 0.32706 0.22906
#
# Static dielectric constant tensor:
#      x y z
#    x 1.674180 0.000000 0.000000 
#    y 0.000000 1.681130 0.000000 
#    z 0.000000 0.000000 1.575640 
# 
# From -- ./inp_files/7807.got.cif
#   From: 2010.05.17/outbox.cif.g08.bks.cpg/sg45_4_cif.got.tgz:7807.got - 2010.06.03 19:51:22.
