data_PCOD9376314
_publ_section_title
;
Structure prediction by ZEFSAII (Michael W. Deem and Ramdas Pophale) SiO2 
 PCOD9376314
Probable space group: I B A 2
;
_chemical_formula_sum "Si O2"
_cell_formula_units_Z 64
_cell_length_a 24.214502
_cell_length_b 8.221910
_cell_length_c 14.428474
_cell_angle_alpha 90.000000
_cell_angle_beta 90.000000
_cell_angle_gamma 90.000000
_cell_volume 2872.557042
_symmetry_space_group_name_H-M "I B A 2"
_symmetry_group_IT_number 45
_symmetry_cell_setting 'orthorhombic'
loop_
_space_group_symop_operation_xyz
x,y,z
-x,-y,z
-x,y,1/2+z
x,-y,1/2+z
1/2+x,1/2+y,1/2+z
1/2-x,1/2-y,1/2+z
1/2-x,1/2+y,z
1/2+x,1/2-y,z
loop_
_atom_site_type_symbol
_atom_site_label
_atom_site_fract_x
_atom_site_fract_y
_atom_site_fract_z
Si Si1 0.522481 0.186861 0.144380
Si Si2 0.721943 0.729242 0.781033
Si Si3 0.924614 0.206691 0.255436
Si Si4 0.627654 0.943372 0.717066
Si Si5 0.546883 0.860791 0.435854
Si Si6 0.227769 0.213550 0.486721
Si Si7 0.834800 0.547912 0.006339
Si Si8 0.314943 0.578615 0.681777
O O1 0.476204 0.299131 0.187049
O O2 0.577701 0.184129 0.205475
O O3 0.500000 0.000000 0.149152
O O4 0.533076 0.213293 0.036357
O O5 0.677287 0.873546 0.776358
O O6 0.718429 0.648670 0.882135
O O7 0.706795 0.600444 0.702265
O O8 0.780230 0.802805 0.750144
O O9 0.896992 0.386227 0.247926
O O10 0.947579 0.219091 0.359680
O O11 0.877564 0.089414 0.217163
O O12 0.649405 0.969638 0.613388
O O13 0.607727 0.940877 0.451183
O O14 0.500000 0.000000 0.413432
O O15 0.203388 0.394329 0.483630
O O16 0.293936 0.201246 0.497609
O O17 0.198575 0.129244 0.575723
#
# Coordination Sequence:
#
# PCOD9376314 Si02
#       8
#     8   8   8   8   8   8   8   8
#     4   8  18  34  58  91 123 161 212 269 329 385
#     4  12  25  42  64  95 130 178 216 267 337 399
#     4  11  20  39  63  96 127 165 215 279 326 392
#     4  10  19  38  62  90 127 162 212 268 327 388
#     4  10  20  35  63  96 129 166 224 278 333 392
#     4  12  24  41  64  92 134 173 215 270 334 402
#     4  11  22  39  63  96 130 173 215 272 335 395
#     4  12  25  42  64  96 134 170 224 271 329 403
#
# _framework density 22.279802
#
# number of rings (size 3 to 8) (size 9 to 14) (size 15 to 20)
#    0.000    1.250    2.500    5.625    0.000    0.000 
#    2.250    0.625    0.000    0.000    0.000    2.625 
#    0.000    0.000    0.000    0.000    0.000    0.000 
#
# Total GULP energy -178817.988042 kJ/mol
# GULP energy per Si atom -5588.062126 kJ/mol
# Density = 2.222909 g / cm^3
# Si number density = 22.279802 Si / 1000 Ang^3
#
#
#
# Elastic Constant Matrix: (Units=GPa)
#
#
# Indices 1 2 3 4 5 6 
#
# 1 123.1698 13.0426 11.9834 0.0000 0.0000 0.0000
# 2 13.0426 40.9640 -0.0961 0.0000 0.0000 0.0000
# 3 11.9834 -0.0961 92.9119 0.0000 0.0000 0.0000
# 4 0.0000 0.0000 0.0000 16.4762 0.0000 0.0000
# 5 0.0000 0.0000 0.0000 0.0000 22.9050 0.0000
# 6 0.0000 0.0000 0.0000 0.0000 0.0000 24.0602
#
#
#
# Elastic Compliance Matrix: (Units=1/GPa)
#
#
# Indices 1 2 3 4 5 6 
#
# 1 0.008513 -0.002713 -0.001101 0.000000 0.000000 0.000000
# 2 -0.002713 0.025276 0.000376 0.000000 0.000000 0.000000
# 3 -0.001101 0.000376 0.010905 0.000000 0.000000 0.000000
# 4 0.000000 0.000000 0.000000 0.060694 0.000000 0.000000
# 5 0.000000 0.000000 0.000000 0.000000 0.043659 0.000000
# 6 0.000000 0.000000 0.000000 0.000000 0.000000 0.041562
#
#
# Mechanical properties :
#
#
# Convention : Reuss Voigt Hill
#
# Bulk Modulus (GPa) = 26.44162 34.10061 30.27111
# Shear Modulus (GPa) = 23.79912 28.16267 25.98089
#
# Velocity S-wave (km/s) = 3.27187 3.55920 3.41855
# Velocity P-wave (km/s) = 5.11539 5.67709 5.40354
#
# Compressibility (1/GPa) = 0.03781917
#
# Stress axis : x y z
#
# Youngs Moduli (GPa) = 117.46373 39.56257 91.69898
#
# Poissons Ratio (x) = 0.10734 0.10094
# Poissons Ratio (y) = 0.31869 -0.03448
# Poissons Ratio (z) = 0.12931 -0.01488
#
# Static dielectric constant tensor:
#      x y z
#    x 1.876110 0.000000 0.000000 
#    y 0.000000 1.810720 0.000000 
#    z 0.000000 0.000000 1.870820 
# 
# From -- ./inp_files/7052.got.cif
#   From: 2010.05.17/outbox.cif.g08.bks.cpg/sg45_4_cif.got.tgz:7052.got - 2010.06.03 19:51:22.
