data_PCOD9376388
_publ_section_title
;
Structure prediction by ZEFSAII (Michael W. Deem and Ramdas Pophale) SiO2 
 PCOD9376388
Probable space group: I B A 2
;
_chemical_formula_sum "Si O2"
_cell_formula_units_Z 60
_cell_length_a 18.406124
_cell_length_b 13.661840
_cell_length_c 11.450331
_cell_angle_alpha 90.000000
_cell_angle_beta 90.000000
_cell_angle_gamma 90.000000
_cell_volume 2879.317650
_symmetry_space_group_name_H-M "I B A 2"
_symmetry_group_IT_number 45
_symmetry_cell_setting 'orthorhombic'
loop_
_space_group_symop_operation_xyz
x,y,z
-x,-y,z
-x,y,1/2+z
x,-y,1/2+z
1/2+x,1/2+y,1/2+z
1/2-x,1/2-y,1/2+z
1/2-x,1/2+y,z
1/2+x,1/2-y,z
loop_
_atom_site_type_symbol
_atom_site_label
_atom_site_fract_x
_atom_site_fract_y
_atom_site_fract_z
Si Si1 0.738653 0.529520 0.084210
Si Si2 0.759851 0.811967 0.039225
Si Si3 0.844854 0.660428 0.934926
Si Si4 0.863767 0.252530 0.756398
Si Si5 0.000000 0.500000 0.624557
Si Si6 0.149633 0.477504 0.267985
Si Si7 0.482714 0.215033 0.567055
Si Si8 0.127792 0.815767 0.011059
O O1 0.736107 0.426687 0.019213
O O2 0.771152 0.506050 0.210203
O O3 0.803094 0.599314 0.036280
O O4 0.664744 0.588473 0.066774
O O5 0.807752 0.784246 0.155278
O O6 0.790021 0.751602 0.926817
O O7 0.678859 0.772642 0.058079
O O8 0.858759 0.573620 0.846615
O O9 0.919359 0.711222 0.971243
O O10 0.848730 0.363064 0.804091
O O11 0.940774 0.261479 0.687894
O O12 0.866264 0.184206 0.870040
O O13 0.075495 0.516987 0.692179
O O14 0.988023 0.603300 0.560622
O O15 0.546135 0.291065 0.544758
#
# Coordination Sequence:
#
# PCOD9376388 Si02
#       8
#     8   8   8   8   4   8   8   8
#     4  11  22  43  65  97 131 172 230 280 332 425
#     4  10  22  43  63  96 134 170 226 283 331 425
#     4  10  22  40  61  93 132 170 214 282 339 397
#     4  10  22  43  64  93 138 176 218 286 345 415
#     4  10  20  34  58  96 130 168 204 272 340 392
#     4  11  21  38  65  97 132 173 220 270 355 406
#     4  10  22  40  59  97 137 169 228 276 337 421
#     4  11  23  41  69  96 132 181 222 284 356 403
#
# _framework density 20.838270000000001
#
# number of rings (size 3 to 8) (size 9 to 14) (size 15 to 20)
#    0.000    1.600    5.333    1.600    9.333    0.000 
#    0.000    2.667    0.000    3.200    0.000    0.000 
#    0.000    0.000    0.000    0.000    0.000    0.000 
#
# Total GULP energy -167102.026603 kJ/mol
# GULP energy per Si atom -5570.067553 kJ/mol
# Density = 2.079084 g / cm^3
# Si number density = 20.838270 Si / 1000 Ang^3
#
#
#
# Elastic Constant Matrix: (Units=GPa)
#
#
# Indices 1 2 3 4 5 6 
#
# 1 114.0454 35.3409 25.9241 0.0000 0.0000 0.0000
# 2 35.3409 80.2979 0.2357 0.0000 0.0000 0.0000
# 3 25.9241 0.2357 34.4476 0.0000 0.0000 0.0000
# 4 0.0000 0.0000 0.0000 18.2196 0.0000 0.0000
# 5 0.0000 0.0000 0.0000 0.0000 -4.1879 0.0000
# 6 0.0000 0.0000 0.0000 0.0000 0.0000 36.5362
#
#
#
# Elastic Compliance Matrix: (Units=1/GPa)
#
#
# Indices 1 2 3 4 5 6 
#
# 1 0.012636 -0.005534 -0.009472 0.000000 0.000000 0.000000
# 2 -0.005534 0.014877 0.004063 0.000000 0.000000 0.000000
# 3 -0.009472 0.004063 0.036130 0.000000 0.000000 0.000000
# 4 0.000000 0.000000 0.000000 0.054886 0.000000 0.000000
# 5 0.000000 0.000000 0.000000 0.000000 -0.238782 0.000000
# 6 0.000000 0.000000 0.000000 0.000000 0.000000 0.027370
#
#
# Mechanical properties :
#
#
# Convention : Reuss Voigt Hill
#
# Bulk Modulus (GPa) = 23.94759 39.08803 31.51781
# Shear Modulus (GPa) = -87.59996 21.26627 -33.16685
#
# Velocity S-wave (km/s) = -6.49071 3.19805 -3.99385
# Velocity P-wave (km/s) = 6.68246 5.69520 2.47185
#
# Compressibility (1/GPa) = 0.04175785
#
# Stress axis : x y z
#
# Youngs Moduli (GPa) = 79.13692 67.21690 27.67786
#
# Poissons Ratio (x) = 0.37196 0.26216
# Poissons Ratio (y) = 0.43792 -0.11245
# Poissons Ratio (z) = 0.74957 -0.27308
#
# Static dielectric constant tensor:
#      x y z
#    x 1.797050 0.000000 0.000000 
#    y 0.000000 1.771910 0.000000 
#    z 0.000000 0.000000 1.884100 
# 
# From -- ./inp_files/4485.got.cif
#   From: 2010.05.17/outbox.cif.g08.bks.cpg/sg45_3_cif.got.tgz:4485.got - 2010.06.03 19:51:22.
