data_PCOD9376356
_publ_section_title
;
Structure prediction by ZEFSAII (Michael W. Deem and Ramdas Pophale) SiO2 
 PCOD9376356
Probable space group: I B A 2
;
_chemical_formula_sum "Si O2"
_cell_formula_units_Z 44
_cell_length_a 19.039015
_cell_length_b 10.054958
_cell_length_c 9.121149
_cell_angle_alpha 90.000000
_cell_angle_beta 90.000000
_cell_angle_gamma 90.000000
_cell_volume 1746.120806
_symmetry_space_group_name_H-M "I B A 2"
_symmetry_group_IT_number 45
_symmetry_cell_setting 'orthorhombic'
loop_
_space_group_symop_operation_xyz
x,y,z
-x,-y,z
-x,y,1/2+z
x,-y,1/2+z
1/2+x,1/2+y,1/2+z
1/2-x,1/2-y,1/2+z
1/2-x,1/2+y,z
1/2+x,1/2-y,z
loop_
_atom_site_type_symbol
_atom_site_label
_atom_site_fract_x
_atom_site_fract_y
_atom_site_fract_z
Si Si1 0.679256 0.089732 0.514500
Si Si2 0.849341 0.183070 0.840439
Si Si3 0.500000 0.000000 0.209573
Si Si4 0.690810 0.724808 0.289995
Si Si5 0.331834 0.481307 0.579926
Si Si6 0.084708 0.355511 0.964865
O O1 0.633370 0.168745 0.392692
O O2 0.668349 0.172360 0.660899
O O3 0.763738 0.081706 0.499646
O O4 0.651428 0.942376 0.516719
O O5 0.764338 0.205540 0.837676
O O6 0.869943 0.126071 0.683575
O O7 0.869886 0.076479 0.964007
O O8 0.549455 0.920923 0.322075
O O9 0.467945 0.887023 0.099170
O O10 0.698913 0.586534 0.201410
O O11 0.624455 0.724816 0.401575
#
# Coordination Sequence:
#
# PCOD9376356 Si02
#       6
#     8   8   4   8   8   8
#     4  10  20  35  57  82 124 156 192 232 298 354
#     4  10  20  33  53  84 121 159 188 227 275 378
#     4  10  24  36  60  80 114 140 226 262 304 346
#     4  10  20  32  56  82 120 160 188 233 295 354
#     4  10  20  35  50  84 121 156 195 220 280 379
#     4  11  20  40  56  87 110 157 193 266 303 348
#
# _framework density 25.198715
#
# number of rings (size 3 to 8) (size 9 to 14) (size 15 to 20)
#    0.000    1.818    3.636    1.091    2.545    0.000 
#    6.545    0.000    0.000    0.000    0.000    7.636 
#    0.000    0.000    0.000    0.000    0.000    0.000 
#
# Total GULP energy -122699.475492 kJ/mol
# GULP energy per Si atom -5577.248886 kJ/mol
# Density = 2.514136 g / cm^3
# Si number density = 25.198715 Si / 1000 Ang^3
#
#
#
# Elastic Constant Matrix: (Units=GPa)
#
#
# Indices 1 2 3 4 5 6 
#
# 1 44.2315 -9.8418 2.1853 0.0000 0.0000 0.0000
# 2 -9.8418 42.2084 -2.8754 0.0000 0.0000 0.0000
# 3 2.1853 -2.8754 107.1064 0.0000 0.0000 0.0000
# 4 0.0000 0.0000 0.0000 40.8231 0.0000 0.0000
# 5 0.0000 0.0000 0.0000 0.0000 29.4084 0.0000
# 6 0.0000 0.0000 0.0000 0.0000 0.0000 28.3977
#
#
#
# Elastic Compliance Matrix: (Units=1/GPa)
#
#
# Indices 1 2 3 4 5 6 
#
# 1 0.023858 0.005540 -0.000338 0.000000 0.000000 0.000000
# 2 0.005540 0.025022 0.000559 0.000000 0.000000 0.000000
# 3 -0.000338 0.000559 0.009358 0.000000 0.000000 0.000000
# 4 0.000000 0.000000 0.000000 0.024496 0.000000 0.000000
# 5 0.000000 0.000000 0.000000 0.000000 0.034004 0.000000
# 6 0.000000 0.000000 0.000000 0.000000 0.000000 0.035214
#
#
# Mechanical properties :
#
#
# Convention : Reuss Voigt Hill
#
# Bulk Modulus (GPa) = 14.33509 19.16474 16.74991
# Shear Modulus (GPa) = 30.54673 33.33106 31.93890
#
# Velocity S-wave (km/s) = 3.48549 3.64088 3.56403
# Velocity P-wave (km/s) = 4.67968 5.02957 4.85778
#
# Compressibility (1/GPa) = 0.06975890
#
# Stress axis : x y z
#
# Youngs Moduli (GPa) = 41.91522 39.96525 106.85578
#
# Poissons Ratio (x) = -0.22140 0.03612
# Poissons Ratio (y) = -0.23221 -0.05970
# Poissons Ratio (z) = 0.01417 -0.02233
#
# Static dielectric constant tensor:
#      x y z
#    x 2.001800 0.000000 0.000000 
#    y 0.000000 2.151910 0.000000 
#    z 0.000000 0.000000 2.123200 
# 
# From -- ./inp_files/2481.got.cif
#   From: 2010.05.17/outbox.cif.g08.bks.cpg/sg45_2_cif.got.tgz:2481.got - 2010.06.03 19:51:22.
