data_PCOD9376364
_publ_section_title
;
Structure prediction by ZEFSAII (Michael W. Deem and Ramdas Pophale) SiO2 
 PCOD9376364
Probable space group: I B A 2
;
_chemical_formula_sum "Si O2"
_cell_formula_units_Z 32
_cell_length_a 21.564996
_cell_length_b 6.596455
_cell_length_c 7.974608
_cell_angle_alpha 90.000000
_cell_angle_beta 90.000000
_cell_angle_gamma 90.000000
_cell_volume 1134.408129
_symmetry_space_group_name_H-M "I B A 2"
_symmetry_group_IT_number 45
_symmetry_cell_setting 'orthorhombic'
loop_
_space_group_symop_operation_xyz
x,y,z
-x,-y,z
-x,y,1/2+z
x,-y,1/2+z
1/2+x,1/2+y,1/2+z
1/2-x,1/2-y,1/2+z
1/2-x,1/2+y,z
1/2+x,1/2-y,z
loop_
_atom_site_type_symbol
_atom_site_label
_atom_site_fract_x
_atom_site_fract_y
_atom_site_fract_z
Si Si1 0.420530 0.799696 0.928520
Si Si2 0.048891 0.763224 0.814478
Si Si3 0.673352 0.301036 0.439902
Si Si4 0.801809 0.391783 0.575441
O O1 0.475876 0.692776 0.827273
O O2 0.435915 0.035954 0.884261
O O3 0.437566 0.752299 0.119730
O O4 0.345897 0.782160 0.937967
O O5 0.104187 0.885356 0.909612
O O6 0.731975 0.421538 0.510762
O O7 0.692981 0.212193 0.256555
O O8 0.830166 0.617186 0.573346
#
# Coordination Sequence:
#
# PCOD9376364 Si02
#       4
#     8   8   8   8
#     4   9  16  26  43  67  93 121 155 195 237 279
#     4   9  16  26  43  67  93 121 155 195 237 279
#     4  10  20  33  50  73 100 130 163 199 241 288
#     4  10  20  33  50  73 100 130 163 199 241 288
#
# _framework density 28.208541
#
# number of rings (size 3 to 8) (size 9 to 14) (size 15 to 20)
#    0.000    2.500    0.000    4.500    0.000    6.000 
#    0.000    0.000    0.000    1.500    0.000   10.500 
#    0.000    0.000    0.000    0.000    0.000    0.000 
#
# Total GULP energy -89434.662046 kJ/mol
# GULP energy per Si atom -5589.666378 kJ/mol
# Density = 2.814434 g / cm^3
# Si number density = 28.208541 Si / 1000 Ang^3
#
#
#
# Elastic Constant Matrix: (Units=GPa)
#
#
# Indices 1 2 3 4 5 6 
#
# 1 187.2981 22.1929 30.8763 0.0000 0.0000 0.0000
# 2 22.1929 42.4391 9.9915 0.0000 0.0000 0.0000
# 3 30.8763 9.9915 145.9041 0.0000 0.0000 0.0000
# 4 0.0000 0.0000 0.0000 -0.7051 0.0000 0.0000
# 5 0.0000 0.0000 0.0000 0.0000 37.4700 0.0000
# 6 0.0000 0.0000 0.0000 0.0000 0.0000 72.3108
#
#
#
# Elastic Compliance Matrix: (Units=1/GPa)
#
#
# Indices 1 2 3 4 5 6 
#
# 1 0.005844 -0.002810 -0.001044 0.000000 0.000000 0.000000
# 2 -0.002810 0.025301 -0.001138 0.000000 0.000000 0.000000
# 3 -0.001044 -0.001138 0.007153 0.000000 0.000000 0.000000
# 4 0.000000 0.000000 0.000000 -1.418279 0.000000 0.000000
# 5 0.000000 0.000000 0.000000 0.000000 0.026688 0.000000
# 6 0.000000 0.000000 0.000000 0.000000 0.000000 0.013829
#
#
# Mechanical properties :
#
#
# Convention : Reuss Voigt Hill
#
# Bulk Modulus (GPa) = 35.31986 55.75143 45.53564
# Shear Modulus (GPa) = -3.78776 42.65385 19.43304
#
# Velocity S-wave (km/s) = -1.16004 3.89278 2.62755
# Velocity P-wave (km/s) = 3.27932 6.32550 5.03815
#
# Compressibility (1/GPa) = 0.02831268
#
# Stress axis : x y z
#
# Youngs Moduli (GPa) = 171.10900 39.52464 139.80663
#
# Poissons Ratio (x) = 0.11108 0.14600
# Poissons Ratio (y) = 0.48087 0.15908
# Poissons Ratio (z) = 0.17869 0.04497
#
# Static dielectric constant tensor:
#      x y z
#    x 2.356670 0.000000 0.000000 
#    y 0.000000 2.779420 0.000000 
#    z 0.000000 0.000000 2.023320 
# 
# From -- ./inp_files/361.got.cif
#   From: 2010.05.17/outbox.cif.g08.bks.cpg/sg45_1_cif.got.tgz:361.got - 2010.06.03 19:51:22.
