data_PCOD9376404
_publ_section_title
;
Structure prediction by ZEFSAII (Michael W. Deem and Ramdas Pophale) SiO2 
 PCOD9376404
Probable space group: I B A 2
;
_chemical_formula_sum "Si O2"
_cell_formula_units_Z 48
_cell_length_a 17.146698
_cell_length_b 9.195934
_cell_length_c 14.028252
_cell_angle_alpha 90.000000
_cell_angle_beta 90.000000
_cell_angle_gamma 90.000000
_cell_volume 2211.973416
_symmetry_space_group_name_H-M "I B A 2"
_symmetry_group_IT_number 45
_symmetry_cell_setting 'orthorhombic'
loop_
_space_group_symop_operation_xyz
x,y,z
-x,-y,z
-x,y,1/2+z
x,-y,1/2+z
1/2+x,1/2+y,1/2+z
1/2-x,1/2-y,1/2+z
1/2-x,1/2+y,z
1/2+x,1/2-y,z
loop_
_atom_site_type_symbol
_atom_site_label
_atom_site_fract_x
_atom_site_fract_y
_atom_site_fract_z
Si Si1 0.078654 0.436077 0.614580
Si Si2 0.133439 0.154660 0.247304
Si Si3 0.206569 0.654953 0.578935
Si Si4 0.078654 0.436077 0.326820
Si Si5 0.633439 0.654660 0.194096
Si Si6 0.793431 0.345047 0.362465
O O1 0.157273 0.505109 0.573597
O O2 0.079515 0.500000 0.720700
O O3 0.081916 0.264012 0.630338
O O4 0.000000 0.500000 0.570498
O O5 0.159358 0.236653 0.149562
O O6 0.081916 0.264012 0.311062
O O7 0.212003 0.128673 0.308942
O O8 0.098275 1.000000 0.220700
O O9 0.287997 0.628673 0.632458
O O10 0.216094 0.709575 0.470700
O O11 0.157273 0.505109 0.367803
O O12 0.000000 0.500000 0.370902
O O13 0.659358 0.736653 0.291837
#
# Coordination Sequence:
#
# PCOD9376404 Si02
#       6
#     8   8   8   8   8   8
#     4   9  19  37  57  79 112 152 192 230 284 346
#     4  10  20  35  57  85 116 149 192 239 282 335
#     4  10  20  35  56  84 119 156 191 229 279 341
#     4   9  19  37  57  79 112 152 192 230 284 346
#     4  10  20  35  57  85 116 149 192 239 282 335
#     4  10  20  35  56  84 119 156 191 229 279 341
#
# _framework density 21.70008
#
# number of rings (size 3 to 8) (size 9 to 14) (size 15 to 20)
#    0.000    2.333    0.000    5.000    0.000    6.000 
#    0.000   13.333    0.000    2.000    0.000    0.000 
#    0.000    0.000    0.000    0.000    0.000    0.000 
#
# Total GULP energy -133878.366738 kJ/mol
# GULP energy per Si atom -5578.265281 kJ/mol
# Density = 2.165069 g / cm^3
# Si number density = 21.700080 Si / 1000 Ang^3
#
#
#
# Elastic Constant Matrix: (Units=GPa)
#
#
# Indices 1 2 3 4 5 6 
#
# 1 75.8378 56.5876 24.0993 0.0000 0.0000 0.0000
# 2 56.5876 175.8988 17.9994 0.0000 0.0000 0.0000
# 3 24.0993 17.9994 145.2271 0.0000 0.0000 0.0000
# 4 0.0000 0.0000 0.0000 7.5093 0.0000 0.0000
# 5 0.0000 0.0000 0.0000 0.0000 147.6534 0.0000
# 6 0.0000 0.0000 0.0000 0.0000 0.0000 12.5599
#
#
#
# Elastic Compliance Matrix: (Units=1/GPa)
#
#
# Indices 1 2 3 4 5 6 
#
# 1 0.018085 -0.005582 -0.002309 0.000000 0.000000 0.000000
# 2 -0.005582 0.007481 -0.000001 0.000000 0.000000 0.000000
# 3 -0.002309 -0.000001 0.007269 0.000000 0.000000 0.000000
# 4 0.000000 0.000000 0.000000 0.133168 0.000000 0.000000
# 5 0.000000 0.000000 0.000000 0.000000 0.006773 0.000000
# 6 0.000000 0.000000 0.000000 0.000000 0.000000 0.079619
#
#
# Mechanical properties :
#
#
# Convention : Reuss Voigt Hill
#
# Bulk Modulus (GPa) = 58.64767 66.03736 62.34251
# Shear Modulus (GPa) = 18.25745 53.42969 35.84357
#
# Velocity S-wave (km/s) = 2.90376 4.96743 4.06861
# Velocity P-wave (km/s) = 6.19093 7.96231 7.13183
#
# Compressibility (1/GPa) = 0.01705098
#
# Stress axis : x y z
#
# Youngs Moduli (GPa) = 55.29549 133.67511 137.56894
#
# Poissons Ratio (x) = 0.74613 0.31768
# Poissons Ratio (y) = 0.30864 0.00013
# Poissons Ratio (z) = 0.12769 0.00013
#
# Static dielectric constant tensor:
#      x y z
#    x 1.858100 0.000000 0.000000 
#    y 0.000000 1.842530 0.000000 
#    z 0.000000 0.000000 1.815110 
# 
# From -- ./inp_files/6756.got.cif
#   From: 2010.05.17/outbox.cif.g08.bks.cpg/sg45_4_cif.got.tgz:6756.got - 2010.06.03 19:51:22.
