data_PCOD9376331
_publ_section_title
;
Structure prediction by ZEFSAII (Michael W. Deem and Ramdas Pophale) SiO2 
 PCOD9376331
Probable space group: I B A 2
;
_chemical_formula_sum "Si O2"
_cell_formula_units_Z 64
_cell_length_a 10.381052
_cell_length_b 14.205439
_cell_length_c 16.321304
_cell_angle_alpha 90.000000
_cell_angle_beta 90.000000
_cell_angle_gamma 90.000000
_cell_volume 2406.860281
_symmetry_space_group_name_H-M "I B A 2"
_symmetry_group_IT_number 45
_symmetry_cell_setting 'orthorhombic'
loop_
_space_group_symop_operation_xyz
x,y,z
-x,-y,z
-x,y,1/2+z
x,-y,1/2+z
1/2+x,1/2+y,1/2+z
1/2-x,1/2-y,1/2+z
1/2-x,1/2+y,z
1/2+x,1/2-y,z
loop_
_atom_site_type_symbol
_atom_site_label
_atom_site_fract_x
_atom_site_fract_y
_atom_site_fract_z
Si Si1 0.390245 0.927953 0.188920
Si Si2 0.817691 0.953805 0.116388
Si Si3 0.841196 0.735526 0.908164
Si Si4 0.402763 0.246864 0.803352
Si Si5 0.918777 0.356086 0.053822
Si Si6 0.504775 0.352030 0.513495
Si Si7 0.387167 0.440741 0.839752
Si Si8 0.191709 0.518746 0.455270
O O1 0.385420 0.832684 0.238245
O O2 0.455539 0.895830 0.102141
O O3 0.500000 0.000000 0.223018
O O4 0.248872 0.975285 0.181564
O O5 0.703773 0.875597 0.112110
O O6 0.956561 0.908299 0.094298
O O7 0.789717 0.013998 0.032471
O O8 0.705634 0.763808 0.871882
O O9 0.844080 0.628241 0.940370
O O10 0.954003 0.742761 0.840499
O O11 0.871384 0.808610 0.979036
O O12 0.369016 0.354179 0.778556
O O13 0.923812 0.245458 0.035304
O O14 0.898639 0.430730 0.978970
O O15 0.558264 0.399708 0.428610
O O16 0.500000 0.500000 0.802870
O O17 0.265816 0.499626 0.869752
#
# Coordination Sequence:
#
# PCOD9376331 Si02
#       8
#     8   8   8   8   8   8   8   8
#     4  10  21  46  65  93 140 191 250 296 348 449
#     4   9  20  36  64  96 134 179 228 304 368 427
#     4  10  23  41  68 104 144 186 249 308 382 446
#     4  10  24  44  66 102 140 203 245 305 361 451
#     4   9  21  38  65  94 137 177 232 300 367 440
#     4  11  21  35  65 105 139 174 235 312 389 444
#     4  10  19  40  65  98 151 176 232 304 388 461
#     4   9  19  36  66 104 135 179 230 309 388 433
#
# _framework density 26.59066
#
# number of rings (size 3 to 8) (size 9 to 14) (size 15 to 20)
#    0.750    1.500    1.250    0.750    7.000    0.000 
#   11.250    0.000    0.000    0.000    0.000    0.000 
#    0.000    0.000    0.000    0.000    0.000    0.000 
#
# Total GULP energy -178569.965003 kJ/mol
# GULP energy per Si atom -5580.311406 kJ/mol
# Density = 2.653014 g / cm^3
# Si number density = 26.590660 Si / 1000 Ang^3
#
#
#
# Elastic Constant Matrix: (Units=GPa)
#
#
# Indices 1 2 3 4 5 6 
#
# 1 78.4129 24.8569 30.8677 0.0000 0.0000 0.0000
# 2 24.8569 157.5089 48.7264 0.0000 0.0000 0.0000
# 3 30.8677 48.7264 74.6670 0.0000 0.0000 0.0000
# 4 0.0000 0.0000 0.0000 51.0101 0.0000 0.0000
# 5 0.0000 0.0000 0.0000 0.0000 32.9755 0.0000
# 6 0.0000 0.0000 0.0000 0.0000 0.0000 48.4615
#
#
#
# Elastic Compliance Matrix: (Units=1/GPa)
#
#
# Indices 1 2 3 4 5 6 
#
# 1 0.015273 -0.000573 -0.005940 0.000000 0.000000 0.000000
# 2 -0.000573 0.007976 -0.004968 0.000000 0.000000 0.000000
# 3 -0.005940 -0.004968 0.019091 0.000000 0.000000 0.000000
# 4 0.000000 0.000000 0.000000 0.019604 0.000000 0.000000
# 5 0.000000 0.000000 0.000000 0.000000 0.030326 0.000000
# 6 0.000000 0.000000 0.000000 0.000000 0.000000 0.020635
#
#
# Mechanical properties :
#
#
# Convention : Reuss Voigt Hill
#
# Bulk Modulus (GPa) = 51.60637 57.72119 54.66378
# Shear Modulus (GPa) = 35.13059 40.23194 37.68126
#
# Velocity S-wave (km/s) = 3.63872 3.89396 3.76850
# Velocity P-wave (km/s) = 6.09127 6.47856 6.28790
#
# Compressibility (1/GPa) = 0.01937745
#
# Stress axis : x y z
#
# Youngs Moduli (GPa) = 65.47530 125.37252 52.38121
#
# Poissons Ratio (x) = 0.07179 0.31116
# Poissons Ratio (y) = 0.03749 0.26025
# Poissons Ratio (z) = 0.38894 0.62290
#
# Static dielectric constant tensor:
#      x y z
#    x 2.253290 0.000000 0.000000 
#    y 0.000000 2.130320 0.000000 
#    z 0.000000 0.000000 2.164390 
# 
# From -- ./inp_files/8019.got.cif
#   From: 2010.05.17/outbox.cif.g08.bks.cpg/sg45_5_cif.got.tgz:8019.got - 2010.06.03 19:51:22.
