data_PCOD9376354
_publ_section_title
;
Structure prediction by ZEFSAII (Michael W. Deem and Ramdas Pophale) SiO2 
 PCOD9376354
Probable space group: I B A 2
;
_chemical_formula_sum "Si O2"
_cell_formula_units_Z 48
_cell_length_a 20.698715
_cell_length_b 21.341481
_cell_length_c 5.089685
_cell_angle_alpha 90.000000
_cell_angle_beta 90.000000
_cell_angle_gamma 90.000000
_cell_volume 2248.323727
_symmetry_space_group_name_H-M "I B A 2"
_symmetry_group_IT_number 45
_symmetry_cell_setting 'orthorhombic'
loop_
_space_group_symop_operation_xyz
x,y,z
-x,-y,z
-x,y,1/2+z
x,-y,1/2+z
1/2+x,1/2+y,1/2+z
1/2-x,1/2-y,1/2+z
1/2-x,1/2+y,z
1/2+x,1/2-y,z
loop_
_atom_site_type_symbol
_atom_site_label
_atom_site_fract_x
_atom_site_fract_y
_atom_site_fract_z
Si Si1 0.730645 0.340337 0.565880
Si Si2 0.655548 0.765091 0.825994
Si Si3 0.964892 0.263234 0.468652
Si Si4 0.464966 0.086169 0.446522
Si Si5 0.660385 0.113227 0.652517
Si Si6 0.759256 0.958051 0.871455
O O1 0.671795 0.300328 0.458594
O O2 0.776914 0.291654 0.716236
O O3 0.778287 0.368607 0.338661
O O4 0.708471 0.394695 0.764043
O O5 0.605330 0.754381 0.592674
O O6 0.634584 0.822232 0.019845
O O7 0.971750 0.338424 0.460897
O O8 0.983573 0.238696 0.183421
O O9 0.480964 0.063950 0.738453
O O10 0.394161 0.079294 0.323147
O O11 0.686388 0.068395 0.420840
O O12 0.772216 0.008926 0.647367
#
# Coordination Sequence:
#
# PCOD9376354 Si02
#       6
#     8   8   8   8   8   8
#     4  11  22  35  58  89 118 156 184 245 302 360
#     4  11  21  34  54  89 127 148 190 233 298 368
#     4  10  20  33  51  77 117 162 188 221 276 354
#     4  10  20  32  52  79 109 148 198 236 278 348
#     4  11  21  36  58  82 113 152 189 239 299 351
#     4  11  24  42  59  79 107 152 201 243 292 352
#
# _framework density 21.349240000000002
#
# number of rings (size 3 to 8) (size 9 to 14) (size 15 to 20)
#    0.000    1.333    5.000    3.000    2.333    0.000 
#    0.000    0.000    0.000    3.000    0.000    0.000 
#    0.000    4.000    0.000    0.000    0.000    0.000 
#
# Total GULP energy -134056.609676 kJ/mol
# GULP energy per Si atom -5585.692070 kJ/mol
# Density = 2.130065 g / cm^3
# Si number density = 21.349240 Si / 1000 Ang^3
#
#
#
# Elastic Constant Matrix: (Units=GPa)
#
#
# Indices 1 2 3 4 5 6 
#
# 1 29.6147 10.8184 2.4844 0.0000 0.0000 0.0000
# 2 10.8184 55.9482 16.6938 0.0000 0.0000 0.0000
# 3 2.4844 16.6938 92.3645 0.0000 0.0000 0.0000
# 4 0.0000 0.0000 0.0000 26.0818 0.0000 0.0000
# 5 0.0000 0.0000 0.0000 0.0000 42.9702 0.0000
# 6 0.0000 0.0000 0.0000 0.0000 0.0000 12.8832
#
#
#
# Elastic Compliance Matrix: (Units=1/GPa)
#
#
# Indices 1 2 3 4 5 6 
#
# 1 0.036342 -0.007120 0.000309 0.000000 0.000000 0.000000
# 2 -0.007120 0.020287 -0.003475 0.000000 0.000000 0.000000
# 3 0.000309 -0.003475 0.011446 0.000000 0.000000 0.000000
# 4 0.000000 0.000000 0.000000 0.038341 0.000000 0.000000
# 5 0.000000 0.000000 0.000000 0.000000 0.023272 0.000000
# 6 0.000000 0.000000 0.000000 0.000000 0.000000 0.077620
#
#
# Mechanical properties :
#
#
# Convention : Reuss Voigt Hill
#
# Bulk Modulus (GPa) = 21.05054 26.43561 23.74308
# Shear Modulus (GPa) = 20.51580 26.24910 23.38245
#
# Velocity S-wave (km/s) = 3.10330 3.51024 3.31302
# Velocity P-wave (km/s) = 4.76677 5.37014 5.07743
#
# Compressibility (1/GPa) = 0.04750473
#
# Stress axis : x y z
#
# Youngs Moduli (GPa) = 27.51643 49.29200 87.36332
#
# Poissons Ratio (x) = 0.35094 -0.02702
# Poissons Ratio (y) = 0.19590 0.30360
# Poissons Ratio (z) = -0.00851 0.17130
#
# Static dielectric constant tensor:
#      x y z
#    x 1.828950 0.000000 0.000000 
#    y 0.000000 1.819440 0.000000 
#    z 0.000000 0.000000 1.886050 
# 
# From -- ./inp_files/404.got.cif
#   From: 2010.05.17/outbox.cif.g08.bks.cpg/sg45_1_cif.got.tgz:404.got - 2010.06.03 19:51:22.
