data_PCOD9376202
_publ_section_title
;
Structure prediction by ZEFSAII (Michael W. Deem and Ramdas Pophale) SiO2 
 PCOD9376202
Probable space group: I B A 2
;
_chemical_formula_sum "Si O2"
_cell_formula_units_Z 48
_cell_length_a 5.015841
_cell_length_b 14.033504
_cell_length_c 30.713340
_cell_angle_alpha 90.000000
_cell_angle_beta 90.000000
_cell_angle_gamma 90.000000
_cell_volume 2161.906620
_symmetry_space_group_name_H-M "I B A 2"
_symmetry_group_IT_number 45
_symmetry_cell_setting 'orthorhombic'
loop_
_space_group_symop_operation_xyz
x,y,z
-x,-y,z
-x,y,1/2+z
x,-y,1/2+z
1/2+x,1/2+y,1/2+z
1/2-x,1/2-y,1/2+z
1/2-x,1/2+y,z
1/2+x,1/2-y,z
loop_
_atom_site_type_symbol
_atom_site_label
_atom_site_fract_x
_atom_site_fract_y
_atom_site_fract_z
Si Si1 0.825733 0.182646 0.803730
Si Si2 0.228216 0.185643 0.486753
Si Si3 0.174260 0.317354 0.893635
Si Si4 0.771778 0.314358 0.210612
Si Si5 0.545254 0.112558 0.075716
Si Si6 0.045254 0.112558 0.121649
O O1 0.620899 0.273131 0.804153
O O2 0.749998 0.130173 0.848683
O O3 0.779284 0.134586 0.756993
O O4 0.425905 0.277549 0.487042
O O5 0.279286 0.134587 0.440372
O O6 0.319516 0.130012 0.529369
O O7 0.379091 0.226867 0.893212
O O8 0.574082 0.222454 0.210323
O O9 0.680484 0.369989 0.167997
O O10 0.249569 0.150580 0.084966
O O11 0.749569 0.150581 0.112399
O O12 0.500000 0.000000 0.080482
O O13 0.000000 0.000000 0.116883
#
# Coordination Sequence:
#
# PCOD9376202 Si02
#       6
#     8   8   8   8   8   8
#     4   8  14  25  41  64  92 116 141 178 224 271
#     4  10  19  30  48  73  94 118 156 197 233 270
#     4   8  14  25  41  64  92 116 141 178 224 271
#     4  10  19  30  48  73  94 118 156 197 233 270
#     4  10  21  35  48  65  93 128 159 189 235 287
#     4  10  21  35  48  65  93 128 159 189 235 287
#
# _framework density 22.202622999999999
#
# number of rings (size 3 to 8) (size 9 to 14) (size 15 to 20)
#    0.000    2.667    0.000    2.000    0.000    4.000 
#    0.000    0.000    0.000    0.000    0.000   30.333 
#    0.000    0.000    0.000    0.000    0.000    0.000 
#
# Total GULP energy -133742.946004 kJ/mol
# GULP energy per Si atom -5572.622750 kJ/mol
# Density = 2.215209 g / cm^3
# Si number density = 22.202623 Si / 1000 Ang^3
#
#
#
# Elastic Constant Matrix: (Units=GPa)
#
#
# Indices 1 2 3 4 5 6 
#
# 1 96.8979 2.5320 34.0367 0.0000 0.0000 0.0000
# 2 2.5320 25.2869 -7.5607 0.0000 0.0000 0.0000
# 3 34.0367 -7.5607 176.5541 0.0000 0.0000 0.0000
# 4 0.0000 0.0000 0.0000 -0.3247 0.0000 0.0000
# 5 0.0000 0.0000 0.0000 0.0000 38.8740 0.0000
# 6 0.0000 0.0000 0.0000 0.0000 0.0000 10.3322
#
#
#
# Elastic Compliance Matrix: (Units=1/GPa)
#
#
# Indices 1 2 3 4 5 6 
#
# 1 0.011148 -0.001782 -0.002226 0.000000 0.000000 0.000000
# 2 -0.001782 0.040344 0.002071 0.000000 0.000000 0.000000
# 3 -0.002226 0.002071 0.006182 0.000000 0.000000 0.000000
# 4 0.000000 0.000000 0.000000 -3.079871 0.000000 0.000000
# 5 0.000000 0.000000 0.000000 0.000000 0.025724 0.000000
# 6 0.000000 0.000000 0.000000 0.000000 0.000000 0.096785
#
#
# Mechanical properties :
#
#
# Convention : Reuss Voigt Hill
#
# Bulk Modulus (GPa) = 18.58673 39.63944 29.11309
# Shear Modulus (GPa) = -1.73739 27.75834 13.01047
#
# Velocity S-wave (km/s) = -0.88556 3.53969 2.42335
# Velocity P-wave (km/s) = 2.70998 5.88202 4.57942
#
# Compressibility (1/GPa) = 0.05380183
#
# Stress axis : x y z
#
# Youngs Moduli (GPa) = 89.69851 24.78689 161.76703
#
# Poissons Ratio (x) = 0.04416 0.36002
# Poissons Ratio (y) = 0.15982 -0.33505
# Poissons Ratio (z) = 0.19963 -0.05134
#
# Static dielectric constant tensor:
#      x y z
#    x 1.806720 0.000000 0.000000 
#    y 0.000000 1.783320 0.000000 
#    z 0.000000 0.000000 1.941850 
# 
# From -- ./inp_files/5224.got.cif
#   From: 2010.05.17/outbox.cif.g08.bks.cpg/sg45_3_cif.got.tgz:5224.got - 2010.06.03 19:51:22.
