data_PCOD9376064
_publ_section_title
;
Structure prediction by ZEFSAII (Michael W. Deem and Ramdas Pophale) SiO2 
 PCOD9376064
Probable space group: I B A 2
;
_chemical_formula_sum "Si O2"
_cell_formula_units_Z 44
_cell_length_a 5.449866
_cell_length_b 25.673892
_cell_length_c 13.309369
_cell_angle_alpha 90.000000
_cell_angle_beta 90.000000
_cell_angle_gamma 90.000000
_cell_volume 1862.237209
_symmetry_space_group_name_H-M "I B A 2"
_symmetry_group_IT_number 45
_symmetry_cell_setting 'orthorhombic'
loop_
_space_group_symop_operation_xyz
x,y,z
-x,-y,z
-x,y,1/2+z
x,-y,1/2+z
1/2+x,1/2+y,1/2+z
1/2-x,1/2-y,1/2+z
1/2-x,1/2+y,z
1/2+x,1/2-y,z
loop_
_atom_site_type_symbol
_atom_site_label
_atom_site_fract_x
_atom_site_fract_y
_atom_site_fract_z
Si Si1 0.894476 0.118746 0.050290
Si Si2 0.605439 0.106264 0.425875
Si Si3 0.385778 0.736933 0.618490
Si Si4 0.365839 0.778572 0.392158
Si Si5 0.500000 0.000000 0.310544
Si Si6 0.253621 0.516257 0.622570
O O1 0.907621 0.176937 0.089619
O O2 0.799374 0.077478 0.133242
O O3 0.666278 0.114900 0.973076
O O4 0.160649 0.104793 0.002451
O O5 0.650783 0.160409 0.366458
O O6 0.579911 0.051811 0.367632
O O7 0.630058 0.754740 0.672604
O O8 0.371445 0.771904 0.516041
O O9 0.621103 0.752078 0.363875
O O10 0.281920 0.011766 0.229622
O O11 0.500000 0.500000 0.567065
O O12 0.000000 0.500000 0.569475
#
# Coordination Sequence:
#
# PCOD9376064 Si02
#       6
#     8   8   8   8   4   8
#     4  12  22  36  65  96 117 160 215 267 308 370
#     4  12  23  36  67  96 122 158 216 277 301 384
#     4  10  16  31  52  92 127 145 185 261 328 363
#     4  10  16  33  52  92 128 149 187 262 335 358
#     4  10  30  44  60  88 134 176 214 256 340 382
#     4  10  25  47  59  81 127 176 206 256 322 388
#
# _framework density 23.627496000000001
#
# number of rings (size 3 to 8) (size 9 to 14) (size 15 to 20)
#    0.545    0.727    7.273    1.091    6.364    0.000 
#    0.000    0.000    0.000    2.182    0.000    0.000 
#    0.000    0.000    0.000    0.000    0.000    0.000 
#
# Total GULP energy -122695.480302 kJ/mol
# GULP energy per Si atom -5577.067286 kJ/mol
# Density = 2.357372 g / cm^3
# Si number density = 23.627496 Si / 1000 Ang^3
#
#
#
# Elastic Constant Matrix: (Units=GPa)
#
#
# Indices 1 2 3 4 5 6 
#
# 1 232.0696 53.4654 36.1069 0.0000 0.0000 0.0000
# 2 53.4654 170.3494 26.6531 0.0000 0.0000 0.0000
# 3 36.1069 26.6531 50.5869 0.0000 0.0000 0.0000
# 4 0.0000 0.0000 0.0000 1.1397 0.0000 0.0000
# 5 0.0000 0.0000 0.0000 0.0000 26.8186 0.0000
# 6 0.0000 0.0000 0.0000 0.0000 0.0000 44.7235
#
#
#
# Elastic Compliance Matrix: (Units=1/GPa)
#
#
# Indices 1 2 3 4 5 6 
#
# 1 0.005032 -0.001109 -0.003008 0.000000 0.000000 0.000000
# 2 -0.001109 0.006642 -0.002708 0.000000 0.000000 0.000000
# 3 -0.003008 -0.002708 0.023342 -0.000001 0.000000 0.000000
# 4 0.000000 0.000000 -0.000001 0.877440 0.000000 0.000000
# 5 0.000000 0.000000 0.000000 0.000000 0.037288 0.000000
# 6 0.000000 0.000000 0.000000 0.000000 0.000000 0.022360
#
#
# Mechanical properties :
#
#
# Convention : Reuss Voigt Hill
#
# Bulk Modulus (GPa) = 46.80177 76.16187 61.48182
# Shear Modulus (GPa) = 5.03588 36.98837 21.01213
#
# Velocity S-wave (km/s) = 1.46150 3.96091 2.98536
# Velocity P-wave (km/s) = 4.76436 7.29539 6.16125
#
# Compressibility (1/GPa) = 0.02136672
#
# Stress axis : x y z
#
# Youngs Moduli (GPa) = 198.70885 150.55643 42.84204
#
# Poissons Ratio (x) = 0.16695 0.12886
# Poissons Ratio (y) = 0.22035 0.11602
# Poissons Ratio (z) = 0.59766 0.40771
#
# Static dielectric constant tensor:
#      x y z
#    x 1.948800 0.000000 0.000000 
#    y 0.000000 1.891600 0.000000 
#    z 0.000000 0.000000 1.938780 
# 
# From -- ./inp_files/5152.got.cif
#   From: 2010.05.17/outbox.cif.g08.bks.cpg/sg45_3_cif.got.tgz:5152.got - 2010.06.03 19:51:22.
