data_PCOD9376647
_publ_section_title
;
Structure prediction by ZEFSAII (Michael W. Deem and Ramdas Pophale) SiO2 
 PCOD9376647
Probable space group: I B A 2
;
_chemical_formula_sum "Si O2"
_cell_formula_units_Z 56
_cell_length_a 18.534479
_cell_length_b 27.430631
_cell_length_c 5.213042
_cell_angle_alpha 90.000000
_cell_angle_beta 90.000000
_cell_angle_gamma 90.000000
_cell_volume 2650.375477
_symmetry_space_group_name_H-M "I B A 2"
_symmetry_group_IT_number 45
_symmetry_cell_setting 'orthorhombic'
loop_
_space_group_symop_operation_xyz
x,y,z
-x,-y,z
-x,y,1/2+z
x,-y,1/2+z
1/2+x,1/2+y,1/2+z
1/2-x,1/2-y,1/2+z
1/2-x,1/2+y,z
1/2+x,1/2-y,z
loop_
_atom_site_type_symbol
_atom_site_label
_atom_site_fract_x
_atom_site_fract_y
_atom_site_fract_z
Si Si1 0.171986 0.220739 0.531530
Si Si2 0.333680 0.213978 0.530411
Si Si3 0.533324 0.570366 0.833749
Si Si4 0.151842 0.533888 0.444981
Si Si5 0.470853 0.682964 0.353167
Si Si6 0.949509 0.371666 0.467513
Si Si7 0.315826 0.468199 0.993448
O O1 0.250369 0.196778 0.508579
O O2 0.161898 0.245090 0.808373
O O3 0.108458 0.184267 0.467125
O O4 0.162682 0.262148 0.312500
O O5 0.392373 0.172552 0.486433
O O6 0.519528 0.549539 0.551644
O O7 0.511247 0.626884 0.801845
O O8 0.615031 0.564422 0.927523
O O9 0.142727 0.496207 0.681208
O O10 0.096029 0.578090 0.467224
O O11 0.235083 0.552701 0.456377
O O12 0.519335 0.706916 0.575235
O O13 0.996915 0.369128 0.209846
O O14 0.320198 0.511742 0.782918
#
# Coordination Sequence:
#
# PCOD9376647 Si02
#       7
#     8   8   8   8   8   8   8
#     4  10  21  40  62  85 121 162 196 238 294 346
#     4  10  23  40  60  91 119 153 202 242 291 359
#     4  10  21  35  52  83 118 149 194 242 286 345
#     4  10  23  43  64  90 121 159 206 249 303 372
#     4  10  21  35  55  84 112 152 195 229 281 337
#     4  12  26  42  65  96 124 159 201 253 316 360
#     4  10  21  37  58  83 111 153 198 238 295 353
#
# _framework density 21.129082
#
# number of rings (size 3 to 8) (size 9 to 14) (size 15 to 20)
#    0.000    1.714    0.000    3.429    2.000    6.857 
#    0.000    0.000    0.000    0.000    0.000    0.000 
#    0.000    0.000    0.000    0.000    0.000    0.000 
#
# Total GULP energy -156329.668557 kJ/mol
# GULP energy per Si atom -5583.202448 kJ/mol
# Density = 2.108099 g / cm^3
# Si number density = 21.129082 Si / 1000 Ang^3
#
#
#
# Elastic Constant Matrix: (Units=GPa)
#
#
# Indices 1 2 3 4 5 6 
#
# 1 134.2884 35.8334 38.6470 0.0000 0.0000 0.0000
# 2 35.8334 36.2627 12.8711 0.0000 0.0000 0.0000
# 3 38.6470 12.8711 105.8173 0.0000 0.0000 0.0000
# 4 0.0000 0.0000 0.0000 15.3969 0.0000 0.0000
# 5 0.0000 0.0000 0.0000 0.0000 37.3806 0.0000
# 6 0.0000 0.0000 0.0000 0.0000 0.0000 49.0830
#
#
#
# Elastic Compliance Matrix: (Units=1/GPa)
#
#
# Indices 1 2 3 4 5 6 
#
# 1 0.010841 -0.009728 -0.002776 0.000000 0.000000 0.000000
# 2 -0.009728 0.037549 -0.001015 0.000000 0.000000 0.000000
# 3 -0.002776 -0.001015 0.010588 0.000000 0.000000 0.000000
# 4 0.000000 0.000000 0.000000 0.064948 0.000000 0.000000
# 5 0.000000 0.000000 0.000000 0.000000 0.026752 0.000000
# 6 0.000000 0.000000 0.000000 0.000000 0.000000 0.020374
#
#
# Mechanical properties :
#
#
# Convention : Reuss Voigt Hill
#
# Bulk Modulus (GPa) = 31.30753 50.11903 40.71328
# Shear Modulus (GPa) = 23.95377 32.97323 28.46350
#
# Velocity S-wave (km/s) = 3.37068 3.95468 3.67430
# Velocity P-wave (km/s) = 5.47705 6.68016 6.10830
#
# Compressibility (1/GPa) = 0.03194120
#
# Stress axis : x y z
#
# Youngs Moduli (GPa) = 92.23947 26.63186 94.44982
#
# Poissons Ratio (x) = 0.25906 0.26222
# Poissons Ratio (y) = 0.89727 0.09582
# Poissons Ratio (z) = 0.25609 0.02702
#
# Static dielectric constant tensor:
#      x y z
#    x 1.772980 0.000000 0.000000 
#    y 0.000000 1.741650 0.000000 
#    z 0.000000 0.000000 1.785280 
# 
# From -- ./inp_files/227.got.cif
#   From: 2010.05.17/outbox.cif.g08.bks.cpg/sg45_1_cif.got.tgz:227.got - 2010.06.03 19:51:22.
