data_PCOD9376194
_publ_section_title
;
Structure prediction by ZEFSAII (Michael W. Deem and Ramdas Pophale) SiO2 
 PCOD9376194
Probable space group: I B A 2
;
_chemical_formula_sum "Si O2"
_cell_formula_units_Z 60
_cell_length_a 13.878470
_cell_length_b 12.311263
_cell_length_c 15.873335
_cell_angle_alpha 90.000000
_cell_angle_beta 90.000000
_cell_angle_gamma 90.000000
_cell_volume 2712.141736
_symmetry_space_group_name_H-M "I B A 2"
_symmetry_group_IT_number 45
_symmetry_cell_setting 'orthorhombic'
loop_
_space_group_symop_operation_xyz
x,y,z
-x,-y,z
-x,y,1/2+z
x,-y,1/2+z
1/2+x,1/2+y,1/2+z
1/2-x,1/2-y,1/2+z
1/2-x,1/2+y,z
1/2+x,1/2-y,z
loop_
_atom_site_type_symbol
_atom_site_label
_atom_site_fract_x
_atom_site_fract_y
_atom_site_fract_z
Si Si1 0.000000 0.500000 0.566071
Si Si2 0.441082 0.206908 0.308183
Si Si3 0.378124 0.158314 0.482376
Si Si4 0.854994 0.731422 0.388926
Si Si5 0.313352 0.467746 0.938370
Si Si6 0.229711 0.846635 0.547985
Si Si7 0.197173 0.873632 0.281164
Si Si8 0.830856 0.543350 0.692747
O O1 0.976999 0.397809 0.508108
O O2 0.908299 0.503238 0.625285
O O3 0.397557 0.228389 0.400300
O O4 0.552559 0.194145 0.333779
O O5 0.400226 0.309680 0.255321
O O6 0.391885 0.100159 0.267501
O O7 0.296792 0.071857 0.455934
O O8 0.333830 0.238790 0.549838
O O9 0.868705 0.855216 0.420967
O O10 0.810776 0.672750 0.473484
O O11 0.769930 0.715948 0.320501
O O12 0.323827 0.539882 0.855320
O O13 0.331116 0.548694 0.016382
O O14 0.272969 0.867839 0.639020
O O15 0.259007 0.946951 0.217467
#
# Coordination Sequence:
#
# PCOD9376194 Si02
#       8
#     4   8   8   8   8   8   8   8
#     4  12  26  38  66 102 136 180 232 294 334 416
#     4  12  24  40  68  98 131 175 229 284 343 413
#     4  11  22  42  67  96 128 177 238 277 334 424
#     4  10  22  40  68  95 128 172 237 283 324 427
#     4  10  18  43  65  89 124 175 224 271 343 404
#     4  10  22  43  68  97 136 182 230 287 354 412
#     4  11  22  41  63  95 133 173 221 277 347 405
#     4  12  25  39  62 101 140 179 218 291 359 402
#
# _framework density 22.122737000000001
#
# number of rings (size 3 to 8) (size 9 to 14) (size 15 to 20)
#    0.000    1.067    6.667    1.600    3.733    1.067 
#    2.400    0.000    0.000    0.000    0.000    0.000 
#    0.000    0.000    0.000    0.000    0.000    0.000 
#
# Total GULP energy -167211.482631 kJ/mol
# GULP energy per Si atom -5573.716088 kJ/mol
# Density = 2.207238 g / cm^3
# Si number density = 22.122737 Si / 1000 Ang^3
#
#
#
# Elastic Constant Matrix: (Units=GPa)
#
#
# Indices 1 2 3 4 5 6 
#
# 1 62.0836 8.5753 24.6040 0.0000 0.0000 0.0000
# 2 8.5753 87.2387 14.1710 0.0000 0.0000 0.0000
# 3 24.6040 14.1710 61.3303 0.0000 0.0000 0.0000
# 4 0.0000 0.0000 0.0000 22.6725 0.0000 0.0000
# 5 0.0000 0.0000 0.0000 0.0000 17.7215 0.0000
# 6 0.0000 0.0000 0.0000 0.0000 0.0000 24.8550
#
#
#
# Elastic Compliance Matrix: (Units=1/GPa)
#
#
# Indices 1 2 3 4 5 6 
#
# 1 0.019189 -0.000661 -0.007545 0.000000 0.000000 0.000000
# 2 -0.000661 0.011933 -0.002492 0.000000 0.000000 0.000000
# 3 -0.007545 -0.002492 0.019908 0.000000 0.000000 0.000000
# 4 0.000000 0.000000 0.000000 0.044106 0.000000 0.000000
# 5 0.000000 0.000000 0.000000 0.000000 0.056429 0.000000
# 6 0.000000 0.000000 0.000000 0.000000 0.000000 0.040233
#
#
# Mechanical properties :
#
#
# Convention : Reuss Voigt Hill
#
# Bulk Modulus (GPa) = 33.74594 33.92814 33.83704
# Shear Modulus (GPa) = 22.41432 23.93661 23.17547
#
# Velocity S-wave (km/s) = 3.18650 3.29293 3.24015
# Velocity P-wave (km/s) = 5.36894 5.46145 5.41539
#
# Compressibility (1/GPa) = 0.02963320
#
# Stress axis : x y z
#
# Youngs Moduli (GPa) = 52.11360 83.80429 50.23101
#
# Poissons Ratio (x) = 0.05536 0.37901
# Poissons Ratio (y) = 0.03442 0.12518
# Poissons Ratio (z) = 0.39322 0.20885
#
# Static dielectric constant tensor:
#      x y z
#    x 1.867040 0.000000 0.000000 
#    y 0.000000 1.867380 0.000000 
#    z 0.000000 0.000000 1.814610 
# 
# From -- ./inp_files/8223.got.cif
#   From: 2010.05.17/outbox.cif.g08.bks.cpg/sg45_5_cif.got.tgz:8223.got - 2010.06.03 19:51:22.
