data_PCOD9376125
_publ_section_title
;
Structure prediction by ZEFSAII (Michael W. Deem and Ramdas Pophale) SiO2 
 PCOD9376125
Probable space group: I B A 2
;
_chemical_formula_sum "Si O2"
_cell_formula_units_Z 56
_cell_length_a 29.781271
_cell_length_b 5.555743
_cell_length_c 12.686345
_cell_angle_alpha 90.000000
_cell_angle_beta 90.000000
_cell_angle_gamma 90.000000
_cell_volume 2099.045700
_symmetry_space_group_name_H-M "I B A 2"
_symmetry_group_IT_number 45
_symmetry_cell_setting 'orthorhombic'
loop_
_space_group_symop_operation_xyz
x,y,z
-x,-y,z
-x,y,1/2+z
x,-y,1/2+z
1/2+x,1/2+y,1/2+z
1/2-x,1/2-y,1/2+z
1/2-x,1/2+y,z
1/2+x,1/2-y,z
loop_
_atom_site_type_symbol
_atom_site_label
_atom_site_fract_x
_atom_site_fract_y
_atom_site_fract_z
Si Si1 0.352455 0.778652 0.668390
Si Si2 0.000000 0.500000 0.240684
Si Si3 0.596805 0.589509 0.548164
Si Si4 0.593118 0.125480 0.270651
Si Si5 0.173310 0.830236 0.397873
Si Si6 0.307819 0.827727 0.372771
Si Si7 0.227346 0.608300 0.644775
Si Si8 0.500000 0.500000 0.099635
O O1 0.369090 0.625988 0.572850
O O2 0.327867 0.661154 0.768849
O O3 0.257324 0.376137 0.612626
O O4 0.397571 0.864578 0.722768
O O5 0.957377 0.590991 0.310560
O O6 0.994128 0.253858 0.167345
O O7 0.594303 0.713492 0.664287
O O8 0.623621 0.700982 0.449700
O O9 0.545179 0.526348 0.529983
O O10 0.638239 0.180838 0.337399
O O11 0.197921 0.584393 0.427404
O O12 0.198157 0.074367 0.427253
O O13 0.276225 0.850139 0.271537
O O14 0.176846 0.504186 0.631408
#
# Coordination Sequence:
#
# PCOD9376125 Si02
#       8
#     8   4   8   8   8   8   8   4
#     4  10  21  39  61  88 121 160 213 244 314 378
#     4  10  18  32  54  84 112 156 206 246 298 358
#     4  11  21  38  62  87 125 168 206 259 309 362
#     4   9  19  34  58  82 116 158 201 246 302 356
#     4  10  22  36  59  88 115 156 208 254 296 372
#     4  10  21  39  57  90 120 150 211 242 305 380
#     4  10  20  35  64  92 118 157 198 249 309 366
#     4  10  22  34  54  88 122 160 210 250 310 364
#
# _framework density 26.678788000000001
#
# number of rings (size 3 to 8) (size 9 to 14) (size 15 to 20)
#    0.000    2.286    2.857    1.714    4.000    0.000 
#    0.000    3.571    0.000   12.857    0.000    0.000 
#    0.000    0.000    0.000    0.000    0.000    0.000 
#
# Total GULP energy -155970.584505 kJ/mol
# GULP energy per Si atom -5570.378018 kJ/mol
# Density = 2.661807 g / cm^3
# Si number density = 26.678788 Si / 1000 Ang^3
#
#
#
# Elastic Constant Matrix: (Units=GPa)
#
#
# Indices 1 2 3 4 5 6 
#
# 1 195.0939 48.5378 36.0457 0.0000 0.0000 0.0000
# 2 48.5378 197.1593 37.3281 0.0000 0.0000 0.0000
# 3 36.0457 37.3281 82.3901 0.0000 0.0000 0.0000
# 4 0.0000 0.0000 0.0000 8.9458 0.0000 0.0000
# 5 0.0000 0.0000 0.0000 0.0000 31.8105 0.0000
# 6 0.0000 0.0000 0.0000 0.0000 0.0000 28.2714
#
#
#
# Elastic Compliance Matrix: (Units=1/GPa)
#
#
# Indices 1 2 3 4 5 6 
#
# 1 0.005761 -0.001029 -0.002054 0.000000 0.000000 0.000000
# 2 -0.001029 0.005732 -0.002147 0.000000 0.000000 0.000000
# 3 -0.002054 -0.002147 0.014009 0.000000 0.000000 0.000000
# 4 0.000000 0.000000 0.000000 0.111785 0.000000 0.000000
# 5 0.000000 0.000000 0.000000 0.000000 0.031436 0.000000
# 6 0.000000 0.000000 0.000000 0.000000 0.000000 0.035371
#
#
# Mechanical properties :
#
#
# Convention : Reuss Voigt Hill
#
# Bulk Modulus (GPa) = 66.48269 79.82963 73.15616
# Shear Modulus (GPa) = 22.77196 37.32098 30.04647
#
# Velocity S-wave (km/s) = 2.92475 3.74425 3.35958
# Velocity P-wave (km/s) = 6.03152 6.97710 6.52147
#
# Compressibility (1/GPa) = 0.01504151
#
# Stress axis : x y z
#
# Youngs Moduli (GPa) = 173.56915 174.46285 71.38468
#
# Poissons Ratio (x) = 0.17960 0.14664
# Poissons Ratio (y) = 0.17868 0.15323
# Poissons Ratio (z) = 0.35655 0.37449
#
# Static dielectric constant tensor:
#      x y z
#    x 2.214330 0.000000 0.000000 
#    y 0.000000 2.619840 0.000000 
#    z 0.000000 0.000000 2.140300 
# 
# From -- ./inp_files/7184.got.cif
#   From: 2010.05.17/outbox.cif.g08.bks.cpg/sg45_4_cif.got.tgz:7184.got - 2010.06.03 19:51:22.
