data_PCOD9376415
_publ_section_title
;
Structure prediction by ZEFSAII (Michael W. Deem and Ramdas Pophale) SiO2 
 PCOD9376415
Probable space group: I B A 2
;
_chemical_formula_sum "Si O2"
_cell_formula_units_Z 64
_cell_length_a 10.916379
_cell_length_b 30.881121
_cell_length_c 8.374360
_cell_angle_alpha 90.000000
_cell_angle_beta 90.000000
_cell_angle_gamma 90.000000
_cell_volume 2823.080674
_symmetry_space_group_name_H-M "I B A 2"
_symmetry_group_IT_number 45
_symmetry_cell_setting 'orthorhombic'
loop_
_space_group_symop_operation_xyz
x,y,z
-x,-y,z
-x,y,1/2+z
x,-y,1/2+z
1/2+x,1/2+y,1/2+z
1/2-x,1/2-y,1/2+z
1/2-x,1/2+y,z
1/2+x,1/2-y,z
loop_
_atom_site_type_symbol
_atom_site_label
_atom_site_fract_x
_atom_site_fract_y
_atom_site_fract_z
Si Si1 0.020419 0.798769 0.453520
Si Si2 0.929913 0.263786 0.714878
Si Si3 0.229153 0.148966 0.460137
Si Si4 0.951665 0.557475 0.583817
Si Si5 0.305966 0.985195 0.302283
Si Si6 0.745187 0.829003 0.811591
Si Si7 0.746778 0.056376 0.019022
Si Si8 0.607658 0.843513 0.147851
O O1 0.078863 0.780643 0.615354
O O2 0.113417 0.829010 0.359142
O O3 0.002983 0.753170 0.366093
O O4 0.889903 0.821154 0.471781
O O5 0.796937 0.280337 0.765642
O O6 0.004639 0.305730 0.651966
O O7 0.279833 0.147248 0.643701
O O8 0.203066 0.098521 0.435352
O O9 0.313790 0.163053 0.311432
O O10 0.886420 0.521524 0.700922
O O11 0.889788 0.545358 0.413844
O O12 0.930773 0.605830 0.649881
O O13 0.097206 0.556321 0.545583
O O14 0.225607 0.014853 0.415171
O O15 0.218388 0.954793 0.198420
O O16 0.672823 0.840163 0.973708
#
# Coordination Sequence:
#
# PCOD9376415 Si02
#       8
#     8   8   8   8   8   8   8   8
#     4  12  27  48  71  97 139 192 244 295 362 436
#     4  12  26  46  71 100 139 183 239 298 367 439
#     4  12  27  45  69 105 146 190 244 301 355 441
#     4  11  20  36  59 101 143 188 232 288 372 437
#     4  10  20  35  62  95 146 195 230 292 375 449
#     4  12  28  47  73 100 141 194 230 305 365 426
#     4  11  20  36  62  97 142 185 233 292 362 430
#     4  12  27  43  69 109 146 185 242 300 362 446
#
# _framework density 22.670268
#
# number of rings (size 3 to 8) (size 9 to 14) (size 15 to 20)
#    0.000    0.500    3.750    6.000    7.000    0.000 
#    0.000    0.000    0.000    0.000    0.000   14.875 
#    0.000    0.000    0.000    0.000    0.000    0.000 
#
# Total GULP energy -178387.963731 kJ/mol
# GULP energy per Si atom -5574.623867 kJ/mol
# Density = 2.261867 g / cm^3
# Si number density = 22.670268 Si / 1000 Ang^3
#
#
#
# Elastic Constant Matrix: (Units=GPa)
#
#
# Indices 1 2 3 4 5 6 
#
# 1 33.0629 18.3666 19.1723 -0.0004 0.0031 0.0017
# 2 18.3666 97.1528 13.5582 -0.0026 0.0038 0.0014
# 3 19.1723 13.5582 111.2523 -0.0024 0.0182 0.0060
# 4 -0.0004 -0.0026 -0.0024 39.2753 0.0026 -0.0007
# 5 0.0031 0.0038 0.0182 0.0026 13.8932 -0.0044
# 6 0.0017 0.0014 0.0060 -0.0007 -0.0044 5.4061
#
#
#
# Elastic Compliance Matrix: (Units=1/GPa)
#
#
# Indices 1 2 3 4 5 6 
#
# 1 0.036944 -0.006201 -0.005611 0.000000 0.000001 -0.000004
# 2 -0.006201 0.011512 -0.000334 0.000001 -0.000001 -0.000001
# 3 -0.005611 -0.000334 0.009996 0.000001 -0.000012 -0.000009
# 4 0.000000 0.000001 0.000001 0.025461 -0.000005 0.000003
# 5 0.000001 -0.000001 -0.000012 -0.000005 0.071978 0.000059
# 6 -0.000004 -0.000001 -0.000009 0.000003 0.000059 0.184976
#
#
# Mechanical properties :
#
#
# Convention : Reuss Voigt Hill
#
# Bulk Modulus (GPa) = 29.27450 38.18470 33.72960
# Shear Modulus (GPa) = 13.27860 24.40631 18.84245
#
# Velocity S-wave (km/s) = 2.42281 3.28468 2.88610
# Velocity P-wave (km/s) = 4.55718 5.59157 5.10066
#
# Compressibility (1/GPa) = 0.03415942
#
# Stress axis : x y z
#
# Youngs Moduli (GPa) = 27.06821 86.86560 100.03757
#
# Poissons Ratio (x) = 0.53867 0.56129
# Poissons Ratio (y) = 0.16785 0.03344
# Poissons Ratio (z) = 0.15188 0.02904
#
# Static dielectric constant tensor:
#      x y z
#    x 1.830820 0.000000 0.000000 
#    y 0.000000 1.863020 -0.000010 
#    z 0.000000 -0.000010 2.055050 
# 
# From -- ./inp_files/1498.got.cif
#   From: 2010.05.17/outbox.cif.g08.bks.cpg/sg45_1_cif.got.tgz:1498.got - 2010.06.03 19:51:22.
