data_PCOD9376766
_publ_section_title
;
Structure prediction by ZEFSAII (Michael W. Deem and Ramdas Pophale) SiO2 
 PCOD9376766
Probable space group: I B A 2
;
_chemical_formula_sum "Si O2"
_cell_formula_units_Z 48
_cell_length_a 8.635839
_cell_length_b 30.432863
_cell_length_c 8.231287
_cell_angle_alpha 90.000000
_cell_angle_beta 90.000000
_cell_angle_gamma 90.000000
_cell_volume 2163.291742
_symmetry_space_group_name_H-M "I B A 2"
_symmetry_group_IT_number 45
_symmetry_cell_setting 'orthorhombic'
loop_
_space_group_symop_operation_xyz
x,y,z
-x,-y,z
-x,y,1/2+z
x,-y,1/2+z
1/2+x,1/2+y,1/2+z
1/2-x,1/2-y,1/2+z
1/2-x,1/2+y,z
1/2+x,1/2-y,z
loop_
_atom_site_type_symbol
_atom_site_label
_atom_site_fract_x
_atom_site_fract_y
_atom_site_fract_z
Si Si1 0.423816 0.390803 0.569070
Si Si2 0.907196 0.207089 0.603854
Si Si3 0.253188 0.616170 0.718448
Si Si4 0.350317 0.474879 0.787844
Si Si5 0.361237 0.965204 0.082295
Si Si6 0.230373 0.786240 0.245913
O O1 0.372574 0.343900 0.645253
O O2 0.611533 0.387648 0.580542
O O3 0.343462 0.393302 0.390619
O O4 0.386547 0.433299 0.675288
O O5 0.846804 0.214258 0.422613
O O6 0.832177 0.243822 0.716400
O O7 0.090284 0.213526 0.617647
O O8 0.120630 0.581394 0.671780
O O9 0.191719 0.665900 0.727531
O O10 0.500000 0.500000 0.864574
O O11 0.278246 0.512895 0.679879
O O12 0.211667 0.460733 0.905560
O O13 0.500000 0.000000 0.081081
#
# Coordination Sequence:
#
# PCOD9376766 Si02
#       6
#     8   8   8   8   8   8
#     4  10  21  39  68 100 123 166 227 276 314 387
#     4  10  21  39  65  98 133 168 217 268 325 389
#     4  10  21  40  66  97 130 170 218 270 330 390
#     4  12  24  41  68  95 123 172 227 273 324 396
#     4  12  26  43  63  94 135 172 214 277 342 393
#     4  10  21  39  66  97 132 172 215 267 325 392
#
# _framework density 22.188410000000001
#
# number of rings (size 3 to 8) (size 9 to 14) (size 15 to 20)
#    0.000    1.333    1.667    4.000    0.000    4.000 
#    3.000    0.833    3.667    0.000    0.000    0.000 
#    0.000    0.000    0.000    0.000    0.000    0.000 
#
# Total GULP energy -134019.836947 kJ/mol
# GULP energy per Si atom -5584.159873 kJ/mol
# Density = 2.213791 g / cm^3
# Si number density = 22.188410 Si / 1000 Ang^3
#
#
#
# Elastic Constant Matrix: (Units=GPa)
#
#
# Indices 1 2 3 4 5 6 
#
# 1 55.4040 46.1740 15.6893 0.0000 -0.0002 0.0000
# 2 46.1740 180.1330 46.5078 0.0000 0.0001 0.0000
# 3 15.6893 46.5078 59.9195 -0.0015 -0.0001 0.0005
# 4 0.0000 0.0000 -0.0015 28.0251 0.0001 0.0001
# 5 -0.0002 0.0001 -0.0001 0.0001 20.5872 -0.0002
# 6 0.0000 0.0000 0.0005 0.0001 -0.0002 44.6930
#
#
#
# Elastic Compliance Matrix: (Units=1/GPa)
#
#
# Indices 1 2 3 4 5 6 
#
# 1 0.023110 -0.005455 -0.001817 0.000000 0.000000 0.000000
# 2 -0.005455 0.008230 -0.004960 0.000000 0.000000 0.000000
# 3 -0.001817 -0.004960 0.021015 0.000001 0.000000 0.000000
# 4 0.000000 0.000000 0.000001 0.035682 0.000000 0.000000
# 5 0.000000 0.000000 0.000000 0.000000 0.048574 0.000000
# 6 0.000000 0.000000 0.000000 0.000000 0.000000 0.022375
#
#
# Mechanical properties :
#
#
# Convention : Reuss Voigt Hill
#
# Bulk Modulus (GPa) = 35.85384 56.91097 46.38240
# Shear Modulus (GPa) = 25.94087 31.13342 28.53715
#
# Velocity S-wave (km/s) = 3.42295 3.74991 3.59015
# Velocity P-wave (km/s) = 5.64057 6.66737 6.17534
#
# Compressibility (1/GPa) = 0.02789102
#
# Stress axis : x y z
#
# Youngs Moduli (GPa) = 43.27182 121.50388 47.58603
#
# Poissons Ratio (x) = 0.66275 0.08648
# Poissons Ratio (y) = 0.23603 0.23602
# Poissons Ratio (z) = 0.07864 0.60264
#
# Static dielectric constant tensor:
#      x y z
#    x 1.813390 0.000000 0.000000 
#    y 0.000000 1.855360 0.000000 
#    z 0.000000 0.000000 1.866140 
# 
# From -- ./inp_files/1069.got.cif
#   From: 2010.05.17/outbox.cif.g08.bks.cpg/sg45_1_cif.got.tgz:1069.got - 2010.06.03 19:51:22.
