data_PCOD9376034
_publ_section_title
;
Structure prediction by ZEFSAII (Michael W. Deem and Ramdas Pophale) SiO2 
 PCOD9376034
Probable space group: I M M 2
;
_chemical_formula_sum "Si O2"
_cell_formula_units_Z 20
_cell_length_a 9.000000
_cell_length_b 27.000000
_cell_length_c 9.000000
_cell_angle_alpha 90.000000
_cell_angle_beta 90.000000
_cell_angle_gamma 90.000000
_cell_volume 2187.000000
_symmetry_space_group_name_H-M "I M M 2"
_symmetry_group_IT_number 44
_symmetry_cell_setting 'orthorhombic'
loop_
_space_group_symop_operation_xyz
x,y,z
-x,-y,z
-x,y,z
x,-y,z
1/2+x,1/2+y,1/2+z
1/2-x,1/2-y,1/2+z
1/2-x,1/2+y,1/2+z
1/2+x,1/2-y,1/2+z
loop_
_atom_site_type_symbol
_atom_site_label
_atom_site_fract_x
_atom_site_fract_y
_atom_site_fract_z
Si Si1 0.181392 0.596796 0.157830
Si Si2 0.817168 0.000000 0.488943
Si Si3 0.822451 0.703040 0.996817
Si Si4 0.182201 0.098530 0.991292
Si Si5 0.320722 0.802044 0.141251
Si Si6 0.816754 0.500000 0.653685
O O1 0.253792 0.598677 0.322468
O O2 0.000000 0.590963 0.165344
O O3 0.254083 0.549623 0.071637
O O4 0.211549 0.649728 0.074851
O O5 0.748525 0.000000 0.321970
O O6 0.000000 0.000000 0.487453
O O7 0.792315 0.699585 0.819490
O O8 0.000000 0.711197 0.015310
O O9 0.738355 0.750527 0.068116
O O10 0.000000 0.096549 0.993021
O O11 0.240597 0.149398 0.070282
O O12 0.252356 0.049719 0.072656
O O13 0.500000 0.806071 0.119066
O O14 0.000000 0.500000 0.652810
#
# Coordination Sequence:
#
# PCOD9376034 Si02
#       6
#     8   4   8   8   8   4
#     4  11  23  42  66  92 126 168 211 255 309 371
#     4  12  25  42  65  96 130 164 206 256 311 366
#     4  10  23  41  62  90 123 161 207 257 308 368
#     4  12  25  42  64  93 127 162 207 261 315 370
#     4  11  23  40  63  91 124 163 207 255 311 375
#     4  12  25  44  67  92 124 164 210 256 311 374
#
# _framework density 9.1449470000000002
#
# number of rings (size 3 to 8) (size 9 to 14) (size 15 to 20)
#    0.000    0.800    0.000    7.800    0.000    8.000 
#    0.000    0.000    0.000    0.000    0.000    0.000 
#    0.000    0.000    0.000    0.000    0.000    0.000 
#
# Total GULP energy -111832.879449 kJ/mol
# GULP energy per Si atom -5591.643972 kJ/mol
# Density = 0.912413 g / cm^3
# Si number density = 9.144947 Si / 1000 Ang^3
#
#
#
# Elastic Constant Matrix: (Units=GPa)
#
#
# Indices 1 2 3 4 5 6 
#
# 1 181.9700 92.7065 82.7902 -0.0002 0.0001 0.0001
# 2 92.7065 219.8807 110.6580 -0.0001 -0.0001 0.0000
# 3 82.7902 110.6580 196.1356 -0.0009 -0.0004 0.0004
# 4 -0.0002 -0.0001 -0.0009 53.9391 0.0000 0.0001
# 5 0.0001 -0.0001 -0.0004 0.0000 39.6686 -0.0001
# 6 0.0001 0.0000 0.0004 0.0001 -0.0001 47.8749
#
#
#
# Elastic Compliance Matrix: (Units=1/GPa)
#
#
# Indices 1 2 3 4 5 6 
#
# 1 0.007486 -0.002187 -0.001926 0.000000 0.000000 0.000000
# 2 -0.002187 0.006990 -0.003021 0.000000 0.000000 0.000000
# 3 -0.001926 -0.003021 0.007616 0.000000 0.000000 0.000000
# 4 0.000000 0.000000 0.000000 0.018539 0.000000 0.000000
# 5 0.000000 0.000000 0.000000 0.000000 0.025209 0.000000
# 6 0.000000 0.000000 0.000000 0.000000 0.000000 0.020888
#
#
# Mechanical properties :
#
#
# Convention : Reuss Voigt Hill
#
# Bulk Modulus (GPa) = 127.80262 130.03287 128.91774
# Shear Modulus (GPa) = 48.26112 49.08530 48.67321
#
# Velocity S-wave (km/s) = 5.14238 5.18610 5.16429
# Velocity P-wave (km/s) = 10.26092 10.34943 10.30527
#
# Compressibility (1/GPa) = 0.00782457
#
# Stress axis : x y z
#
# Youngs Moduli (GPa) = 133.58609 143.05808 131.30728
#
# Poissons Ratio (x) = 0.31285 0.25290
# Poissons Ratio (y) = 0.29214 0.39664
# Poissons Ratio (z) = 0.25728 0.43213
#
# Static dielectric constant tensor:
#      x y z
#    x 1.625760 0.000000 0.000000 
#    y 0.000000 1.609740 0.000000 
#    z 0.000000 0.000000 1.629700 
# 
# From -- ./inp_files/4685.got.cif
#   From: 2010.05.17/outbox.ucp.g08.bks.cvg/sg44_3_cif.got.tgz:4685.got - 2010.06.11 16:32:36.
