data_PCOD9376944
_publ_section_title
;
Structure prediction by ZEFSAII (Michael W. Deem and Ramdas Pophale) SiO2 
 PCOD9376944
Probable space group: I B A 2
;
_chemical_formula_sum "Si O2"
_cell_formula_units_Z 40
_cell_length_a 25.769352
_cell_length_b 10.998549
_cell_length_c 5.176246
_cell_angle_alpha 90.000000
_cell_angle_beta 90.000000
_cell_angle_gamma 90.000000
_cell_volume 1467.080011
_symmetry_space_group_name_H-M "I B A 2"
_symmetry_group_IT_number 45
_symmetry_cell_setting 'orthorhombic'
loop_
_space_group_symop_operation_xyz
x,y,z
-x,-y,z
-x,y,1/2+z
x,-y,1/2+z
1/2+x,1/2+y,1/2+z
1/2-x,1/2-y,1/2+z
1/2-x,1/2+y,z
1/2+x,1/2-y,z
loop_
_atom_site_type_symbol
_atom_site_label
_atom_site_fract_x
_atom_site_fract_y
_atom_site_fract_z
Si Si1 0.759570 0.832534 0.129300
Si Si2 0.515806 0.770756 0.731474
Si Si3 0.840330 0.552130 0.452461
Si Si4 0.078437 0.915684 0.231723
Si Si5 0.866710 0.216362 0.608636
O O1 0.739325 0.764151 0.388001
O O2 0.818918 0.873816 0.172221
O O3 0.720258 0.937675 0.038805
O O4 0.497971 0.842612 0.483975
O O5 0.476447 0.654627 0.731286
O O6 0.574282 0.726139 0.714455
O O7 0.862904 0.546198 0.745145
O O8 0.845345 0.665469 0.257656
O O9 0.121215 0.813807 0.306123
O O10 0.083171 0.006230 0.475305
#
# Coordination Sequence:
#
# PCOD9376944 Si02
#       5
#     8   8   8   8   8
#     4  10  22  41  65  95 131 173 227 286 338 396
#     4  10  22  38  61  91 132 174 218 270 332 402
#     4  11  24  43  67  96 133 177 228 283 338 393
#     4  11  24  40  62  97 136 173 215 270 339 410
#     4  10  24  43  69  97 136 183 228 276 341 416
#
# _framework density 27.265042999999999
#
# number of rings (size 3 to 8) (size 9 to 14) (size 15 to 20)
#    0.000    1.600    0.000    4.800    0.000   25.600 
#    0.000    0.000    0.000   14.400    0.000    0.000 
#    0.000    0.000    0.000    0.000    0.000    0.000 
#
# Total GULP energy -111412.942970 kJ/mol
# GULP energy per Si atom -5570.647148 kJ/mol
# Density = 2.720299 g / cm^3
# Si number density = 27.265043 Si / 1000 Ang^3
#
#
#
# Elastic Constant Matrix: (Units=GPa)
#
#
# Indices 1 2 3 4 5 6 
#
# 1 121.1694 -17.8631 11.3141 0.0001 0.0001 0.0000
# 2 -17.8631 50.9362 16.6431 0.0001 0.0001 0.0000
# 3 11.3141 16.6431 241.7194 0.0002 0.0003 0.0000
# 4 0.0001 0.0001 0.0002 28.7951 0.0001 0.0000
# 5 0.0001 0.0001 0.0003 0.0001 38.2991 0.0000
# 6 0.0000 0.0000 0.0000 0.0000 0.0000 19.8157
#
#
#
# Elastic Compliance Matrix: (Units=1/GPa)
#
#
# Indices 1 2 3 4 5 6 
#
# 1 0.008798 0.003294 -0.000639 0.000000 0.000000 0.000000
# 2 0.003294 0.021318 -0.001622 0.000000 0.000000 0.000000
# 3 -0.000639 -0.001622 0.004279 0.000000 0.000000 0.000000
# 4 0.000000 0.000000 0.000000 0.034728 0.000000 0.000000
# 5 0.000000 0.000000 0.000000 0.000000 0.026110 0.000000
# 6 0.000000 0.000000 0.000000 0.000000 0.000000 0.050465
#
#
# Mechanical properties :
#
#
# Convention : Reuss Voigt Hill
#
# Bulk Modulus (GPa) = 27.42622 48.22371 37.82497
# Shear Modulus (GPa) = 32.09560 44.29738 38.19649
#
# Velocity S-wave (km/s) = 3.43471 4.03512 3.74696
# Velocity P-wave (km/s) = 5.08042 6.27973 5.71164
#
# Compressibility (1/GPa) = 0.03646146
#
# Stress axis : x y z
#
# Youngs Moduli (GPa) = 113.66003 46.90958 233.72142
#
# Poissons Ratio (x) = -0.15453 0.14926
# Poissons Ratio (y) = -0.37441 0.37909
# Poissons Ratio (z) = 0.07259 0.07609
#
# Static dielectric constant tensor:
#      x y z
#    x 2.155020 0.000000 0.000000 
#    y 0.000000 2.340620 0.000000 
#    z 0.000000 0.000000 2.289410 
# 
# From -- ./inp_files/591.got.cif
#   From: 2010.05.17/outbox.cif.g08.bks.cpg/sg45_1_cif.got.tgz:591.got - 2010.06.03 19:51:22.
