data_PCOD9376489
_publ_section_title
;
Structure prediction by ZEFSAII (Michael W. Deem and Ramdas Pophale) SiO2 
 PCOD9376489
Probable space group: I B A 2
;
_chemical_formula_sum "Si O2"
_cell_formula_units_Z 56
_cell_length_a 22.698701
_cell_length_b 16.597872
_cell_length_c 5.684348
_cell_angle_alpha 90.000000
_cell_angle_beta 90.000000
_cell_angle_gamma 90.000000
_cell_volume 2141.578869
_symmetry_space_group_name_H-M "I B A 2"
_symmetry_group_IT_number 45
_symmetry_cell_setting 'orthorhombic'
loop_
_space_group_symop_operation_xyz
x,y,z
-x,-y,z
-x,y,1/2+z
x,-y,1/2+z
1/2+x,1/2+y,1/2+z
1/2-x,1/2-y,1/2+z
1/2-x,1/2+y,z
1/2+x,1/2-y,z
loop_
_atom_site_type_symbol
_atom_site_label
_atom_site_fract_x
_atom_site_fract_y
_atom_site_fract_z
Si Si1 0.659664 0.191321 0.114700
Si Si2 0.293450 0.476827 0.794420
Si Si3 0.074041 0.962849 0.315191
Si Si4 0.899915 0.789230 0.753639
Si Si5 0.367209 0.013552 0.589987
Si Si6 0.035408 0.371590 0.594209
Si Si7 0.290095 0.692167 0.440431
O O1 0.624447 0.108927 0.114458
O O2 0.689619 0.220326 0.352916
O O3 0.719873 0.187987 0.963806
O O4 0.615052 0.256337 0.011956
O O5 0.266835 0.513163 0.557150
O O6 0.355993 0.520350 0.824146
O O7 0.302912 0.381235 0.763803
O O8 0.061426 0.869227 0.264144
O O9 0.056303 0.012779 0.080935
O O10 0.928069 0.713050 0.614556
O O11 0.836613 0.817429 0.649815
O O12 0.337510 0.006206 0.336740
O O13 0.422106 0.950920 0.589696
O O14 0.000029 0.374056 0.345167
#
# Coordination Sequence:
#
# PCOD9376489 Si02
#       7
#     8   8   8   8   8   8   8
#     4  12  27  45  71 111 158 218 259 329 411 494
#     4  10  20  38  61 101 135 191 237 294 351 453
#     4  10  20  38  67 106 137 187 241 298 382 464
#     4  12  25  49  75 108 157 206 264 339 411 492
#     4  12  27  53  77 115 159 210 273 351 411 487
#     4  12  30  55  84 118 154 213 284 355 423 483
#     4  12  25  42  73 107 162 203 264 313 401 497
#
# _framework density 26.14893
#
# number of rings (size 3 to 8) (size 9 to 14) (size 15 to 20)
#    0.000    0.571    5.714    3.429    2.000    2.857 
#    0.000    0.000    0.000    2.571    0.000    0.000 
#    0.000    0.000    0.000    0.000    0.000    0.000 
#
# Total GULP energy -156350.945319 kJ/mol
# GULP energy per Si atom -5583.962333 kJ/mol
# Density = 2.608941 g / cm^3
# Si number density = 26.148930 Si / 1000 Ang^3
#
#
#
# Elastic Constant Matrix: (Units=GPa)
#
#
# Indices 1 2 3 4 5 6 
#
# 1 108.1958 36.5482 47.4425 0.0000 0.0000 0.0000
# 2 36.5482 149.5616 24.8009 0.0000 0.0000 0.0000
# 3 47.4425 24.8009 164.0908 0.0000 0.0000 0.0000
# 4 0.0000 0.0000 0.0000 50.0561 0.0000 0.0000
# 5 0.0000 0.0000 0.0000 0.0000 68.2557 0.0000
# 6 0.0000 0.0000 0.0000 0.0000 0.0000 -29.0898
#
#
#
# Elastic Compliance Matrix: (Units=1/GPa)
#
#
# Indices 1 2 3 4 5 6 
#
# 1 0.011292 -0.002275 -0.002921 0.000000 0.000000 0.000000
# 2 -0.002275 0.007316 -0.000448 0.000000 0.000000 0.000000
# 3 -0.002921 -0.000448 0.007006 0.000000 0.000000 0.000000
# 4 0.000000 0.000000 0.000000 0.019978 0.000000 0.000000
# 5 0.000000 0.000000 0.000000 0.000000 0.014651 0.000000
# 6 0.000000 0.000000 0.000000 0.000000 0.000000 -0.034376
#
#
# Mechanical properties :
#
#
# Convention : Reuss Voigt Hill
#
# Bulk Modulus (GPa) = 69.79952 71.04791 70.42372
# Shear Modulus (GPa) = 119.24608 38.71484 78.98046
#
# Velocity S-wave (km/s) = 6.76030 3.85197 5.50179
# Velocity P-wave (km/s) = 9.36411 6.85660 8.20669
#
# Compressibility (1/GPa) = 0.01432675
#
# Stress axis : x y z
#
# Youngs Moduli (GPa) = 88.56025 136.67837 142.72676
#
# Poissons Ratio (x) = 0.31094 0.41688
# Poissons Ratio (y) = 0.20147 0.06395
# Poissons Ratio (z) = 0.25867 0.06124
#
# Static dielectric constant tensor:
#      x y z
#    x 2.065190 0.000000 0.000000 
#    y 0.000000 2.049890 0.000000 
#    z 0.000000 0.000000 2.154330 
# 
# From -- ./inp_files/672.got.cif
#   From: 2010.05.17/outbox.cif.g08.bks.cpg/sg45_1_cif.got.tgz:672.got - 2010.06.03 19:51:22.
