data_PCOD9376658
_publ_section_title
;
Structure prediction by ZEFSAII (Michael W. Deem and Ramdas Pophale) SiO2 
 PCOD9376658
Probable space group: I B A 2
;
_chemical_formula_sum "Si O2"
_cell_formula_units_Z 64
_cell_length_a 5.166202
_cell_length_b 27.552835
_cell_length_c 19.929204
_cell_angle_alpha 90.000000
_cell_angle_beta 90.000000
_cell_angle_gamma 90.000000
_cell_volume 2836.792874
_symmetry_space_group_name_H-M "I B A 2"
_symmetry_group_IT_number 45
_symmetry_cell_setting 'orthorhombic'
loop_
_space_group_symop_operation_xyz
x,y,z
-x,-y,z
-x,y,1/2+z
x,-y,1/2+z
1/2+x,1/2+y,1/2+z
1/2-x,1/2-y,1/2+z
1/2-x,1/2+y,z
1/2+x,1/2-y,z
loop_
_atom_site_type_symbol
_atom_site_label
_atom_site_fract_x
_atom_site_fract_y
_atom_site_fract_z
Si Si1 0.234629 0.640062 0.379070
Si Si2 0.745104 0.445627 0.725658
Si Si3 0.738388 0.423565 0.876261
Si Si4 0.503741 0.220872 0.285954
Si Si5 0.122050 0.075184 0.018949
Si Si6 0.121798 0.639051 0.522881
Si Si7 0.510875 0.220855 0.126009
Si Si8 0.249116 0.053494 0.164762
O O1 0.523888 0.619655 0.369547
O O2 0.115086 0.674802 0.323414
O O3 0.208084 0.663787 0.452890
O O4 0.032791 0.595076 0.382288
O O5 0.731691 0.450246 0.805243
O O6 0.748546 0.499778 0.695746
O O7 0.494952 0.419508 0.696316
O O8 0.996505 0.421496 0.693441
O O9 0.656829 0.449149 0.945998
O O10 0.796532 0.236476 0.303423
O O11 0.509731 0.213180 0.205999
O O12 0.330699 0.118853 0.015009
O O13 0.214598 0.047875 0.085521
O O14 0.833516 0.095832 0.029975
O O15 0.109771 0.674869 0.584940
O O16 0.718562 0.263136 0.109269
#
# Coordination Sequence:
#
# PCOD9376658 Si02
#       8
#     8   8   8   8   8   8   8   8
#     4  10  21  36  57  84 111 148 195 238 286 341
#     4  10  21  38  58  85 115 145 186 233 282 345
#     4  10  21  38  58  83 116 150 190 240 291 342
#     4  10  21  36  53  78 113 150 189 233 284 338
#     4  10  21  38  58  83 116 150 190 240 291 342
#     4  10  21  36  57  84 111 148 195 238 286 341
#     4  10  21  36  53  78 113 150 189 233 284 338
#     4  10  21  38  58  85 115 145 186 233 282 345
#
# _framework density 22.560687000000001
#
# number of rings (size 3 to 8) (size 9 to 14) (size 15 to 20)
#    0.000    2.000    0.000    3.000    0.000    4.000 
#    0.000    5.000    0.000    0.000    0.000    0.000 
#    0.000    0.000    0.000    0.000    0.000    0.000 
#
# Total GULP energy -178565.038722 kJ/mol
# GULP energy per Si atom -5580.157460 kJ/mol
# Density = 2.250934 g / cm^3
# Si number density = 22.560687 Si / 1000 Ang^3
#
#
#
# Elastic Constant Matrix: (Units=GPa)
#
#
# Indices 1 2 3 4 5 6 
#
# 1 148.9865 -0.0437 25.0137 0.0000 0.0000 0.0000
# 2 -0.0437 22.0672 30.0745 0.0000 0.0000 0.0000
# 3 25.0137 30.0745 173.5911 0.0000 0.0000 0.0000
# 4 0.0000 0.0000 0.0000 88.4655 0.0000 0.0000
# 5 0.0000 0.0000 0.0000 0.0000 27.7086 0.0000
# 6 0.0000 0.0000 0.0000 0.0000 0.0000 0.4462
#
#
#
# Elastic Compliance Matrix: (Units=1/GPa)
#
#
# Indices 1 2 3 4 5 6 
#
# 1 0.006933 0.001800 -0.001311 0.000000 0.000000 0.000000
# 2 0.001800 0.059791 -0.010618 0.000000 0.000000 0.000000
# 3 -0.001311 -0.010618 0.007789 0.000000 0.000000 0.000000
# 4 0.000000 0.000000 0.000000 0.011304 0.000000 0.000000
# 5 0.000000 0.000000 0.000000 0.000000 0.036090 0.000000
# 6 0.000000 0.000000 0.000000 0.000000 0.000000 2.240992
#
#
# Mechanical properties :
#
#
# Convention : Reuss Voigt Hill
#
# Bulk Modulus (GPa) = 18.43148 50.52595 34.47872
# Shear Modulus (GPa) = 2.08226 42.63075 22.35650
#
# Velocity S-wave (km/s) = 0.96175 4.35167 3.15135
# Velocity P-wave (km/s) = 3.06932 6.90606 5.34389
#
# Compressibility (1/GPa) = 0.05425500
#
# Stress axis : x y z
#
# Youngs Moduli (GPa) = 144.24546 16.72504 128.38422
#
# Poissons Ratio (x) = -0.03011 0.16829
# Poissons Ratio (y) = -0.25968 1.36319
# Poissons Ratio (z) = 0.18908 0.17759
#
# Static dielectric constant tensor:
#      x y z
#    x 1.647980 0.000000 0.000000 
#    y 0.000000 1.411630 0.000000 
#    z 0.000000 0.000000 1.868930 
# 
# From -- ./inp_files/7375.got.cif
#   From: 2010.05.17/outbox.cif.g08.bks.cpg/sg45_4_cif.got.tgz:7375.got - 2010.06.03 19:51:22.
