data_PCOD9376130
_publ_section_title
;
Structure prediction by ZEFSAII (Michael W. Deem and Ramdas Pophale) SiO2 
 PCOD9376130
Probable space group: I B A 2
;
_chemical_formula_sum "Si O2"
_cell_formula_units_Z 52
_cell_length_a 8.358520
_cell_length_b 19.489732
_cell_length_c 16.408509
_cell_angle_alpha 90.000000
_cell_angle_beta 90.000000
_cell_angle_gamma 90.000000
_cell_volume 2673.033323
_symmetry_space_group_name_H-M "I B A 2"
_symmetry_group_IT_number 45
_symmetry_cell_setting 'orthorhombic'
loop_
_space_group_symop_operation_xyz
x,y,z
-x,-y,z
-x,y,1/2+z
x,-y,1/2+z
1/2+x,1/2+y,1/2+z
1/2-x,1/2-y,1/2+z
1/2-x,1/2+y,z
1/2+x,1/2-y,z
loop_
_atom_site_type_symbol
_atom_site_label
_atom_site_fract_x
_atom_site_fract_y
_atom_site_fract_z
Si Si1 0.000000 0.000000 0.586810
Si Si2 0.269628 0.597041 0.988975
Si Si3 0.409857 0.126155 0.507168
Si Si4 0.015915 0.218046 0.040987
Si Si5 0.695199 0.309392 0.379930
Si Si6 0.358139 0.666750 0.823946
Si Si7 0.178835 0.123446 0.649873
O O1 0.944022 0.938939 0.644858
O O2 0.132001 0.965402 0.527499
O O3 0.334134 0.666381 0.033942
O O4 0.080173 0.590790 0.997061
O O5 0.314815 0.613967 0.895918
O O6 0.437729 0.203779 0.539065
O O7 0.316263 0.135077 0.420641
O O8 0.306124 0.098713 0.582129
O O9 0.908488 0.191009 0.114296
O O10 0.910754 0.208941 0.959405
O O11 0.553099 0.330852 0.318046
O O12 0.791213 0.242537 0.348694
O O13 0.275719 0.641824 0.741069
#
# Coordination Sequence:
#
# PCOD9376130 Si02
#       7
#     4   8   8   8   8   8   8
#     4  10  24  46  54  80 110 174 212 240 282 368
#     4  10  19  37  66  78 117 159 203 241 291 354
#     4  11  18  37  62  90 114 155 196 245 293 383
#     4   9  17  35  55  87 117 154 180 238 296 373
#     4  10  18  32  57  86 129 143 190 225 309 376
#     4  11  20  36  55  94 119 156 179 258 300 353
#     4  10  24  35  58  83 124 152 205 240 306 339
#
# _framework density 19.453555999999999
#
# number of rings (size 3 to 8) (size 9 to 14) (size 15 to 20)
#    0.000    1.846    4.615    1.846    2.154    1.231 
#    0.000    0.000    0.000    1.846    0.000    0.000 
#    0.000    0.000    0.000    0.000    0.000    0.000 
#
# Total GULP energy -144856.434262 kJ/mol
# GULP energy per Si atom -5571.401318 kJ/mol
# Density = 1.940928 g / cm^3
# Si number density = 19.453556 Si / 1000 Ang^3
#
#
#
# Elastic Constant Matrix: (Units=GPa)
#
#
# Indices 1 2 3 4 5 6 
#
# 1 100.1970 9.1919 8.7979 0.0000 0.0000 0.0000
# 2 9.1919 35.8727 11.1798 0.0000 0.0000 0.0000
# 3 8.7979 11.1798 69.2181 0.0000 0.0000 0.0000
# 4 0.0000 0.0000 0.0000 14.1598 0.0000 0.0000
# 5 0.0000 0.0000 0.0000 0.0000 12.0556 0.0000
# 6 0.0000 0.0000 0.0000 0.0000 0.0000 21.6020
#
#
#
# Elastic Compliance Matrix: (Units=1/GPa)
#
#
# Indices 1 2 3 4 5 6 
#
# 1 0.010277 -0.002344 -0.000928 0.000000 0.000000 0.000000
# 2 -0.002344 0.029889 -0.004530 0.000000 0.000000 0.000000
# 3 -0.000928 -0.004530 0.015297 0.000000 0.000000 0.000000
# 4 0.000000 0.000000 0.000000 0.070622 0.000000 0.000000
# 5 0.000000 0.000000 0.000000 0.000000 0.082949 0.000000
# 6 0.000000 0.000000 0.000000 0.000000 0.000000 0.046292
#
#
# Mechanical properties :
#
#
# Convention : Reuss Voigt Hill
#
# Bulk Modulus (GPa) = 25.08816 29.29186 27.19001
# Shear Modulus (GPa) = 17.59234 21.30470 19.44852
#
# Velocity S-wave (km/s) = 3.01046 3.31291 3.16530
# Velocity P-wave (km/s) = 5.00083 5.45195 5.23126
#
# Compressibility (1/GPa) = 0.03985945
#
# Stress axis : x y z
#
# Youngs Moduli (GPa) = 97.30618 33.45749 65.37410
#
# Poissons Ratio (x) = 0.07843 0.06064
# Poissons Ratio (y) = 0.22811 0.29611
# Poissons Ratio (z) = 0.09026 0.15155
#
# Static dielectric constant tensor:
#      x y z
#    x 1.782620 0.000000 0.000000 
#    y 0.000000 1.693830 0.000000 
#    z 0.000000 0.000000 1.696790 
# 
# From -- ./inp_files/5710.got.cif
#   From: 2010.05.17/outbox.cif.g08.bks.cpg/sg45_3_cif.got.tgz:5710.got - 2010.06.03 19:51:22.
