data_PCOD9376124
_publ_section_title
;
Structure prediction by ZEFSAII (Michael W. Deem and Ramdas Pophale) SiO2 
 PCOD9376124
Probable space group: I B A 2
;
_chemical_formula_sum "Si O2"
_cell_formula_units_Z 48
_cell_length_a 5.455508
_cell_length_b 24.109628
_cell_length_c 13.104570
_cell_angle_alpha 90.000000
_cell_angle_beta 90.000000
_cell_angle_gamma 90.000000
_cell_volume 1723.647610
_symmetry_space_group_name_H-M "I B A 2"
_symmetry_group_IT_number 45
_symmetry_cell_setting 'orthorhombic'
loop_
_space_group_symop_operation_xyz
x,y,z
-x,-y,z
-x,y,1/2+z
x,-y,1/2+z
1/2+x,1/2+y,1/2+z
1/2-x,1/2-y,1/2+z
1/2-x,1/2+y,z
1/2+x,1/2-y,z
loop_
_atom_site_type_symbol
_atom_site_label
_atom_site_fract_x
_atom_site_fract_y
_atom_site_fract_z
Si Si1 0.405270 0.937421 0.023920
Si Si2 0.115158 0.938850 0.751830
Si Si3 0.391711 0.272496 0.511815
Si Si4 0.721430 0.266930 0.774419
Si Si5 0.404984 0.400734 0.515952
Si Si6 0.374402 0.889164 0.252230
O O1 0.630240 0.905385 0.972372
O O2 0.361769 0.907860 0.133095
O O3 0.136000 0.935333 0.974810
O O4 0.500000 0.000000 0.034933
O O5 0.132415 0.924456 0.630793
O O6 0.388706 0.924125 0.788134
O O7 0.896199 0.901698 0.794844
O O8 0.000000 0.000000 0.760545
O O9 0.618621 0.237099 0.555220
O O10 0.336638 0.256521 0.393851
O O11 0.470309 0.336244 0.516508
O O12 0.437037 0.275411 0.736716
O O13 0.882452 0.323223 0.761469
#
# Coordination Sequence:
#
# PCOD9376124 Si02
#       6
#     8   8   8   8   8   8
#     4  10  19  33  53  80 109 136 166 208 263 318
#     4  10  19  33  53  80 109 136 166 208 263 318
#     4  10  21  37  54  73 101 139 180 220 260 304
#     4  10  21  37  54  73 101 139 180 220 260 304
#     4  10  18  32  53  77 102 137 174 208 257 315
#     4  10  18  32  53  77 102 137 174 208 257 315
#
# _framework density 27.847922000000001
#
# number of rings (size 3 to 8) (size 9 to 14) (size 15 to 20)
#    0.000    2.000    0.000    7.000    0.000    0.000 
#    0.000   20.000    0.000    6.000    0.000    0.000 
#    0.000    0.000    0.000    0.000    0.000    0.000 
#
# Total GULP energy -134193.360501 kJ/mol
# GULP energy per Si atom -5591.390021 kJ/mol
# Density = 2.778454 g / cm^3
# Si number density = 27.847922 Si / 1000 Ang^3
#
#
#
# Elastic Constant Matrix: (Units=GPa)
#
#
# Indices 1 2 3 4 5 6 
#
# 1 286.3106 42.1146 51.7903 0.0000 0.0000 0.0000
# 2 42.1146 113.6468 -12.7550 0.0001 0.0000 0.0000
# 3 51.7903 -12.7550 65.3191 0.0001 0.0000 0.0000
# 4 0.0000 0.0001 0.0001 21.4152 0.0000 0.0000
# 5 0.0000 0.0000 0.0000 0.0000 58.9615 0.0000
# 6 0.0000 0.0000 0.0000 0.0000 0.0000 60.2363
#
#
#
# Elastic Compliance Matrix: (Units=1/GPa)
#
#
# Indices 1 2 3 4 5 6 
#
# 1 0.004531 -0.002129 -0.004008 0.000000 0.000000 0.000000
# 2 -0.002129 0.009997 0.003640 0.000000 0.000000 0.000000
# 3 -0.004008 0.003640 0.019198 0.000000 0.000000 0.000000
# 4 0.000000 0.000000 0.000000 0.046696 0.000000 0.000000
# 5 0.000000 0.000000 0.000000 0.000000 0.016960 0.000000
# 6 0.000000 0.000000 0.000000 0.000000 0.000000 0.016601
#
#
# Mechanical properties :
#
#
# Convention : Reuss Voigt Hill
#
# Bulk Modulus (GPa) = 34.80475 69.73070 52.26772
# Shear Modulus (GPa) = 38.89406 53.73106 46.31256
#
# Velocity S-wave (km/s) = 3.74125 4.39731 4.08248
# Velocity P-wave (km/s) = 5.58461 7.13274 6.40562
#
# Compressibility (1/GPa) = 0.02873171
#
# Stress axis : x y z
#
# Youngs Moduli (GPa) = 220.70717 100.03363 52.08808
#
# Poissons Ratio (x) = 0.21296 0.20878
# Poissons Ratio (y) = 0.46986 -0.18960
# Poissons Ratio (z) = 0.88463 -0.36412
#
# Static dielectric constant tensor:
#      x y z
#    x 2.275550 0.000000 0.000000 
#    y 0.000000 2.107630 0.000000 
#    z 0.000000 0.000000 2.544210 
# 
# From -- ./inp_files/7301.got.cif
#   From: 2010.05.17/outbox.cif.g08.bks.cpg/sg45_4_cif.got.tgz:7301.got - 2010.06.03 19:51:22.
