data_PCOD9376058
_publ_section_title
;
Structure prediction by ZEFSAII (Michael W. Deem and Ramdas Pophale) SiO2 
 PCOD9376058
Probable space group: I B A 2
;
_chemical_formula_sum "Si O2"
_cell_formula_units_Z 48
_cell_length_a 20.612356
_cell_length_b 18.096691
_cell_length_c 5.287016
_cell_angle_alpha 90.000000
_cell_angle_beta 90.000000
_cell_angle_gamma 90.000000
_cell_volume 1972.138585
_symmetry_space_group_name_H-M "I B A 2"
_symmetry_group_IT_number 45
_symmetry_cell_setting 'orthorhombic'
loop_
_space_group_symop_operation_xyz
x,y,z
-x,-y,z
-x,y,1/2+z
x,-y,1/2+z
1/2+x,1/2+y,1/2+z
1/2-x,1/2-y,1/2+z
1/2-x,1/2+y,z
1/2+x,1/2-y,z
loop_
_atom_site_type_symbol
_atom_site_label
_atom_site_fract_x
_atom_site_fract_y
_atom_site_fract_z
Si Si1 0.027205 0.084819 0.936000
Si Si2 0.039224 0.295631 0.791165
Si Si3 0.170571 0.956826 0.291694
Si Si4 0.722993 0.842429 0.953423
Si Si5 0.826863 0.289892 0.455151
Si Si6 0.926867 0.532035 0.764154
O O1 0.101673 0.080594 0.857385
O O2 0.986220 0.119534 0.708310
O O3 0.000000 0.000000 0.966629
O O4 0.105452 0.255078 0.865899
O O5 0.061042 0.381911 0.809707
O O6 0.013136 0.283245 0.510784
O O7 0.232352 0.908999 0.365365
O O8 0.171124 0.024042 0.494678
O O9 0.771914 0.772532 0.962768
O O10 0.670769 0.825342 0.733739
O O11 0.694295 0.846927 0.234312
O O12 0.894512 0.509441 0.500050
O O13 0.000000 0.500000 0.735663
#
# Coordination Sequence:
#
# PCOD9376058 Si02
#       6
#     8   8   8   8   8   8
#     4  10  16  30  49  80 115 164 189 219 304 396
#     4  12  21  35  63  90 119 148 198 256 303 352
#     4  12  21  35  63  90 125 154 203 260 307 356
#     4  10  23  45  65  84 119 172 212 245 300 359
#     4  10  23  45  66  84 118 170 215 245 300 362
#     4  10  16  30  48  76 112 158 179 209 296 381
#
# _framework density 24.33906
#
# number of rings (size 3 to 8) (size 9 to 14) (size 15 to 20)
#    0.000    1.333    6.667    2.000    0.000    0.000 
#    0.000    6.667    0.000    0.000    0.000    0.000 
#    0.000    0.000    0.000    0.000    0.000    0.000 
#
# Total GULP energy -134239.880778 kJ/mol
# GULP energy per Si atom -5593.328366 kJ/mol
# Density = 2.428366 g / cm^3
# Si number density = 24.339060 Si / 1000 Ang^3
#
#
#
# Elastic Constant Matrix: (Units=GPa)
#
#
# Indices 1 2 3 4 5 6 
#
# 1 69.4867 -7.7817 -3.7659 0.0000 0.0000 0.0000
# 2 -7.7817 51.2889 -2.6349 0.0000 0.0000 0.0000
# 3 -3.7659 -2.6349 136.5863 0.0000 0.0000 0.0000
# 4 0.0000 0.0000 0.0000 16.5905 0.0000 0.0000
# 5 0.0000 0.0000 0.0000 0.0000 44.5167 0.0000
# 6 0.0000 0.0000 0.0000 0.0000 0.0000 -23.3775
#
#
#
# Elastic Compliance Matrix: (Units=1/GPa)
#
#
# Indices 1 2 3 4 5 6 
#
# 1 0.014667 0.002248 0.000448 0.000000 0.000000 0.000000
# 2 0.002248 0.019861 0.000445 0.000000 0.000000 0.000000
# 3 0.000448 0.000445 0.007342 0.000000 0.000000 0.000000
# 4 0.000000 0.000000 0.000000 0.060276 0.000000 0.000000
# 5 0.000000 0.000000 0.000000 0.000000 0.022463 0.000000
# 6 0.000000 0.000000 0.000000 0.000000 0.000000 -0.042776
#
#
# Mechanical properties :
#
#
# Convention : Reuss Voigt Hill
#
# Bulk Modulus (GPa) = 20.76688 25.44410 23.10549
# Shear Modulus (GPa) = 54.58371 25.64891 40.11631
#
# Velocity S-wave (km/s) = 4.74079 3.24978 4.06424
# Velocity P-wave (km/s) = 6.20626 4.95561 5.61586
#
# Compressibility (1/GPa) = 0.04815360
#
# Stress axis : x y z
#
# Youngs Moduli (GPa) = 68.17886 50.34891 136.19689
#
# Poissons Ratio (x) = -0.11320 -0.06099
# Poissons Ratio (y) = -0.15329 -0.06063
# Poissons Ratio (z) = -0.03053 -0.02241
#
# Static dielectric constant tensor:
#      x y z
#    x 1.933600 0.000000 0.000000 
#    y 0.000000 1.999220 0.000000 
#    z 0.000000 0.000000 1.992530 
# 
# From -- ./inp_files/392.got.cif
#   From: 2010.05.17/outbox.cif.g08.bks.cpg/sg45_1_cif.got.tgz:392.got - 2010.06.03 19:51:22.
