data_PCOD9376902
_publ_section_title
;
Structure prediction by ZEFSAII (Michael W. Deem and Ramdas Pophale) SiO2 
 PCOD9376902
Probable space group: I B A 2
;
_chemical_formula_sum "Si O2"
_cell_formula_units_Z 64
_cell_length_a 30.833228
_cell_length_b 8.680826
_cell_length_c 10.963149
_cell_angle_alpha 90.000000
_cell_angle_beta 90.000000
_cell_angle_gamma 90.000000
_cell_volume 2934.373299
_symmetry_space_group_name_H-M "I B A 2"
_symmetry_group_IT_number 45
_symmetry_cell_setting 'orthorhombic'
loop_
_space_group_symop_operation_xyz
x,y,z
-x,-y,z
-x,y,1/2+z
x,-y,1/2+z
1/2+x,1/2+y,1/2+z
1/2-x,1/2-y,1/2+z
1/2-x,1/2+y,z
1/2+x,1/2-y,z
loop_
_atom_site_type_symbol
_atom_site_label
_atom_site_fract_x
_atom_site_fract_y
_atom_site_fract_z
Si Si1 0.519564 0.170002 0.915400
Si Si2 0.682508 0.130825 0.057777
Si Si3 0.613954 0.069122 0.845770
Si Si4 0.318764 0.191408 0.167789
Si Si5 0.616741 0.727982 0.748290
Si Si6 0.813060 0.851547 0.419526
Si Si7 0.763819 0.833925 0.884690
Si Si8 0.478969 0.666406 0.176109
O O1 0.570846 0.151624 0.891206
O O2 0.498603 0.251009 0.796685
O O3 0.500000 0.000000 0.923370
O O4 0.512350 0.249880 0.046634
O O5 0.651783 0.230141 0.145221
O O6 0.698747 0.974600 0.121557
O O7 0.650761 0.077094 0.948918
O O8 0.719806 0.237626 0.002415
O O9 0.635032 0.151499 0.728476
O O10 0.605130 0.891746 0.811628
O O11 0.287672 0.261823 0.268875
O O12 0.323085 0.311214 0.058349
O O13 0.642853 0.625606 0.845372
O O14 0.572846 0.658752 0.696244
O O15 0.786970 0.700319 0.371469
O O16 0.780784 0.993896 0.400493
O O17 0.500000 0.500000 0.169336
#
# Coordination Sequence:
#
# PCOD9376902 Si02
#       8
#     8   8   8   8   8   8   8   8
#     4  12  25  47  77 111 142 196 249 306 363 455
#     4  10  21  45  73  99 142 177 238 296 357 426
#     4  10  21  44  75 107 132 186 246 292 360 429
#     4  10  24  44  71 102 142 183 231 302 354 430
#     4  11  24  44  73 104 142 193 238 305 361 440
#     4  12  27  45  70 104 142 191 243 299 366 435
#     4  11  28  44  69 105 139 189 239 292 366 430
#     4  12  28  48  72 111 157 194 244 314 387 442
#
# _framework density 21.810448999999998
#
# number of rings (size 3 to 8) (size 9 to 14) (size 15 to 20)
#    0.000    1.000    3.750    1.500    7.000    3.000 
#    2.250    0.000    0.000    0.000    0.000    0.000 
#    0.000    0.000    0.000    0.000    0.000    0.000 
#
# Total GULP energy -179149.153279 kJ/mol
# GULP energy per Si atom -5598.411040 kJ/mol
# Density = 2.176081 g / cm^3
# Si number density = 21.810449 Si / 1000 Ang^3
#
#
#
# Elastic Constant Matrix: (Units=GPa)
#
#
# Indices 1 2 3 4 5 6 
#
# 1 85.9075 44.1859 39.8803 0.0000 0.0000 0.0000
# 2 44.1859 102.0499 66.8126 0.0000 0.0000 0.0000
# 3 39.8803 66.8126 127.2323 0.0000 0.0000 0.0000
# 4 0.0000 0.0000 0.0000 35.6384 0.0000 0.0000
# 5 0.0000 0.0000 0.0000 0.0000 31.5073 0.0000
# 6 0.0000 0.0000 0.0000 0.0000 0.0000 32.0764
#
#
#
# Elastic Compliance Matrix: (Units=1/GPa)
#
#
# Indices 1 2 3 4 5 6 
#
# 1 0.015305 -0.005312 -0.002008 0.000000 0.000000 0.000000
# 2 -0.005312 0.016777 -0.007145 0.000000 0.000000 0.000000
# 3 -0.002008 -0.007145 0.012241 0.000000 0.000000 0.000000
# 4 0.000000 0.000000 0.000000 0.028060 0.000000 0.000000
# 5 0.000000 0.000000 0.000000 0.000000 0.031739 0.000000
# 6 0.000000 0.000000 0.000000 0.000000 0.000000 0.031176
#
#
# Mechanical properties :
#
#
# Convention : Reuss Voigt Hill
#
# Bulk Modulus (GPa) = 64.96428 68.54969 66.75699
# Shear Modulus (GPa) = 29.52339 30.79847 30.16093
#
# Velocity S-wave (km/s) = 3.68317 3.76186 3.72273
# Velocity P-wave (km/s) = 6.92374 7.09696 7.01088
#
# Compressibility (1/GPa) = 0.01539307
#
# Stress axis : x y z
#
# Youngs Moduli (GPa) = 65.33925 59.60514 81.69365
#
# Poissons Ratio (x) = 0.31664 0.16401
# Poissons Ratio (y) = 0.34710 0.58369
# Poissons Ratio (z) = 0.13117 0.42587
#
# Static dielectric constant tensor:
#      x y z
#    x 1.766740 0.000000 0.000000 
#    y 0.000000 1.796950 0.000000 
#    z 0.000000 0.000000 1.843710 
# 
# From -- ./inp_files/4964.got.cif
#   From: 2010.05.17/outbox.cif.g08.bks.cpg/sg45_3_cif.got.tgz:4964.got - 2010.06.03 19:51:22.
