data_PCOD9376281
_publ_section_title
;
Structure prediction by ZEFSAII (Michael W. Deem and Ramdas Pophale) SiO2 
 PCOD9376281
Probable space group: I B A 2
;
_chemical_formula_sum "Si O2"
_cell_formula_units_Z 64
_cell_length_a 8.848224
_cell_length_b 16.527582
_cell_length_c 17.539425
_cell_angle_alpha 90.000000
_cell_angle_beta 90.000000
_cell_angle_gamma 90.000000
_cell_volume 2564.961087
_symmetry_space_group_name_H-M "I B A 2"
_symmetry_group_IT_number 45
_symmetry_cell_setting 'orthorhombic'
loop_
_space_group_symop_operation_xyz
x,y,z
-x,-y,z
-x,y,1/2+z
x,-y,1/2+z
1/2+x,1/2+y,1/2+z
1/2-x,1/2-y,1/2+z
1/2-x,1/2+y,z
1/2+x,1/2-y,z
loop_
_atom_site_type_symbol
_atom_site_label
_atom_site_fract_x
_atom_site_fract_y
_atom_site_fract_z
Si Si1 0.979041 0.621286 0.833450
Si Si2 0.083168 0.803736 0.391603
Si Si3 0.524637 0.913016 0.498608
Si Si4 0.222407 0.308188 0.250145
Si Si5 0.011190 0.869796 0.154510
Si Si6 0.741916 0.653413 0.544706
Si Si7 0.651299 0.469342 0.515179
Si Si8 0.844839 0.875928 0.298028
O O1 0.950743 0.712380 0.865831
O O2 0.039032 0.582077 0.911482
O O3 0.816677 0.584509 0.811664
O O4 0.074672 0.635344 0.756132
O O5 0.197329 0.836394 0.328359
O O6 0.163464 0.805773 0.472042
O O7 0.934616 0.857281 0.376138
O O8 0.425137 0.843125 0.540077
O O9 0.707342 0.911760 0.491668
O O10 0.500000 0.000000 0.537728
O O11 0.347752 0.317520 0.185518
O O12 0.181730 0.215372 0.265729
O O13 0.083404 0.925461 0.089578
O O14 0.867642 0.825661 0.114744
O O15 0.942697 0.912900 0.229746
O O16 0.719423 0.556965 0.534929
O O17 0.500000 0.500000 0.469470
#
# Coordination Sequence:
#
# PCOD9376281 Si02
#       8
#     8   8   8   8   8   8   8   8
#     4  10  19  35  63  91 126 150 217 262 331 377
#     4   9  18  36  62  91 121 161 197 273 321 381
#     4  10  21  39  60  90 123 167 209 273 326 382
#     4   9  18  38  59  87 125 163 197 266 318 387
#     4  10  21  39  58  84 124 171 209 250 329 384
#     4  10  20  39  62  87 124 160 215 265 325 391
#     4   9  21  39  61  82 123 163 207 260 318 382
#     4   9  20  35  60  88 124 162 207 258 327 391
#
# _framework density 24.951646
#
# number of rings (size 3 to 8) (size 9 to 14) (size 15 to 20)
#    0.000    2.500    1.250    0.750    3.500    1.000 
#    4.500    3.750    0.000    0.000    0.000    0.000 
#    0.000    0.000    0.000    0.000    0.000    0.000 
#
# Total GULP energy -178144.432123 kJ/mol
# GULP energy per Si atom -5567.013504 kJ/mol
# Density = 2.489486 g / cm^3
# Si number density = 24.951646 Si / 1000 Ang^3
#
#
#
# Elastic Constant Matrix: (Units=GPa)
#
#
# Indices 1 2 3 4 5 6 
#
# 1 146.6120 33.7850 38.7262 0.0000 0.0000 0.0000
# 2 33.7850 32.2780 26.0768 0.0000 0.0000 0.0000
# 3 38.7262 26.0768 75.2428 0.0000 0.0000 0.0000
# 4 0.0000 0.0000 0.0000 7.1276 0.0000 0.0000
# 5 0.0000 0.0000 0.0000 0.0000 52.3359 0.0000
# 6 0.0000 0.0000 0.0000 0.0000 0.0000 25.5915
#
#
#
# Elastic Compliance Matrix: (Units=1/GPa)
#
#
# Indices 1 2 3 4 5 6 
#
# 1 0.009188 -0.008051 -0.001939 0.000000 0.000000 0.000000
# 2 -0.008051 0.050082 -0.013213 0.000000 0.000000 0.000000
# 3 -0.001939 -0.013213 0.018868 0.000000 0.000000 0.000000
# 4 0.000000 0.000000 0.000000 0.140300 0.000000 0.000000
# 5 0.000000 0.000000 0.000000 0.000000 0.019107 0.000000
# 6 0.000000 0.000000 0.000000 0.000000 0.000000 0.039075
#
#
# Mechanical properties :
#
#
# Convention : Reuss Voigt Hill
#
# Bulk Modulus (GPa) = 31.51390 50.14542 40.82966
# Shear Modulus (GPa) = 14.98783 27.38064 21.18424
#
# Velocity S-wave (km/s) = 2.45353 3.31622 2.91694
# Velocity P-wave (km/s) = 4.54794 5.89947 5.26724
#
# Compressibility (1/GPa) = 0.03173203
#
# Stress axis : x y z
#
# Youngs Moduli (GPa) = 108.83726 19.96718 53.00108
#
# Poissons Ratio (x) = 0.16075 0.10276
# Poissons Ratio (y) = 0.87621 0.70032
# Poissons Ratio (z) = 0.21102 0.26383
#
# Static dielectric constant tensor:
#      x y z
#    x 2.186770 0.000000 0.000000 
#    y 0.000000 2.089580 0.000000 
#    z 0.000000 0.000000 2.019610 
# 
# From -- ./inp_files/7788.got.cif
#   From: 2010.05.17/outbox.cif.g08.bks.cpg/sg45_4_cif.got.tgz:7788.got - 2010.06.03 19:51:22.
