data_PCOD9376581
_publ_section_title
;
Structure prediction by ZEFSAII (Michael W. Deem and Ramdas Pophale) SiO2 
 PCOD9376581
Probable space group: I B A 2
;
_chemical_formula_sum "Si O2"
_cell_formula_units_Z 60
_cell_length_a 23.699984
_cell_length_b 10.930696
_cell_length_c 9.126930
_cell_angle_alpha 90.000000
_cell_angle_beta 90.000000
_cell_angle_gamma 90.000000
_cell_volume 2364.398028
_symmetry_space_group_name_H-M "I B A 2"
_symmetry_group_IT_number 45
_symmetry_cell_setting 'orthorhombic'
loop_
_space_group_symop_operation_xyz
x,y,z
-x,-y,z
-x,y,1/2+z
x,-y,1/2+z
1/2+x,1/2+y,1/2+z
1/2-x,1/2-y,1/2+z
1/2-x,1/2+y,z
1/2+x,1/2-y,z
loop_
_atom_site_type_symbol
_atom_site_label
_atom_site_fract_x
_atom_site_fract_y
_atom_site_fract_z
Si Si1 0.686416 0.842698 0.763210
Si Si2 0.988502 0.735394 0.200860
Si Si3 0.180349 0.689171 0.324549
Si Si4 0.755326 0.301690 0.063615
Si Si5 0.396776 0.365389 0.144138
Si Si6 0.900482 0.573063 0.050725
Si Si7 0.111921 0.884229 0.814947
Si Si8 0.500000 0.000000 0.395583
O O1 0.740679 0.828057 0.653565
O O2 0.638270 0.930605 0.695142
O O3 0.657132 0.708144 0.745167
O O4 0.699501 0.845790 0.937390
O O5 0.945251 0.683426 0.079021
O O6 0.948623 0.819327 0.300304
O O7 0.039662 0.815410 0.143394
O O8 0.008777 0.616592 0.291243
O O9 0.226815 0.628060 0.214881
O O10 0.205579 0.785416 0.442994
O O11 0.140484 0.759078 0.212888
O O12 0.143181 0.602772 0.424462
O O13 0.391292 0.486224 0.239454
O O14 0.374410 0.396455 0.984394
O O15 0.944650 0.472477 0.994137
#
# Coordination Sequence:
#
# PCOD9376581 Si02
#       8
#     8   8   8   8   8   8   8   4
#     4   9  19  39  66 104 136 181 236 288 361 421
#     4  11  25  43  67 101 142 188 236 286 349 421
#     4  10  20  40  70 103 139 175 242 285 365 414
#     4   9  18  37  72  99 131 188 221 307 352 418
#     4  12  25  41  66 103 142 192 231 290 342 438
#     4  10  22  40  68 101 138 182 231 289 346 430
#     4  11  26  41  66 101 146 185 236 280 350 429
#     4  12  22  42  70 102 138 192 234 298 350 424
#
# _framework density 25.376439000000001
#
# number of rings (size 3 to 8) (size 9 to 14) (size 15 to 20)
#    0.000    1.600    2.667    1.600    5.600    1.067 
#    0.000    0.000    0.000   40.800    0.000    0.000 
#    0.000    0.000    0.000    0.000    0.000    0.000 
#
# Total GULP energy -167289.729661 kJ/mol
# GULP energy per Si atom -5576.324322 kJ/mol
# Density = 2.531868 g / cm^3
# Si number density = 25.376439 Si / 1000 Ang^3
#
#
#
# Elastic Constant Matrix: (Units=GPa)
#
#
# Indices 1 2 3 4 5 6 
#
# 1 113.3806 6.9084 46.0996 0.0000 0.0000 0.0000
# 2 6.9084 66.5105 23.2966 0.0000 0.0000 0.0000
# 3 46.0996 23.2966 201.4949 0.0000 0.0000 0.0000
# 4 0.0000 0.0000 0.0000 20.5203 0.0000 0.0000
# 5 0.0000 0.0000 0.0000 0.0000 48.6796 0.0000
# 6 0.0000 0.0000 0.0000 0.0000 0.0000 33.6202
#
#
#
# Elastic Compliance Matrix: (Units=1/GPa)
#
#
# Indices 1 2 3 4 5 6 
#
# 1 0.009728 -0.000241 -0.002198 0.000000 0.000000 0.000000
# 2 -0.000241 0.015676 -0.001757 0.000000 0.000000 0.000000
# 3 -0.002198 -0.001757 0.005669 0.000000 0.000000 0.000000
# 4 0.000000 0.000000 0.000000 0.048732 0.000000 0.000000
# 5 0.000000 0.000000 0.000000 0.000000 0.020543 0.000000
# 6 0.000000 0.000000 0.000000 0.000000 0.000000 0.029744
#
#
# Mechanical properties :
#
#
# Convention : Reuss Voigt Hill
#
# Bulk Modulus (GPa) = 44.08947 59.33282 51.71114
# Shear Modulus (GPa) = 34.23633 40.90277 37.56955
#
# Velocity S-wave (km/s) = 3.67705 4.01913 3.85189
# Velocity P-wave (km/s) = 5.95310 6.70594 6.34071
#
# Compressibility (1/GPa) = 0.02268115
#
# Stress axis : x y z
#
# Youngs Moduli (GPa) = 102.79455 63.79277 176.39994
#
# Poissons Ratio (x) = 0.01535 0.38770
# Poissons Ratio (y) = 0.02473 0.31000
# Poissons Ratio (z) = 0.22593 0.11211
#
# Static dielectric constant tensor:
#      x y z
#    x 2.146380 0.000000 0.000000 
#    y 0.000000 2.033650 0.000000 
#    z 0.000000 0.000000 2.022420 
# 
# From -- ./inp_files/2629.got.cif
#   From: 2010.05.17/outbox.cif.g08.bks.cpg/sg45_2_cif.got.tgz:2629.got - 2010.06.03 19:51:22.
