data_PCOD9376347
_publ_section_title
;
Structure prediction by ZEFSAII (Michael W. Deem and Ramdas Pophale) SiO2 
 PCOD9376347
Probable space group: I B A 2
;
_chemical_formula_sum "Si O2"
_cell_formula_units_Z 64
_cell_length_a 31.873543
_cell_length_b 12.324195
_cell_length_c 9.458424
_cell_angle_alpha 90.000000
_cell_angle_beta 90.000000
_cell_angle_gamma 90.000000
_cell_volume 3715.418005
_symmetry_space_group_name_H-M "I B A 2"
_symmetry_group_IT_number 45
_symmetry_cell_setting 'orthorhombic'
loop_
_space_group_symop_operation_xyz
x,y,z
-x,-y,z
-x,y,1/2+z
x,-y,1/2+z
1/2+x,1/2+y,1/2+z
1/2-x,1/2-y,1/2+z
1/2-x,1/2+y,z
1/2+x,1/2-y,z
loop_
_atom_site_type_symbol
_atom_site_label
_atom_site_fract_x
_atom_site_fract_y
_atom_site_fract_z
Si Si1 0.765755 0.122694 0.001890
Si Si2 0.035153 0.629094 0.251018
Si Si3 0.457001 0.897456 0.412435
Si Si4 0.864147 0.579964 0.339461
Si Si5 0.823935 0.281389 0.587567
Si Si6 0.309777 0.832316 0.575328
Si Si7 0.276052 0.430271 0.692782
Si Si8 0.625903 0.178092 0.810237
O O1 0.718032 0.157653 0.032431
O O2 0.791326 0.233333 0.986323
O O3 0.782893 0.047000 0.125213
O O4 0.772483 0.057658 0.859368
O O5 0.033318 0.605663 0.081444
O O6 0.041466 0.518537 0.343441
O O7 0.076860 0.699115 0.280216
O O8 0.991200 0.668524 0.319354
O O9 0.408616 0.867736 0.385557
O O10 0.844226 0.647246 0.211902
O O11 0.833707 0.586649 0.473101
O O12 0.869650 0.453544 0.304048
O O13 0.808323 0.163390 0.642387
O O14 0.857009 0.278893 0.459097
O O15 0.270075 0.888934 0.646334
O O16 0.342288 0.785149 0.688790
#
# Coordination Sequence:
#
# PCOD9376347 Si02
#       8
#     8   8   8   8   8   8   8   8
#     4  11  24  38  55  74 105 138 174 222 265 308
#     4  10  20  31  47  71 103 140 175 208 259 307
#     4  10  20  31  47  70 103 140 173 212 256 311
#     4  11  21  35  52  75 107 141 179 213 257 304
#     4  11  24  36  53  78 104 139 181 218 256 312
#     4  11  22  38  51  76 106 135 181 216 256 308
#     4  11  24  38  55  75 103 140 174 220 269 302
#     4  11  21  33  54  77 103 143 177 215 254 308
#
# _framework density 17.225517
#
# number of rings (size 3 to 8) (size 9 to 14) (size 15 to 20)
#    0.000    1.250    3.750    3.750   10.500    0.000 
#    0.000    0.000    0.000    0.000    0.000    0.000 
#    0.000    6.000    0.000    0.000    0.000    0.000 
#
# Total GULP energy -178472.693140 kJ/mol
# GULP energy per Si atom -5577.271661 kJ/mol
# Density = 1.718631 g / cm^3
# Si number density = 17.225517 Si / 1000 Ang^3
#
#
#
# Elastic Constant Matrix: (Units=GPa)
#
#
# Indices 1 2 3 4 5 6 
#
# 1 100.8138 2.4972 26.4631 0.0000 0.0000 0.0000
# 2 2.4972 17.4601 -14.0186 0.0000 0.0000 0.0000
# 3 26.4631 -14.0186 96.4190 0.0000 0.0000 0.0000
# 4 0.0000 0.0000 0.0000 20.9381 0.0000 0.0000
# 5 0.0000 0.0000 0.0000 0.0000 21.0464 0.0000
# 6 0.0000 0.0000 0.0000 0.0000 0.0000 15.3150
#
#
#
# Elastic Compliance Matrix: (Units=1/GPa)
#
#
# Indices 1 2 3 4 5 6 
#
# 1 0.010996 -0.004524 -0.003676 0.000000 0.000000 0.000000
# 2 -0.004524 0.066704 0.010940 0.000000 0.000000 0.000000
# 3 -0.003676 0.010940 0.012971 0.000000 0.000000 0.000000
# 4 0.000000 0.000000 0.000000 0.047760 0.000000 0.000000
# 5 0.000000 0.000000 0.000000 0.000000 0.047514 0.000000
# 6 0.000000 0.000000 0.000000 0.000000 0.000000 0.065295
#
#
# Mechanical properties :
#
#
# Convention : Reuss Voigt Hill
#
# Bulk Modulus (GPa) = 10.40022 27.17513 18.78767
# Shear Modulus (GPa) = 17.99786 24.77665 21.38725
#
# Velocity S-wave (km/s) = 3.23590 3.79670 3.52746
# Velocity P-wave (km/s) = 4.47350 5.91863 5.24607
#
# Compressibility (1/GPa) = 0.09615184
#
# Stress axis : x y z
#
# Youngs Moduli (GPa) = 90.94048 14.99153 77.09599
#
# Poissons Ratio (x) = 0.06782 0.28339
# Poissons Ratio (y) = 0.41141 -0.84343
# Poissons Ratio (z) = 0.33428 -0.16401
#
# Static dielectric constant tensor:
#      x y z
#    x 1.646130 0.000000 0.000000 
#    y 0.000000 1.567290 0.000000 
#    z 0.000000 0.000000 1.610230 
# 
# From -- ./inp_files/2002.got.cif
#   From: 2010.05.17/outbox.cif.g08.bks.cpg/sg45_2_cif.got.tgz:2002.got - 2010.06.03 19:51:22.
