data_PCOD9376016
_publ_section_title
;
Structure prediction by ZEFSAII (Michael W. Deem and Ramdas Pophale) SiO2 
 PCOD9376016
Probable space group: I M M 2
;
_chemical_formula_sum "Si O2"
_cell_formula_units_Z 24
_cell_length_a 15.000000
_cell_length_b 27.000000
_cell_length_c 6.000000
_cell_angle_alpha 90.000000
_cell_angle_beta 90.000000
_cell_angle_gamma 90.000000
_cell_volume 2430.000000
_symmetry_space_group_name_H-M "I M M 2"
_symmetry_group_IT_number 44
_symmetry_cell_setting 'orthorhombic'
loop_
_space_group_symop_operation_xyz
x,y,z
-x,-y,z
-x,y,z
x,-y,z
1/2+x,1/2+y,1/2+z
1/2-x,1/2-y,1/2+z
1/2-x,1/2+y,1/2+z
1/2+x,1/2-y,1/2+z
loop_
_atom_site_type_symbol
_atom_site_label
_atom_site_fract_x
_atom_site_fract_y
_atom_site_fract_z
Si Si1 0.204447 0.787864 0.662180
Si Si2 0.756799 0.877069 0.328463
Si Si3 0.607867 0.368300 0.448223
Si Si4 0.743049 0.557669 0.222265
Si Si5 0.897475 0.728786 0.321721
Si Si6 0.896117 0.382709 0.471461
O O1 0.233019 0.831535 0.495031
O O2 0.155275 0.818026 0.859250
O O3 0.128273 0.752877 0.559233
O O4 0.300187 0.761334 0.704965
O O5 0.749757 0.927838 0.464317
O O6 0.848355 0.876209 0.189262
O O7 0.666737 0.871955 0.184890
O O8 0.500000 0.367380 0.438371
O O9 0.656105 0.412352 0.309493
O O10 0.734632 0.500000 0.264171
O O11 0.833278 0.579097 0.336781
O O12 0.899940 0.669415 0.340738
O O13 0.000000 0.744573 0.254292
O O14 0.000000 0.397340 0.513083
#
# Coordination Sequence:
#
# PCOD9376016 Si02
#       6
#     8   8   8   8   8   8
#     4  11  22  41  60  91 133 163 209 262 309 373
#     4  10  20  39  61  89 120 161 202 260 307 376
#     4  10  22  41  63  89 122 163 205 258 317 374
#     4  10  22  41  63  88 123 162 202 261 319 375
#     4  11  22  38  63  90 122 167 209 251 308 370
#     4  10  21  40  61  87 121 162 207 252 308 375
#
# _framework density 9.8765429999999999
#
# number of rings (size 3 to 8) (size 9 to 14) (size 15 to 20)
#    0.000    1.667    5.000    1.500    0.000    8.000 
#    0.000    0.833    0.000    0.000    0.000    0.000 
#    0.000    0.000    0.000    0.000    0.000    0.000 
#
# Total GULP energy -133652.626795 kJ/mol
# GULP energy per Si atom -5568.859450 kJ/mol
# Density = 0.985406 g / cm^3
# Si number density = 9.876543 Si / 1000 Ang^3
#
#
#
# Elastic Constant Matrix: (Units=GPa)
#
#
# Indices 1 2 3 4 5 6 
#
# 1 217.2147 29.0043 38.5987 0.0003 0.0000 0.0018
# 2 29.0043 95.1473 18.6021 -0.0088 -0.0081 0.0000
# 3 38.5987 18.6021 49.0444 -0.0001 -0.0303 -0.0030
# 4 0.0003 -0.0088 -0.0001 18.2148 -0.0123 0.0006
# 5 0.0000 -0.0081 -0.0303 -0.0123 18.7131 -0.0023
# 6 0.0018 0.0000 -0.0030 0.0006 -0.0023 21.9401
#
#
#
# Elastic Compliance Matrix: (Units=1/GPa)
#
#
# Indices 1 2 3 4 5 6 
#
# 1 0.005420 -0.000884 -0.003931 -0.000001 -0.000007 -0.000001
# 2 -0.000884 0.011496 -0.003665 0.000006 -0.000001 0.000000
# 3 -0.003931 -0.003665 0.024873 -0.000001 0.000039 0.000004
# 4 -0.000001 0.000006 -0.000001 0.054900 0.000036 -0.000002
# 5 -0.000007 -0.000001 0.000039 0.000036 0.053439 0.000006
# 6 -0.000001 0.000000 0.000004 -0.000002 0.000006 0.045579
#
#
# Mechanical properties :
#
#
# Convention : Reuss Voigt Hill
#
# Bulk Modulus (GPa) = 40.27214 59.31295 49.79254
# Shear Modulus (GPa) = 22.63034 30.12034 26.37534
#
# Velocity S-wave (km/s) = 3.38843 3.90916 3.65807
# Velocity P-wave (km/s) = 5.97835 7.10406 6.56538
#
# Compressibility (1/GPa) = 0.02483106
#
# Stress axis : x y z
#
# Youngs Moduli (GPa) = 184.49458 86.98737 40.20401
#
# Poissons Ratio (x) = 0.07688 0.15802
# Poissons Ratio (y) = 0.16306 0.14734
# Poissons Ratio (z) = 0.72517 0.31878
#
# Static dielectric constant tensor:
#      x y z
#    x 1.657440 0.000000 0.000000 
#    y 0.000000 1.713230 0.000000 
#    z 0.000000 0.000000 1.845490 
# 
# From -- ./inp_files/1583.got.cif
#   From: 2010.05.17/outbox.ucp.g08.bks.cvg/sg44_1_cif.got.tgz:1583.got - 2010.06.11 16:32:36.
