data_PCOD9376798
_publ_section_title
;
Structure prediction by ZEFSAII (Michael W. Deem and Ramdas Pophale) SiO2 
 PCOD9376798
Probable space group: I B A 2
;
_chemical_formula_sum "Si O2"
_cell_formula_units_Z 60
_cell_length_a 16.416302
_cell_length_b 11.780105
_cell_length_c 15.263760
_cell_angle_alpha 90.000000
_cell_angle_beta 90.000000
_cell_angle_gamma 90.000000
_cell_volume 2951.793847
_symmetry_space_group_name_H-M "I B A 2"
_symmetry_group_IT_number 45
_symmetry_cell_setting 'orthorhombic'
loop_
_space_group_symop_operation_xyz
x,y,z
-x,-y,z
-x,y,1/2+z
x,-y,1/2+z
1/2+x,1/2+y,1/2+z
1/2-x,1/2-y,1/2+z
1/2-x,1/2+y,z
1/2+x,1/2-y,z
loop_
_atom_site_type_symbol
_atom_site_label
_atom_site_fract_x
_atom_site_fract_y
_atom_site_fract_z
Si Si1 0.908240 0.502158 0.517050
Si Si2 0.664540 0.422690 0.892806
Si Si3 0.757535 0.031545 0.725085
Si Si4 0.500000 0.500000 0.325967
Si Si5 0.689078 0.783297 0.946772
Si Si6 0.114413 0.201003 0.267661
Si Si7 0.754937 0.913946 0.536641
Si Si8 0.084680 0.462265 0.222826
O O1 0.862097 0.608382 0.475377
O O2 0.839741 0.404851 0.506936
O O3 0.916494 0.506214 0.622507
O O4 0.000000 0.500000 0.482211
O O5 0.692706 0.461314 0.796630
O O6 0.567371 0.434371 0.885252
O O7 0.720260 0.313899 0.912831
O O8 0.697459 0.509164 0.966407
O O9 0.805052 0.150412 0.720550
O O10 0.758308 0.971758 0.630982
O O11 0.665016 0.023374 0.760167
O O12 0.454266 0.601056 0.270902
O O13 0.641475 0.722791 0.868022
O O14 0.701466 0.705783 0.031300
O O15 0.092350 0.325177 0.229454
O O16 0.000000 0.500000 0.264905
#
# Coordination Sequence:
#
# PCOD9376798 Si02
#       8
#     8   8   8   4   8   8   8   8
#     4   9  22  41  60  96 130 156 222 277 326 393
#     4  10  21  42  61  94 132 164 222 275 319 410
#     4  10  21  41  67  94 129 175 218 272 331 399
#     4  10  22  42  64 100 138 172 226 274 340 398
#     4  11  21  40  67  90 129 178 216 276 330 394
#     4  11  23  42  67  96 136 176 227 273 331 409
#     4  10  21  40  66  92 130 171 223 261 337 400
#     4  10  22  42  65  99 132 168 225 279 335 398
#
# _framework density 20.326623000000001
#
# number of rings (size 3 to 8) (size 9 to 14) (size 15 to 20)
#    0.000    1.867    4.000    0.000    0.000    9.067 
#    9.600    4.000    0.000    0.000    0.000    0.000 
#    0.000    0.000    0.000    0.000    0.000    0.000 
#
# Total GULP energy -167009.514826 kJ/mol
# GULP energy per Si atom -5566.983828 kJ/mol
# Density = 2.028036 g / cm^3
# Si number density = 20.326623 Si / 1000 Ang^3
#
#
#
# Elastic Constant Matrix: (Units=GPa)
#
#
# Indices 1 2 3 4 5 6 
#
# 1 153.0224 34.1756 26.4128 0.0000 0.0000 0.0000
# 2 34.1756 49.2246 22.7529 0.0000 0.0000 0.0000
# 3 26.4128 22.7529 77.1876 0.0000 0.0000 0.0000
# 4 0.0000 0.0000 0.0000 29.2915 0.0000 0.0000
# 5 0.0000 0.0000 0.0000 0.0000 23.0549 0.0000
# 6 0.0000 0.0000 0.0000 0.0000 0.0000 33.9439
#
#
#
# Elastic Compliance Matrix: (Units=1/GPa)
#
#
# Indices 1 2 3 4 5 6 
#
# 1 0.007837 -0.004864 -0.001248 0.000000 0.000000 0.000000
# 2 -0.004864 0.026539 -0.006158 0.000000 0.000000 0.000000
# 3 -0.001248 -0.006158 0.015198 0.000000 0.000000 0.000000
# 4 0.000000 0.000000 0.000000 0.034140 0.000000 0.000000
# 5 0.000000 0.000000 0.000000 0.000000 0.043375 0.000000
# 6 0.000000 0.000000 0.000000 0.000000 0.000000 0.029460
#
#
# Mechanical properties :
#
#
# Convention : Reuss Voigt Hill
#
# Bulk Modulus (GPa) = 39.94822 49.56860 44.75841
# Shear Modulus (GPa) = 26.39457 30.33094 28.36276
#
# Velocity S-wave (km/s) = 3.60741 3.86706 3.73949
# Velocity P-wave (km/s) = 6.08663 6.66167 6.38063
#
# Compressibility (1/GPa) = 0.02503240
#
# Stress axis : x y z
#
# Youngs Moduli (GPa) = 127.60464 37.68083 65.79900
#
# Poissons Ratio (x) = 0.18328 0.08211
# Poissons Ratio (y) = 0.62068 0.40522
# Poissons Ratio (z) = 0.15923 0.23206
#
# Static dielectric constant tensor:
#      x y z
#    x 1.801470 0.000000 0.000000 
#    y 0.000000 1.776380 0.000000 
#    z 0.000000 0.000000 1.706380 
# 
# From -- ./inp_files/8219.got.cif
#   From: 2010.05.17/outbox.cif.g08.bks.cpg/sg45_5_cif.got.tgz:8219.got - 2010.06.03 19:51:22.
