data_PCOD9376729
_publ_section_title
;
Structure prediction by ZEFSAII (Michael W. Deem and Ramdas Pophale) SiO2 
 PCOD9376729
Probable space group: I B A 2
;
_chemical_formula_sum "Si O2"
_cell_formula_units_Z 48
_cell_length_a 9.885396
_cell_length_b 11.698412
_cell_length_c 19.379798
_cell_angle_alpha 90.000000
_cell_angle_beta 90.000000
_cell_angle_gamma 90.000000
_cell_volume 2241.146414
_symmetry_space_group_name_H-M "I B A 2"
_symmetry_group_IT_number 45
_symmetry_cell_setting 'orthorhombic'
loop_
_space_group_symop_operation_xyz
x,y,z
-x,-y,z
-x,y,1/2+z
x,-y,1/2+z
1/2+x,1/2+y,1/2+z
1/2-x,1/2-y,1/2+z
1/2-x,1/2+y,z
1/2+x,1/2-y,z
loop_
_atom_site_type_symbol
_atom_site_label
_atom_site_fract_x
_atom_site_fract_y
_atom_site_fract_z
Si Si1 0.095399 0.609769 0.487970
Si Si2 0.863880 0.426239 0.337841
Si Si3 0.481046 0.234376 0.738047
Si Si4 0.539787 0.695108 0.585584
Si Si5 0.288934 0.399743 0.257022
Si Si6 0.203599 0.981636 0.103203
O O1 0.157761 0.632119 0.412072
O O2 0.031736 0.725157 0.519013
O O3 0.193703 0.567750 0.548148
O O4 0.000000 0.500000 0.481433
O O5 0.742556 0.508692 0.316032
O O6 0.000000 0.500000 0.345761
O O7 0.910705 0.348477 0.274088
O O8 0.473896 0.230851 0.655280
O O9 0.556768 0.354120 0.755527
O O10 0.330832 0.197464 0.763192
O O11 0.673700 0.615699 0.590358
O O12 0.424090 0.600578 0.589730
O O13 0.261397 0.459940 0.183104
#
# Coordination Sequence:
#
# PCOD9376729 Si02
#       6
#     8   8   8   8   8   8
#     4  11  24  39  65  94 126 173 217 267 336 402
#     4   9  22  41  57  90 128 167 213 256 324 399
#     4  10  21  39  64  91 124 170 212 265 316 385
#     4  10  23  41  63  98 128 168 222 273 327 391
#     4  10  21  38  66  94 129 163 214 268 318 391
#     4  10  23  40  64  97 132 166 218 277 326 389
#
# _framework density 21.41761
#
# number of rings (size 3 to 8) (size 9 to 14) (size 15 to 20)
#    0.000    2.000    1.667    0.000    7.000    1.333 
#    6.000    0.000    0.000    2.000    0.000    0.000 
#    0.000    0.000    0.000    0.000    0.000    0.000 
#
# Total GULP energy -133709.921074 kJ/mol
# GULP energy per Si atom -5571.246711 kJ/mol
# Density = 2.136886 g / cm^3
# Si number density = 21.417610 Si / 1000 Ang^3
#
#
#
# Elastic Constant Matrix: (Units=GPa)
#
#
# Indices 1 2 3 4 5 6 
#
# 1 42.8555 15.9312 17.1918 0.0000 0.0000 0.0000
# 2 15.9312 83.8770 61.6718 0.0000 0.0000 0.0000
# 3 17.1918 61.6718 110.1853 0.0000 0.0000 0.0000
# 4 0.0000 0.0000 0.0000 2.7204 0.0000 0.0000
# 5 0.0000 0.0000 0.0000 0.0000 7.3342 0.0000
# 6 0.0000 0.0000 0.0000 0.0000 0.0000 29.8029
#
#
#
# Elastic Compliance Matrix: (Units=1/GPa)
#
#
# Indices 1 2 3 4 5 6 
#
# 1 0.025402 -0.003247 -0.002146 0.000000 0.000000 0.000000
# 2 -0.003247 0.020675 -0.011065 0.000000 0.000000 0.000000
# 3 -0.002146 -0.011065 0.015604 0.000000 0.000000 0.000000
# 4 0.000000 0.000000 0.000000 0.367590 0.000000 0.000000
# 5 0.000000 0.000000 0.000000 0.000000 0.136348 0.000000
# 6 0.000000 0.000000 0.000000 0.000000 0.000000 0.033554
#
#
# Mechanical properties :
#
#
# Convention : Reuss Voigt Hill
#
# Bulk Modulus (GPa) = 34.76530 47.38973 41.07751
# Shear Modulus (GPa) = 7.79208 17.44637 12.61923
#
# Velocity S-wave (km/s) = 1.90947 2.85718 2.42997
# Velocity P-wave (km/s) = 4.59660 5.74971 5.20519
#
# Compressibility (1/GPa) = 0.02876432
#
# Stress axis : x y z
#
# Youngs Moduli (GPa) = 39.36673 48.36798 64.08681
#
# Poissons Ratio (x) = 0.15704 0.13754
# Poissons Ratio (y) = 0.12782 0.70914
# Poissons Ratio (z) = 0.08449 0.53521
#
# Static dielectric constant tensor:
#      x y z
#    x 1.804840 0.000000 0.000000 
#    y 0.000000 1.857870 0.000000 
#    z 0.000000 0.000000 1.802620 
# 
# From -- ./inp_files/7880.got.cif
#   From: 2010.05.17/outbox.cif.g08.bks.cpg/sg45_4_cif.got.tgz:7880.got - 2010.06.03 19:51:22.
