data_PCOD9376819
_publ_section_title
;
Structure prediction by ZEFSAII (Michael W. Deem and Ramdas Pophale) SiO2 
 PCOD9376819
Probable space group: I B A 2
;
_chemical_formula_sum "Si O2"
_cell_formula_units_Z 48
_cell_length_a 27.958719
_cell_length_b 5.403525
_cell_length_c 12.975024
_cell_angle_alpha 90.000000
_cell_angle_beta 90.000000
_cell_angle_gamma 90.000000
_cell_volume 1960.210017
_symmetry_space_group_name_H-M "I B A 2"
_symmetry_group_IT_number 45
_symmetry_cell_setting 'orthorhombic'
loop_
_space_group_symop_operation_xyz
x,y,z
-x,-y,z
-x,y,1/2+z
x,-y,1/2+z
1/2+x,1/2+y,1/2+z
1/2-x,1/2-y,1/2+z
1/2-x,1/2+y,z
1/2+x,1/2-y,z
loop_
_atom_site_type_symbol
_atom_site_label
_atom_site_fract_x
_atom_site_fract_y
_atom_site_fract_z
Si Si1 0.274408 0.870247 0.789090
Si Si2 0.053969 0.434213 0.340168
Si Si3 0.915444 0.250704 0.626105
Si Si4 0.764070 0.838391 0.519438
Si Si5 0.644797 0.749055 0.127190
Si Si6 0.446029 0.433899 0.412386
O O1 0.236731 0.653447 0.764366
O O2 0.267780 0.863172 0.915047
O O3 0.322016 0.793427 0.728525
O O4 0.054018 0.327617 0.225217
O O5 0.076910 0.707996 0.347843
O O6 0.000000 0.500000 0.374708
O O7 0.076756 0.207984 0.404689
O O8 0.883811 0.496509 0.607913
O O9 0.946092 0.175551 0.526906
O O10 0.884889 0.002013 0.644843
O O11 0.743662 0.598017 0.573549
O O12 0.820657 0.798608 0.527951
O O13 0.500000 0.500000 0.377635
#
# Coordination Sequence:
#
# PCOD9376819 Si02
#       6
#     8   8   8   8   8   8
#     4  10  21  41  64  89 123 181 233 274 340 422
#     4  10  23  46  72 100 140 188 231 270 332 428
#     4  12  26  44  68 112 142 176 226 298 362 396
#     4  10  21  41  64  89 123 181 233 274 340 422
#     4  12  24  42  64 100 142 168 230 304 348 402
#     4  10  23  46  72 100 140 188 231 270 332 428
#
# _framework density 24.487172999999999
#
# number of rings (size 3 to 8) (size 9 to 14) (size 15 to 20)
#    0.000    1.333    0.000    5.000    0.000    5.333 
#   36.000    0.000    0.000    0.000    0.000    0.000 
#    0.000    0.000    0.000    0.000    0.000    0.000 
#
# Total GULP energy -133800.327643 kJ/mol
# GULP energy per Si atom -5575.013652 kJ/mol
# Density = 2.443144 g / cm^3
# Si number density = 24.487173 Si / 1000 Ang^3
#
#
#
# Elastic Constant Matrix: (Units=GPa)
#
#
# Indices 1 2 3 4 5 6 
#
# 1 55.0943 38.2326 17.3051 0.0000 0.0000 0.0000
# 2 38.2326 253.7361 50.4363 0.0000 0.0000 0.0000
# 3 17.3051 50.4363 123.2947 0.0000 0.0000 0.0000
# 4 0.0000 0.0000 0.0000 43.2164 0.0000 0.0000
# 5 0.0000 0.0000 0.0000 0.0000 70.8925 0.0000
# 6 0.0000 0.0000 0.0000 0.0000 0.0000 31.0410
#
#
#
# Elastic Compliance Matrix: (Units=1/GPa)
#
#
# Indices 1 2 3 4 5 6 
#
# 1 0.020618 -0.002755 -0.001767 0.000000 0.000000 0.000000
# 2 -0.002755 0.004658 -0.001519 0.000000 0.000000 0.000000
# 3 -0.001767 -0.001519 0.008980 0.000000 0.000000 0.000000
# 4 0.000000 0.000000 0.000000 0.023139 0.000000 0.000000
# 5 0.000000 0.000000 0.000000 0.000000 0.014106 0.000000
# 6 0.000000 0.000000 0.000000 0.000000 0.000000 0.032215
#
#
# Mechanical properties :
#
#
# Convention : Reuss Voigt Hill
#
# Bulk Modulus (GPa) = 45.09777 71.56368 58.33073
# Shear Modulus (GPa) = 40.58781 50.77339 45.68060
#
# Velocity S-wave (km/s) = 4.07567 4.55848 4.32382
# Velocity P-wave (km/s) = 6.37221 7.54948 6.98569
#
# Compressibility (1/GPa) = 0.02217404
#
# Stress axis : x y z
#
# Youngs Moduli (GPa) = 48.50186 214.67560 111.35982
#
# Poissons Ratio (x) = 0.59154 0.19673
# Poissons Ratio (y) = 0.13365 0.16913
# Poissons Ratio (z) = 0.08568 0.32605
#
# Static dielectric constant tensor:
#      x y z
#    x 1.955830 0.000000 0.000000 
#    y 0.000000 2.066830 0.000000 
#    z 0.000000 0.000000 2.049700 
# 
# From -- ./inp_files/7109.got.cif
#   From: 2010.05.17/outbox.cif.g08.bks.cpg/sg45_4_cif.got.tgz:7109.got - 2010.06.03 19:51:22.
