data_PCOD9376776
_publ_section_title
;
Structure prediction by ZEFSAII (Michael W. Deem and Ramdas Pophale) SiO2 
 PCOD9376776
Probable space group: I B A 2
;
_chemical_formula_sum "Si O2"
_cell_formula_units_Z 64
_cell_length_a 9.036391
_cell_length_b 23.136136
_cell_length_c 14.477255
_cell_angle_alpha 90.000000
_cell_angle_beta 90.000000
_cell_angle_gamma 90.000000
_cell_volume 3026.718749
_symmetry_space_group_name_H-M "I B A 2"
_symmetry_group_IT_number 45
_symmetry_cell_setting 'orthorhombic'
loop_
_space_group_symop_operation_xyz
x,y,z
-x,-y,z
-x,y,1/2+z
x,-y,1/2+z
1/2+x,1/2+y,1/2+z
1/2-x,1/2-y,1/2+z
1/2-x,1/2+y,z
1/2+x,1/2-y,z
loop_
_atom_site_type_symbol
_atom_site_label
_atom_site_fract_x
_atom_site_fract_y
_atom_site_fract_z
Si Si1 0.082091 0.364627 0.399570
Si Si2 0.192866 0.254514 0.123976
Si Si3 0.722603 0.124413 0.212082
Si Si4 0.484179 0.432848 0.796493
Si Si5 0.778156 0.121951 0.659691
Si Si6 0.944077 0.246949 0.992053
Si Si7 0.517559 0.068805 0.069365
Si Si8 0.580333 0.376721 0.971379
O O1 0.098374 0.379610 0.292623
O O2 0.035499 0.298796 0.420559
O O3 0.987215 0.406205 0.465302
O O4 0.250934 0.370397 0.436539
O O5 0.238636 0.308405 0.185421
O O6 0.220014 0.191562 0.166567
O O7 0.275584 0.256785 0.025009
O O8 0.024403 0.261183 0.089955
O O9 0.876182 0.100045 0.250520
O O10 0.662485 0.089925 0.123695
O O11 0.500000 0.500000 0.776539
O O12 0.335576 0.407366 0.752367
O O13 0.497451 0.421267 0.905748
O O14 0.622908 0.097759 0.622281
O O15 0.899638 0.108607 0.578921
O O16 0.001500 0.185058 0.960824
O O17 0.500000 0.000000 0.069876
#
# Coordination Sequence:
#
# PCOD9376776 Si02
#       8
#     8   8   8   8   8   8   8   8
#     4  10  21  40  58  90 129 162 205 263 317 365
#     4  11  20  37  65  90 127 157 206 256 320 377
#     4  11  23  39  64  95 124 170 210 265 321 379
#     4  11  24  42  62  90 125 166 216 255 304 377
#     4  10  21  42  62  93 126 162 203 269 310 368
#     4  11  18  39  61  88 125 158 203 253 314 378
#     4  11  22  42  64  87 127 172 210 257 319 380
#     4   9  21  39  62  85 123 165 201 256 313 360
#
# _framework density 21.145011
#
# number of rings (size 3 to 8) (size 9 to 14) (size 15 to 20)
#    0.000    1.500    5.000    2.250    1.750    1.000 
#    4.500    6.250    0.000    0.000    0.000    0.000 
#    0.000    0.000    0.000    0.000    0.000    0.000 
#
# Total GULP energy -178741.508293 kJ/mol
# GULP energy per Si atom -5585.672134 kJ/mol
# Density = 2.109688 g / cm^3
# Si number density = 21.145011 Si / 1000 Ang^3
#
#
#
# Elastic Constant Matrix: (Units=GPa)
#
#
# Indices 1 2 3 4 5 6 
#
# 1 19.2015 0.3825 -3.4463 0.0000 0.0000 0.0000
# 2 0.3825 76.3280 25.3882 0.0000 0.0000 0.0000
# 3 -3.4463 25.3882 55.1905 0.0000 0.0000 0.0000
# 4 0.0000 0.0000 0.0000 27.6674 0.0000 0.0000
# 5 0.0000 0.0000 0.0000 0.0000 23.7456 0.0000
# 6 0.0000 0.0000 0.0000 0.0000 0.0000 21.6352
#
#
#
# Elastic Compliance Matrix: (Units=1/GPa)
#
#
# Indices 1 2 3 4 5 6 
#
# 1 0.052836 -0.001608 0.004039 0.000000 0.000000 0.000000
# 2 -0.001608 0.015517 -0.007238 0.000000 0.000000 0.000000
# 3 0.004039 -0.007238 0.021701 0.000000 0.000000 0.000000
# 4 0.000000 0.000000 0.000000 0.036144 0.000000 0.000000
# 5 0.000000 0.000000 0.000000 0.000000 0.042113 0.000000
# 6 0.000000 0.000000 0.000000 0.000000 0.000000 0.046221
#
#
# Mechanical properties :
#
#
# Convention : Reuss Voigt Hill
#
# Bulk Modulus (GPa) = 12.43177 21.70766 17.06972
# Shear Modulus (GPa) = 19.92348 23.16936 21.54642
#
# Velocity S-wave (km/s) = 3.07291 3.31378 3.19562
# Velocity P-wave (km/s) = 4.29912 4.99299 4.65899
#
# Compressibility (1/GPa) = 0.08043907
#
# Stress axis : x y z
#
# Youngs Moduli (GPa) = 18.92642 64.44517 46.08072
#
# Poissons Ratio (x) = 0.10365 -0.18613
# Poissons Ratio (y) = 0.03044 0.33355
# Poissons Ratio (z) = -0.07645 0.46648
#
# Static dielectric constant tensor:
#      x y z
#    x 1.759050 0.000000 0.000000 
#    y 0.000000 1.716030 0.000000 
#    z 0.000000 0.000000 1.782730 
# 
# From -- ./inp_files/5838.got.cif
#   From: 2010.05.17/outbox.cif.g08.bks.cpg/sg45_3_cif.got.tgz:5838.got - 2010.06.03 19:51:22.
