data_PCOD9376669
_publ_section_title
;
Structure prediction by ZEFSAII (Michael W. Deem and Ramdas Pophale) SiO2 
 PCOD9376669
Probable space group: I B A 2
;
_chemical_formula_sum "Si O2"
_cell_formula_units_Z 56
_cell_length_a 14.295864
_cell_length_b 19.432102
_cell_length_c 8.858510
_cell_angle_alpha 90.000000
_cell_angle_beta 90.000000
_cell_angle_gamma 90.000000
_cell_volume 2460.882451
_symmetry_space_group_name_H-M "I B A 2"
_symmetry_group_IT_number 45
_symmetry_cell_setting 'orthorhombic'
loop_
_space_group_symop_operation_xyz
x,y,z
-x,-y,z
-x,y,1/2+z
x,-y,1/2+z
1/2+x,1/2+y,1/2+z
1/2-x,1/2-y,1/2+z
1/2-x,1/2+y,z
1/2+x,1/2-y,z
loop_
_atom_site_type_symbol
_atom_site_label
_atom_site_fract_x
_atom_site_fract_y
_atom_site_fract_z
Si Si1 0.955001 0.910945 0.214770
Si Si2 0.141484 0.985873 0.983090
Si Si3 0.934351 0.586995 0.393242
Si Si4 0.324672 0.597383 0.741141
Si Si5 0.796018 0.706487 0.404103
Si Si6 0.722962 0.662574 0.722682
Si Si7 0.121044 0.449157 0.737372
O O1 0.884616 0.850053 0.177408
O O2 0.063444 0.893597 0.217257
O O3 0.924657 0.939134 0.379056
O O4 0.917278 0.969592 0.102641
O O5 0.187759 0.042187 0.875826
O O6 0.207120 0.937839 0.085012
O O7 0.890842 0.663013 0.374434
O O8 0.913206 0.562637 0.564754
O O9 0.885768 0.529343 0.285013
O O10 0.042987 0.585082 0.346992
O O11 0.277027 0.665746 0.797833
O O12 0.772867 0.695570 0.578905
O O13 0.785558 0.785604 0.361116
O O14 0.780191 0.591552 0.752261
#
# Coordination Sequence:
#
# PCOD9376669 Si02
#       7
#     8   8   8   8   8   8   8
#     4  11  21  38  62  94 128 161 197 248 307 372
#     4  10  21  36  62  96 127 156 199 248 306 370
#     4  10  22  42  68  96 121 158 210 266 315 364
#     4  11  21  38  62  94 128 161 197 248 307 372
#     4  11  27  44  61  90 126 167 213 254 310 375
#     4  11  27  44  61  90 126 167 213 254 310 375
#     4  10  22  42  68  96 121 158 210 266 315 364
#
# _framework density 22.756063999999999
#
# number of rings (size 3 to 8) (size 9 to 14) (size 15 to 20)
#    0.000    1.429    1.429    5.143    6.000    3.429 
#    0.000    2.857    0.000    0.000    0.000    0.000 
#    0.000    0.000    0.000    0.000    0.000    0.000 
#
# Total GULP energy -156518.547578 kJ/mol
# GULP energy per Si atom -5589.948128 kJ/mol
# Density = 2.270427 g / cm^3
# Si number density = 22.756064 Si / 1000 Ang^3
#
#
#
# Elastic Constant Matrix: (Units=GPa)
#
#
# Indices 1 2 3 4 5 6 
#
# 1 87.4536 -4.5374 -5.2191 0.0000 0.0000 0.0000
# 2 -4.5374 53.3991 -2.6207 0.0000 0.0000 0.0000
# 3 -5.2191 -2.6207 100.0124 0.0000 0.0000 0.0000
# 4 0.0000 0.0000 0.0000 26.7465 0.0000 0.0000
# 5 0.0000 0.0000 0.0000 0.0000 26.4570 0.0000
# 6 0.0000 0.0000 0.0000 0.0000 0.0000 17.5279
#
#
#
# Elastic Compliance Matrix: (Units=1/GPa)
#
#
# Indices 1 2 3 4 5 6 
#
# 1 0.011525 0.001010 0.000628 0.000000 0.000000 0.000000
# 2 0.001010 0.018840 0.000546 0.000000 0.000000 0.000000
# 3 0.000628 0.000546 0.010046 0.000000 0.000000 0.000000
# 4 0.000000 0.000000 0.000000 0.037388 0.000000 0.000000
# 5 0.000000 0.000000 0.000000 0.000000 0.037797 0.000000
# 6 0.000000 0.000000 0.000000 0.000000 0.000000 0.057052
#
#
# Mechanical properties :
#
#
# Convention : Reuss Voigt Hill
#
# Bulk Modulus (GPa) = 22.33214 24.01231 23.17223
# Shear Modulus (GPa) = 27.29187 31.02909 29.16048
#
# Velocity S-wave (km/s) = 3.46688 3.69664 3.58360
# Velocity P-wave (km/s) = 5.08534 5.36611 5.22761
#
# Compressibility (1/GPa) = 0.04477851
#
# Stress axis : x y z
#
# Youngs Moduli (GPa) = 86.77162 53.07980 99.54371
#
# Poissons Ratio (x) = -0.05361 -0.06250
# Poissons Ratio (y) = -0.08764 -0.05439
# Poissons Ratio (z) = -0.05448 -0.02900
#
# Static dielectric constant tensor:
#      x y z
#    x 1.913800 0.000000 0.000000 
#    y 0.000000 1.903530 0.000000 
#    z 0.000000 0.000000 1.864720 
# 
# From -- ./inp_files/1830.got.cif
#   From: 2010.05.17/outbox.cif.g08.bks.cpg/sg45_1_cif.got.tgz:1830.got - 2010.06.03 19:51:22.
