data_PCOD9376856
_publ_section_title
;
Structure prediction by ZEFSAII (Michael W. Deem and Ramdas Pophale) SiO2 
 PCOD9376856
Probable space group: I B A 2
;
_chemical_formula_sum "Si O2"
_cell_formula_units_Z 56
_cell_length_a 18.421671
_cell_length_b 8.030226
_cell_length_c 17.026739
_cell_angle_alpha 90.000000
_cell_angle_beta 90.000000
_cell_angle_gamma 90.000000
_cell_volume 2518.768589
_symmetry_space_group_name_H-M "I B A 2"
_symmetry_group_IT_number 45
_symmetry_cell_setting 'orthorhombic'
loop_
_space_group_symop_operation_xyz
x,y,z
-x,-y,z
-x,y,1/2+z
x,-y,1/2+z
1/2+x,1/2+y,1/2+z
1/2-x,1/2-y,1/2+z
1/2-x,1/2+y,z
1/2+x,1/2-y,z
loop_
_atom_site_type_symbol
_atom_site_label
_atom_site_fract_x
_atom_site_fract_y
_atom_site_fract_z
Si Si1 0.574974 0.602463 0.817670
Si Si2 0.515809 0.805998 0.684529
Si Si3 0.212283 0.372359 0.603542
Si Si4 0.665800 0.866753 0.397910
Si Si5 0.641138 0.768174 0.569122
Si Si6 0.327526 0.750467 0.437099
Si Si7 0.635306 0.693003 0.237420
O O1 0.500000 0.500000 0.823088
O O2 0.556222 0.764409 0.766243
O O3 0.608886 0.640146 0.901596
O O4 0.633987 0.495841 0.767801
O O5 0.567520 0.743248 0.615691
O O6 0.438717 0.716092 0.688985
O O7 0.500000 0.000000 0.675003
O O8 0.298031 0.370893 0.585655
O O9 0.177035 0.556046 0.599678
O O10 0.177730 0.271319 0.530372
O O11 0.196778 0.273116 0.683357
O O12 0.629902 0.789825 0.476202
O O13 0.750466 0.817228 0.406294
O O14 0.633070 0.797747 0.318019
O O15 0.661617 0.064371 0.403763
#
# Coordination Sequence:
#
# PCOD9376856 Si02
#       7
#     8   8   8   8   8   8   8
#     4  10  24  42  62  94 131 168 218 267 332 395
#     4  11  22  43  65  92 132 168 219 268 327 391
#     4  10  23  40  67  95 130 166 220 266 322 387
#     4  10  22  40  69  97 133 169 217 270 325 390
#     4  10  23  42  66  98 129 174 213 270 326 390
#     4  10  21  42  64  97 130 170 216 268 330 392
#     4  11  23  42  64  99 129 172 218 271 321 392
#
# _framework density 22.233086
#
# number of rings (size 3 to 8) (size 9 to 14) (size 15 to 20)
#    0.000    1.714    1.429    1.714    4.000    1.143 
#    5.143    1.429    0.000    0.000    0.000    0.000 
#    0.000    0.000    0.000    0.000    0.000    0.000 
#
# Total GULP energy -156604.023098 kJ/mol
# GULP energy per Si atom -5593.000825 kJ/mol
# Density = 2.218248 g / cm^3
# Si number density = 22.233086 Si / 1000 Ang^3
#
#
#
# Elastic Constant Matrix: (Units=GPa)
#
#
# Indices 1 2 3 4 5 6 
#
# 1 53.1469 1.0312 51.1840 0.0000 0.0000 0.0000
# 2 1.0312 32.1238 7.6654 0.0000 0.0000 0.0000
# 3 51.1840 7.6654 104.9638 0.0000 0.0000 0.0000
# 4 0.0000 0.0000 0.0000 6.6547 0.0000 0.0000
# 5 0.0000 0.0000 0.0000 0.0000 41.3457 0.0000
# 6 0.0000 0.0000 0.0000 0.0000 0.0000 25.5017
#
#
#
# Elastic Compliance Matrix: (Units=1/GPa)
#
#
# Indices 1 2 3 4 5 6 
#
# 1 0.035771 0.003068 -0.017667 0.000000 0.000000 0.000000
# 2 0.003068 0.031945 -0.003829 0.000000 0.000000 0.000000
# 3 -0.017667 -0.003829 0.018422 0.000000 0.000000 0.000000
# 4 0.000000 0.000000 0.000000 0.150270 0.000000 0.000000
# 5 0.000000 0.000000 0.000000 0.000000 0.024186 0.000000
# 6 0.000000 0.000000 0.000000 0.000000 0.000000 0.039213
#
#
# Mechanical properties :
#
#
# Convention : Reuss Voigt Hill
#
# Bulk Modulus (GPa) = 20.29191 34.44396 27.36793
# Shear Modulus (GPa) = 14.16070 23.39069 18.77569
#
# Velocity S-wave (km/s) = 2.52647 3.24708 2.90917
# Velocity P-wave (km/s) = 4.20207 5.43910 4.86011
#
# Compressibility (1/GPa) = 0.04928071
#
# Stress axis : x y z
#
# Youngs Moduli (GPa) = 27.95568 31.30409 54.28347
#
# Poissons Ratio (x) = -0.09603 0.95903
# Poissons Ratio (y) = -0.08575 0.20784
# Poissons Ratio (z) = 0.49390 0.11985
#
# Static dielectric constant tensor:
#      x y z
#    x 1.813210 0.000000 0.000000 
#    y 0.000000 1.845200 0.000000 
#    z 0.000000 0.000000 1.800300 
# 
# From -- ./inp_files/6931.got.cif
#   From: 2010.05.17/outbox.cif.g08.bks.cpg/sg45_4_cif.got.tgz:6931.got - 2010.06.03 19:51:22.
