data_PCOD9376641
_publ_section_title
;
Structure prediction by ZEFSAII (Michael W. Deem and Ramdas Pophale) SiO2 
 PCOD9376641
Probable space group: I B A 2
;
_chemical_formula_sum "Si O2"
_cell_formula_units_Z 60
_cell_length_a 16.893327
_cell_length_b 22.236719
_cell_length_c 8.661741
_cell_angle_alpha 90.000000
_cell_angle_beta 90.000000
_cell_angle_gamma 90.000000
_cell_volume 3253.801763
_symmetry_space_group_name_H-M "I B A 2"
_symmetry_group_IT_number 45
_symmetry_cell_setting 'orthorhombic'
loop_
_space_group_symop_operation_xyz
x,y,z
-x,-y,z
-x,y,1/2+z
x,-y,1/2+z
1/2+x,1/2+y,1/2+z
1/2-x,1/2-y,1/2+z
1/2-x,1/2+y,z
1/2+x,1/2-y,z
loop_
_atom_site_type_symbol
_atom_site_label
_atom_site_fract_x
_atom_site_fract_y
_atom_site_fract_z
Si Si1 0.759868 0.198604 0.384260
Si Si2 0.769749 0.385521 0.416540
Si Si3 0.885571 0.524256 0.030558
Si Si4 0.612690 0.222710 0.001341
Si Si5 0.500000 0.000000 0.280587
Si Si6 0.538225 0.783016 0.170994
Si Si7 0.338180 0.300044 0.043857
Si Si8 0.839399 0.612870 0.576113
O O1 0.834736 0.217142 0.491713
O O2 0.697817 0.251409 0.424442
O O3 0.790970 0.201977 0.209099
O O4 0.716597 0.138660 0.440701
O O5 0.802941 0.443638 0.504272
O O6 0.827581 0.332520 0.477959
O O7 0.682849 0.363689 0.466385
O O8 0.787824 0.390202 0.234498
O O9 0.942655 0.539257 0.886994
O O10 0.872859 0.452674 0.038125
O O11 0.939883 0.538650 0.177466
O O12 0.557562 0.221660 0.850552
O O13 0.554531 0.213321 0.142313
O O14 0.575359 0.723836 0.088034
O O15 0.589481 0.839679 0.107523
#
# Coordination Sequence:
#
# PCOD9376641 Si02
#       8
#     8   8   8   8   4   8   8   8
#     4   9  18  33  49  69  95 125 163 204 244 290
#     4  10  21  34  49  69  99 132 170 204 239 288
#     4  11  22  36  48  72 101 136 172 202 245 286
#     4   9  19  31  47  71  96 124 159 198 242 289
#     4  10  24  34  48  66 108 134 170 210 236 280
#     4   9  19  31  47  71  96 124 159 198 242 289
#     4   9  18  33  49  69  95 125 163 204 244 290
#     4  10  21  34  49  69  99 132 170 204 239 288
#
# _framework density 18.439969000000001
#
# number of rings (size 3 to 8) (size 9 to 14) (size 15 to 20)
#    0.000    2.400    1.333    2.400    5.600    5.333 
#    0.000    0.000    0.000    0.000    0.000    0.933 
#    0.000    6.400    0.000    0.000    0.000    0.000 
#
# Total GULP energy -167234.709337 kJ/mol
# GULP energy per Si atom -5574.490311 kJ/mol
# Density = 1.839800 g / cm^3
# Si number density = 18.439969 Si / 1000 Ang^3
#
#
#
# Elastic Constant Matrix: (Units=GPa)
#
#
# Indices 1 2 3 4 5 6 
#
# 1 19.5416 16.1262 10.5561 0.0000 0.0000 0.0000
# 2 16.1262 64.8576 10.5727 0.0000 0.0000 0.0000
# 3 10.5561 10.5727 44.1057 0.0000 0.0000 0.0000
# 4 0.0000 0.0000 0.0000 14.0921 0.0000 0.0000
# 5 0.0000 0.0000 0.0000 0.0000 30.8175 0.0000
# 6 0.0000 0.0000 0.0000 0.0000 0.0000 18.4122
#
#
#
# Elastic Compliance Matrix: (Units=1/GPa)
#
#
# Indices 1 2 3 4 5 6 
#
# 1 0.071178 -0.015527 -0.013313 0.000000 0.000000 0.000000
# 2 -0.015527 0.019433 -0.000942 0.000000 0.000000 0.000000
# 3 -0.013313 -0.000942 0.026085 0.000000 0.000000 0.000000
# 4 0.000000 0.000000 0.000000 0.070962 0.000000 0.000000
# 5 0.000000 0.000000 0.000000 0.000000 0.032449 0.000000
# 6 0.000000 0.000000 0.000000 0.000000 0.000000 0.054312
#
#
# Mechanical properties :
#
#
# Convention : Reuss Voigt Hill
#
# Bulk Modulus (GPa) = 17.50389 22.55721 20.03055
# Shear Modulus (GPa) = 14.16322 18.74770 16.45546
#
# Velocity S-wave (km/s) = 2.77442 3.19201 2.99051
# Velocity P-wave (km/s) = 4.44704 5.08376 4.77602
#
# Compressibility (1/GPa) = 0.05713017
#
# Stress axis : x y z
#
# Youngs Moduli (GPa) = 14.04928 51.45973 38.33625
#
# Poissons Ratio (x) = 0.79904 0.51038
# Poissons Ratio (y) = 0.21815 0.03611
# Poissons Ratio (z) = 0.18704 0.04847
#
# Static dielectric constant tensor:
#      x y z
#    x 1.670110 0.000000 0.000000 
#    y 0.000000 1.667750 0.000000 
#    z 0.000000 0.000000 1.693070 
# 
# From -- ./inp_files/1886.got.cif
#   From: 2010.05.17/outbox.cif.g08.bks.cpg/sg45_1_cif.got.tgz:1886.got - 2010.06.03 19:51:22.
