data_PCOD9376637
_publ_section_title
;
Structure prediction by ZEFSAII (Michael W. Deem and Ramdas Pophale) SiO2 
 PCOD9376637
Probable space group: I B A 2
;
_chemical_formula_sum "Si O2"
_cell_formula_units_Z 44
_cell_length_a 9.759745
_cell_length_b 22.676277
_cell_length_c 9.182064
_cell_angle_alpha 90.000000
_cell_angle_beta 90.000000
_cell_angle_gamma 90.000000
_cell_volume 2032.125566
_symmetry_space_group_name_H-M "I B A 2"
_symmetry_group_IT_number 45
_symmetry_cell_setting 'orthorhombic'
loop_
_space_group_symop_operation_xyz
x,y,z
-x,-y,z
-x,y,1/2+z
x,-y,1/2+z
1/2+x,1/2+y,1/2+z
1/2-x,1/2-y,1/2+z
1/2-x,1/2+y,z
1/2+x,1/2-y,z
loop_
_atom_site_type_symbol
_atom_site_label
_atom_site_fract_x
_atom_site_fract_y
_atom_site_fract_z
Si Si1 0.383189 0.924855 0.883490
Si Si2 0.800700 0.192657 0.544701
Si Si3 0.000000 0.500000 0.146753
Si Si4 0.248353 0.175250 0.522475
Si Si5 0.540506 0.699197 0.261727
Si Si6 0.463828 0.167774 0.179946
O O1 0.383916 0.975044 0.758134
O O2 0.487364 0.879669 0.804973
O O3 0.435194 0.952809 0.034162
O O4 0.255377 0.881041 0.915416
O O5 0.731762 0.254670 0.488752
O O6 0.913444 0.178411 0.421172
O O7 0.669659 0.152860 0.582660
O O8 0.888648 0.195626 0.694115
O O9 0.140698 0.165974 0.650800
O O10 0.401519 0.175662 0.587006
O O11 0.569434 0.769375 0.253024
#
# Coordination Sequence:
#
# PCOD9376637 Si02
#       6
#     8   8   4   8   8   8
#     4  11  20  38  54  84 117 151 190 263 292 342
#     4  10  22  35  53  87 124 159 194 224 282 382
#     4  10  24  34  56  86 118 146 220 246 310 320
#     4  10  21  33  58  82 121 157 191 235 297 341
#     4  10  22  35  53  87 124 159 194 224 282 382
#     4  10  21  33  58  82 121 157 191 235 297 341
#
# _framework density 21.652206
#
# number of rings (size 3 to 8) (size 9 to 14) (size 15 to 20)
#    0.000    1.818    3.636    0.000    5.091    4.364 
#    0.000    0.000    0.000    0.000    0.000    3.818 
#    0.000    0.000    0.000    0.000    0.000    0.000 
#
# Total GULP energy -122498.249258 kJ/mol
# GULP energy per Si atom -5568.102239 kJ/mol
# Density = 2.160292 g / cm^3
# Si number density = 21.652206 Si / 1000 Ang^3
#
#
#
# Elastic Constant Matrix: (Units=GPa)
#
#
# Indices 1 2 3 4 5 6 
#
# 1 73.1065 11.4274 39.4941 0.0000 0.0001 0.0000
# 2 11.4274 72.3202 45.8885 -0.0001 0.0000 0.0000
# 3 39.4941 45.8885 139.6837 -0.0004 -0.0001 0.0002
# 4 0.0000 -0.0001 -0.0004 39.9298 0.0000 0.0000
# 5 0.0001 0.0000 -0.0001 0.0000 41.6172 0.0000
# 6 0.0000 0.0000 0.0002 0.0000 0.0000 15.5608
#
#
#
# Elastic Compliance Matrix: (Units=1/GPa)
#
#
# Indices 1 2 3 4 5 6 
#
# 1 0.016156 0.000437 -0.004711 0.000000 0.000000 0.000000
# 2 0.000437 0.017481 -0.005866 0.000000 0.000000 0.000000
# 3 -0.004711 -0.005866 0.010418 0.000000 0.000000 0.000000
# 4 0.000000 0.000000 0.000000 0.025044 0.000000 0.000000
# 5 0.000000 0.000000 0.000000 0.000000 0.024029 0.000000
# 6 0.000000 0.000000 0.000000 0.000000 0.000000 0.064264
#
#
# Mechanical properties :
#
#
# Convention : Reuss Voigt Hill
#
# Bulk Modulus (GPa) = 42.06479 53.19228 47.62854
# Shear Modulus (GPa) = 26.94015 31.97491 29.45753
#
# Velocity S-wave (km/s) = 3.53118 3.84702 3.69248
# Velocity P-wave (km/s) = 6.00794 6.65979 6.34224
#
# Compressibility (1/GPa) = 0.02377285
#
# Stress axis : x y z
#
# Youngs Moduli (GPa) = 61.89815 57.20634 95.98573
#
# Poissons Ratio (x) = -0.02498 0.45221
# Poissons Ratio (y) = -0.02703 0.56306
# Poissons Ratio (z) = 0.29162 0.33558
#
# Static dielectric constant tensor:
#      x y z
#    x 1.785300 0.000000 0.000000 
#    y 0.000000 1.893420 0.000000 
#    z 0.000000 0.000000 1.905980 
# 
# From -- ./inp_files/1342.got.cif
#   From: 2010.05.17/outbox.cif.g08.bks.cpg/sg45_1_cif.got.tgz:1342.got - 2010.06.03 19:51:22.
