data_PCOD9376351
_publ_section_title
;
Structure prediction by ZEFSAII (Michael W. Deem and Ramdas Pophale) SiO2 
 PCOD9376351
Probable space group: I B A 2
;
_chemical_formula_sum "Si O2"
_cell_formula_units_Z 60
_cell_length_a 13.573649
_cell_length_b 25.659533
_cell_length_c 9.041020
_cell_angle_alpha 90.000000
_cell_angle_beta 90.000000
_cell_angle_gamma 90.000000
_cell_volume 3148.928449
_symmetry_space_group_name_H-M "I B A 2"
_symmetry_group_IT_number 45
_symmetry_cell_setting 'orthorhombic'
loop_
_space_group_symop_operation_xyz
x,y,z
-x,-y,z
-x,y,1/2+z
x,-y,1/2+z
1/2+x,1/2+y,1/2+z
1/2-x,1/2-y,1/2+z
1/2-x,1/2+y,z
1/2+x,1/2-y,z
loop_
_atom_site_type_symbol
_atom_site_label
_atom_site_fract_x
_atom_site_fract_y
_atom_site_fract_z
Si Si1 0.738165 0.394847 0.944680
Si Si2 0.854585 0.298241 0.870139
Si Si3 0.857225 0.105968 0.115428
Si Si4 0.500000 0.500000 0.804891
Si Si5 0.206311 0.215524 0.611607
Si Si6 0.643691 0.486169 0.046782
Si Si7 0.933007 0.841384 0.116740
Si Si8 0.476549 0.727667 0.838751
O O1 0.830796 0.357014 0.921608
O O2 0.686206 0.394100 0.782655
O O3 0.740986 0.453817 0.006395
O O4 0.665899 0.369108 0.066457
O O5 0.802849 0.286803 0.712865
O O6 0.968440 0.282120 0.859409
O O7 0.802519 0.259695 0.988775
O O8 0.807629 0.157327 0.045822
O O9 0.972992 0.119975 0.115636
O O10 0.842202 0.048796 0.046421
O O11 0.416014 0.476308 0.698878
O O12 0.566141 0.468355 0.920227
O O13 0.115010 0.225455 0.726231
O O14 0.941960 0.811947 0.271336
O O15 0.947309 0.796645 0.993938
#
# Coordination Sequence:
#
# PCOD9376351 Si02
#       8
#     8   8   8   4   8   8   8   8
#     4  11  22  35  50  75 112 147 191 226 270 322
#     4  11  21  38  55  79 114 150 187 231 279 341
#     4  10  20  34  50  72 110 144 188 220 268 328
#     4  10  20  32  50  70 104 150 188 216 252 322
#     4  10  22  37  54  84 109 147 189 226 287 332
#     4  11  21  33  46  74 106 144 190 220 258 329
#     4  11  18  34  52  75 110 151 182 225 265 326
#     4  11  20  35  56  78 112 153 185 225 279 333
#
# _framework density 19.054100999999999
#
# number of rings (size 3 to 8) (size 9 to 14) (size 15 to 20)
#    0.000    1.333    8.000    2.400    0.000    1.067 
#    2.400    0.000    0.000    0.000    0.000    0.000 
#    0.000   22.400    0.000    0.000    0.000    0.000 
#
# Total GULP energy -167147.148023 kJ/mol
# GULP energy per Si atom -5571.571601 kJ/mol
# Density = 1.901073 g / cm^3
# Si number density = 19.054101 Si / 1000 Ang^3
#
#
#
# Elastic Constant Matrix: (Units=GPa)
#
#
# Indices 1 2 3 4 5 6 
#
# 1 28.4807 29.9673 -6.4367 0.0002 0.0000 0.0000
# 2 29.9673 121.0498 7.6942 -0.0002 -0.0001 0.0000
# 3 -6.4367 7.6942 62.1047 -0.0011 0.0000 0.0003
# 4 0.0002 -0.0002 -0.0011 23.5371 -0.0001 0.0001
# 5 0.0000 -0.0001 0.0000 -0.0001 18.8479 -0.0001
# 6 0.0000 0.0000 0.0003 0.0001 -0.0001 35.2787
#
#
#
# Elastic Compliance Matrix: (Units=1/GPa)
#
#
# Indices 1 2 3 4 5 6 
#
# 1 0.050169 -0.012852 0.006792 0.000000 0.000000 0.000000
# 2 -0.012852 0.011619 -0.002771 0.000000 0.000000 0.000000
# 3 0.006792 -0.002771 0.017149 0.000001 0.000000 0.000000
# 4 0.000000 0.000000 0.000001 0.042486 0.000000 0.000000
# 5 0.000000 0.000000 0.000000 0.000000 0.053056 0.000000
# 6 0.000000 0.000000 0.000000 0.000000 0.000000 0.028346
#
#
# Mechanical properties :
#
#
# Convention : Reuss Voigt Hill
#
# Bulk Modulus (GPa) = 16.32004 30.45386 23.38695
# Shear Modulus (GPa) = 20.75445 27.56010 24.15727
#
# Velocity S-wave (km/s) = 3.30394 3.80730 3.56452
# Velocity P-wave (km/s) = 4.81024 5.94516 5.40756
#
# Compressibility (1/GPa) = 0.06127435
#
# Stress axis : x y z
#
# Youngs Moduli (GPa) = 19.93267 86.06754 58.31208
#
# Poissons Ratio (x) = 1.10611 -0.39604
# Poissons Ratio (y) = 0.25617 0.16161
# Poissons Ratio (z) = -0.13538 0.23853
#
# Static dielectric constant tensor:
#      x y z
#    x 1.689900 0.000000 0.000000 
#    y 0.000000 1.771050 0.000000 
#    z 0.000000 0.000000 1.686210 
# 
# From -- ./inp_files/1904.got.cif
#   From: 2010.05.17/outbox.cif.g08.bks.cpg/sg45_1_cif.got.tgz:1904.got - 2010.06.03 19:51:22.
