data_PCOD9376751
_publ_section_title
;
Structure prediction by ZEFSAII (Michael W. Deem and Ramdas Pophale) SiO2 
 PCOD9376751
Probable space group: I B A 2
;
_chemical_formula_sum "Si O2"
_cell_formula_units_Z 56
_cell_length_a 19.302294
_cell_length_b 12.970263
_cell_length_c 10.936482
_cell_angle_alpha 90.000000
_cell_angle_beta 90.000000
_cell_angle_gamma 90.000000
_cell_volume 2738.012025
_symmetry_space_group_name_H-M "I B A 2"
_symmetry_group_IT_number 45
_symmetry_cell_setting 'orthorhombic'
loop_
_space_group_symop_operation_xyz
x,y,z
-x,-y,z
-x,y,1/2+z
x,-y,1/2+z
1/2+x,1/2+y,1/2+z
1/2-x,1/2-y,1/2+z
1/2-x,1/2+y,z
1/2+x,1/2-y,z
loop_
_atom_site_type_symbol
_atom_site_label
_atom_site_fract_x
_atom_site_fract_y
_atom_site_fract_z
Si Si1 0.858695 0.515395 0.252250
Si Si2 0.500000 0.000000 0.405494
Si Si3 0.755037 0.332745 0.886021
Si Si4 0.102943 0.137864 0.959179
Si Si5 0.545645 0.292991 0.714254
Si Si6 0.938946 0.660607 0.088022
Si Si7 0.000000 0.000000 0.580746
Si Si8 0.304656 0.204851 0.162164
O O1 0.808775 0.582611 0.338035
O O2 0.882323 0.580765 0.134920
O O3 0.822604 0.411039 0.206814
O O4 0.930504 0.499969 0.325007
O O5 0.487317 0.100302 0.491124
O O6 0.679084 0.380306 0.908993
O O7 0.742849 0.254007 0.771104
O O8 0.777225 0.292348 0.021797
O O9 0.053323 0.182124 0.854938
O O10 0.101705 0.235857 0.049153
O O11 0.067529 0.034875 0.006706
O O12 0.492219 0.201484 0.689778
O O13 0.519023 0.397711 0.653803
O O14 0.621376 0.263119 0.665304
#
# Coordination Sequence:
#
# PCOD9376751 Si02
#       8
#     8   4   8   8   8   8   4   8
#     4  12  24  40  67  97 130 173 221 273 334 399
#     4  12  22  38  64  96 130 168 216 274 334 396
#     4  11  25  43  64  94 133 176 220 275 334 401
#     4  10  22  40  60  88 126 165 214 269 322 387
#     4  10  21  39  62  90 125 163 212 267 322 384
#     4  11  21  37  62  93 126 166 216 271 328 392
#     4  10  22  38  64  90 120 164 214 266 326 388
#     4  11  25  44  65  95 133 175 222 274 332 402
#
# _framework density 20.452797
#
# number of rings (size 3 to 8) (size 9 to 14) (size 15 to 20)
#    0.000    1.143    0.000    7.714    0.000    5.714 
#    0.000    0.000    0.000    0.000    0.000    0.000 
#    0.000    0.000    0.000    0.000    0.000    0.000 
#
# Total GULP energy -156275.341534 kJ/mol
# GULP energy per Si atom -5581.262198 kJ/mol
# Density = 2.040625 g / cm^3
# Si number density = 20.452797 Si / 1000 Ang^3
#
#
#
# Elastic Constant Matrix: (Units=GPa)
#
#
# Indices 1 2 3 4 5 6 
#
# 1 78.3079 46.0057 34.8731 0.0000 0.0000 0.0000
# 2 46.0057 101.5300 36.2011 0.0000 0.0000 0.0000
# 3 34.8731 36.2011 92.1291 0.0000 0.0000 0.0000
# 4 0.0000 0.0000 0.0000 19.8686 0.0000 0.0000
# 5 0.0000 0.0000 0.0000 0.0000 30.9139 0.0000
# 6 0.0000 0.0000 0.0000 0.0000 0.0000 -49.3460
#
#
#
# Elastic Compliance Matrix: (Units=1/GPa)
#
#
# Indices 1 2 3 4 5 6 
#
# 1 0.018813 -0.006961 -0.004386 0.000000 0.000000 0.000000
# 2 -0.006961 0.014029 -0.002878 0.000000 0.000000 0.000000
# 3 -0.004386 -0.002878 0.013645 0.000000 0.000000 0.000000
# 4 0.000000 0.000000 0.000000 0.050331 0.000000 0.000000
# 5 0.000000 0.000000 0.000000 0.000000 0.032348 0.000000
# 6 0.000000 0.000000 0.000000 0.000000 0.000000 -0.020265
#
#
# Mechanical properties :
#
#
# Convention : Reuss Voigt Hill
#
# Bulk Modulus (GPa) = 55.43715 56.23633 55.83674
# Shear Modulus (GPa) = 34.87654 10.61312 22.74483
#
# Velocity S-wave (km/s) = 4.13391 2.28043 3.33838
# Velocity P-wave (km/s) = 7.06749 5.87275 6.49764
#
# Compressibility (1/GPa) = 0.01803844
#
# Stress axis : x y z
#
# Youngs Moduli (GPa) = 53.15569 71.27839 73.28481
#
# Poissons Ratio (x) = 0.49614 0.32142
# Poissons Ratio (y) = 0.37000 0.21091
# Poissons Ratio (z) = 0.23314 0.20514
#
# Static dielectric constant tensor:
#      x y z
#    x 1.720380 0.000000 0.000000 
#    y 0.000000 1.768480 0.000000 
#    z 0.000000 0.000000 1.795670 
# 
# From -- ./inp_files/3788.got.cif
#   From: 2010.05.17/outbox.cif.g08.bks.cpg/sg45_2_cif.got.tgz:3788.got - 2010.06.03 19:51:22.
