data_PCOD9376317
_publ_section_title
;
Structure prediction by ZEFSAII (Michael W. Deem and Ramdas Pophale) SiO2 
 PCOD9376317
Probable space group: I B A 2
;
_chemical_formula_sum "Si O2"
_cell_formula_units_Z 40
_cell_length_a 5.331440
_cell_length_b 21.274652
_cell_length_c 14.270552
_cell_angle_alpha 90.000000
_cell_angle_beta 90.000000
_cell_angle_gamma 90.000000
_cell_volume 1618.630663
_symmetry_space_group_name_H-M "I B A 2"
_symmetry_group_IT_number 45
_symmetry_cell_setting 'orthorhombic'
loop_
_space_group_symop_operation_xyz
x,y,z
-x,-y,z
-x,y,1/2+z
x,-y,1/2+z
1/2+x,1/2+y,1/2+z
1/2-x,1/2-y,1/2+z
1/2-x,1/2+y,z
1/2+x,1/2-y,z
loop_
_atom_site_type_symbol
_atom_site_label
_atom_site_fract_x
_atom_site_fract_y
_atom_site_fract_z
Si Si1 0.900274 0.927001 0.095890
Si Si2 0.137252 0.066473 0.306929
Si Si3 0.862062 0.397971 0.906583
Si Si4 0.409426 0.710900 0.562171
Si Si5 0.446257 0.758911 0.357122
O O1 0.791881 0.918850 0.200133
O O2 0.076842 0.863957 0.086215
O O3 0.708665 0.920499 0.009939
O O4 0.000000 0.000000 0.090196
O O5 0.393348 0.067073 0.365496
O O6 0.898080 0.104033 0.347049
O O7 0.000000 0.000000 0.308140
O O8 0.948681 0.326811 0.902814
O O9 0.658261 0.751041 0.590227
O O10 0.429430 0.714734 0.448181
O O11 0.695244 0.749489 0.299901
#
# Coordination Sequence:
#
# PCOD9376317 Si02
#       5
#     8   8   8   8   8
#     4  11  26  50  84 114 154 209 256 316 398 453
#     4  11  28  49  70 117 160 189 262 325 368 478
#     4  12  24  47  79 106 151 213 247 311 395 448
#     4  10  21  42  73 104 152 194 246 319 364 447
#     4  10  19  38  70 100 146 190 246 314 361 439
#
# _framework density 24.712246
#
# number of rings (size 3 to 8) (size 9 to 14) (size 15 to 20)
#    0.000    1.200    4.000    2.400    2.800    3.200 
#    0.000   13.000    0.000    1.200    0.000    0.000 
#    0.000    0.000    0.000    0.000    0.000    0.000 
#
# Total GULP energy -111614.039427 kJ/mol
# GULP energy per Si atom -5580.701971 kJ/mol
# Density = 2.465600 g / cm^3
# Si number density = 24.712246 Si / 1000 Ang^3
#
#
#
# Elastic Constant Matrix: (Units=GPa)
#
#
# Indices 1 2 3 4 5 6 
#
# 1 235.7890 46.5304 88.9505 0.0000 0.0000 0.0000
# 2 46.5304 157.3226 24.7730 0.0000 0.0000 0.0000
# 3 88.9505 24.7730 141.8370 0.0001 0.0000 0.0000
# 4 0.0000 0.0000 0.0001 0.2138 0.0000 0.0000
# 5 0.0000 0.0000 0.0000 0.0000 -10.0438 0.0000
# 6 0.0000 0.0000 0.0000 0.0000 0.0000 19.4453
#
#
#
# Elastic Compliance Matrix: (Units=1/GPa)
#
#
# Indices 1 2 3 4 5 6 
#
# 1 0.005756 -0.001166 -0.003406 0.000001 0.000000 0.000000
# 2 -0.001166 0.006772 -0.000452 0.000000 0.000000 0.000000
# 3 -0.003406 -0.000452 0.009265 -0.000002 0.000000 0.000000
# 4 0.000001 0.000000 -0.000002 4.676253 -0.000003 0.000001
# 5 0.000000 0.000000 0.000000 -0.000003 -0.099564 0.000000
# 6 0.000000 0.000000 0.000000 0.000001 0.000000 0.051426
#
#
# Mechanical properties :
#
#
# Convention : Reuss Voigt Hill
#
# Bulk Modulus (GPa) = 85.13418 95.05072 90.09245
# Shear Modulus (GPa) = 1.07207 26.90273 13.98740
#
# Velocity S-wave (km/s) = 0.65937 3.30303 2.38168
# Velocity P-wave (km/s) = 5.92492 7.28651 6.64070
#
# Compressibility (1/GPa) = 0.01174616
#
# Stress axis : x y z
#
# Youngs Moduli (GPa) = 173.72636 147.65901 107.92889
#
# Poissons Ratio (x) = 0.17219 0.36763
# Poissons Ratio (y) = 0.20258 0.04873
# Poissons Ratio (z) = 0.59175 0.06668
#
# Static dielectric constant tensor:
#      x y z
#    x 2.298270 0.000000 0.000000 
#    y 0.000000 2.075410 0.000000 
#    z 0.000000 0.000000 1.943190 
# 
# From -- ./inp_files/5109.got.cif
#   From: 2010.05.17/outbox.cif.g08.bks.cpg/sg45_3_cif.got.tgz:5109.got - 2010.06.03 19:51:22.
