data_PCOD9376893
_publ_section_title
;
Structure prediction by ZEFSAII (Michael W. Deem and Ramdas Pophale) SiO2 
 PCOD9376893
Probable space group: I B A 2
;
_chemical_formula_sum "Si O2"
_cell_formula_units_Z 36
_cell_length_a 12.995829
_cell_length_b 5.346788
_cell_length_c 20.973045
_cell_angle_alpha 90.000000
_cell_angle_beta 90.000000
_cell_angle_gamma 90.000000
_cell_volume 1457.331800
_symmetry_space_group_name_H-M "I B A 2"
_symmetry_group_IT_number 45
_symmetry_cell_setting 'orthorhombic'
loop_
_space_group_symop_operation_xyz
x,y,z
-x,-y,z
-x,y,1/2+z
x,-y,1/2+z
1/2+x,1/2+y,1/2+z
1/2-x,1/2-y,1/2+z
1/2-x,1/2+y,z
1/2+x,1/2-y,z
loop_
_atom_site_type_symbol
_atom_site_label
_atom_site_fract_x
_atom_site_fract_y
_atom_site_fract_z
Si Si1 0.318241 0.806522 0.941570
Si Si2 0.059862 0.756218 0.314580
Si Si3 0.719678 0.497860 0.737966
Si Si4 0.000000 0.500000 0.527469
Si Si5 0.800126 0.588639 0.594397
O O1 0.251200 0.555496 0.950489
O O2 0.355859 0.800029 0.868329
O O3 0.425581 0.836986 0.981710
O O4 0.111530 0.860506 0.249403
O O5 0.000000 0.500000 0.304186
O O6 0.000000 0.000000 0.339764
O O7 0.708572 0.776994 0.765963
O O8 0.765945 0.559815 0.668310
O O9 0.917715 0.633819 0.574549
O O10 0.734170 0.818770 0.569006
#
# Coordination Sequence:
#
# PCOD9376893 Si02
#       5
#     8   8   8   4   8
#     4  12  27  46  75 110 154 197 249 317 382 454
#     4  12  24  44  73 112 148 201 255 309 388 467
#     4  10  21  44  68  99 147 188 240 312 376 433
#     4  12  26  48  78 108 150 200 258 304 382 472
#     4  10  24  47  70 105 144 194 247 309 374 439
#
# _framework density 24.702677000000001
#
# number of rings (size 3 to 8) (size 9 to 14) (size 15 to 20)
#    0.000    0.889    1.111    5.333    0.000    2.667 
#   24.000    0.000    0.000    0.000    0.000    0.000 
#    0.000    0.000    0.000    0.000    0.000    0.000 
#
# Total GULP energy -100349.842849 kJ/mol
# GULP energy per Si atom -5574.991269 kJ/mol
# Density = 2.464645 g / cm^3
# Si number density = 24.702677 Si / 1000 Ang^3
#
#
#
# Elastic Constant Matrix: (Units=GPa)
#
#
# Indices 1 2 3 4 5 6 
#
# 1 157.0191 87.7050 77.7011 0.0000 0.0000 0.0000
# 2 87.7050 245.2740 47.3700 0.0000 0.0000 0.0000
# 3 77.7011 47.3700 125.5718 0.0000 0.0000 0.0000
# 4 0.0000 0.0000 0.0000 29.2729 0.0000 0.0000
# 5 0.0000 0.0000 0.0000 0.0000 54.0540 0.0000
# 6 0.0000 0.0000 0.0000 0.0000 0.0000 53.8169
#
#
#
# Elastic Compliance Matrix: (Units=1/GPa)
#
#
# Indices 1 2 3 4 5 6 
#
# 1 0.010645 -0.002733 -0.005555 0.000000 0.000000 0.000000
# 2 -0.002733 0.005099 -0.000232 0.000000 0.000000 0.000000
# 3 -0.005555 -0.000232 0.011489 0.000000 0.000000 0.000000
# 4 0.000000 0.000000 0.000000 0.034161 0.000000 0.000000
# 5 0.000000 0.000000 0.000000 0.000000 0.018500 0.000000
# 6 0.000000 0.000000 0.000000 0.000000 0.000000 0.018582
#
#
# Mechanical properties :
#
#
# Convention : Reuss Voigt Hill
#
# Bulk Modulus (GPa) = 98.13159 105.93524 102.03341
# Shear Modulus (GPa) = 42.04698 48.43468 45.24083
#
# Velocity S-wave (km/s) = 4.13015 4.43279 4.28415
# Velocity P-wave (km/s) = 7.90921 8.31725 8.11580
#
# Compressibility (1/GPa) = 0.01019040
#
# Stress axis : x y z
#
# Youngs Moduli (GPa) = 93.94501 196.10449 87.04114
#
# Poissons Ratio (x) = 0.53602 0.48356
# Poissons Ratio (y) = 0.25678 0.02022
# Poissons Ratio (z) = 0.52191 0.04556
#
# Static dielectric constant tensor:
#      x y z
#    x 1.998380 0.000000 0.000000 
#    y 0.000000 2.059310 0.000000 
#    z 0.000000 0.000000 2.188850 
# 
# From -- ./inp_files/9387.got.cif
#   From: 2010.05.17/outbox.cif.g08.bks.cpg/sg45_5_cif.got.tgz:9387.got - 2010.06.03 19:51:22.
