data_PCOD9376667
_publ_section_title
;
Structure prediction by ZEFSAII (Michael W. Deem and Ramdas Pophale) SiO2 
 PCOD9376667
Probable space group: I B A 2
;
_chemical_formula_sum "Si O2"
_cell_formula_units_Z 56
_cell_length_a 20.285419
_cell_length_b 9.929384
_cell_length_c 13.766173
_cell_angle_alpha 90.000000
_cell_angle_beta 90.000000
_cell_angle_gamma 90.000000
_cell_volume 2772.806173
_symmetry_space_group_name_H-M "I B A 2"
_symmetry_group_IT_number 45
_symmetry_cell_setting 'orthorhombic'
loop_
_space_group_symop_operation_xyz
x,y,z
-x,-y,z
-x,y,1/2+z
x,-y,1/2+z
1/2+x,1/2+y,1/2+z
1/2-x,1/2-y,1/2+z
1/2-x,1/2+y,z
1/2+x,1/2-y,z
loop_
_atom_site_type_symbol
_atom_site_label
_atom_site_fract_x
_atom_site_fract_y
_atom_site_fract_z
Si Si1 0.891230 0.914334 0.791490
Si Si2 0.810141 0.827361 0.355983
Si Si3 0.728015 0.727039 0.180001
Si Si4 0.549414 0.350120 0.593118
Si Si5 0.907535 0.881784 0.004716
Si Si6 0.859099 0.633083 0.521198
Si Si7 0.194486 0.355983 0.011149
O O1 0.828677 0.834020 0.748155
O O2 0.941560 0.898780 0.703303
O O3 0.861552 0.056430 0.827095
O O4 0.921362 0.859680 0.890948
O O5 0.781538 0.782732 0.253152
O O6 0.841957 0.708823 0.420477
O O7 0.746417 0.868552 0.422247
O O8 0.763116 0.622364 0.108503
O O9 0.696223 0.828657 0.101812
O O10 0.473622 0.347458 0.563004
O O11 0.595338 0.458872 0.533317
O O12 0.577829 0.204245 0.567886
O O13 0.843388 0.788073 0.021111
O O14 0.858542 0.474702 0.504129
#
# Coordination Sequence:
#
# PCOD9376667 Si02
#       7
#     8   8   8   8   8   8   8
#     4  11  21  40  66  93 124 170 219 268 318 396
#     4  11  20  36  65  93 130 164 209 267 336 397
#     4  10  21  36  60  94 131 163 206 262 334 400
#     4  10  24  43  65  89 126 175 229 272 314 384
#     4  11  23  43  66  91 125 175 221 271 323 388
#     4  10  22  38  59  92 129 165 213 267 329 387
#     4  11  23  37  64  98 133 167 209 272 343 399
#
# _framework density 20.196147
#
# number of rings (size 3 to 8) (size 9 to 14) (size 15 to 20)
#    0.000    1.429    2.857    2.571    2.000    2.857 
#    2.571    0.000    0.000    1.714    0.000    0.000 
#    0.000    0.000    0.000    0.000    0.000    0.000 
#
# Total GULP energy -156055.044753 kJ/mol
# GULP energy per Si atom -5573.394455 kJ/mol
# Density = 2.015018 g / cm^3
# Si number density = 20.196147 Si / 1000 Ang^3
#
#
#
# Elastic Constant Matrix: (Units=GPa)
#
#
# Indices 1 2 3 4 5 6 
#
# 1 49.2294 -4.4092 20.9961 0.0000 0.0000 0.0000
# 2 -4.4092 23.8104 -16.6635 0.0000 0.0000 0.0000
# 3 20.9961 -16.6635 130.5169 0.0000 0.0000 0.0000
# 4 0.0000 0.0000 0.0000 8.5284 0.0000 0.0000
# 5 0.0000 0.0000 0.0000 0.0000 32.8401 0.0000
# 6 0.0000 0.0000 0.0000 0.0000 0.0000 23.5845
#
#
#
# Elastic Compliance Matrix: (Units=1/GPa)
#
#
# Indices 1 2 3 4 5 6 
#
# 1 0.021875 0.001744 -0.003296 0.000000 0.000000 0.000000
# 2 0.001744 0.046258 0.005625 0.000000 0.000000 0.000000
# 3 -0.003296 0.005625 0.008910 0.000000 0.000000 0.000000
# 4 0.000000 0.000000 0.000000 0.117256 0.000000 0.000000
# 5 0.000000 0.000000 0.000000 0.000000 0.030451 0.000000
# 6 0.000000 0.000000 0.000000 0.000000 0.000000 0.042401
#
#
# Mechanical properties :
#
#
# Convention : Reuss Voigt Hill
#
# Bulk Modulus (GPa) = 11.73849 22.60036 17.16943
# Shear Modulus (GPa) = 17.39727 26.56616 21.98172
#
# Velocity S-wave (km/s) = 2.93817 3.63079 3.30269
# Velocity P-wave (km/s) = 4.16357 5.36578 4.80244
#
# Compressibility (1/GPa) = 0.08518985
#
# Stress axis : x y z
#
# Youngs Moduli (GPa) = 45.71399 21.61770 112.22911
#
# Poissons Ratio (x) = -0.03770 0.36995
# Poissons Ratio (y) = -0.07972 -0.63134
# Poissons Ratio (z) = 0.15069 -0.12161
#
# Static dielectric constant tensor:
#      x y z
#    x 1.737560 0.000000 0.000000 
#    y 0.000000 1.771910 0.000000 
#    z 0.000000 0.000000 1.739160 
# 
# From -- ./inp_files/4636.got.cif
#   From: 2010.05.17/outbox.cif.g08.bks.cpg/sg45_3_cif.got.tgz:4636.got - 2010.06.03 19:51:22.
