data_PCOD9376593
_publ_section_title
;
Structure prediction by ZEFSAII (Michael W. Deem and Ramdas Pophale) SiO2 
 PCOD9376593
Probable space group: I B A 2
;
_chemical_formula_sum "Si O2"
_cell_formula_units_Z 52
_cell_length_a 10.285439
_cell_length_b 17.910891
_cell_length_c 14.049655
_cell_angle_alpha 90.000000
_cell_angle_beta 90.000000
_cell_angle_gamma 90.000000
_cell_volume 2588.246788
_symmetry_space_group_name_H-M "I B A 2"
_symmetry_group_IT_number 45
_symmetry_cell_setting 'orthorhombic'
loop_
_space_group_symop_operation_xyz
x,y,z
-x,-y,z
-x,y,1/2+z
x,-y,1/2+z
1/2+x,1/2+y,1/2+z
1/2-x,1/2-y,1/2+z
1/2-x,1/2+y,z
1/2+x,1/2-y,z
loop_
_atom_site_type_symbol
_atom_site_label
_atom_site_fract_x
_atom_site_fract_y
_atom_site_fract_z
Si Si1 0.649431 0.817099 0.750000
Si Si2 0.000000 0.000000 0.259033
Si Si3 0.113636 0.555111 0.115337
Si Si4 0.192391 0.921863 0.116031
Si Si5 0.192392 0.078135 0.402037
Si Si6 0.850566 0.317101 0.268068
Si Si7 0.386366 0.055113 0.902733
O O1 0.701920 0.863279 0.658172
O O2 0.749997 0.749998 0.759036
O O3 0.499998 0.789470 0.759032
O O4 0.649489 0.877860 0.834444
O O5 0.918658 0.943212 0.326553
O O6 0.081340 0.943211 0.191514
O O7 0.235032 0.500784 0.108348
O O8 0.149495 0.622138 0.183625
O O9 0.000000 0.500000 0.151341
O O10 0.075101 0.580613 0.009035
O O11 0.149238 0.899864 0.009034
O O12 0.298084 0.136718 0.359897
O O13 0.264966 0.999213 0.409720
O O14 0.500000 0.000000 0.866730
#
# Coordination Sequence:
#
# PCOD9376593 Si02
#       7
#     8   4   8   8   8   8   8
#     4  12  26  42  66 100 147 190 231 295 370 440
#     4  12  22  40  70 102 136 168 234 312 376 414
#     4  10  20  41  73  99 122 176 247 298 343 423
#     4  11  24  42  69 100 135 182 243 303 359 430
#     4  11  24  42  69 100 135 182 243 303 359 430
#     4  12  26  42  66 100 147 190 231 295 370 440
#     4  10  20  41  73  99 122 176 247 298 343 423
#
# _framework density 20.090820999999998
#
# number of rings (size 3 to 8) (size 9 to 14) (size 15 to 20)
#    0.000    0.923    6.154    0.462    2.154    1.231 
#    0.000    0.000    0.000    0.000    0.000    0.000 
#    0.000    0.000    0.000    0.000    0.000    0.000 
#
# Total GULP energy -144939.543238 kJ/mol
# GULP energy per Si atom -5574.597817 kJ/mol
# Density = 2.004509 g / cm^3
# Si number density = 20.090821 Si / 1000 Ang^3
#
#
#
# Elastic Constant Matrix: (Units=GPa)
#
#
# Indices 1 2 3 4 5 6 
#
# 1 132.6472 48.6375 66.7853 0.0000 0.0000 0.0000
# 2 48.6375 107.7621 51.2800 0.0000 0.0000 0.0000
# 3 66.7853 51.2800 161.2192 0.0000 0.0000 0.0000
# 4 0.0000 0.0000 0.0000 -4.4217 0.0000 0.0000
# 5 0.0000 0.0000 0.0000 0.0000 11.7678 0.0000
# 6 0.0000 0.0000 0.0000 0.0000 0.0000 49.7900
#
#
#
# Elastic Compliance Matrix: (Units=1/GPa)
#
#
# Indices 1 2 3 4 5 6 
#
# 1 0.010333 -0.003095 -0.003296 0.000000 0.000000 0.000000
# 2 -0.003095 0.011862 -0.002491 0.000000 0.000000 0.000000
# 3 -0.003296 -0.002491 0.008360 0.000000 0.000000 0.000000
# 4 0.000000 0.000000 0.000000 -0.226156 0.000000 0.000000
# 5 0.000000 0.000000 0.000000 0.000000 0.084977 0.000000
# 6 0.000000 0.000000 0.000000 0.000000 0.000000 0.020084
#
#
# Mechanical properties :
#
#
# Convention : Reuss Voigt Hill
#
# Bulk Modulus (GPa) = 78.17779 81.67046 79.92412
# Shear Modulus (GPa) = -72.98150 27.08893 -22.94629
#
# Velocity S-wave (km/s) = -6.03363 3.67594 -3.38320
# Velocity P-wave (km/s) = 3.08915 7.66522 4.96048
#
# Compressibility (1/GPa) = 0.01279136
#
# Stress axis : x y z
#
# Youngs Moduli (GPa) = 96.77505 84.30259 119.61201
#
# Poissons Ratio (x) = 0.26095 0.39424
# Poissons Ratio (y) = 0.29955 0.29793
# Poissons Ratio (z) = 0.31897 0.20998
#
# Static dielectric constant tensor:
#      x y z
#    x 1.777380 0.000000 0.000000 
#    y 0.000000 1.668780 0.000000 
#    z 0.000000 0.000000 1.823230 
# 
# From -- ./inp_files/6241.got.cif
#   From: 2010.05.17/outbox.cif.g08.bks.cpg/sg45_4_cif.got.tgz:6241.got - 2010.06.03 19:51:22.
