data_PCOD9376802
_publ_section_title
;
Structure prediction by ZEFSAII (Michael W. Deem and Ramdas Pophale) SiO2 
 PCOD9376802
Probable space group: I B A 2
;
_chemical_formula_sum "Si O2"
_cell_formula_units_Z 56
_cell_length_a 6.171620
_cell_length_b 28.762115
_cell_length_c 13.977867
_cell_angle_alpha 90.000000
_cell_angle_beta 90.000000
_cell_angle_gamma 90.000000
_cell_volume 2481.195015
_symmetry_space_group_name_H-M "I B A 2"
_symmetry_group_IT_number 45
_symmetry_cell_setting 'orthorhombic'
loop_
_space_group_symop_operation_xyz
x,y,z
-x,-y,z
-x,y,1/2+z
x,-y,1/2+z
1/2+x,1/2+y,1/2+z
1/2-x,1/2-y,1/2+z
1/2-x,1/2+y,z
1/2+x,1/2-y,z
loop_
_atom_site_type_symbol
_atom_site_label
_atom_site_fract_x
_atom_site_fract_y
_atom_site_fract_z
Si Si1 0.897603 0.333964 0.344030
Si Si2 0.513152 0.358239 0.218098
Si Si3 0.075426 0.756383 0.225461
Si Si4 0.199304 0.125500 0.522307
Si Si5 0.887823 0.951419 0.990877
Si Si6 0.968749 0.554098 0.623888
Si Si7 0.320414 0.079824 0.813785
O O1 0.756424 0.355606 0.255937
O O2 0.939245 0.281953 0.309243
O O3 0.781336 0.337174 0.446469
O O4 0.087030 0.371641 0.353375
O O5 0.420122 0.309513 0.259865
O O6 0.445648 0.353762 0.107305
O O7 0.394664 0.403908 0.257649
O O8 0.323399 0.748226 0.180226
O O9 0.383326 0.092965 0.571405
O O10 0.057038 0.088374 0.464482
O O11 0.723013 0.953123 0.902990
O O12 0.772612 0.936153 0.088641
O O13 0.000000 0.000000 0.006072
O O14 0.000000 0.500000 0.593701
O O15 0.024449 0.557601 0.734864
#
# Coordination Sequence:
#
# PCOD9376802 Si02
#       7
#     8   8   8   8   8   8   8
#     4  11  21  41  70  93 135 177 228 287 355 428
#     4  10  22  42  64  96 136 176 231 283 355 424
#     4  10  21  40  68  97 136 180 226 293 356 422
#     4  11  23  41  66  98 128 186 227 283 357 424
#     4  12  24  43  68  98 139 180 239 296 354 428
#     4  11  24  42  63  93 135 175 231 294 346 417
#     4  11  23  41  67  95 131 183 229 283 362 424
#
# _framework density 22.569769999999998
#
# number of rings (size 3 to 8) (size 9 to 14) (size 15 to 20)
#    0.000    1.143    5.714    0.857    0.000    1.714 
#    5.143    5.714    0.000    0.000    0.000    0.000 
#    0.000    0.000    0.000    0.000    0.000    0.000 
#
# Total GULP energy -156011.670514 kJ/mol
# GULP energy per Si atom -5571.845376 kJ/mol
# Density = 2.251840 g / cm^3
# Si number density = 22.569770 Si / 1000 Ang^3
#
#
#
# Elastic Constant Matrix: (Units=GPa)
#
#
# Indices 1 2 3 4 5 6 
#
# 1 79.7008 18.3357 25.4344 0.0000 0.0000 0.0000
# 2 18.3357 70.6870 8.4667 0.0000 0.0000 0.0000
# 3 25.4344 8.4667 97.7171 -0.0001 0.0000 0.0000
# 4 0.0000 0.0000 -0.0001 16.5939 0.0000 0.0000
# 5 0.0000 0.0000 0.0000 0.0000 22.8539 0.0000
# 6 0.0000 0.0000 0.0000 0.0000 0.0000 32.8473
#
#
#
# Elastic Compliance Matrix: (Units=1/GPa)
#
#
# Indices 1 2 3 4 5 6 
#
# 1 0.014417 -0.003325 -0.003465 0.000000 0.000000 0.000000
# 2 -0.003325 0.015062 -0.000440 0.000000 0.000000 0.000000
# 3 -0.003465 -0.000440 0.011173 0.000000 0.000000 0.000000
# 4 0.000000 0.000000 0.000000 0.060263 0.000000 0.000000
# 5 0.000000 0.000000 0.000000 0.000000 0.043756 0.000000
# 6 0.000000 0.000000 0.000000 0.000000 0.000000 0.030444
#
#
# Mechanical properties :
#
#
# Convention : Reuss Voigt Hill
#
# Bulk Modulus (GPa) = 38.17546 39.17540 38.67543
# Shear Modulus (GPa) = 25.21357 27.51689 26.36523
#
# Velocity S-wave (km/s) = 3.34599 3.49548 3.42155
# Velocity P-wave (km/s) = 5.64612 5.80399 5.72560
#
# Compressibility (1/GPa) = 0.02619484
#
# Stress axis : x y z
#
# Youngs Moduli (GPa) = 69.36037 66.39238 89.49750
#
# Poissons Ratio (x) = 0.22074 0.31007
# Poissons Ratio (y) = 0.23061 0.03935
# Poissons Ratio (z) = 0.24030 0.02919
#
# Static dielectric constant tensor:
#      x y z
#    x 2.039180 0.000000 0.000000 
#    y 0.000000 1.822730 0.000000 
#    z 0.000000 0.000000 1.838920 
# 
# From -- ./inp_files/5249.got.cif
#   From: 2010.05.17/outbox.cif.g08.bks.cpg/sg45_3_cif.got.tgz:5249.got - 2010.06.03 19:51:22.
