data_PCOD9376036
_publ_section_title
;
Structure prediction by ZEFSAII (Michael W. Deem and Ramdas Pophale) SiO2 
 PCOD9376036
Probable space group: I M M 2
;
_chemical_formula_sum "Si O2"
_cell_formula_units_Z 24
_cell_length_a 9.000000
_cell_length_b 18.000000
_cell_length_c 15.000000
_cell_angle_alpha 90.000000
_cell_angle_beta 90.000000
_cell_angle_gamma 90.000000
_cell_volume 2430.000000
_symmetry_space_group_name_H-M "I M M 2"
_symmetry_group_IT_number 44
_symmetry_cell_setting 'orthorhombic'
loop_
_space_group_symop_operation_xyz
x,y,z
-x,-y,z
-x,y,z
x,-y,z
1/2+x,1/2+y,1/2+z
1/2-x,1/2-y,1/2+z
1/2-x,1/2+y,1/2+z
1/2+x,1/2-y,1/2+z
loop_
_atom_site_type_symbol
_atom_site_label
_atom_site_fract_x
_atom_site_fract_y
_atom_site_fract_z
Si Si1 0.327860 0.271350 0.245930
Si Si2 0.821307 0.345380 0.081786
Si Si3 0.678086 0.767812 0.937168
Si Si4 0.172600 0.000000 0.315076
Si Si5 0.828925 0.394624 0.685581
Si Si6 0.673918 0.500000 0.027963
Si Si7 0.824588 0.083137 0.001453
O O1 0.500000 0.295114 0.259996
O O2 0.237720 0.324895 0.180364
O O3 0.246520 0.256359 0.339209
O O4 0.330480 0.193341 0.194306
O O5 0.758114 0.426433 0.059427
O O6 0.000000 0.342012 0.077586
O O7 0.752112 0.287548 0.009528
O O8 0.500000 0.758422 0.938716
O O9 0.725322 0.852112 0.960202
O O10 0.259822 0.069637 0.273913
O O11 0.176170 0.000000 0.420761
O O12 0.000000 0.000000 0.286533
O O13 0.724680 0.417868 0.604449
O O14 0.000000 0.418035 0.672138
O O15 0.500000 0.500000 0.056065
O O16 0.000000 0.100541 0.993514
O O17 0.799913 0.000000 0.964592
#
# Coordination Sequence:
#
# PCOD9376036 Si02
#       7
#     8   8   8   4   8   4   8
#     4  11  24  43  67  96 128 170 221 271 329 389
#     4  12  25  44  70  98 133 174 220 273 331 394
#     4  12  25  43  68  98 132 173 221 272 328 390
#     4  11  23  37  59  92 129 168 211 263 325 388
#     4  11  22  36  61  92 127 165 208 262 323 385
#     4  11  25  45  67  94 131 172 219 273 329 388
#     4  11  23  40  64  93 129 169 212 263 325 386
#
# _framework density 9.8765429999999999
#
# number of rings (size 3 to 8) (size 9 to 14) (size 15 to 20)
#    0.000    0.667    2.500    6.000    0.000    7.000 
#    1.500    0.000    0.000    0.000    0.000    0.000 
#    0.000    0.000    0.000    0.000    0.000    0.000 
#
# Total GULP energy -134180.598524 kJ/mol
# GULP energy per Si atom -5590.858272 kJ/mol
# Density = 0.985406 g / cm^3
# Si number density = 9.876543 Si / 1000 Ang^3
#
#
#
# Elastic Constant Matrix: (Units=GPa)
#
#
# Indices 1 2 3 4 5 6 
#
# 1 173.8131 40.4261 27.5603 0.0000 0.0000 0.0000
# 2 40.4261 99.7374 15.8782 0.0000 0.0000 0.0000
# 3 27.5603 15.8782 60.9154 0.0000 0.0000 0.0000
# 4 0.0000 0.0000 0.0000 31.8501 0.0000 0.0000
# 5 0.0000 0.0000 0.0000 0.0000 34.6621 0.0000
# 6 0.0000 0.0000 0.0000 0.0000 0.0000 38.0120
#
#
#
# Elastic Compliance Matrix: (Units=1/GPa)
#
#
# Indices 1 2 3 4 5 6 
#
# 1 0.006676 -0.002322 -0.002415 0.000000 0.000000 0.000000
# 2 -0.002322 0.011268 -0.001887 0.000000 0.000000 0.000000
# 3 -0.002415 -0.001887 0.018001 0.000000 0.000000 0.000000
# 4 0.000000 0.000000 0.000000 0.031397 0.000000 0.000000
# 5 0.000000 0.000000 0.000000 0.000000 0.028850 0.000000
# 6 0.000000 0.000000 0.000000 0.000000 0.000000 0.026307
#
#
# Mechanical properties :
#
#
# Convention : Reuss Voigt Hill
#
# Bulk Modulus (GPa) = 44.05786 55.79948 49.92867
# Shear Modulus (GPa) = 34.88881 37.61159 36.25020
#
# Velocity S-wave (km/s) = 4.20723 4.36832 4.28853
# Velocity P-wave (km/s) = 6.77892 7.33163 7.06068
#
# Compressibility (1/GPa) = 0.02269743
#
# Stress axis : x y z
#
# Youngs Moduli (GPa) = 149.78462 88.74960 55.55294
#
# Poissons Ratio (x) = 0.20603 0.13419
# Poissons Ratio (y) = 0.34773 0.10481
# Poissons Ratio (z) = 0.36180 0.16744
#
# Static dielectric constant tensor:
#      x y z
#    x 1.662780 0.000000 0.000000 
#    y 0.000000 1.742230 0.000000 
#    z 0.000000 0.000000 1.700690 
# 
# From -- ./inp_files/16190.got.cif
#   From: 2010.05.17/outbox.ucp.g08.bks.cvg/sg44_9_cif.got.tgz:16190.got - 2010.06.11 16:32:36.
