data_PCOD9376605
_publ_section_title
;
Structure prediction by ZEFSAII (Michael W. Deem and Ramdas Pophale) SiO2 
 PCOD9376605
Probable space group: I B A 2
;
_chemical_formula_sum "Si O2"
_cell_formula_units_Z 48
_cell_length_a 9.955725
_cell_length_b 8.927989
_cell_length_c 21.201761
_cell_angle_alpha 90.000000
_cell_angle_beta 90.000000
_cell_angle_gamma 90.000000
_cell_volume 1884.510115
_symmetry_space_group_name_H-M "I B A 2"
_symmetry_group_IT_number 45
_symmetry_cell_setting 'orthorhombic'
loop_
_space_group_symop_operation_xyz
x,y,z
-x,-y,z
-x,y,1/2+z
x,-y,1/2+z
1/2+x,1/2+y,1/2+z
1/2-x,1/2-y,1/2+z
1/2-x,1/2+y,z
1/2+x,1/2-y,z
loop_
_atom_site_type_symbol
_atom_site_label
_atom_site_fract_x
_atom_site_fract_y
_atom_site_fract_z
Si Si1 0.500000 0.500000 0.600131
Si Si2 0.500000 0.500000 0.303941
Si Si3 0.279121 0.894017 0.143372
Si Si4 0.371725 0.240883 0.358179
Si Si5 0.850814 0.196741 0.020298
Si Si6 0.753359 0.382522 0.230108
Si Si7 0.199764 0.529230 0.937386
O O1 0.631168 0.474671 0.640887
O O2 0.486392 0.644363 0.555016
O O3 0.495071 0.351500 0.346477
O O4 0.634782 0.479993 0.263080
O O5 0.267828 0.826684 0.073057
O O6 0.299433 0.761607 0.192450
O O7 0.348180 0.033931 0.178179
O O8 0.335855 0.174235 0.290371
O O9 0.260190 0.355073 0.386388
O O10 0.387730 0.102024 0.405420
O O11 0.855497 0.361677 0.992057
O O12 0.817337 0.070543 0.968949
#
# Coordination Sequence:
#
# PCOD9376605 Si02
#       7
#     4   4   8   8   8   8   8
#     4   8  21  37  68 106 134 187 237 286 370 422
#     4  12  25  43  74 102 142 195 243 300 384 434
#     4  10  21  39  69  99 144 182 237 300 360 433
#     4  11  23  42  70 102 142 194 240 305 372 429
#     4   9  20  38  68  99 134 190 230 296 366 426
#     4  12  22  42  70 101 141 190 239 301 366 437
#     4  10  20  42  69  96 144 185 235 304 367 430
#
# _framework density 25.470811999999999
#
# number of rings (size 3 to 8) (size 9 to 14) (size 15 to 20)
#    1.000    0.667    3.333    1.500    0.000    0.667 
#    0.000    3.333    3.667    4.000    0.000    0.000 
#    0.000    0.000    0.000    0.000    0.000    0.000 
#
# Total GULP energy -133719.512022 kJ/mol
# GULP energy per Si atom -5571.646334 kJ/mol
# Density = 2.541284 g / cm^3
# Si number density = 25.470812 Si / 1000 Ang^3
#
#
#
# Elastic Constant Matrix: (Units=GPa)
#
#
# Indices 1 2 3 4 5 6 
#
# 1 59.3990 19.3344 12.5899 0.0000 0.0000 0.0000
# 2 19.3344 161.4682 52.3502 0.0000 0.0000 0.0000
# 3 12.5899 52.3502 128.3679 0.0000 0.0000 0.0000
# 4 0.0000 0.0000 0.0000 63.3056 0.0000 0.0000
# 5 0.0000 0.0000 0.0000 0.0000 2.3446 0.0000
# 6 0.0000 0.0000 0.0000 0.0000 0.0000 46.5828
#
#
#
# Elastic Compliance Matrix: (Units=1/GPa)
#
#
# Indices 1 2 3 4 5 6 
#
# 1 0.017629 -0.001787 -0.001000 0.000000 0.000000 0.000000
# 2 -0.001787 0.007318 -0.002809 0.000000 0.000000 0.000000
# 3 -0.001000 -0.002809 0.009034 0.000000 0.000000 0.000000
# 4 0.000000 0.000000 0.000000 0.015796 0.000000 0.000000
# 5 0.000000 0.000000 0.000000 0.000000 0.426515 0.000000
# 6 0.000000 0.000000 0.000000 0.000000 0.000000 0.021467
#
#
# Mechanical properties :
#
#
# Convention : Reuss Voigt Hill
#
# Bulk Modulus (GPa) = 43.88196 57.53158 50.70677
# Shear Modulus (GPa) = 9.67966 40.11064 24.89515
#
# Velocity S-wave (km/s) = 1.95155 3.97264 3.12973
# Velocity P-wave (km/s) = 4.72692 6.60899 5.74555
#
# Compressibility (1/GPa) = 0.02278841
#
# Stress axis : x y z
#
# Youngs Moduli (GPa) = 56.72514 136.65227 110.69524
#
# Poissons Ratio (x) = 0.24414 0.11074
# Poissons Ratio (y) = 0.10134 0.31095
# Poissons Ratio (z) = 0.05675 0.38387
#
# Static dielectric constant tensor:
#      x y z
#    x 2.074700 0.000000 0.000000 
#    y 0.000000 2.058870 0.000000 
#    z 0.000000 0.000000 2.092610 
# 
# From -- ./inp_files/9678.got.cif
#   From: 2010.05.17/outbox.cif.g08.bks.cpg/sg45_5_cif.got.tgz:9678.got - 2010.06.03 19:51:22.
