data_PCOD9376205
_publ_section_title
;
Structure prediction by ZEFSAII (Michael W. Deem and Ramdas Pophale) SiO2 
 PCOD9376205
Probable space group: I B A 2
;
_chemical_formula_sum "Si O2"
_cell_formula_units_Z 64
_cell_length_a 19.580265
_cell_length_b 23.042183
_cell_length_c 6.908067
_cell_angle_alpha 90.000000
_cell_angle_beta 90.000000
_cell_angle_gamma 90.000000
_cell_volume 3116.726745
_symmetry_space_group_name_H-M "I B A 2"
_symmetry_group_IT_number 45
_symmetry_cell_setting 'orthorhombic'
loop_
_space_group_symop_operation_xyz
x,y,z
-x,-y,z
-x,y,1/2+z
x,-y,1/2+z
1/2+x,1/2+y,1/2+z
1/2-x,1/2-y,1/2+z
1/2-x,1/2+y,z
1/2+x,1/2-y,z
loop_
_atom_site_type_symbol
_atom_site_label
_atom_site_fract_x
_atom_site_fract_y
_atom_site_fract_z
Si Si1 0.150263 0.572147 0.353510
Si Si2 0.621289 0.721913 0.688346
Si Si3 0.625584 0.936716 0.905549
Si Si4 0.989228 0.630967 0.923261
Si Si5 0.748962 0.660317 0.759173
Si Si6 0.212593 0.334194 0.298646
Si Si7 0.984367 0.722997 0.669570
Si Si8 0.341248 0.730270 0.761380
O O1 0.142969 0.504080 0.389125
O O2 0.139737 0.579559 0.125170
O O3 0.086227 0.605025 0.447638
O O4 0.222896 0.604122 0.369241
O O5 0.669828 0.675026 0.788346
O O6 0.656287 0.784258 0.749170
O O7 0.541199 0.728187 0.709948
O O8 0.629301 0.708244 0.462053
O O9 0.546824 0.918396 0.884671
O O10 0.674848 0.895946 0.776311
O O11 0.012678 0.648984 0.167482
O O12 0.987719 0.704819 0.927138
O O13 0.764570 0.664370 0.525828
O O14 0.797138 0.713436 0.822510
O O15 0.282512 0.314407 0.192509
O O16 0.906940 0.746948 0.642637
#
# Coordination Sequence:
#
# PCOD9376205 Si02
#       8
#     8   8   8   8   8   8   8   8
#     4  11  23  36  51  71 102 139 178 214 253 300
#     4  10  19  30  52  73  98 131 166 208 263 311
#     4  11  23  35  50  71 101 141 177 214 251 300
#     4  12  22  34  50  73 107 136 174 207 250 307
#     4   9  18  35  49  71  97 130 169 214 257 306
#     4   9  19  34  51  70  96 132 171 213 255 307
#     4  12  20  32  52  75 103 135 165 207 254 312
#     4  10  19  32  50  74 101 128 165 209 265 309
#
# _framework density 20.534362999999999
#
# number of rings (size 3 to 8) (size 9 to 14) (size 15 to 20)
#    0.000    1.500    5.000    1.125    1.750    2.000 
#    0.000    0.000    0.000    0.000    0.000    0.875 
#    0.000    6.000    0.000    0.000    0.000    0.000 
#
# Total GULP energy -178200.556762 kJ/mol
# GULP energy per Si atom -5568.767399 kJ/mol
# Density = 2.048763 g / cm^3
# Si number density = 20.534363 Si / 1000 Ang^3
#
#
#
# Elastic Constant Matrix: (Units=GPa)
#
#
# Indices 1 2 3 4 5 6 
#
# 1 156.0389 88.6476 16.2541 0.0000 0.0000 0.0000
# 2 88.6476 102.9587 13.3778 0.0000 0.0000 0.0000
# 3 16.2541 13.3778 93.1658 0.0000 0.0000 0.0000
# 4 0.0000 0.0000 0.0000 25.0442 0.0000 0.0000
# 5 0.0000 0.0000 0.0000 0.0000 33.6257 0.0000
# 6 0.0000 0.0000 0.0000 0.0000 0.0000 -96.3713
#
#
#
# Elastic Compliance Matrix: (Units=1/GPa)
#
#
# Indices 1 2 3 4 5 6 
#
# 1 0.012584 -0.010750 -0.000652 0.000000 0.000000 0.000000
# 2 -0.010750 0.019081 -0.000864 0.000000 0.000000 0.000000
# 3 -0.000652 -0.000864 0.010971 0.000000 0.000000 0.000000
# 4 0.000000 0.000000 0.000000 0.039929 0.000000 0.000000
# 5 0.000000 0.000000 0.000000 0.000000 0.029739 0.000000
# 6 0.000000 0.000000 0.000000 0.000000 0.000000 -0.010377
#
#
# Mechanical properties :
#
#
# Convention : Reuss Voigt Hill
#
# Bulk Modulus (GPa) = 55.23763 65.41360 60.32562
# Shear Modulus (GPa) = 37.73744 8.05198 22.89471
#
# Velocity S-wave (km/s) = 4.29157 1.98236 3.34270
# Velocity P-wave (km/s) = 7.17742 6.09627 6.65882
#
# Compressibility (1/GPa) = 0.01810360
#
# Stress axis : x y z
#
# Youngs Moduli (GPa) = 79.46772 52.40910 91.14623
#
# Poissons Ratio (x) = 0.56339 0.05941
# Poissons Ratio (y) = 0.85427 0.07878
# Poissons Ratio (z) = 0.05180 0.04530
#
# Static dielectric constant tensor:
#      x y z
#    x 1.719310 0.000000 0.000000 
#    y 0.000000 1.780140 0.000000 
#    z 0.000000 0.000000 2.251200 
# 
# From -- ./inp_files/2234.got.cif
#   From: 2010.05.17/outbox.cif.g08.bks.cpg/sg45_2_cif.got.tgz:2234.got - 2010.06.03 19:51:22.
