data_PCOD9376109
_publ_section_title
;
Structure prediction by ZEFSAII (Michael W. Deem and Ramdas Pophale) SiO2 
 PCOD9376109
Probable space group: I B A 2
;
_chemical_formula_sum "Si O2"
_cell_formula_units_Z 60
_cell_length_a 14.180753
_cell_length_b 16.150137
_cell_length_c 14.164447
_cell_angle_alpha 90.000000
_cell_angle_beta 90.000000
_cell_angle_gamma 90.000000
_cell_volume 3243.957285
_symmetry_space_group_name_H-M "I B A 2"
_symmetry_group_IT_number 45
_symmetry_cell_setting 'orthorhombic'
loop_
_space_group_symop_operation_xyz
x,y,z
-x,-y,z
-x,y,1/2+z
x,-y,1/2+z
1/2+x,1/2+y,1/2+z
1/2-x,1/2-y,1/2+z
1/2-x,1/2+y,z
1/2+x,1/2-y,z
loop_
_atom_site_type_symbol
_atom_site_label
_atom_site_fract_x
_atom_site_fract_y
_atom_site_fract_z
Si Si1 0.657064 0.948266 0.634850
Si Si2 0.193066 0.000001 0.493327
Si Si3 0.110376 0.179600 0.491206
Si Si4 0.242244 0.736779 0.637112
Si Si5 0.389623 0.320401 0.495451
Si Si6 0.500000 0.000000 0.993328
Si Si7 0.742244 0.236778 0.349545
Si Si8 0.657065 0.948267 0.851805
O O1 0.699354 0.855918 0.636371
O O2 0.567812 0.950129 0.564748
O O3 0.636788 0.972728 0.743327
O O4 0.736701 0.004396 0.583718
O O5 0.131680 0.917690 0.482042
O O6 0.263298 0.004397 0.402935
O O7 0.131680 0.082310 0.504614
O O8 0.165823 0.231656 0.571212
O O9 0.162919 0.205779 0.395426
O O10 0.999999 0.196078 0.493329
O O11 0.162921 0.794223 0.591231
O O12 0.265565 0.760718 0.743329
O O13 0.334176 0.268344 0.415446
O O14 0.567813 0.950130 0.921907
O O15 0.699355 0.144080 0.350285
#
# Coordination Sequence:
#
# PCOD9376109 Si02
#       8
#     8   8   8   8   8   4   8   8
#     4   9  18  33  51  74 109 144 178 224 268 316
#     4   9  19  35  53  80 108 140 178 222 272 324
#     4  10  20  35  59  81 109 142 182 225 270 324
#     4   9  20  37  53  77 112 144 178 224 272 320
#     4  10  20  35  59  81 109 142 182 225 270 324
#     4  10  18  28  54  78 106 138 188 220 270 318
#     4   9  20  37  53  77 112 144 178 224 272 320
#     4   9  18  33  51  74 109 144 178 224 268 316
#
# _framework density 18.495929
#
# number of rings (size 3 to 8) (size 9 to 14) (size 15 to 20)
#    0.000    2.667    0.000    0.800    1.867    2.133 
#    0.000    0.000    0.000    8.000    0.000    0.000 
#    0.000    0.000    0.000    0.000    0.000    0.000 
#
# Total GULP energy -167241.068597 kJ/mol
# GULP energy per Si atom -5574.702287 kJ/mol
# Density = 1.845383 g / cm^3
# Si number density = 18.495929 Si / 1000 Ang^3
#
#
#
# Elastic Constant Matrix: (Units=GPa)
#
#
# Indices 1 2 3 4 5 6 
#
# 1 136.0669 17.1128 44.8034 0.0000 0.0000 0.0000
# 2 17.1128 17.3488 3.0563 0.0000 0.0000 0.0000
# 3 44.8034 3.0563 129.9784 0.0000 0.0000 0.0000
# 4 0.0000 0.0000 0.0000 18.6227 0.0000 0.0000
# 5 0.0000 0.0000 0.0000 0.0000 12.7435 0.0000
# 6 0.0000 0.0000 0.0000 0.0000 0.0000 21.9393
#
#
#
# Elastic Compliance Matrix: (Units=1/GPa)
#
#
# Indices 1 2 3 4 5 6 
#
# 1 0.009461 -0.008794 -0.003054 0.000000 0.000000 0.000000
# 2 -0.008794 0.066055 0.001478 0.000000 0.000000 0.000000
# 3 -0.003054 0.001478 0.008712 0.000000 0.000000 0.000000
# 4 0.000000 0.000000 0.000000 0.053698 0.000000 0.000000
# 5 0.000000 0.000000 0.000000 0.000000 0.078471 0.000000
# 6 0.000000 0.000000 0.000000 0.000000 0.000000 0.045580
#
#
# Mechanical properties :
#
#
# Convention : Reuss Voigt Hill
#
# Bulk Modulus (GPa) = 15.75127 45.92658 30.83892
# Shear Modulus (GPa) = 16.45379 25.22254 20.83817
#
# Velocity S-wave (km/s) = 2.98583 3.69681 3.36018
# Velocity P-wave (km/s) = 4.51902 6.56555 5.63595
#
# Compressibility (1/GPa) = 0.06348696
#
# Stress axis : x y z
#
# Youngs Moduli (GPa) = 105.69566 15.13881 114.78825
#
# Poissons Ratio (x) = 0.13314 0.35062
# Poissons Ratio (y) = 0.92953 -0.16968
# Poissons Ratio (z) = 0.32284 -0.02238
#
# Static dielectric constant tensor:
#      x y z
#    x 1.616780 0.000000 0.000000 
#    y 0.000000 1.635950 0.000000 
#    z 0.000000 0.000000 1.654480 
# 
# From -- ./inp_files/6252.got.cif
#   From: 2010.05.17/outbox.cif.g08.bks.cpg/sg45_4_cif.got.tgz:6252.got - 2010.06.03 19:51:22.
