data_PCOD9376681
_publ_section_title
;
Structure prediction by ZEFSAII (Michael W. Deem and Ramdas Pophale) SiO2 
 PCOD9376681
Probable space group: I B A 2
;
_chemical_formula_sum "Si O2"
_cell_formula_units_Z 60
_cell_length_a 20.041633
_cell_length_b 9.476085
_cell_length_c 13.410123
_cell_angle_alpha 90.000000
_cell_angle_beta 90.000000
_cell_angle_gamma 90.000000
_cell_volume 2546.799841
_symmetry_space_group_name_H-M "I B A 2"
_symmetry_group_IT_number 45
_symmetry_cell_setting 'orthorhombic'
loop_
_space_group_symop_operation_xyz
x,y,z
-x,-y,z
-x,y,1/2+z
x,-y,1/2+z
1/2+x,1/2+y,1/2+z
1/2-x,1/2-y,1/2+z
1/2-x,1/2+y,z
1/2+x,1/2-y,z
loop_
_atom_site_type_symbol
_atom_site_label
_atom_site_fract_x
_atom_site_fract_y
_atom_site_fract_z
Si Si1 0.791992 0.524166 0.913330
Si Si2 0.542455 0.271132 0.277318
Si Si3 0.825583 0.788875 0.403878
Si Si4 0.894593 0.511319 0.751234
Si Si5 0.702184 0.185669 0.121955
Si Si6 0.645077 0.280773 0.636899
Si Si7 0.500000 0.500000 0.424641
Si Si8 0.595243 0.572368 0.603311
O O1 0.785804 0.357472 0.906315
O O2 0.725805 0.592878 0.870929
O O3 0.860827 0.556863 0.855701
O O4 0.792048 0.588298 0.023844
O O5 0.614708 0.296555 0.327275
O O6 0.498643 0.361603 0.353621
O O7 0.541924 0.340167 0.168512
O O8 0.545628 0.101732 0.267253
O O9 0.854908 0.785241 0.516117
O O10 0.838647 0.413734 0.696870
O O11 0.897080 0.652780 0.684312
O O12 0.775666 0.227736 0.160481
O O13 0.658755 0.323682 0.094268
O O14 0.616965 0.433772 0.664111
O O15 0.561930 0.525878 0.499727
#
# Coordination Sequence:
#
# PCOD9376681 Si02
#       8
#     8   8   8   8   8   8   4   8
#     4  10  22  34  58  94 140 183 219 270 343 421
#     4  10  24  44  67  98 135 174 243 291 349 415
#     4  10  21  37  58  93 140 181 223 281 338 414
#     4  10  22  38  62  96 141 185 224 283 352 427
#     4  10  22  39  60 100 145 177 229 283 356 433
#     4  11  21  37  64  99 140 179 220 280 358 427
#     4  12  24  48  74  96 134 180 250 308 338 408
#     4  11  25  41  72 102 130 189 234 293 351 423
#
# _framework density 23.558979000000001
#
# number of rings (size 3 to 8) (size 9 to 14) (size 15 to 20)
#    0.000    1.600    2.667    1.200   13.067    1.067 
#    0.000    0.000    0.000   28.000    0.000    0.000 
#    0.000    0.000    0.000    0.000    0.000    0.000 
#
# Total GULP energy -167557.454599 kJ/mol
# GULP energy per Si atom -5585.248487 kJ/mol
# Density = 2.350536 g / cm^3
# Si number density = 23.558979 Si / 1000 Ang^3
#
#
#
# Elastic Constant Matrix: (Units=GPa)
#
#
# Indices 1 2 3 4 5 6 
#
# 1 54.6693 56.7769 9.7871 0.0000 0.0000 0.0000
# 2 56.7769 137.3088 19.8113 0.0000 0.0000 0.0000
# 3 9.7871 19.8113 66.6047 0.0000 0.0000 0.0000
# 4 0.0000 0.0000 0.0000 33.6331 0.0000 0.0000
# 5 0.0000 0.0000 0.0000 0.0000 92.9172 0.0000
# 6 0.0000 0.0000 0.0000 0.0000 0.0000 46.8139
#
#
#
# Elastic Compliance Matrix: (Units=1/GPa)
#
#
# Indices 1 2 3 4 5 6 
#
# 1 0.032100 -0.013158 -0.000803 0.000000 0.000000 0.000000
# 2 -0.013158 0.013003 -0.001934 0.000000 0.000000 0.000000
# 3 -0.000803 -0.001934 0.015707 0.000000 0.000000 0.000000
# 4 0.000000 0.000000 0.000000 0.029733 0.000000 0.000000
# 5 0.000000 0.000000 0.000000 0.000000 0.010762 0.000000
# 6 0.000000 0.000000 0.000000 0.000000 0.000000 0.021361
#
#
# Mechanical properties :
#
#
# Convention : Reuss Voigt Hill
#
# Bulk Modulus (GPa) = 34.45859 47.92594 41.19226
# Shear Modulus (GPa) = 30.46370 46.15335 38.30852
#
# Velocity S-wave (km/s) = 3.59985 4.43092 4.03683
# Velocity P-wave (km/s) = 5.65127 6.82382 6.26504
#
# Compressibility (1/GPa) = 0.02902034
#
# Stress axis : x y z
#
# Youngs Moduli (GPa) = 31.15220 76.90796 63.66466
#
# Poissons Ratio (x) = 1.01192 0.05114
# Poissons Ratio (y) = 0.40989 0.12314
# Poissons Ratio (z) = 0.02502 0.14875
#
# Static dielectric constant tensor:
#      x y z
#    x 0.975870 0.000000 0.000000 
#    y 0.000000 1.902320 0.000000 
#    z 0.000000 0.000000 1.923050 
# 
# From -- ./inp_files/5831.got.cif
#   From: 2010.05.17/outbox.cif.g08.bks.cpg/sg45_3_cif.got.tgz:5831.got - 2010.06.03 19:51:22.
