data_PCOD9376111
_publ_section_title
;
Structure prediction by ZEFSAII (Michael W. Deem and Ramdas Pophale) SiO2 
 PCOD9376111
Probable space group: I B A 2
;
_chemical_formula_sum "Si O2"
_cell_formula_units_Z 64
_cell_length_a 29.928268
_cell_length_b 7.703053
_cell_length_c 11.519292
_cell_angle_alpha 90.000000
_cell_angle_beta 90.000000
_cell_angle_gamma 90.000000
_cell_volume 2655.646457
_symmetry_space_group_name_H-M "I B A 2"
_symmetry_group_IT_number 45
_symmetry_cell_setting 'orthorhombic'
loop_
_space_group_symop_operation_xyz
x,y,z
-x,-y,z
-x,y,1/2+z
x,-y,1/2+z
1/2+x,1/2+y,1/2+z
1/2-x,1/2-y,1/2+z
1/2-x,1/2+y,z
1/2+x,1/2-y,z
loop_
_atom_site_type_symbol
_atom_site_label
_atom_site_fract_x
_atom_site_fract_y
_atom_site_fract_z
Si Si1 0.616640 0.373917 0.087540
Si Si2 0.016452 0.201763 0.131950
Si Si3 0.983867 0.792306 0.385849
Si Si4 0.114348 0.750152 0.971396
Si Si5 0.313145 0.722807 0.904406
Si Si6 0.177393 0.663774 0.152860
Si Si7 0.183607 0.850907 0.795400
Si Si8 0.758397 0.654727 0.107897
O O1 0.569668 0.296920 0.123773
O O2 0.609236 0.556785 0.024552
O O3 0.645006 0.396096 0.203192
O O4 0.645942 0.269034 0.994830
O O5 0.001184 0.271422 0.257978
O O6 0.000000 0.000000 0.131491
O O7 0.001594 0.278631 0.008722
O O8 0.931436 0.741153 0.399675
O O9 0.000000 0.000000 0.385891
O O10 0.130800 0.644831 0.085460
O O11 0.157409 0.733420 0.888175
O O12 0.325698 0.831243 0.791031
O O13 0.304124 0.527149 0.861069
O O14 0.271045 0.775286 0.981293
O O15 0.213241 0.520010 0.116454
O O16 0.205042 0.839927 0.118765
O O17 0.222082 0.762342 0.718840
#
# Coordination Sequence:
#
# PCOD9376111 Si02
#       8
#     8   8   8   8   8   8   8   8
#     4  10  18  36  59  91 130 173 218 268 352 394
#     4  10  18  29  51  92 137 176 208 280 345 405
#     4  10  19  30  52  90 141 174 218 275 356 404
#     4  11  21  35  60  94 131 180 215 287 346 409
#     4  10  24  41  65  93 129 173 225 282 344 419
#     4  12  27  43  66  93 132 176 235 291 347 428
#     4  10  21  41  66  89 134 169 224 277 342 411
#     4  11  28  45  66  98 129 182 231 285 360 410
#
# _framework density 24.099592000000001
#
# number of rings (size 3 to 8) (size 9 to 14) (size 15 to 20)
#    0.000    1.500    5.000    0.750    7.000    1.000 
#    0.000    0.000    0.000    0.000    0.000    3.500 
#    0.000    0.000    0.000    0.000    0.000    0.000 
#
# Total GULP energy -178644.244936 kJ/mol
# GULP energy per Si atom -5582.632654 kJ/mol
# Density = 2.404474 g / cm^3
# Si number density = 24.099592 Si / 1000 Ang^3
#
#
#
# Elastic Constant Matrix: (Units=GPa)
#
#
# Indices 1 2 3 4 5 6 
#
# 1 86.5574 9.7469 30.5390 0.0000 0.0000 0.0000
# 2 9.7469 40.8088 17.7453 0.0000 0.0000 0.0000
# 3 30.5390 17.7453 204.2509 0.0000 0.0000 0.0000
# 4 0.0000 0.0000 0.0000 28.2451 0.0000 0.0000
# 5 0.0000 0.0000 0.0000 0.0000 35.9308 0.0000
# 6 0.0000 0.0000 0.0000 0.0000 0.0000 11.6234
#
#
#
# Elastic Compliance Matrix: (Units=1/GPa)
#
#
# Indices 1 2 3 4 5 6 
#
# 1 0.012390 -0.002238 -0.001658 0.000000 0.000000 0.000000
# 2 -0.002238 0.025871 -0.001913 0.000000 0.000000 0.000000
# 3 -0.001658 -0.001913 0.005310 0.000000 0.000000 0.000000
# 4 0.000000 0.000000 0.000000 0.035404 0.000000 0.000000
# 5 0.000000 0.000000 0.000000 0.000000 0.027831 0.000000
# 6 0.000000 0.000000 0.000000 0.000000 0.000000 0.086033
#
#
# Mechanical properties :
#
#
# Convention : Reuss Voigt Hill
#
# Bulk Modulus (GPa) = 31.29658 49.74216 40.51937
# Shear Modulus (GPa) = 23.24398 33.39891 28.32145
#
# Velocity S-wave (km/s) = 3.10900 3.72677 3.43181
# Velocity P-wave (km/s) = 5.08944 6.26127 5.70552
#
# Compressibility (1/GPa) = 0.03195238
#
# Stress axis : x y z
#
# Youngs Moduli (GPa) = 80.70981 38.65334 188.32218
#
# Poissons Ratio (x) = 0.08652 0.31225
# Poissons Ratio (y) = 0.18065 0.36026
# Poissons Ratio (z) = 0.13382 0.07394
#
# Static dielectric constant tensor:
#      x y z
#    x 1.887510 0.000000 0.000000 
#    y 0.000000 2.032340 0.000000 
#    z 0.000000 0.000000 1.950050 
# 
# From -- ./inp_files/4985.got.cif
#   From: 2010.05.17/outbox.cif.g08.bks.cpg/sg45_3_cif.got.tgz:4985.got - 2010.06.03 19:51:22.
