data_PCOD9376228
_publ_section_title
;
Structure prediction by ZEFSAII (Michael W. Deem and Ramdas Pophale) SiO2 
 PCOD9376228
Probable space group: I B A 2
;
_chemical_formula_sum "Si O2"
_cell_formula_units_Z 48
_cell_length_a 19.985157
_cell_length_b 5.480562
_cell_length_c 16.525432
_cell_angle_alpha 90.000000
_cell_angle_beta 90.000000
_cell_angle_gamma 90.000000
_cell_volume 1810.028783
_symmetry_space_group_name_H-M "I B A 2"
_symmetry_group_IT_number 45
_symmetry_cell_setting 'orthorhombic'
loop_
_space_group_symop_operation_xyz
x,y,z
-x,-y,z
-x,y,1/2+z
x,-y,1/2+z
1/2+x,1/2+y,1/2+z
1/2-x,1/2-y,1/2+z
1/2-x,1/2+y,z
1/2+x,1/2-y,z
loop_
_atom_site_type_symbol
_atom_site_label
_atom_site_fract_x
_atom_site_fract_y
_atom_site_fract_z
Si Si1 0.879220 0.541466 0.491400
Si Si2 0.610486 0.462541 0.045167
Si Si3 0.706717 0.153315 0.332224
Si Si4 0.754819 0.521042 0.609182
Si Si5 0.594483 0.394630 0.235297
Si Si6 0.024839 0.755672 0.335766
O O1 0.909161 0.269967 0.490716
O O2 0.840823 0.617546 0.410832
O O3 0.823784 0.509457 0.562071
O O4 0.918987 0.779747 0.518033
O O5 0.693089 0.477852 0.044820
O O6 0.597025 0.436427 0.140345
O O7 0.750352 0.403542 0.333726
O O8 0.652095 0.211328 0.263224
O O9 0.743380 0.272941 0.656504
O O10 0.525711 0.262293 0.258249
O O11 0.593013 0.642263 0.292344
O O12 0.000000 0.500000 0.373681
O O13 0.000000 0.000000 0.381071
#
# Coordination Sequence:
#
# PCOD9376228 Si02
#       6
#     8   8   8   8   8   8
#     4  10  20  35  52  78 124 178 196 231 311 386
#     4  10  19  32  57  81 113 149 213 253 296 372
#     4  12  25  38  58  91 139 171 208 261 317 389
#     4   8  14  25  41  62  98 146 183 209 262 346
#     4   9  24  38  66  97 118 165 224 270 324 370
#     4   8  20  40  66  84 122 160 208 269 334 392
#
# _framework density 26.518917999999999
#
# number of rings (size 3 to 8) (size 9 to 14) (size 15 to 20)
#    1.000    1.333    0.000    4.000    4.667    4.000 
#    0.000    0.000    0.000    4.000    0.000    0.000 
#    0.000    0.000    0.000    0.000    0.000    0.000 
#
# Total GULP energy -133806.264518 kJ/mol
# GULP energy per Si atom -5575.261022 kJ/mol
# Density = 2.645856 g / cm^3
# Si number density = 26.518918 Si / 1000 Ang^3
#
#
#
# Elastic Constant Matrix: (Units=GPa)
#
#
# Indices 1 2 3 4 5 6 
#
# 1 45.8139 3.7092 15.5945 0.0000 0.0000 0.0000
# 2 3.7092 271.5427 34.8695 0.0000 0.0000 0.0000
# 3 15.5945 34.8695 75.2891 0.0000 0.0000 0.0000
# 4 0.0000 0.0000 0.0000 23.0756 0.0000 0.0000
# 5 0.0000 0.0000 0.0000 0.0000 35.2946 0.0000
# 6 0.0000 0.0000 0.0000 0.0000 0.0000 34.9945
#
#
#
# Elastic Compliance Matrix: (Units=1/GPa)
#
#
# Indices 1 2 3 4 5 6 
#
# 1 0.023510 0.000323 -0.005019 0.000000 0.000000 0.000000
# 2 0.000323 0.003920 -0.001882 0.000000 0.000000 0.000000
# 3 -0.005019 -0.001882 0.015194 0.000000 0.000000 0.000000
# 4 0.000000 0.000000 0.000000 0.043336 0.000000 0.000000
# 5 0.000000 0.000000 0.000000 0.000000 0.028333 0.000000
# 6 0.000000 0.000000 0.000000 0.000000 0.000000 0.028576
#
#
# Mechanical properties :
#
#
# Convention : Reuss Voigt Hill
#
# Bulk Modulus (GPa) = 33.93677 55.66579 44.80128
# Shear Modulus (GPa) = 30.14827 41.23779 35.69303
#
# Velocity S-wave (km/s) = 3.37539 3.94767 3.67269
# Velocity P-wave (km/s) = 5.29301 6.46648 5.90895
#
# Compressibility (1/GPa) = 0.02946656
#
# Stress axis : x y z
#
# Youngs Moduli (GPa) = 42.53553 255.10335 65.81704
#
# Poissons Ratio (x) = -0.08250 0.33036
# Poissons Ratio (y) = -0.01376 0.12390
# Poissons Ratio (z) = 0.21350 0.48023
#
# Static dielectric constant tensor:
#      x y z
#    x 2.141920 0.000000 0.000000 
#    y 0.000000 2.287700 0.000000 
#    z 0.000000 0.000000 1.996620 
# 
# From -- ./inp_files/9281.got.cif
#   From: 2010.05.17/outbox.cif.g08.bks.cpg/sg45_5_cif.got.tgz:9281.got - 2010.06.03 19:51:22.
