data_PCOD9376753
_publ_section_title
;
Structure prediction by ZEFSAII (Michael W. Deem and Ramdas Pophale) SiO2 
 PCOD9376753
Probable space group: I B A 2
;
_chemical_formula_sum "Si O2"
_cell_formula_units_Z 60
_cell_length_a 11.170719
_cell_length_b 31.199359
_cell_length_c 7.973553
_cell_angle_alpha 90.000000
_cell_angle_beta 90.000000
_cell_angle_gamma 90.000000
_cell_volume 2778.936890
_symmetry_space_group_name_H-M "I B A 2"
_symmetry_group_IT_number 45
_symmetry_cell_setting 'orthorhombic'
loop_
_space_group_symop_operation_xyz
x,y,z
-x,-y,z
-x,y,1/2+z
x,-y,1/2+z
1/2+x,1/2+y,1/2+z
1/2-x,1/2-y,1/2+z
1/2-x,1/2+y,z
1/2+x,1/2-y,z
loop_
_atom_site_type_symbol
_atom_site_label
_atom_site_fract_x
_atom_site_fract_y
_atom_site_fract_z
Si Si1 0.958600 0.628994 0.111580
Si Si2 0.126842 0.056704 0.857255
Si Si3 0.577700 0.227559 0.061096
Si Si4 0.309423 0.130273 0.955070
Si Si5 0.132537 0.957422 0.959249
Si Si6 0.374235 0.055825 0.366854
Si Si7 0.683614 0.769227 0.931548
Si Si8 0.000000 0.500000 0.109411
O O1 0.935210 0.676496 0.041194
O O2 0.890931 0.625395 0.287120
O O3 0.910175 0.595289 0.979487
O O4 0.102189 0.623164 0.112435
O O5 0.209100 0.094056 0.934207
O O6 0.150034 0.053182 0.656466
O O7 0.987998 0.064771 0.895580
O O8 0.135914 0.008901 0.935570
O O9 0.627862 0.235806 0.246866
O O10 0.437907 0.242610 0.039203
O O11 0.690740 0.243942 0.950836
O O12 0.279074 0.180801 0.960158
O O13 0.235634 0.941220 0.835515
O O14 0.391691 0.014982 0.494085
O O15 0.459264 0.039952 0.219827
#
# Coordination Sequence:
#
# PCOD9376753 Si02
#       8
#     8   8   8   8   8   8   8   4
#     4  10  21  39  63  89 127 157 194 254 306 359
#     4  11  23  44  58  86 117 165 209 250 303 359
#     4  10  21  40  67  96 126 168 205 253 316 377
#     4  10  22  42  63  93 124 157 205 250 306 367
#     4  11  23  39  63  77 121 162 208 252 299 354
#     4  11  21  38  54  91 116 161 197 253 295 356
#     4  10  21  41  69  95 130 165 205 256 314 378
#     4  10  24  32  58  88 124 152 206 246 302 352
#
# _framework density 21.590990999999999
#
# number of rings (size 3 to 8) (size 9 to 14) (size 15 to 20)
#    0.000    1.600    1.333    4.000    3.733    1.067 
#    7.200    1.333    0.000    0.000    0.000    0.000 
#    0.000    0.000    0.000    0.000    0.000    0.000 
#
# Total GULP energy -167341.343630 kJ/mol
# GULP energy per Si atom -5578.044788 kJ/mol
# Density = 2.154185 g / cm^3
# Si number density = 21.590991 Si / 1000 Ang^3
#
#
#
# Elastic Constant Matrix: (Units=GPa)
#
#
# Indices 1 2 3 4 5 6 
#
# 1 173.3025 56.6861 21.1029 0.0002 -0.0002 0.0001
# 2 56.6861 67.6750 18.2983 0.0017 -0.0008 -0.0001
# 3 21.1029 18.2983 56.7455 -0.0008 -0.0005 -0.0004
# 4 0.0002 0.0017 -0.0008 27.0877 0.0001 -0.0001
# 5 -0.0002 -0.0008 -0.0005 0.0001 30.7540 0.0000
# 6 0.0001 -0.0001 -0.0004 -0.0001 0.0000 40.9121
#
#
#
# Elastic Compliance Matrix: (Units=1/GPa)
#
#
# Indices 1 2 3 4 5 6 
#
# 1 0.007989 -0.006451 -0.000891 0.000000 0.000000 0.000000
# 2 -0.006451 0.021397 -0.004501 -0.000001 0.000000 0.000000
# 3 -0.000891 -0.004501 0.019405 0.000001 0.000000 0.000000
# 4 0.000000 -0.000001 0.000001 0.036917 0.000000 0.000000
# 5 0.000000 0.000000 0.000000 0.000000 0.032516 0.000000
# 6 0.000000 0.000000 0.000000 0.000000 0.000000 0.024443
#
#
# Mechanical properties :
#
#
# Convention : Reuss Voigt Hill
#
# Bulk Modulus (GPa) = 39.83085 54.43305 47.13195
# Shear Modulus (GPa) = 28.61732 33.19314 30.90523
#
# Velocity S-wave (km/s) = 3.64459 3.92517 3.78748
# Velocity P-wave (km/s) = 6.01654 6.76819 6.40340
#
# Compressibility (1/GPa) = 0.02510617
#
# Stress axis : x y z
#
# Youngs Moduli (GPa) = 125.17690 46.73634 51.53280
#
# Poissons Ratio (x) = 0.30148 0.04591
# Poissons Ratio (y) = 0.80747 0.23193
# Poissons Ratio (z) = 0.11151 0.21035
#
# Static dielectric constant tensor:
#      x y z
#    x 1.871930 0.000000 0.000000 
#    y 0.000000 1.809900 0.000000 
#    z 0.000000 0.000000 1.869990 
# 
# From -- ./inp_files/1491.got.cif
#   From: 2010.05.17/outbox.cif.g08.bks.cpg/sg45_1_cif.got.tgz:1491.got - 2010.06.03 19:51:22.
