data_PCOD9376471
_publ_section_title
;
Structure prediction by ZEFSAII (Michael W. Deem and Ramdas Pophale) SiO2 
 PCOD9376471
Probable space group: I B A 2
;
_chemical_formula_sum "Si O2"
_cell_formula_units_Z 60
_cell_length_a 8.635038
_cell_length_b 18.221512
_cell_length_c 16.731877
_cell_angle_alpha 90.000000
_cell_angle_beta 90.000000
_cell_angle_gamma 90.000000
_cell_volume 2632.651228
_symmetry_space_group_name_H-M "I B A 2"
_symmetry_group_IT_number 45
_symmetry_cell_setting 'orthorhombic'
loop_
_space_group_symop_operation_xyz
x,y,z
-x,-y,z
-x,y,1/2+z
x,-y,1/2+z
1/2+x,1/2+y,1/2+z
1/2-x,1/2-y,1/2+z
1/2-x,1/2+y,z
1/2+x,1/2-y,z
loop_
_atom_site_type_symbol
_atom_site_label
_atom_site_fract_x
_atom_site_fract_y
_atom_site_fract_z
Si Si1 0.522583 0.913520 0.162390
Si Si2 0.462157 0.413302 0.245904
Si Si3 0.289148 0.878174 0.817969
Si Si4 0.173375 0.722575 0.467186
Si Si5 0.315606 0.621117 0.593595
Si Si6 0.758717 0.458101 0.879011
Si Si7 0.638904 0.143742 0.500912
Si Si8 0.000000 0.000000 0.499177
O O1 0.596432 0.878147 0.241649
O O2 0.353237 0.888708 0.133267
O O3 0.634881 0.896240 0.086560
O O4 0.500000 0.000000 0.176923
O O5 0.500000 0.500000 0.228172
O O6 0.610803 0.380463 0.289276
O O7 0.429599 0.366287 0.167277
O O8 0.307921 0.418999 0.300182
O O9 0.311059 0.810953 0.878561
O O10 0.304049 0.958550 0.859593
O O11 0.292525 0.679501 0.524531
O O12 0.212454 0.807283 0.479596
O O13 0.005480 0.698588 0.496869
O O14 0.386128 0.549234 0.551764
O O15 0.884200 0.413911 0.929121
O O16 0.613021 0.457865 0.939279
#
# Coordination Sequence:
#
# PCOD9376471 Si02
#       8
#     8   8   8   8   8   8   8   4
#     4  11  25  45  71 109 144 183 252 312 387 431
#     4  10  20  37  64 106 134 174 229 294 369 427
#     4  11  24  44  73 109 142 183 244 314 377 452
#     4  11  27  49  68 101 143 199 248 297 382 462
#     4  11  23  41  68 102 140 187 240 295 361 453
#     4  11  22  40  70 106 138 186 240 310 362 437
#     4  11  29  47  72 101 148 200 248 311 376 461
#     4  12  20  38  74 102 146 182 238 306 368 444
#
# _framework density 22.790714999999999
#
# number of rings (size 3 to 8) (size 9 to 14) (size 15 to 20)
#    0.000    1.067    4.000    2.400   11.200    0.000 
#    2.400    0.000    0.000    0.000    0.000    0.000 
#    0.000    0.000    0.000    0.000    0.000    0.000 
#
# Total GULP energy -167723.987416 kJ/mol
# GULP energy per Si atom -5590.799581 kJ/mol
# Density = 2.273884 g / cm^3
# Si number density = 22.790715 Si / 1000 Ang^3
#
#
#
# Elastic Constant Matrix: (Units=GPa)
#
#
# Indices 1 2 3 4 5 6 
#
# 1 67.0686 18.9917 29.5675 0.0000 0.0000 0.0000
# 2 18.9917 47.4593 39.2545 0.0000 0.0000 0.0000
# 3 29.5675 39.2545 150.1230 0.0000 0.0000 0.0000
# 4 0.0000 0.0000 0.0000 -12.8143 0.0000 0.0000
# 5 0.0000 0.0000 0.0000 0.0000 27.9888 0.0000
# 6 0.0000 0.0000 0.0000 0.0000 0.0000 30.6594
#
#
#
# Elastic Compliance Matrix: (Units=1/GPa)
#
#
# Indices 1 2 3 4 5 6 
#
# 1 0.017290 -0.005234 -0.002037 0.000000 0.000000 0.000000
# 2 -0.005234 0.028470 -0.006413 0.000000 0.000000 0.000000
# 3 -0.002037 -0.006413 0.008739 0.000000 0.000000 0.000000
# 4 0.000000 0.000000 0.000000 -0.078038 0.000000 0.000000
# 5 0.000000 0.000000 0.000000 0.000000 0.035729 0.000000
# 6 0.000000 0.000000 0.000000 0.000000 0.000000 0.032616
#
#
# Mechanical properties :
#
#
# Convention : Reuss Voigt Hill
#
# Bulk Modulus (GPa) = 36.85890 48.91981 42.88935
# Shear Modulus (GPa) = 61.56183 20.95593 41.25888
#
# Velocity S-wave (km/s) = 5.20293 3.03561 4.25942
# Velocity P-wave (km/s) = 7.23200 5.81360 6.56124
#
# Compressibility (1/GPa) = 0.02713049
#
# Stress axis : x y z
#
# Youngs Moduli (GPa) = 57.83624 35.12462 114.42496
#
# Poissons Ratio (x) = 0.18386 0.23305
# Poissons Ratio (y) = 0.30274 0.73386
# Poissons Ratio (z) = 0.11779 0.22527
#
# Static dielectric constant tensor:
#      x y z
#    x 1.965550 0.000000 0.000000 
#    y 0.000000 1.840370 0.000000 
#    z 0.000000 0.000000 1.875610 
# 
# From -- ./inp_files/7701.got.cif
#   From: 2010.05.17/outbox.cif.g08.bks.cpg/sg45_4_cif.got.tgz:7701.got - 2010.06.03 19:51:22.
