data_PCOD9376219
_publ_section_title
;
Structure prediction by ZEFSAII (Michael W. Deem and Ramdas Pophale) SiO2 
 PCOD9376219
Probable space group: I B A 2
;
_chemical_formula_sum "Si O2"
_cell_formula_units_Z 48
_cell_length_a 18.902786
_cell_length_b 8.661381
_cell_length_c 16.664931
_cell_angle_alpha 90.000000
_cell_angle_beta 90.000000
_cell_angle_gamma 90.000000
_cell_volume 2728.453021
_symmetry_space_group_name_H-M "I B A 2"
_symmetry_group_IT_number 45
_symmetry_cell_setting 'orthorhombic'
loop_
_space_group_symop_operation_xyz
x,y,z
-x,-y,z
-x,y,1/2+z
x,-y,1/2+z
1/2+x,1/2+y,1/2+z
1/2-x,1/2-y,1/2+z
1/2-x,1/2+y,z
1/2+x,1/2-y,z
loop_
_atom_site_type_symbol
_atom_site_label
_atom_site_fract_x
_atom_site_fract_y
_atom_site_fract_z
Si Si1 0.673384 0.282974 0.072470
Si Si2 0.789544 0.380820 0.809834
Si Si3 0.924528 0.706274 0.740420
Si Si4 0.582901 0.163290 0.211705
Si Si5 0.665971 0.811000 0.389555
Si Si6 0.699373 0.395326 0.653588
O O1 0.611989 0.205161 0.124992
O O2 0.676563 0.461102 0.099098
O O3 0.748103 0.211500 0.101872
O O4 0.659672 0.241650 0.980523
O O5 0.856208 0.287604 0.774387
O O6 0.733783 0.275021 0.853664
O O7 0.817787 0.509885 0.870817
O O8 0.747354 0.446659 0.731153
O O9 0.918397 0.522880 0.721189
O O10 0.900250 0.729036 0.832369
O O11 0.868446 0.802043 0.687225
O O12 0.007049 0.738473 0.727292
#
# Coordination Sequence:
#
# PCOD9376219 Si02
#       6
#     8   8   8   8   8   8
#     4  11  20  32  52  79 104 131 172 222 262 298
#     4   9  17  32  53  74 100 135 171 204 254 314
#     4   9  19  36  55  74 103 140 175 206 253 320
#     4   9  18  35  55  75 101 139 175 205 254 318
#     4  10  19  32  51  77 102 129 169 220 258 295
#     4  10  19  33  54  77 104 139 174 209 257 316
#
# _framework density 17.592386999999999
#
# number of rings (size 3 to 8) (size 9 to 14) (size 15 to 20)
#    0.000    2.333    0.000    6.000    0.000    0.667 
#    0.000    8.333    0.000    6.000    0.000    0.000 
#    0.000    0.000    0.000    0.000    0.000    0.000 
#
# Total GULP energy -133779.958484 kJ/mol
# GULP energy per Si atom -5574.164937 kJ/mol
# Density = 1.755235 g / cm^3
# Si number density = 17.592387 Si / 1000 Ang^3
#
#
#
# Elastic Constant Matrix: (Units=GPa)
#
#
# Indices 1 2 3 4 5 6 
#
# 1 150.1666 29.9118 88.3229 0.0000 0.0000 0.0000
# 2 29.9118 44.2902 47.0782 0.0000 0.0000 0.0000
# 3 88.3229 47.0782 142.4802 0.0000 0.0000 0.0000
# 4 0.0000 0.0000 0.0000 20.3280 0.0000 0.0000
# 5 0.0000 0.0000 0.0000 0.0000 10.4443 0.0000
# 6 0.0000 0.0000 0.0000 0.0000 0.0000 18.7066
#
#
#
# Elastic Compliance Matrix: (Units=1/GPa)
#
#
# Indices 1 2 3 4 5 6 
#
# 1 0.010482 -0.000266 -0.006410 0.000000 0.000000 0.000000
# 2 -0.000266 0.034808 -0.011337 0.000000 0.000000 0.000000
# 3 -0.006410 -0.011337 0.014738 0.000000 0.000000 0.000000
# 4 0.000000 0.000000 0.000000 0.049193 0.000000 0.000000
# 5 0.000000 0.000000 0.000000 0.000000 0.095746 0.000000
# 6 0.000000 0.000000 0.000000 0.000000 0.000000 0.053457
#
#
# Mechanical properties :
#
#
# Convention : Reuss Voigt Hill
#
# Bulk Modulus (GPa) = 41.66054 74.17363 57.91709
# Shear Modulus (GPa) = 16.53162 21.33740 18.93451
#
# Velocity S-wave (km/s) = 3.06878 3.48642 3.28424
# Velocity P-wave (km/s) = 6.02403 7.64596 6.88294
#
# Compressibility (1/GPa) = 0.02400353
#
# Stress axis : x y z
#
# Youngs Moduli (GPa) = 95.39709 28.72910 67.85170
#
# Poissons Ratio (x) = 0.00763 0.43495
# Poissons Ratio (y) = 0.02534 0.76920
# Poissons Ratio (z) = 0.61152 0.32569
#
# Static dielectric constant tensor:
#      x y z
#    x 1.610630 0.000000 0.000000 
#    y 0.000000 1.630270 0.000000 
#    z 0.000000 0.000000 1.587540 
# 
# From -- ./inp_files/5588.got.cif
#   From: 2010.05.17/outbox.cif.g08.bks.cpg/sg45_3_cif.got.tgz:5588.got - 2010.06.03 19:51:22.
