data_PCOD9376547
_publ_section_title
;
Structure prediction by ZEFSAII (Michael W. Deem and Ramdas Pophale) SiO2 
 PCOD9376547
Probable space group: I B A 2
;
_chemical_formula_sum "Si O2"
_cell_formula_units_Z 52
_cell_length_a 9.146615
_cell_length_b 19.954885
_cell_length_c 12.556169
_cell_angle_alpha 90.000000
_cell_angle_beta 90.000000
_cell_angle_gamma 90.000000
_cell_volume 2291.747577
_symmetry_space_group_name_H-M "I B A 2"
_symmetry_group_IT_number 45
_symmetry_cell_setting 'orthorhombic'
loop_
_space_group_symop_operation_xyz
x,y,z
-x,-y,z
-x,y,1/2+z
x,-y,1/2+z
1/2+x,1/2+y,1/2+z
1/2-x,1/2-y,1/2+z
1/2-x,1/2+y,z
1/2+x,1/2-y,z
loop_
_atom_site_type_symbol
_atom_site_label
_atom_site_fract_x
_atom_site_fract_y
_atom_site_fract_z
Si Si1 0.201387 0.246986 0.755280
Si Si2 0.000000 0.000000 0.705568
Si Si3 0.852143 0.874437 0.189179
Si Si4 0.081471 0.583934 0.056568
Si Si5 0.770768 0.545624 0.057577
Si Si6 0.565305 0.797490 0.890596
Si Si7 0.401219 0.671314 0.541911
O O1 0.327973 0.302364 0.739329
O O2 0.277823 0.194663 0.833964
O O3 0.164418 0.209074 0.646184
O O4 0.067022 0.286216 0.808584
O O5 0.859991 0.977439 0.634976
O O6 0.063487 0.931641 0.756653
O O7 0.950485 0.862613 0.084059
O O8 0.693158 0.895166 0.148274
O O9 0.048921 0.641390 0.971707
O O10 0.166142 0.521016 0.000297
O O11 0.924653 0.567719 0.109300
O O12 0.705072 0.611807 0.002634
O O13 0.571552 0.729428 0.959021
#
# Coordination Sequence:
#
# PCOD9376547 Si02
#       7
#     8   4   8   8   8   8   8
#     4  12  25  39  64 105 136 178 232 285 347 423
#     4   8  18  38  66  96 124 174 230 266 346 416
#     4  10  20  40  65  94 132 176 227 276 339 412
#     4  10  20  39  68  97 130 179 225 279 339 404
#     4   9  20  37  72  94 127 181 227 273 349 406
#     4  12  25  39  67  99 139 176 230 284 348 414
#     4  11  23  43  67  94 139 184 220 289 350 414
#
# _framework density 22.690106
#
# number of rings (size 3 to 8) (size 9 to 14) (size 15 to 20)
#    0.000    1.538    3.077    1.846    4.308    0.000 
#    0.000    0.000   30.462    0.923    0.000    0.000 
#    0.000    0.000    0.000    0.000    0.000    0.000 
#
# Total GULP energy -144955.480017 kJ/mol
# GULP energy per Si atom -5575.210770 kJ/mol
# Density = 2.263846 g / cm^3
# Si number density = 22.690106 Si / 1000 Ang^3
#
#
#
# Elastic Constant Matrix: (Units=GPa)
#
#
# Indices 1 2 3 4 5 6 
#
# 1 134.9476 45.1959 18.3576 0.0000 0.0000 0.0000
# 2 45.1959 79.9377 -0.0761 0.0000 0.0000 0.0000
# 3 18.3576 -0.0761 27.3069 0.0000 0.0000 0.0000
# 4 0.0000 0.0000 0.0000 -6.8319 0.0000 -0.0001
# 5 0.0000 0.0000 0.0000 0.0000 22.1175 0.0000
# 6 0.0000 0.0000 0.0000 -0.0001 0.0000 48.4586
#
#
#
# Elastic Compliance Matrix: (Units=1/GPa)
#
#
# Indices 1 2 3 4 5 6 
#
# 1 0.010310 -0.005836 -0.006947 0.000000 0.000000 0.000000
# 2 -0.005836 0.015813 0.003967 0.000000 0.000000 0.000000
# 3 -0.006947 0.003967 0.041302 0.000000 0.000000 0.000000
# 4 0.000000 0.000000 0.000000 -0.146371 0.000000 0.000000
# 5 0.000000 0.000000 0.000000 0.000000 0.045213 0.000000
# 6 0.000000 0.000000 0.000000 0.000000 0.000000 0.020636
#
#
# Mechanical properties :
#
#
# Convention : Reuss Voigt Hill
#
# Bulk Modulus (GPa) = 20.08291 41.01632 30.54962
# Shear Modulus (GPa) = 236.60980 24.66317 130.63649
#
# Velocity S-wave (km/s) = 10.22278 3.30048 7.59600
# Velocity P-wave (km/s) = 12.17417 5.71316 9.50922
#
# Compressibility (1/GPa) = 0.04979357
#
# Stress axis : x y z
#
# Youngs Moduli (GPa) = 96.99518 63.23941 24.21180
#
# Poissons Ratio (x) = 0.36904 0.16820
# Poissons Ratio (y) = 0.56603 -0.09605
# Poissons Ratio (z) = 0.67385 -0.25088
#
# Static dielectric constant tensor:
#      x y z
#    x 1.846300 0.000000 0.000000 
#    y 0.000000 1.972460 0.000000 
#    z 0.000000 0.000000 1.809490 
# 
# From -- ./inp_files/5697.got.cif
#   From: 2010.05.17/outbox.cif.g08.bks.cpg/sg45_3_cif.got.tgz:5697.got - 2010.06.03 19:51:22.
