data_PCOD9376691
_publ_section_title
;
Structure prediction by ZEFSAII (Michael W. Deem and Ramdas Pophale) SiO2 
 PCOD9376691
Probable space group: I B A 2
;
_chemical_formula_sum "Si O2"
_cell_formula_units_Z 64
_cell_length_a 11.923018
_cell_length_b 14.959771
_cell_length_c 17.899911
_cell_angle_alpha 90.000000
_cell_angle_beta 90.000000
_cell_angle_gamma 90.000000
_cell_volume 3192.728704
_symmetry_space_group_name_H-M "I B A 2"
_symmetry_group_IT_number 45
_symmetry_cell_setting 'orthorhombic'
loop_
_space_group_symop_operation_xyz
x,y,z
-x,-y,z
-x,y,1/2+z
x,-y,1/2+z
1/2+x,1/2+y,1/2+z
1/2-x,1/2-y,1/2+z
1/2-x,1/2+y,z
1/2+x,1/2-y,z
loop_
_atom_site_type_symbol
_atom_site_label
_atom_site_fract_x
_atom_site_fract_y
_atom_site_fract_z
Si Si1 0.102174 0.379750 0.979770
Si Si2 0.237123 0.565687 0.750086
Si Si3 0.558293 0.704300 0.245435
Si Si4 0.421329 0.208601 0.085495
Si Si5 0.322918 0.708890 0.443024
Si Si6 0.952616 0.352550 0.847371
Si Si7 0.366434 0.987389 0.603298
Si Si8 0.097440 0.930462 0.825644
O O1 0.192653 0.310892 0.948933
O O2 0.023510 0.402657 0.910248
O O3 0.151289 0.465353 0.022958
O O4 0.030314 0.328798 0.042798
O O5 0.325280 0.648808 0.753124
O O6 0.121077 0.590782 0.790326
O O7 0.207115 0.535367 0.666218
O O8 0.297625 0.484004 0.792590
O O9 0.552530 0.744071 0.162838
O O10 0.535868 0.786152 0.302296
O O11 0.457295 0.635980 0.264521
O O12 0.347937 0.118999 0.099513
O O13 0.364946 0.275361 0.026849
O O14 0.363469 0.792979 0.394468
O O15 0.373630 0.625104 0.399005
O O16 0.500000 0.000000 0.621040
O O17 0.000000 0.000000 0.843794
#
# Coordination Sequence:
#
# PCOD9376691 Si02
#       8
#     8   8   8   8   8   8   8   8
#     4  10  21  38  56  84 123 153 192 246 300 357
#     4  11  22  38  64  90 119 162 200 246 307 357
#     4  10  21  42  63  87 119 156 203 250 296 360
#     4  10  22  38  58  84 117 156 199 246 296 358
#     4  10  21  38  60  85 116 159 196 241 304 360
#     4  10  21  37  61  89 116 153 202 248 298 356
#     4  10  22  38  55  86 123 154 197 250 295 356
#     4   9  22  41  60  87 120 149 197 253 295 356
#
# _framework density 20.045549000000001
#
# number of rings (size 3 to 8) (size 9 to 14) (size 15 to 20)
#    0.000    2.000    0.000    3.000    0.000   10.000 
#    0.000    5.625    0.000    0.000    0.000    0.000 
#    0.000    0.000    0.000    0.000    0.000    0.000 
#
# Total GULP energy -178683.301907 kJ/mol
# GULP energy per Si atom -5583.853185 kJ/mol
# Density = 1.999992 g / cm^3
# Si number density = 20.045549 Si / 1000 Ang^3
#
#
#
# Elastic Constant Matrix: (Units=GPa)
#
#
# Indices 1 2 3 4 5 6 
#
# 1 63.8524 35.6535 53.7434 0.0000 0.0000 0.0000
# 2 35.6535 87.6790 77.6313 0.0000 0.0000 0.0000
# 3 53.7434 77.6313 154.1846 0.0000 0.0000 0.0000
# 4 0.0000 0.0000 0.0000 18.2290 0.0000 0.0000
# 5 0.0000 0.0000 0.0000 0.0000 17.9180 0.0000
# 6 0.0000 0.0000 0.0000 0.0000 0.0000 14.2933
#
#
#
# Elastic Compliance Matrix: (Units=1/GPa)
#
#
# Indices 1 2 3 4 5 6 
#
# 1 0.022936 -0.004056 -0.005952 0.000000 0.000000 0.000000
# 2 -0.004056 0.021297 -0.009309 0.000000 0.000000 0.000000
# 3 -0.005952 -0.009309 0.013248 0.000000 0.000000 0.000000
# 4 0.000000 0.000000 0.000000 0.054858 0.000000 0.000000
# 5 0.000000 0.000000 0.000000 0.000000 0.055810 0.000000
# 6 0.000000 0.000000 0.000000 0.000000 0.000000 0.069963
#
#
# Mechanical properties :
#
#
# Convention : Reuss Voigt Hill
#
# Bulk Modulus (GPa) = 53.06428 71.08583 62.07505
# Shear Modulus (GPa) = 17.66608 19.33390 18.49999
#
# Velocity S-wave (km/s) = 2.97189 3.10901 3.04122
# Velocity P-wave (km/s) = 6.18914 6.95895 6.58531
#
# Compressibility (1/GPa) = 0.01884507
#
# Stress axis : x y z
#
# Youngs Moduli (GPa) = 43.59936 46.95511 75.48571
#
# Poissons Ratio (x) = 0.19047 0.44932
# Poissons Ratio (y) = 0.17686 0.70269
# Poissons Ratio (z) = 0.25952 0.43710
#
# Static dielectric constant tensor:
#      x y z
#    x 1.708680 0.000000 0.000000 
#    y 0.000000 1.748730 0.000000 
#    z 0.000000 0.000000 1.686110 
# 
# From -- ./inp_files/6270.got.cif
#   From: 2010.05.17/outbox.cif.g08.bks.cpg/sg45_4_cif.got.tgz:6270.got - 2010.06.03 19:51:22.
