data_PCOD9376344
_publ_section_title
;
Structure prediction by ZEFSAII (Michael W. Deem and Ramdas Pophale) SiO2 
 PCOD9376344
Probable space group: I B A 2
;
_chemical_formula_sum "Si O2"
_cell_formula_units_Z 40
_cell_length_a 7.367952
_cell_length_b 19.755784
_cell_length_c 11.593527
_cell_angle_alpha 90.000000
_cell_angle_beta 90.000000
_cell_angle_gamma 90.000000
_cell_volume 1687.549944
_symmetry_space_group_name_H-M "I B A 2"
_symmetry_group_IT_number 45
_symmetry_cell_setting 'orthorhombic'
loop_
_space_group_symop_operation_xyz
x,y,z
-x,-y,z
-x,y,1/2+z
x,-y,1/2+z
1/2+x,1/2+y,1/2+z
1/2-x,1/2-y,1/2+z
1/2-x,1/2+y,z
1/2+x,1/2-y,z
loop_
_atom_site_type_symbol
_atom_site_label
_atom_site_fract_x
_atom_site_fract_y
_atom_site_fract_z
Si Si1 0.251830 0.344485 0.266190
Si Si2 0.063890 0.076566 0.215631
Si Si3 0.038991 0.574600 0.139161
Si Si4 0.906306 0.174419 0.036970
Si Si5 0.529662 0.188236 0.956302
O O1 0.444156 0.377030 0.303415
O O2 0.305974 0.299101 0.156254
O O3 0.108906 0.311179 0.350256
O O4 0.136630 0.406857 0.214217
O O5 0.002952 0.108627 0.090774
O O6 0.280125 0.077469 0.215464
O O7 0.000000 0.000000 0.226360
O O8 0.000000 0.500000 0.089452
O O9 0.053105 0.633618 0.044812
O O10 0.738639 0.164710 0.949788
O O11 0.034470 0.234204 0.997038
#
# Coordination Sequence:
#
# PCOD9376344 Si02
#       5
#     8   8   8   8   8
#     4   9  23  40  64  97 130 181 224 282 344 405
#     4  10  19  44  68  93 131 176 222 273 351 393
#     4  11  21  41  68  93 138 176 219 293 335 411
#     4   9  22  39  64  97 133 180 220 292 340 412
#     4  11  21  42  62 100 137 174 236 270 354 415
#
# _framework density 23.703001
#
# number of rings (size 3 to 8) (size 9 to 14) (size 15 to 20)
#    1.200    0.800    2.000    1.200    0.000    4.000 
#    7.200    1.000    0.000    0.000    0.000    0.000 
#    0.000    0.000    0.000    0.000    0.000    0.000 
#
# Total GULP energy -111492.490531 kJ/mol
# GULP energy per Si atom -5574.624527 kJ/mol
# Density = 2.364905 g / cm^3
# Si number density = 23.703001 Si / 1000 Ang^3
#
#
#
# Elastic Constant Matrix: (Units=GPa)
#
#
# Indices 1 2 3 4 5 6 
#
# 1 122.6733 -1.0839 9.8152 0.0000 0.0000 0.0000
# 2 -1.0839 86.5321 9.9908 0.0000 0.0000 0.0000
# 3 9.8152 9.9908 22.5103 -0.0002 0.0001 0.0000
# 4 0.0000 0.0000 -0.0002 19.6143 0.0000 0.0000
# 5 0.0000 0.0000 0.0001 0.0000 16.6299 0.0000
# 6 0.0000 0.0000 0.0000 0.0000 0.0000 40.2195
#
#
#
# Elastic Compliance Matrix: (Units=1/GPa)
#
#
# Indices 1 2 3 4 5 6 
#
# 1 0.008472 0.000561 -0.003943 0.000000 0.000000 0.000000
# 2 0.000561 0.012218 -0.005667 0.000000 0.000000 0.000000
# 3 -0.003943 -0.005667 0.048659 0.000000 0.000000 0.000000
# 4 0.000000 0.000000 0.000000 0.050983 0.000000 0.000000
# 5 0.000000 0.000000 0.000000 0.000000 0.060133 0.000000
# 6 0.000000 0.000000 0.000000 0.000000 0.000000 0.024864
#
#
# Mechanical properties :
#
#
# Convention : Reuss Voigt Hill
#
# Bulk Modulus (GPa) = 19.51211 29.90665 24.70938
# Shear Modulus (GPa) = 20.78911 29.49231 25.14071
#
# Velocity S-wave (km/s) = 2.96474 3.53121 3.26030
# Velocity P-wave (km/s) = 4.46871 5.41023 4.96185
#
# Compressibility (1/GPa) = 0.05125023
#
# Stress axis : x y z
#
# Youngs Moduli (GPa) = 118.03310 81.84786 20.55120
#
# Poissons Ratio (x) = -0.04595 0.08104
# Poissons Ratio (y) = -0.06627 0.11647
# Poissons Ratio (z) = 0.46544 0.46387
#
# Static dielectric constant tensor:
#      x y z
#    x 1.904920 0.000000 0.000000 
#    y 0.000000 1.838680 0.000000 
#    z 0.000000 0.000000 2.008820 
# 
# From -- ./inp_files/5523.got.cif
#   From: 2010.05.17/outbox.cif.g08.bks.cpg/sg45_3_cif.got.tgz:5523.got - 2010.06.03 19:51:22.
