data_PCOD9376019
_publ_section_title
;
Structure prediction by ZEFSAII (Michael W. Deem and Ramdas Pophale) SiO2 
 PCOD9376019
Probable space group: I M M 2
;
_chemical_formula_sum "Si O2"
_cell_formula_units_Z 28
_cell_length_a 15.000000
_cell_length_b 30.000000
_cell_length_c 6.000000
_cell_angle_alpha 90.000000
_cell_angle_beta 90.000000
_cell_angle_gamma 90.000000
_cell_volume 2700.000000
_symmetry_space_group_name_H-M "I M M 2"
_symmetry_group_IT_number 44
_symmetry_cell_setting 'orthorhombic'
loop_
_space_group_symop_operation_xyz
x,y,z
-x,-y,z
-x,y,z
x,-y,z
1/2+x,1/2+y,1/2+z
1/2-x,1/2-y,1/2+z
1/2-x,1/2+y,1/2+z
1/2+x,1/2-y,1/2+z
loop_
_atom_site_type_symbol
_atom_site_label
_atom_site_fract_x
_atom_site_fract_y
_atom_site_fract_z
Si Si1 0.642357 0.246328 0.774480
Si Si2 0.108572 0.876766 0.612186
Si Si3 0.650162 0.281571 0.278062
Si Si4 0.095276 0.658860 0.481504
Si Si5 0.766892 0.382739 0.766539
Si Si6 0.603360 0.921847 0.639683
Si Si7 0.778518 0.050331 0.869392
O O1 0.617248 0.266251 0.528765
O O2 0.748690 0.236792 0.773558
O O3 0.600762 0.197714 0.802012
O O4 0.617359 0.267759 0.021554
O O5 0.133100 0.834632 0.768932
O O6 0.176890 0.870415 0.401191
O O7 0.148648 0.921350 0.728568
O O8 0.000000 0.878343 0.573685
O O9 0.183669 0.657407 0.634384
O O10 0.095741 0.614082 0.337744
O O11 0.000000 0.662406 0.605160
O O12 0.740645 0.421426 0.592903
O O13 0.847175 0.399964 0.926619
O O14 0.500000 0.937334 0.595851
O O15 0.684250 0.951993 0.734805
O O16 0.808278 0.000000 0.915247
#
# Coordination Sequence:
#
# PCOD9376019 Si02
#       7
#     8   8   8   8   8   8   8
#     4  10  22  38  64  98 135 183 229 277 328 396
#     4  11  26  45  68  93 125 171 226 285 347 410
#     4  10  23  40  64  96 133 180 228 280 342 392
#     4  10  21  36  61  97 135 179 220 262 319 392
#     4  10  21  39  67  95 131 171 220 273 338 403
#     4   9  19  37  63  95 135 175 214 259 321 398
#     4  10  23  43  66  92 127 166 213 276 347 416
#
# _framework density 10.370369999999999
#
# number of rings (size 3 to 8) (size 9 to 14) (size 15 to 20)
#    0.000    2.000    0.000    3.000   10.000    5.143 
#    0.000    0.000    0.000    0.000    0.000    0.000 
#    0.000    0.000    0.000    0.000    0.000    0.000 
#
# Total GULP energy -155929.794588 kJ/mol
# GULP energy per Si atom -5568.921235 kJ/mol
# Density = 1.034677 g / cm^3
# Si number density = 10.370370 Si / 1000 Ang^3
#
#
#
# Elastic Constant Matrix: (Units=GPa)
#
#
# Indices 1 2 3 4 5 6 
#
# 1 143.9285 39.4225 58.0263 0.0235 -0.0145 -0.1078
# 2 39.4225 108.6004 31.7403 -0.0046 0.0074 0.0396
# 3 58.0263 31.7403 119.2634 -0.0547 0.0217 0.3218
# 4 0.0235 -0.0046 -0.0547 16.9093 0.0012 0.0295
# 5 -0.0145 0.0074 0.0217 0.0012 27.3115 -0.0202
# 6 -0.1078 0.0396 0.3218 0.0295 -0.0202 -50.8923
#
#
#
# Elastic Compliance Matrix: (Units=1/GPa)
#
#
# Indices 1 2 3 4 5 6 
#
# 1 0.009095 -0.002178 -0.003845 -0.000026 0.000008 -0.000045
# 2 -0.002178 0.010506 -0.001737 0.000000 -0.000003 0.000002
# 3 -0.003845 -0.001737 0.010718 0.000039 -0.000010 0.000075
# 4 -0.000026 0.000000 0.000039 0.059139 -0.000003 0.000035
# 5 0.000008 -0.000003 -0.000010 -0.000003 0.036615 -0.000015
# 6 -0.000045 0.000002 0.000075 0.000035 -0.000015 -0.019649
#
#
# Mechanical properties :
#
#
# Convention : Reuss Voigt Hill
#
# Bulk Modulus (GPa) = 67.56952 70.01892 68.79422
# Shear Modulus (GPa) = 39.40885 14.83924 27.12405
#
# Velocity S-wave (km/s) = 4.36371 2.67772 3.62023
# Velocity P-wave (km/s) = 7.61828 6.58731 7.12147
#
# Compressibility (1/GPa) = 0.01479957
#
# Stress axis : x y z
#
# Youngs Moduli (GPa) = 109.95609 95.18309 93.30406
#
# Poissons Ratio (x) = 0.20726 0.35878
# Poissons Ratio (y) = 0.23943 0.16203
# Poissons Ratio (z) = 0.42281 0.16530
#
# Static dielectric constant tensor:
#      x y z
#    x 1.778020 0.000000 0.000020 
#    y 0.000000 1.781350 -0.000060 
#    z 0.000020 -0.000060 1.787560 
# 
# From -- ./inp_files/1687.got.cif
#   From: 2010.05.17/outbox.ucp.g08.bks.cvg/sg44_1_cif.got.tgz:1687.got - 2010.06.11 16:32:36.
