data_PCOD9376636
_publ_section_title
;
Structure prediction by ZEFSAII (Michael W. Deem and Ramdas Pophale) SiO2 
 PCOD9376636
Probable space group: I B A 2
;
_chemical_formula_sum "Si O2"
_cell_formula_units_Z 64
_cell_length_a 5.066817
_cell_length_b 29.237002
_cell_length_c 21.138227
_cell_angle_alpha 90.000000
_cell_angle_beta 90.000000
_cell_angle_gamma 90.000000
_cell_volume 3131.386060
_symmetry_space_group_name_H-M "I B A 2"
_symmetry_group_IT_number 45
_symmetry_cell_setting 'orthorhombic'
loop_
_space_group_symop_operation_xyz
x,y,z
-x,-y,z
-x,y,1/2+z
x,-y,1/2+z
1/2+x,1/2+y,1/2+z
1/2-x,1/2-y,1/2+z
1/2-x,1/2+y,z
1/2+x,1/2-y,z
loop_
_atom_site_type_symbol
_atom_site_label
_atom_site_fract_x
_atom_site_fract_y
_atom_site_fract_z
Si Si1 0.731064 0.029354 0.207270
Si Si2 0.886151 0.772326 0.789138
Si Si3 0.185283 0.222539 0.637205
Si Si4 0.951412 0.448625 0.446089
Si Si5 0.928157 0.881480 0.642596
Si Si6 0.184040 0.865437 0.775074
Si Si7 0.555735 0.552070 0.530396
Si Si8 0.180537 0.411802 0.321158
O O1 0.647563 0.043210 0.278281
O O2 0.752875 0.078380 0.173531
O O3 0.500000 0.000000 0.176802
O O4 0.000000 0.000000 0.206954
O O5 0.091260 0.734152 0.814376
O O6 0.832206 0.770658 0.713434
O O7 0.055398 0.818032 0.796455
O O8 0.926979 0.247892 0.612181
O O9 0.195053 0.168003 0.626810
O O10 0.656150 0.442159 0.472754
O O11 0.000000 0.500000 0.421626
O O12 0.148523 0.445590 0.505119
O O13 0.065660 0.416970 0.390971
O O14 0.134984 0.871116 0.699679
O O15 0.028186 0.907710 0.580949
O O16 0.488758 0.873763 0.789688
O O17 0.990331 0.900882 0.811616
O O18 0.500000 0.500000 0.554983
#
# Coordination Sequence:
#
# PCOD9376636 Si02
#       8
#     8   8   8   8   8   8   8   8
#     4  11  23  35  53  82 116 154 183 216 274 335
#     4   9  16  29  48  74 110 140 168 211 268 333
#     4   9  19  33  52  78 107 142 180 219 268 326
#     4  10  22  38  55  75 102 142 190 229 258 303
#     4  10  22  37  57  84 119 145 177 226 281 337
#     4  10  21  33  54  85 110 141 178 221 279 334
#     4  10  22  37  55  79 108 145 184 224 271 325
#     4  11  21  36  54  77 110 145 188 230 263 311
#
# _framework density 20.438234000000001
#
# number of rings (size 3 to 8) (size 9 to 14) (size 15 to 20)
#    0.000    2.000    0.000    3.750    0.000   14.000 
#    0.000    0.000    0.000    0.000    0.000   17.500 
#    0.000    0.000    0.000    0.000    0.000    0.000 
#
# Total GULP energy -178377.849612 kJ/mol
# GULP energy per Si atom -5574.307800 kJ/mol
# Density = 2.039172 g / cm^3
# Si number density = 20.438234 Si / 1000 Ang^3
#
#
#
# Elastic Constant Matrix: (Units=GPa)
#
#
# Indices 1 2 3 4 5 6 
#
# 1 78.1993 31.8193 -9.6873 0.0000 0.0000 0.0000
# 2 31.8193 122.5037 15.1279 0.0000 0.0000 0.0000
# 3 -9.6873 15.1279 34.9499 0.0000 0.0000 0.0000
# 4 0.0000 0.0000 0.0000 5.3809 0.0000 0.0000
# 5 0.0000 0.0000 0.0000 0.0000 6.0571 0.0000
# 6 0.0000 0.0000 0.0000 0.0000 0.0000 23.9502
#
#
#
# Elastic Compliance Matrix: (Units=1/GPa)
#
#
# Indices 1 2 3 4 5 6 
#
# 1 0.015545 -0.004828 0.006398 0.000000 0.000000 0.000000
# 2 -0.004828 0.010123 -0.005720 0.000000 0.000000 0.000000
# 3 0.006398 -0.005720 0.032862 0.000000 0.000000 0.000000
# 4 0.000000 0.000000 0.000000 0.185842 0.000000 0.000000
# 5 0.000000 0.000000 0.000000 0.000000 0.165096 0.000000
# 6 0.000000 0.000000 0.000000 0.000000 0.000000 0.041753
#
#
# Mechanical properties :
#
#
# Convention : Reuss Voigt Hill
#
# Bulk Modulus (GPa) = 19.90798 34.46365 27.18581
# Shear Modulus (GPa) = 10.49838 20.30384 15.40111
#
# Velocity S-wave (km/s) = 2.26887 3.15528 2.74805
# Velocity P-wave (km/s) = 4.07743 5.49303 4.83729
#
# Compressibility (1/GPa) = 0.05023112
#
# Stress axis : x y z
#
# Youngs Moduli (GPa) = 64.32981 98.78147 30.43053
#
# Poissons Ratio (x) = 0.47690 -0.19471
# Poissons Ratio (y) = 0.31057 0.17406
# Poissons Ratio (z) = -0.41160 0.56503
#
# Static dielectric constant tensor:
#      x y z
#    x 1.774740 0.000000 0.000000 
#    y 0.000000 1.818880 0.000000 
#    z 0.000000 0.000000 1.750050 
# 
# From -- ./inp_files/8738.got.cif
#   From: 2010.05.17/outbox.cif.g08.bks.cpg/sg45_5_cif.got.tgz:8738.got - 2010.06.03 19:51:22.
