data_PCOD9376687
_publ_section_title
;
Structure prediction by ZEFSAII (Michael W. Deem and Ramdas Pophale) SiO2 
 PCOD9376687
Probable space group: I B A 2
;
_chemical_formula_sum "Si O2"
_cell_formula_units_Z 64
_cell_length_a 19.242414
_cell_length_b 18.410394
_cell_length_c 8.874613
_cell_angle_alpha 90.000000
_cell_angle_beta 90.000000
_cell_angle_gamma 90.000000
_cell_volume 3143.924158
_symmetry_space_group_name_H-M "I B A 2"
_symmetry_group_IT_number 45
_symmetry_cell_setting 'orthorhombic'
loop_
_space_group_symop_operation_xyz
x,y,z
-x,-y,z
-x,y,1/2+z
x,-y,1/2+z
1/2+x,1/2+y,1/2+z
1/2-x,1/2-y,1/2+z
1/2-x,1/2+y,z
1/2+x,1/2-y,z
loop_
_atom_site_type_symbol
_atom_site_label
_atom_site_fract_x
_atom_site_fract_y
_atom_site_fract_z
Si Si1 0.677159 0.149527 0.049300
Si Si2 0.223610 0.799153 0.637121
Si Si3 0.206332 0.055829 0.938771
Si Si4 0.946558 0.346096 0.983491
Si Si5 0.361471 0.042504 0.807350
Si Si6 0.345922 0.276991 0.958185
Si Si7 0.918733 0.385279 0.306753
Si Si8 0.169488 0.912342 0.112987
O O1 0.672522 0.234916 0.078932
O O2 0.636636 0.095541 0.162506
O O3 0.754720 0.123701 0.086101
O O4 0.653962 0.137159 0.879840
O O5 0.214682 0.876156 0.552842
O O6 0.298407 0.769200 0.577329
O O7 0.202948 0.797315 0.814168
O O8 0.281932 0.032423 0.867260
O O9 0.162203 0.077910 0.791457
O O10 0.172965 0.988801 0.027911
O O11 0.898700 0.413812 0.938478
O O12 0.909045 0.275829 0.913840
O O13 0.022609 0.366246 0.927951
O O14 0.942198 0.341845 0.161737
O O15 0.405040 0.970146 0.776313
O O16 0.375644 0.350009 0.034479
#
# Coordination Sequence:
#
# PCOD9376687 Si02
#       8
#     8   8   8   8   8   8   8   8
#     4  10  21  37  60  87 120 167 213 261 321 375
#     4  11  21  37  62  85 125 162 213 266 330 390
#     4  11  21  36  61  94 129 162 207 260 329 396
#     4  12  26  41  60  87 125 172 228 259 317 367
#     4  11  21  40  56  90 123 171 217 263 306 377
#     4  11  23  39  61  88 125 164 217 269 329 390
#     4  12  26  39  62  81 128 173 222 268 307 368
#     4  10  22  35  59  93 127 162 203 260 332 388
#
# _framework density 20.356724
#
# number of rings (size 3 to 8) (size 9 to 14) (size 15 to 20)
#    0.000    1.000    3.750    4.125    7.000    1.000 
#    0.000    0.000    0.000    0.000    0.000    0.875 
#    0.000    0.000    0.000    0.000    0.000    0.000 
#
# Total GULP energy -178505.100009 kJ/mol
# GULP energy per Si atom -5578.284375 kJ/mol
# Density = 2.031039 g / cm^3
# Si number density = 20.356724 Si / 1000 Ang^3
#
#
#
# Elastic Constant Matrix: (Units=GPa)
#
#
# Indices 1 2 3 4 5 6 
#
# 1 36.2097 20.3086 3.1546 0.0000 0.0000 0.0000
# 2 20.3086 144.8055 31.9144 0.0000 0.0000 0.0000
# 3 3.1546 31.9144 96.3479 0.0000 0.0000 0.0000
# 4 0.0000 0.0000 0.0000 30.0715 0.0000 0.0000
# 5 0.0000 0.0000 0.0000 0.0000 17.7321 0.0000
# 6 0.0000 0.0000 0.0000 0.0000 0.0000 15.7717
#
#
#
# Elastic Compliance Matrix: (Units=1/GPa)
#
#
# Indices 1 2 3 4 5 6 
#
# 1 0.029992 -0.004304 0.000444 0.000000 0.000000 0.000000
# 2 -0.004304 0.008067 -0.002531 0.000000 0.000000 0.000000
# 3 0.000444 -0.002531 0.011203 0.000000 0.000000 0.000000
# 4 0.000000 0.000000 0.000000 0.033254 0.000000 0.000000
# 5 0.000000 0.000000 0.000000 0.000000 0.056395 0.000000
# 6 0.000000 0.000000 0.000000 0.000000 0.000000 0.063405
#
#
# Mechanical properties :
#
#
# Convention : Reuss Voigt Hill
#
# Bulk Modulus (GPa) = 27.41293 43.12426 35.26859
# Shear Modulus (GPa) = 22.00128 27.51411 24.75769
#
# Velocity S-wave (km/s) = 3.29110 3.68040 3.49118
# Velocity P-wave (km/s) = 5.28557 6.26823 5.79776
#
# Compressibility (1/GPa) = 0.03647914
#
# Stress axis : x y z
#
# Youngs Moduli (GPa) = 33.34193 123.95656 89.26184
#
# Poissons Ratio (x) = 0.53352 -0.03961
# Poissons Ratio (y) = 0.14351 0.22595
# Poissons Ratio (z) = -0.01479 0.31377
#
# Static dielectric constant tensor:
#      x y z
#    x 1.847840 0.000000 0.000000 
#    y 0.000000 1.817300 0.000000 
#    z 0.000000 0.000000 1.807440 
# 
# From -- ./inp_files/2383.got.cif
#   From: 2010.05.17/outbox.cif.g08.bks.cpg/sg45_2_cif.got.tgz:2383.got - 2010.06.03 19:51:22.
