data_PCOD9376906
_publ_section_title
;
Structure prediction by ZEFSAII (Michael W. Deem and Ramdas Pophale) SiO2 
 PCOD9376906
Probable space group: I B A 2
;
_chemical_formula_sum "Si O2"
_cell_formula_units_Z 56
_cell_length_a 5.619629
_cell_length_b 31.546360
_cell_length_c 14.190879
_cell_angle_alpha 90.000000
_cell_angle_beta 90.000000
_cell_angle_gamma 90.000000
_cell_volume 2515.742561
_symmetry_space_group_name_H-M "I B A 2"
_symmetry_group_IT_number 45
_symmetry_cell_setting 'orthorhombic'
loop_
_space_group_symop_operation_xyz
x,y,z
-x,-y,z
-x,y,1/2+z
x,-y,1/2+z
1/2+x,1/2+y,1/2+z
1/2-x,1/2-y,1/2+z
1/2-x,1/2+y,z
1/2+x,1/2-y,z
loop_
_atom_site_type_symbol
_atom_site_label
_atom_site_fract_x
_atom_site_fract_y
_atom_site_fract_z
Si Si1 0.452420 0.843789 0.283780
Si Si2 0.899596 0.135775 0.113359
Si Si3 0.378574 0.224794 0.156756
Si Si4 0.500000 0.500000 0.800846
Si Si5 0.029266 0.422149 0.044093
Si Si6 0.757436 0.581904 0.725830
Si Si7 0.732503 0.165144 0.488115
Si Si8 0.000000 0.500000 0.407217
O O1 0.287461 0.848367 0.190427
O O2 0.622535 0.806352 0.247753
O O3 0.580389 0.890027 0.297276
O O4 0.311239 0.830154 0.377292
O O5 0.790697 0.095283 0.061954
O O6 0.113787 0.119518 0.176524
O O7 0.998674 0.164874 0.029606
O O8 0.624747 0.251181 0.160339
O O9 0.388685 0.198927 0.057698
O O10 0.573859 0.545103 0.753749
O O11 0.753082 0.492226 0.852357
O O12 0.927213 0.436912 0.144999
O O13 0.877692 0.381393 0.010620
O O14 0.033238 0.459319 0.971338
#
# Coordination Sequence:
#
# PCOD9376906 Si02
#       8
#     8   8   8   4   8   8   8   4
#     4  11  24  47  76 112 146 204 257 311 386 465
#     4  10  21  45  73 107 145 195 262 312 362 452
#     4  12  27  50  73 111 157 188 248 317 377 454
#     4  12  30  44  66 114 156 192 252 320 370 450
#     4  10  24  44  72 101 145 199 253 308 377 447
#     4  10  24  44  74 100 146 202 252 314 377 453
#     4  11  24  46  76 108 147 206 250 309 382 465
#     4  12  30  44  66 112 156 192 256 318 372 446
#
# _framework density 22.259830999999998
#
# number of rings (size 3 to 8) (size 9 to 14) (size 15 to 20)
#    0.000    1.143    4.286    1.714   12.000    2.286 
#    0.000    0.000    0.000    0.000    0.000    0.000 
#    0.000    0.000    0.000    0.000    0.000    0.000 
#
# Total GULP energy -156117.308866 kJ/mol
# GULP energy per Si atom -5575.618174 kJ/mol
# Density = 2.220917 g / cm^3
# Si number density = 22.259831 Si / 1000 Ang^3
#
#
#
# Elastic Constant Matrix: (Units=GPa)
#
#
# Indices 1 2 3 4 5 6 
#
# 1 124.7467 52.0580 51.3543 0.0000 0.0000 0.0000
# 2 52.0580 107.2455 60.2194 0.0000 0.0000 0.0000
# 3 51.3543 60.2194 95.7221 0.0000 0.0000 0.0000
# 4 0.0000 0.0000 0.0000 32.5389 0.0000 0.0000
# 5 0.0000 0.0000 0.0000 0.0000 7.5537 0.0000
# 6 0.0000 0.0000 0.0000 0.0000 0.0000 51.8138
#
#
#
# Elastic Compliance Matrix: (Units=1/GPa)
#
#
# Indices 1 2 3 4 5 6 
#
# 1 0.010920 -0.003110 -0.003902 0.000000 0.000000 0.000000
# 2 -0.003110 0.015303 -0.007959 0.000000 0.000000 0.000000
# 3 -0.003902 -0.007959 0.017547 0.000000 0.000000 0.000000
# 4 0.000000 0.000000 0.000000 0.030732 0.000000 0.000000
# 5 0.000000 0.000000 0.000000 0.000000 0.132385 0.000000
# 6 0.000000 0.000000 0.000000 0.000000 0.000000 0.019300
#
#
# Mechanical properties :
#
#
# Convention : Reuss Voigt Hill
#
# Bulk Modulus (GPa) = 72.31204 72.77532 72.54368
# Shear Modulus (GPa) = 19.17622 29.32013 24.24817
#
# Velocity S-wave (km/s) = 2.93827 3.63323 3.30407
# Velocity P-wave (km/s) = 6.63831 7.09683 6.87140
#
# Compressibility (1/GPa) = 0.01382896
#
# Stress axis : x y z
#
# Youngs Moduli (GPa) = 91.57141 65.34766 56.98826
#
# Poissons Ratio (x) = 0.20321 0.22239
# Poissons Ratio (y) = 0.28475 0.45356
# Poissons Ratio (z) = 0.35735 0.52009
#
# Static dielectric constant tensor:
#      x y z
#    x 1.909400 0.000000 0.000000 
#    y 0.000000 1.886960 0.000000 
#    z 0.000000 0.000000 1.831080 
# 
# From -- ./inp_files/5292.got.cif
#   From: 2010.05.17/outbox.cif.g08.bks.cpg/sg45_3_cif.got.tgz:5292.got - 2010.06.03 19:51:22.
