data_PCOD9376495
_publ_section_title
;
Structure prediction by ZEFSAII (Michael W. Deem and Ramdas Pophale) SiO2 
 PCOD9376495
Probable space group: I B A 2
;
_chemical_formula_sum "Si O2"
_cell_formula_units_Z 60
_cell_length_a 25.667621
_cell_length_b 5.378927
_cell_length_c 18.059475
_cell_angle_alpha 90.000000
_cell_angle_beta 90.000000
_cell_angle_gamma 90.000000
_cell_volume 2493.368045
_symmetry_space_group_name_H-M "I B A 2"
_symmetry_group_IT_number 45
_symmetry_cell_setting 'orthorhombic'
loop_
_space_group_symop_operation_xyz
x,y,z
-x,-y,z
-x,y,1/2+z
x,-y,1/2+z
1/2+x,1/2+y,1/2+z
1/2-x,1/2-y,1/2+z
1/2-x,1/2+y,z
1/2+x,1/2-y,z
loop_
_atom_site_type_symbol
_atom_site_label
_atom_site_fract_x
_atom_site_fract_y
_atom_site_fract_z
Si Si1 0.716813 0.820205 0.817830
Si Si2 0.500000 0.500000 0.886399
Si Si3 0.717270 0.835997 0.990018
Si Si4 0.869833 0.668753 0.612157
Si Si5 0.131157 0.992037 0.745206
Si Si6 0.415057 0.850515 0.853588
Si Si7 0.945418 0.361544 0.989992
Si Si8 0.944921 0.360548 0.713691
O O1 0.757716 0.591568 0.806678
O O2 0.698366 0.832676 0.903988
O O3 0.670207 0.731499 0.764822
O O4 0.470024 0.710294 0.844820
O O5 0.541751 0.635029 0.936767
O O6 0.741377 0.560184 0.998039
O O7 0.675250 0.889309 0.053663
O O8 0.848868 0.849697 0.675631
O O9 0.915643 0.759076 0.557787
O O10 0.902076 0.454667 0.654403
O O11 0.127044 0.163887 0.818950
O O12 0.071175 0.929385 0.718791
O O13 0.413254 0.945207 0.937837
O O14 0.423868 0.066797 0.795096
O O15 0.000000 0.500000 0.009139
O O16 0.000000 0.500000 0.699758
#
# Coordination Sequence:
#
# PCOD9376495 Si02
#       8
#     8   4   8   8   8   8   8   8
#     4  10  25  48  79 110 143 185 245 312 373 442
#     4  10  20  38  62 100 124 190 234 310 348 416
#     4  10  25  49  76 107 144 186 239 311 377 437
#     4  11  27  42  68 105 140 196 234 303 370 446
#     4  11  26  43  70 105 141 195 240 300 370 443
#     4  10  21  37  66  96 133 184 239 297 348 428
#     4  10  22  40  63  98 140 185 245 294 355 431
#     4  11  24  44  64  99 149 193 241 292 359 435
#
# _framework density 24.063835999999998
#
# number of rings (size 3 to 8) (size 9 to 14) (size 15 to 20)
#    0.000    1.600    0.000    3.200    9.333    8.000 
#    0.000    0.000    0.000    0.000    0.000    0.000 
#    0.000    0.000    0.000    0.000    0.000    0.000 
#
# Total GULP energy -167302.821407 kJ/mol
# GULP energy per Si atom -5576.760714 kJ/mol
# Density = 2.400907 g / cm^3
# Si number density = 24.063836 Si / 1000 Ang^3
#
#
#
# Elastic Constant Matrix: (Units=GPa)
#
#
# Indices 1 2 3 4 5 6 
#
# 1 97.3402 25.6188 42.9297 0.0000 0.0000 0.0000
# 2 25.6188 65.8840 16.4937 0.0000 0.0000 0.0000
# 3 42.9297 16.4937 106.8474 0.0000 0.0000 0.0000
# 4 0.0000 0.0000 0.0000 7.8574 0.0000 0.0000
# 5 0.0000 0.0000 0.0000 0.0000 44.6219 0.0000
# 6 0.0000 0.0000 0.0000 0.0000 0.0000 39.4210
#
#
#
# Elastic Compliance Matrix: (Units=1/GPa)
#
#
# Indices 1 2 3 4 5 6 
#
# 1 0.013441 -0.004030 -0.004778 0.000000 0.000000 0.000000
# 2 -0.004030 0.016997 -0.001004 0.000000 0.000000 0.000000
# 3 -0.004778 -0.001004 0.011434 0.000000 0.000000 0.000000
# 4 0.000000 0.000000 0.000000 0.127268 0.000000 0.000000
# 5 0.000000 0.000000 0.000000 0.000000 0.022411 0.000000
# 6 0.000000 0.000000 0.000000 0.000000 0.000000 0.025367
#
#
# Mechanical properties :
#
#
# Convention : Reuss Voigt Hill
#
# Bulk Modulus (GPa) = 44.95202 48.90621 46.92912
# Shear Modulus (GPa) = 20.49515 30.71534 25.60525
#
# Velocity S-wave (km/s) = 2.92155 3.57657 3.26552
# Velocity P-wave (km/s) = 5.48648 6.11747 5.81055
#
# Compressibility (1/GPa) = 0.02224594
#
# Stress axis : x y z
#
# Youngs Moduli (GPa) = 74.39691 58.83439 87.45786
#
# Poissons Ratio (x) = 0.23713 0.41791
# Poissons Ratio (y) = 0.29985 0.08784
# Poissons Ratio (z) = 0.35550 0.05909
#
# Static dielectric constant tensor:
#      x y z
#    x 1.987820 0.000000 0.000000 
#    y 0.000000 2.061560 0.000000 
#    z 0.000000 0.000000 1.946890 
# 
# From -- ./inp_files/8548.got.cif
#   From: 2010.05.17/outbox.cif.g08.bks.cpg/sg45_5_cif.got.tgz:8548.got - 2010.06.03 19:51:22.
