data_PCOD9376754
_publ_section_title
;
Structure prediction by ZEFSAII (Michael W. Deem and Ramdas Pophale) SiO2 
 PCOD9376754
Probable space group: I B A 2
;
_chemical_formula_sum "Si O2"
_cell_formula_units_Z 56
_cell_length_a 22.742590
_cell_length_b 5.625408
_cell_length_c 20.975091
_cell_angle_alpha 90.000000
_cell_angle_beta 90.000000
_cell_angle_gamma 90.000000
_cell_volume 2683.476536
_symmetry_space_group_name_H-M "I B A 2"
_symmetry_group_IT_number 45
_symmetry_cell_setting 'orthorhombic'
loop_
_space_group_symop_operation_xyz
x,y,z
-x,-y,z
-x,y,1/2+z
x,-y,1/2+z
1/2+x,1/2+y,1/2+z
1/2-x,1/2-y,1/2+z
1/2-x,1/2+y,z
1/2+x,1/2-y,z
loop_
_atom_site_type_symbol
_atom_site_label
_atom_site_fract_x
_atom_site_fract_y
_atom_site_fract_z
Si Si1 0.063501 0.630134 0.594780
Si Si2 0.227685 0.206198 0.701136
Si Si3 0.599636 0.831720 0.211758
Si Si4 0.500000 0.500000 0.373516
Si Si5 0.500000 0.500000 0.173308
Si Si6 0.063501 0.630133 0.452044
Si Si7 0.727686 0.293798 0.345692
Si Si8 0.900364 0.668280 0.335066
O O1 0.099245 0.486157 0.647217
O O2 0.087729 0.645698 0.523412
O O3 0.000000 0.500000 0.590748
O O4 0.047607 0.879534 0.626828
O O5 0.243559 0.467237 0.672166
O O6 0.157713 0.172850 0.706962
O O7 0.249998 0.249997 0.773414
O O8 0.538506 0.687701 0.212556
O O9 0.603756 0.000001 0.273412
O O10 0.452393 0.379533 0.419995
O O11 0.538507 0.312301 0.334268
O O12 0.099245 0.486157 0.399606
O O13 0.000000 0.500000 0.456076
O O14 0.756441 0.532759 0.374663
O O15 0.657714 0.327147 0.339863
#
# Coordination Sequence:
#
# PCOD9376754 Si02
#       8
#     8   8   8   4   4   8   8   8
#     4   9  20  38  58  86 122 168 214 256 321 398
#     4  10  21  39  63  90 122 170 220 265 315 387
#     4  11  23  38  62  94 130 162 213 274 330 390
#     4  10  23  37  60  88 133 171 206 268 339 397
#     4  10  23  37  60  88 133 171 206 268 339 397
#     4   9  20  38  58  86 122 168 214 256 321 398
#     4  10  21  39  63  90 122 170 220 265 315 387
#     4  11  23  38  62  94 130 162 213 274 330 390
#
# _framework density 20.868448999999998
#
# number of rings (size 3 to 8) (size 9 to 14) (size 15 to 20)
#    0.000    2.000    2.857    0.429    4.000    8.571 
#    0.000    0.000    0.000    1.714    0.000    0.000 
#    0.000    0.000    0.000    0.000    0.000    0.000 
#
# Total GULP energy -156201.439211 kJ/mol
# GULP energy per Si atom -5578.622829 kJ/mol
# Density = 2.082095 g / cm^3
# Si number density = 20.868449 Si / 1000 Ang^3
#
#
#
# Elastic Constant Matrix: (Units=GPa)
#
#
# Indices 1 2 3 4 5 6 
#
# 1 80.0654 18.2362 46.1155 0.0000 0.0000 0.0000
# 2 18.2362 100.4124 13.5759 0.0000 0.0000 0.0000
# 3 46.1155 13.5759 78.4233 0.0000 0.0000 0.0000
# 4 0.0000 0.0000 0.0000 9.5289 0.0000 0.0000
# 5 0.0000 0.0000 0.0000 0.0000 -21.9117 0.0000
# 6 0.0000 0.0000 0.0000 0.0000 0.0000 35.1600
#
#
#
# Elastic Compliance Matrix: (Units=1/GPa)
#
#
# Indices 1 2 3 4 5 6 
#
# 1 0.019277 -0.002016 -0.010986 0.000000 0.000000 0.000000
# 2 -0.002016 0.010408 -0.000617 0.000000 0.000000 0.000000
# 3 -0.010986 -0.000617 0.019318 0.000000 0.000000 0.000000
# 4 0.000000 0.000000 0.000000 0.104944 0.000000 0.000000
# 5 0.000000 0.000000 0.000000 0.000000 -0.045638 0.000000
# 6 0.000000 0.000000 0.000000 0.000000 0.000000 0.028441
#
#
# Mechanical properties :
#
#
# Convention : Reuss Voigt Hill
#
# Bulk Modulus (GPa) = 45.94240 46.08403 46.01321
# Shear Modulus (GPa) = 29.19818 16.62035 22.90926
#
# Velocity S-wave (km/s) = 3.74459 2.82518 3.31689
# Velocity P-wave (km/s) = 6.38427 5.72479 6.06350
#
# Compressibility (1/GPa) = 0.02176638
#
# Stress axis : x y z
#
# Youngs Moduli (GPa) = 51.87584 96.07684 51.76391
#
# Poissons Ratio (x) = 0.19365 0.56870
# Poissons Ratio (y) = 0.10456 0.03192
# Poissons Ratio (z) = 0.56993 0.05924
#
# Static dielectric constant tensor:
#      x y z
#    x 1.724700 0.000000 0.000000 
#    y 0.000000 1.852410 0.000000 
#    z 0.000000 0.000000 1.728150 
# 
# From -- ./inp_files/9338.got.cif
#   From: 2010.05.17/outbox.cif.g08.bks.cpg/sg45_5_cif.got.tgz:9338.got - 2010.06.03 19:51:22.
