data_PCOD9376310
_publ_section_title
;
Structure prediction by ZEFSAII (Michael W. Deem and Ramdas Pophale) SiO2 
 PCOD9376310
Probable space group: I B A 2
;
_chemical_formula_sum "Si O2"
_cell_formula_units_Z 56
_cell_length_a 14.560312
_cell_length_b 9.714702
_cell_length_c 18.044225
_cell_angle_alpha 90.000000
_cell_angle_beta 90.000000
_cell_angle_gamma 90.000000
_cell_volume 2552.339244
_symmetry_space_group_name_H-M "I B A 2"
_symmetry_group_IT_number 45
_symmetry_cell_setting 'orthorhombic'
loop_
_space_group_symop_operation_xyz
x,y,z
-x,-y,z
-x,y,1/2+z
x,-y,1/2+z
1/2+x,1/2+y,1/2+z
1/2-x,1/2-y,1/2+z
1/2-x,1/2+y,z
1/2+x,1/2-y,z
loop_
_atom_site_type_symbol
_atom_site_label
_atom_site_fract_x
_atom_site_fract_y
_atom_site_fract_z
Si Si1 0.167759 0.104786 0.252760
Si Si2 0.111554 0.996320 0.407876
Si Si3 0.889028 0.497567 0.049700
Si Si4 0.914542 0.194533 0.033254
Si Si5 0.000000 0.000000 0.157176
Si Si6 0.579349 0.196762 0.926462
Si Si7 0.500000 0.000000 0.302136
Si Si8 0.172172 0.592830 0.704335
O O1 0.195867 0.257468 0.232984
O O2 0.153886 0.076263 0.339198
O O3 0.244882 0.005326 0.222851
O O4 0.074394 0.071312 0.209265
O O5 0.136188 0.834319 0.408357
O O6 0.133601 0.077664 0.483400
O O7 0.000000 0.000000 0.398505
O O8 0.861534 0.336288 0.050548
O O9 0.847080 0.581993 0.117184
O O10 0.000000 0.500000 0.060749
O O11 0.871223 0.575473 0.972362
O O12 0.953768 0.115869 0.104713
O O13 0.999406 0.247610 0.981821
O O14 0.533331 0.124758 0.855372
O O15 0.417095 0.954776 0.249859
#
# Coordination Sequence:
#
# PCOD9376310 Si02
#       8
#     8   8   8   8   4   8   4   8
#     4  12  29  46  70 105 144 185 236 287 351 419
#     4  10  20  41  70  99 135 176 232 285 351 411
#     4  10  20  41  70  99 135 176 232 285 351 411
#     4  10  19  37  72 104 128 178 233 286 346 417
#     4  12  24  42  78  98 138 188 236 288 356 408
#     4  10  19  37  72 104 128 178 233 286 346 417
#     4  12  24  42  78  98 138 188 236 288 356 408
#     4  12  29  46  70 105 144 185 236 287 351 419
#
# _framework density 21.940657000000002
#
# number of rings (size 3 to 8) (size 9 to 14) (size 15 to 20)
#    0.000    1.143    5.714    3.429    4.000    0.000 
#    0.000    1.429    6.286    0.000    0.000    0.000 
#    0.000    0.000    0.000    0.000    0.000    0.000 
#
# Total GULP energy -156635.338291 kJ/mol
# GULP energy per Si atom -5594.119225 kJ/mol
# Density = 2.189072 g / cm^3
# Si number density = 21.940657 Si / 1000 Ang^3
#
#
#
# Elastic Constant Matrix: (Units=GPa)
#
#
# Indices 1 2 3 4 5 6 
#
# 1 18.1589 -12.7434 -2.0852 0.0000 0.0000 0.0000
# 2 -12.7434 110.9536 -1.1439 0.0000 0.0000 0.0000
# 3 -2.0852 -1.1439 81.8615 0.0000 0.0000 0.0000
# 4 0.0000 0.0000 0.0000 42.7433 0.0000 0.0000
# 5 0.0000 0.0000 0.0000 0.0000 -1.8822 0.0000
# 6 0.0000 0.0000 0.0000 0.0000 0.0000 25.6530
#
#
#
# Elastic Compliance Matrix: (Units=1/GPa)
#
#
# Indices 1 2 3 4 5 6 
#
# 1 0.060113 0.006921 0.001628 0.000000 0.000000 0.000000
# 2 0.006921 0.009811 0.000313 0.000000 0.000000 0.000000
# 3 0.001628 0.000313 0.012262 0.000000 0.000000 0.000000
# 4 0.000000 0.000000 0.000000 0.023395 0.000000 0.000000
# 5 0.000000 0.000000 0.000000 0.000000 -0.531289 0.000000
# 6 0.000000 0.000000 0.000000 0.000000 0.000000 0.038982
#
#
# Mechanical properties :
#
#
# Convention : Reuss Voigt Hill
#
# Bulk Modulus (GPa) = 10.00897 19.89214 14.95056
# Shear Modulus (GPa) = -13.47174 28.43258 7.48042
#
# Velocity S-wave (km/s) = -2.48061 3.60375 1.84846
# Velocity P-wave (km/s) = 1.90599 5.13829 3.37411
#
# Compressibility (1/GPa) = 0.09991033
#
# Stress axis : x y z
#
# Youngs Moduli (GPa) = 16.63525 101.92746 81.55544
#
# Poissons Ratio (x) = -0.70544 -0.13276
# Poissons Ratio (y) = -0.11513 -0.02556
# Poissons Ratio (z) = -0.02708 -0.03194
#
# Static dielectric constant tensor:
#      x y z
#    x 1.710010 0.000000 0.000000 
#    y 0.000000 1.832880 0.000000 
#    z 0.000000 0.000000 1.780480 
# 
# From -- ./inp_files/9191.got.cif
#   From: 2010.05.17/outbox.cif.g08.bks.cpg/sg45_5_cif.got.tgz:9191.got - 2010.06.03 19:51:22.
