data_PCOD9376116
_publ_section_title
;
Structure prediction by ZEFSAII (Michael W. Deem and Ramdas Pophale) SiO2 
 PCOD9376116
Probable space group: I B A 2
;
_chemical_formula_sum "Si O2"
_cell_formula_units_Z 56
_cell_length_a 22.507291
_cell_length_b 5.055979
_cell_length_c 20.154842
_cell_angle_alpha 90.000000
_cell_angle_beta 90.000000
_cell_angle_gamma 90.000000
_cell_volume 2293.548274
_symmetry_space_group_name_H-M "I B A 2"
_symmetry_group_IT_number 45
_symmetry_cell_setting 'orthorhombic'
loop_
_space_group_symop_operation_xyz
x,y,z
-x,-y,z
-x,y,1/2+z
x,-y,1/2+z
1/2+x,1/2+y,1/2+z
1/2-x,1/2-y,1/2+z
1/2-x,1/2+y,z
1/2+x,1/2-y,z
loop_
_atom_site_type_symbol
_atom_site_label
_atom_site_fract_x
_atom_site_fract_y
_atom_site_fract_z
Si Si1 0.368848 0.515226 0.137440
Si Si2 0.826215 0.850256 0.506854
Si Si3 0.089109 0.602238 0.842148
Si Si4 0.938364 0.490096 0.108670
Si Si5 0.220644 0.797602 0.868824
Si Si6 0.595972 0.847164 0.478880
Si Si7 0.937368 0.905540 0.762025
O O1 0.386492 0.822684 0.136698
O O2 0.379739 0.446832 0.214462
O O3 0.417700 0.311772 0.106466
O O4 0.316825 0.452076 0.083001
O O5 0.777338 0.830597 0.449219
O O6 0.854817 0.558948 0.504904
O O7 0.873089 0.063080 0.475999
O O8 0.159614 0.655799 0.849405
O O9 0.072013 0.465360 0.911229
O O10 0.065343 0.889881 0.823488
O O11 0.068446 0.392866 0.787167
O O12 0.000000 0.500000 0.147114
O O13 0.949519 0.640142 0.039084
O O14 0.271058 0.595557 0.844519
O O15 0.000000 0.000000 0.729613
#
# Coordination Sequence:
#
# PCOD9376116 Si02
#       7
#     8   8   8   8   8   8   8
#     4  10  21  36  54  78 112 151 197 247 294 350
#     4   9  18  35  58  84 111 140 183 246 313 369
#     4  11  23  40  57  86 124 160 206 260 303 359
#     4  10  18  30  51  76 104 140 189 247 296 346
#     4  11  21  38  67  94 117 150 196 253 323 388
#     4   9  18  33  51  75 109 146 182 236 308 353
#     4  12  24  38  58  83 122 177 219 245 288 361
#
# _framework density 24.416318
#
# number of rings (size 3 to 8) (size 9 to 14) (size 15 to 20)
#    0.000    1.714    0.000    6.857    0.000    1.143 
#    0.000    0.000    0.000    5.143    0.000    0.000 
#    0.000    0.000    0.000    0.000    0.000    0.000 
#
# Total GULP energy -155942.694173 kJ/mol
# GULP energy per Si atom -5569.381935 kJ/mol
# Density = 2.436074 g / cm^3
# Si number density = 24.416318 Si / 1000 Ang^3
#
#
#
# Elastic Constant Matrix: (Units=GPa)
#
#
# Indices 1 2 3 4 5 6 
#
# 1 40.3664 33.0230 5.3514 0.0000 0.0000 0.0000
# 2 33.0230 151.9360 13.9685 0.0000 0.0000 0.0000
# 3 5.3514 13.9685 90.4061 0.0000 0.0000 0.0000
# 4 0.0000 0.0000 0.0000 38.9709 0.0000 0.0000
# 5 0.0000 0.0000 0.0000 0.0000 14.6627 0.0000
# 6 0.0000 0.0000 0.0000 0.0000 0.0000 32.6705
#
#
#
# Elastic Compliance Matrix: (Units=1/GPa)
#
#
# Indices 1 2 3 4 5 6 
#
# 1 0.030185 -0.006489 -0.000784 0.000000 0.000000 0.000000
# 2 -0.006489 0.008071 -0.000863 0.000000 0.000000 0.000000
# 3 -0.000784 -0.000863 0.011241 0.000000 0.000000 0.000000
# 4 0.000000 0.000000 0.000000 0.025660 0.000000 0.000000
# 5 0.000000 0.000000 0.000000 0.000000 0.068200 0.000000
# 6 0.000000 0.000000 0.000000 0.000000 0.000000 0.030609
#
#
# Mechanical properties :
#
#
# Convention : Reuss Voigt Hill
#
# Bulk Modulus (GPa) = 30.09699 43.04381 36.57040
# Shear Modulus (GPa) = 24.83688 32.61853 28.72770
#
# Velocity S-wave (km/s) = 3.19286 3.65900 3.43385
# Velocity P-wave (km/s) = 5.09370 5.95974 5.54366
#
# Compressibility (1/GPa) = 0.03322592
#
# Stress axis : x y z
#
# Youngs Moduli (GPa) = 33.12874 123.89504 88.96036
#
# Poissons Ratio (x) = 0.80391 0.06976
# Poissons Ratio (y) = 0.21496 0.07677
# Poissons Ratio (z) = 0.02598 0.10692
#
# Static dielectric constant tensor:
#      x y z
#    x 2.083420 0.000000 0.000000 
#    y 0.000000 1.872310 0.000000 
#    z 0.000000 0.000000 2.122510 
# 
# From -- ./inp_files/9357.got.cif
#   From: 2010.05.17/outbox.cif.g08.bks.cpg/sg45_5_cif.got.tgz:9357.got - 2010.06.03 19:51:22.
