data_PCOD9376266
_publ_section_title
;
Structure prediction by ZEFSAII (Michael W. Deem and Ramdas Pophale) SiO2 
 PCOD9376266
Probable space group: I B A 2
;
_chemical_formula_sum "Si O2"
_cell_formula_units_Z 56
_cell_length_a 12.949365
_cell_length_b 14.930108
_cell_length_c 14.785339
_cell_angle_alpha 90.000000
_cell_angle_beta 90.000000
_cell_angle_gamma 90.000000
_cell_volume 2858.529696
_symmetry_space_group_name_H-M "I B A 2"
_symmetry_group_IT_number 45
_symmetry_cell_setting 'orthorhombic'
loop_
_space_group_symop_operation_xyz
x,y,z
-x,-y,z
-x,y,1/2+z
x,-y,1/2+z
1/2+x,1/2+y,1/2+z
1/2-x,1/2-y,1/2+z
1/2-x,1/2+y,z
1/2+x,1/2-y,z
loop_
_atom_site_type_symbol
_atom_site_label
_atom_site_fract_x
_atom_site_fract_y
_atom_site_fract_z
Si Si1 0.367710 0.770625 0.901360
Si Si2 0.878205 0.024370 0.699378
Si Si3 0.384238 0.464819 0.012106
Si Si4 0.208001 0.778428 0.056061
Si Si5 0.896837 0.671843 0.402596
Si Si6 0.715069 0.430373 0.861222
Si Si7 0.215564 0.790837 0.750439
O O1 0.307471 0.797092 0.992677
O O2 0.483537 0.805596 0.905339
O O3 0.346315 0.662122 0.889384
O O4 0.336858 0.080069 0.880430
O O5 0.853922 0.123230 0.732180
O O6 0.841927 0.021441 0.595992
O O7 0.815448 0.953580 0.759361
O O8 0.000000 0.000000 0.703671
O O9 0.500000 0.500000 0.998577
O O10 0.368379 0.363527 0.045285
O O11 0.326202 0.488112 0.921072
O O12 0.149594 0.701140 0.999795
O O13 0.244466 0.753034 0.156702
O O14 0.850540 0.729435 0.318664
O O15 0.685900 0.187204 0.812887
#
# Coordination Sequence:
#
# PCOD9376266 Si02
#       7
#     8   8   8   8   8   8   8
#     4  10  21  37  57  81 111 152 189 230 286 347
#     4  11  21  34  56  84 110 143 186 240 290 335
#     4  11  21  34  56  84 110 143 186 240 290 335
#     4  10  21  38  57  83 117 149 188 238 289 347
#     4  10  21  36  56  82 111 153 191 226 283 352
#     4  10  19  35  56  81 112 141 186 238 277 333
#     4  10  21  38  57  83 117 149 188 238 289 347
#
# _framework density 19.590491
#
# number of rings (size 3 to 8) (size 9 to 14) (size 15 to 20)
#    0.000    2.000    0.000    7.286    0.000    3.429 
#    0.000    2.857    0.000    1.714    0.000    0.000 
#    0.000    0.000    0.000    0.000    0.000    0.000 
#
# Total GULP energy -155998.175751 kJ/mol
# GULP energy per Si atom -5571.363420 kJ/mol
# Density = 1.954590 g / cm^3
# Si number density = 19.590491 Si / 1000 Ang^3
#
#
#
# Elastic Constant Matrix: (Units=GPa)
#
#
# Indices 1 2 3 4 5 6 
#
# 1 129.3631 -0.8583 37.2434 0.0000 0.0000 0.0000
# 2 -0.8583 42.1918 2.7376 0.0000 0.0000 0.0000
# 3 37.2434 2.7376 107.5530 0.0000 -0.0001 0.0000
# 4 0.0000 0.0000 0.0000 25.1138 0.0000 0.0000
# 5 0.0000 0.0000 -0.0001 0.0000 62.7823 0.0000
# 6 0.0000 0.0000 0.0000 0.0000 0.0000 18.4996
#
#
#
# Elastic Compliance Matrix: (Units=1/GPa)
#
#
# Indices 1 2 3 4 5 6 
#
# 1 0.008592 0.000368 -0.002985 0.000000 0.000000 0.000000
# 2 0.000368 0.023756 -0.000732 0.000000 0.000000 0.000000
# 3 -0.002985 -0.000732 0.010350 0.000000 0.000000 0.000000
# 4 0.000000 0.000000 0.000000 0.039819 0.000000 0.000000
# 5 0.000000 0.000000 0.000000 0.000000 0.015928 0.000000
# 6 0.000000 0.000000 0.000000 0.000000 0.000000 0.054055
#
#
# Mechanical properties :
#
#
# Convention : Reuss Voigt Hill
#
# Bulk Modulus (GPa) = 27.77681 39.70592 33.74137
# Shear Modulus (GPa) = 29.20606 37.27816 33.24211
#
# Velocity S-wave (km/s) = 3.86531 4.36692 4.12375
# Velocity P-wave (km/s) = 5.84212 6.76303 6.31938
#
# Compressibility (1/GPa) = 0.03600126
#
# Stress axis : x y z
#
# Youngs Moduli (GPa) = 116.38899 42.09410 96.61956
#
# Poissons Ratio (x) = -0.01551 0.28837
# Poissons Ratio (y) = -0.04288 0.07075
# Poissons Ratio (z) = 0.34737 0.03082
#
# Static dielectric constant tensor:
#      x y z
#    x 1.433120 0.000000 0.000000 
#    y 0.000000 1.764660 0.000000 
#    z 0.000000 0.000000 1.686390 
# 
# From -- ./inp_files/6524.got.cif
#   From: 2010.05.17/outbox.cif.g08.bks.cpg/sg45_4_cif.got.tgz:6524.got - 2010.06.03 19:51:22.
