data_PCOD9376847
_publ_section_title
;
Structure prediction by ZEFSAII (Michael W. Deem and Ramdas Pophale) SiO2 
 PCOD9376847
Probable space group: I B A 2
;
_chemical_formula_sum "Si O2"
_cell_formula_units_Z 36
_cell_length_a 5.301048
_cell_length_b 18.276756
_cell_length_c 14.602145
_cell_angle_alpha 90.000000
_cell_angle_beta 90.000000
_cell_angle_gamma 90.000000
_cell_volume 1414.742849
_symmetry_space_group_name_H-M "I B A 2"
_symmetry_group_IT_number 45
_symmetry_cell_setting 'orthorhombic'
loop_
_space_group_symop_operation_xyz
x,y,z
-x,-y,z
-x,y,1/2+z
x,-y,1/2+z
1/2+x,1/2+y,1/2+z
1/2-x,1/2-y,1/2+z
1/2-x,1/2+y,z
1/2+x,1/2-y,z
loop_
_atom_site_type_symbol
_atom_site_label
_atom_site_fract_x
_atom_site_fract_y
_atom_site_fract_z
Si Si1 0.664649 0.771269 0.745800
Si Si2 0.000000 0.000000 0.103752
Si Si3 0.182043 0.568694 0.760886
Si Si4 0.807779 0.717594 0.952935
Si Si5 0.159625 0.425881 0.458828
O O1 0.442335 0.724527 0.702210
O O2 0.555665 0.853223 0.745519
O O3 0.745802 0.740502 0.846615
O O4 0.840244 0.049028 0.172965
O O5 0.154746 0.056756 0.041455
O O6 0.307589 0.579462 0.861320
O O7 0.000000 0.500000 0.770114
O O8 0.521966 0.725724 0.989967
O O9 0.958824 0.641091 0.962977
O O10 0.000000 0.500000 0.456563
#
# Coordination Sequence:
#
# PCOD9376847 Si02
#       5
#     8   4   8   8   8
#     4  10  21  41  74 110 146 192 256 318 390 468
#     4  12  28  44  70 110 158 200 276 324 392 482
#     4  11  25  46  75 108 153 209 264 325 401 475
#     4  10  21  41  74 111 145 191 255 315 386 466
#     4  11  25  46  76 106 153 206 260 322 396 475
#
# _framework density 25.446323
#
# number of rings (size 3 to 8) (size 9 to 14) (size 15 to 20)
#    0.000    1.333    4.444    1.333    6.222    1.778 
#    0.000    2.222    0.000    0.000    0.000    0.000 
#    0.000    0.000    0.000    0.000    0.000    0.000 
#
# Total GULP energy -100394.551010 kJ/mol
# GULP energy per Si atom -5577.475056 kJ/mol
# Density = 2.538841 g / cm^3
# Si number density = 25.446323 Si / 1000 Ang^3
#
#
#
# Elastic Constant Matrix: (Units=GPa)
#
#
# Indices 1 2 3 4 5 6 
#
# 1 102.6423 1.7982 -23.0961 0.0000 0.0000 0.0000
# 2 1.7982 154.9047 -25.8941 0.0001 0.0000 0.0000
# 3 -23.0961 -25.8941 74.3707 0.0003 0.0000 0.0000
# 4 0.0000 0.0001 0.0003 1176.6442 0.0000 0.0000
# 5 0.0000 0.0000 0.0000 0.0000 -24.3065 0.0000
# 6 0.0000 0.0000 0.0000 0.0000 0.0000 36.9410
#
#
#
# Elastic Compliance Matrix: (Units=1/GPa)
#
#
# Indices 1 2 3 4 5 6 
#
# 1 0.010504 0.000450 0.003419 0.000000 0.000000 0.000000
# 2 0.000450 0.006874 0.002533 0.000000 0.000000 0.000000
# 3 0.003419 0.002533 0.015390 0.000000 0.000000 0.000000
# 4 0.000000 0.000000 0.000000 0.000850 0.000000 0.000000
# 5 0.000000 0.000000 0.000000 0.000000 -0.041141 0.000000
# 6 0.000000 0.000000 0.000000 0.000000 0.000000 0.027070
#
#
# Mechanical properties :
#
#
# Convention : Reuss Voigt Hill
#
# Bulk Modulus (GPa) = 21.94465 26.39266 24.16866
# Shear Modulus (GPa) = 227.95538 263.12971 245.54255
#
# Velocity S-wave (km/s) = 9.47509 10.17990 9.83381
# Velocity P-wave (km/s) = 11.32898 12.18885 11.76677
#
# Compressibility (1/GPa) = 0.04556919
#
# Stress axis : x y z
#
# Youngs Moduli (GPa) = 95.20255 145.48078 64.97862
#
# Poissons Ratio (x) = -0.06540 -0.22213
# Poissons Ratio (y) = -0.04279 -0.16458
# Poissons Ratio (z) = -0.32545 -0.36848
#
# Static dielectric constant tensor:
#      x y z
#    x 2.155260 0.000000 0.000000 
#    y 0.000000 1.782170 0.000000 
#    z 0.000000 0.000000 2.236530 
# 
# From -- ./inp_files/5076.got.cif
#   From: 2010.05.17/outbox.cif.g08.bks.cpg/sg45_3_cif.got.tgz:5076.got - 2010.06.03 19:51:22.
