data_PCOD9376908
_publ_section_title
;
Structure prediction by ZEFSAII (Michael W. Deem and Ramdas Pophale) SiO2 
 PCOD9376908
Probable space group: I B A 2
;
_chemical_formula_sum "Si O2"
_cell_formula_units_Z 44
_cell_length_a 13.255155
_cell_length_b 10.062449
_cell_length_c 13.437168
_cell_angle_alpha 90.000000
_cell_angle_beta 90.000000
_cell_angle_gamma 90.000000
_cell_volume 1792.240346
_symmetry_space_group_name_H-M "I B A 2"
_symmetry_group_IT_number 45
_symmetry_cell_setting 'orthorhombic'
loop_
_space_group_symop_operation_xyz
x,y,z
-x,-y,z
-x,y,1/2+z
x,-y,1/2+z
1/2+x,1/2+y,1/2+z
1/2-x,1/2-y,1/2+z
1/2-x,1/2+y,z
1/2+x,1/2-y,z
loop_
_atom_site_type_symbol
_atom_site_label
_atom_site_fract_x
_atom_site_fract_y
_atom_site_fract_z
Si Si1 0.855775 0.867285 0.684430
Si Si2 0.984833 0.748443 0.969133
Si Si3 0.500000 0.500000 0.031401
Si Si4 0.376111 0.844792 0.165726
Si Si5 0.376986 0.900361 0.800031
Si Si6 0.645671 0.387069 0.325103
O O1 0.933159 0.907545 0.600533
O O2 0.742078 0.874112 0.641695
O O3 0.875066 0.719346 0.721093
O O4 0.876394 0.968614 0.775852
O O5 0.950246 0.674124 0.071789
O O6 0.085861 0.816433 0.916192
O O7 0.949997 0.645276 0.886771
O O8 0.928493 0.892416 0.977859
O O9 0.373810 0.711050 0.231423
O O10 0.398120 0.964832 0.241526
O O11 0.264426 0.897823 0.846354
#
# Coordination Sequence:
#
# PCOD9376908 Si02
#       6
#     8   8   4   8   8   8
#     4  10  21  46  76 104 150 194 250 320 386 458
#     4  12  25  44  77 109 144 197 267 308 386 476
#     4  12  24  42  78 112 134 200 264 308 372 492
#     4  10  24  48  71 105 154 195 243 323 398 453
#     4  10  24  46  73 104 154 193 242 320 392 457
#     4  10  22  48  72 106 145 198 250 308 381 470
#
# _framework density 24.550279
#
# number of rings (size 3 to 8) (size 9 to 14) (size 15 to 20)
#    0.000    1.455    1.818    2.182    2.545    0.727 
#    6.545    0.000    4.000    0.000    0.000    0.000 
#    0.000    0.000    0.000    0.000    0.000    0.000 
#
# Total GULP energy -122714.841672 kJ/mol
# GULP energy per Si atom -5577.947349 kJ/mol
# Density = 2.449440 g / cm^3
# Si number density = 24.550279 Si / 1000 Ang^3
#
#
#
# Elastic Constant Matrix: (Units=GPa)
#
#
# Indices 1 2 3 4 5 6 
#
# 1 91.7311 11.4535 72.4539 0.0000 0.0000 0.0000
# 2 11.4535 156.3422 56.5479 0.0000 0.0000 0.0000
# 3 72.4539 56.5479 146.8415 0.0000 0.0000 0.0000
# 4 0.0000 0.0000 0.0000 37.5650 0.0000 0.0000
# 5 0.0000 0.0000 0.0000 0.0000 23.3600 0.0000
# 6 0.0000 0.0000 0.0000 0.0000 0.0000 31.2103
#
#
#
# Elastic Compliance Matrix: (Units=1/GPa)
#
#
# Indices 1 2 3 4 5 6 
#
# 1 0.018529 0.002265 -0.010014 0.000000 0.000000 0.000000
# 2 0.002265 0.007708 -0.004086 0.000000 0.000000 0.000000
# 3 -0.010014 -0.004086 0.013325 0.000000 0.000000 0.000000
# 4 0.000000 0.000000 0.000000 0.026621 0.000000 0.000000
# 5 0.000000 0.000000 0.000000 0.000000 0.042808 0.000000
# 6 0.000000 0.000000 0.000000 0.000000 0.000000 0.032041
#
#
# Mechanical properties :
#
#
# Convention : Reuss Voigt Hill
#
# Bulk Modulus (GPa) = 62.93083 75.09171 69.01127
# Shear Modulus (GPa) = 29.41199 35.39102 32.40151
#
# Velocity S-wave (km/s) = 3.46501 3.80092 3.63685
# Velocity P-wave (km/s) = 6.45736 7.06513 6.76807
#
# Compressibility (1/GPa) = 0.01589046
#
# Stress axis : x y z
#
# Youngs Moduli (GPa) = 53.97080 129.73328 75.04827
#
# Poissons Ratio (x) = -0.29381 0.75156
# Poissons Ratio (y) = -0.12223 0.30663
# Poissons Ratio (z) = 0.54049 0.53007
#
# Static dielectric constant tensor:
#      x y z
#    x 2.113940 0.000000 0.000000 
#    y 0.000000 2.050130 0.000000 
#    z 0.000000 0.000000 2.011800 
# 
# From -- ./inp_files/6454.got.cif
#   From: 2010.05.17/outbox.cif.g08.bks.cpg/sg45_4_cif.got.tgz:6454.got - 2010.06.03 19:51:22.
