data_PCOD9376539
_publ_section_title
;
Structure prediction by ZEFSAII (Michael W. Deem and Ramdas Pophale) SiO2 
 PCOD9376539
Probable space group: I B A 2
;
_chemical_formula_sum "Si O2"
_cell_formula_units_Z 60
_cell_length_a 8.530771
_cell_length_b 11.722807
_cell_length_c 27.324454
_cell_angle_alpha 90.000000
_cell_angle_beta 90.000000
_cell_angle_gamma 90.000000
_cell_volume 2732.570600
_symmetry_space_group_name_H-M "I B A 2"
_symmetry_group_IT_number 45
_symmetry_cell_setting 'orthorhombic'
loop_
_space_group_symop_operation_xyz
x,y,z
-x,-y,z
-x,y,1/2+z
x,-y,1/2+z
1/2+x,1/2+y,1/2+z
1/2-x,1/2-y,1/2+z
1/2-x,1/2+y,z
1/2+x,1/2-y,z
loop_
_atom_site_type_symbol
_atom_site_label
_atom_site_fract_x
_atom_site_fract_y
_atom_site_fract_z
Si Si1 0.500000 0.500000 0.231720
Si Si2 0.401887 0.119597 0.016695
Si Si3 0.396990 0.207199 0.438818
Si Si4 0.182092 0.989216 0.947802
Si Si5 0.813495 0.373245 0.875244
Si Si6 0.357954 0.716820 0.183843
Si Si7 0.157844 0.419885 0.263702
Si Si8 0.434533 0.128171 0.127812
O O1 0.472054 0.615087 0.200745
O O2 0.329324 0.482069 0.258140
O O3 0.500889 0.216943 0.988844
O O4 0.253333 0.084488 0.983947
O O5 0.500000 0.000000 0.015241
O O6 0.369780 0.142742 0.073060
O O7 0.317847 0.292595 0.400105
O O8 0.526587 0.144621 0.404931
O O9 0.254605 0.131744 0.459152
O O10 0.243646 0.006288 0.892307
O O11 0.000000 0.000000 0.949420
O O12 0.841574 0.367493 0.818219
O O13 0.346555 0.815276 0.225120
O O14 0.426425 0.783046 0.137163
O O15 0.195591 0.658187 0.168238
O O16 0.000000 0.500000 0.258510
O O17 0.500000 0.000000 0.133582
#
# Coordination Sequence:
#
# PCOD9376539 Si02
#       8
#     4   8   8   8   8   8   8   8
#     4  12  28  48  74 106 144 192 254 306 390 446
#     4   8  19  41  65  98 139 184 227 292 360 430
#     4  10  21  40  63  96 139 174 226 279 345 427
#     4  10  20  39  64  95 140 180 223 280 349 426
#     4  11  24  39  67  98 134 184 230 287 353 430
#     4  12  25  48  73 104 142 192 249 315 378 455
#     4  12  28  49  76 107 151 196 250 314 380 455
#     4  11  24  45  74 106 146 190 246 309 379 452
#
# _framework density 21.957346999999999
#
# number of rings (size 3 to 8) (size 9 to 14) (size 15 to 20)
#    0.000    1.333    1.333    4.800    2.800    3.200 
#    1.200    2.667    0.000    0.000    0.000    0.000 
#    0.000    0.000    0.000    0.000    0.000    0.000 
#
# Total GULP energy -167253.359315 kJ/mol
# GULP energy per Si atom -5575.111977 kJ/mol
# Density = 2.190737 g / cm^3
# Si number density = 21.957347 Si / 1000 Ang^3
#
#
#
# Elastic Constant Matrix: (Units=GPa)
#
#
# Indices 1 2 3 4 5 6 
#
# 1 145.4218 45.1578 42.9711 0.0000 0.0000 0.0000
# 2 45.1578 84.1616 36.5639 0.0000 0.0000 0.0000
# 3 42.9711 36.5639 145.6409 0.0000 0.0000 0.0000
# 4 0.0000 0.0000 0.0000 25.5660 0.0000 0.0000
# 5 0.0000 0.0000 0.0000 0.0000 22.3265 0.0000
# 6 0.0000 0.0000 0.0000 0.0000 0.0000 46.4636
#
#
#
# Elastic Compliance Matrix: (Units=1/GPa)
#
#
# Indices 1 2 3 4 5 6 
#
# 1 0.008548 -0.003918 -0.001538 0.000000 0.000000 0.000000
# 2 -0.003918 0.015132 -0.002643 0.000000 0.000000 0.000000
# 3 -0.001538 -0.002643 0.007984 0.000000 0.000000 0.000000
# 4 0.000000 0.000000 0.000000 0.039115 0.000000 0.000000
# 5 0.000000 0.000000 0.000000 0.000000 0.044790 0.000000
# 6 0.000000 0.000000 0.000000 0.000000 0.000000 0.021522
#
#
# Mechanical properties :
#
#
# Convention : Reuss Voigt Hill
#
# Bulk Modulus (GPa) = 64.66248 69.40110 67.03179
# Shear Modulus (GPa) = 31.55681 35.57331 33.56506
#
# Velocity S-wave (km/s) = 3.79514 4.02942 3.91403
# Velocity P-wave (km/s) = 6.97977 7.30234 7.14288
#
# Compressibility (1/GPa) = 0.01546492
#
# Stress axis : x y z
#
# Youngs Moduli (GPa) = 116.98916 66.08305 125.25598
#
# Poissons Ratio (x) = 0.25892 0.19269
# Poissons Ratio (y) = 0.45837 0.33106
# Poissons Ratio (z) = 0.17997 0.17466
#
# Static dielectric constant tensor:
#      x y z
#    x 1.831410 0.000000 0.000000 
#    y 0.000000 1.940480 0.000000 
#    z 0.000000 0.000000 1.767180 
# 
# From -- ./inp_files/9962.got.cif
#   From: 2010.05.17/outbox.cif.g08.bks.cpg/sg45_5_cif.got.tgz:9962.got - 2010.06.03 19:51:22.
