data_PCOD9376180
_publ_section_title
;
Structure prediction by ZEFSAII (Michael W. Deem and Ramdas Pophale) SiO2 
 PCOD9376180
Probable space group: I B A 2
;
_chemical_formula_sum "Si O2"
_cell_formula_units_Z 60
_cell_length_a 11.703300
_cell_length_b 19.898139
_cell_length_c 10.083159
_cell_angle_alpha 90.000000
_cell_angle_beta 90.000000
_cell_angle_gamma 90.000000
_cell_volume 2348.104461
_symmetry_space_group_name_H-M "I B A 2"
_symmetry_group_IT_number 45
_symmetry_cell_setting 'orthorhombic'
loop_
_space_group_symop_operation_xyz
x,y,z
-x,-y,z
-x,y,1/2+z
x,-y,1/2+z
1/2+x,1/2+y,1/2+z
1/2-x,1/2-y,1/2+z
1/2-x,1/2+y,z
1/2+x,1/2-y,z
loop_
_atom_site_type_symbol
_atom_site_label
_atom_site_fract_x
_atom_site_fract_y
_atom_site_fract_z
Si Si1 0.028537 0.664579 0.402860
Si Si2 0.260064 0.633083 0.512686
Si Si3 0.000000 0.000000 0.134115
Si Si4 0.279071 0.021458 0.336625
Si Si5 0.493808 0.310827 0.478533
Si Si6 0.663726 0.607867 0.282831
Si Si7 0.654624 0.391930 0.132165
Si Si8 0.587255 0.104051 0.638624
O O1 0.164053 0.672616 0.433356
O O2 0.977061 0.734240 0.450857
O O3 0.981471 0.606578 0.501780
O O4 0.021872 0.649492 0.247424
O O5 0.221356 0.556423 0.479761
O O6 0.387945 0.650032 0.470591
O O7 0.266263 0.645220 0.668263
O O8 0.912680 0.952218 0.053035
O O9 0.072524 0.943473 0.213394
O O10 0.177697 0.065486 0.266238
O O11 0.380874 0.039847 0.233417
O O12 0.254008 0.943955 0.344579
O O13 0.401485 0.340755 0.375917
O O14 0.429680 0.328925 0.617470
O O15 0.784249 0.370575 0.102668
#
# Coordination Sequence:
#
# PCOD9376180 Si02
#       8
#     8   8   4   8   8   8   8   8
#     4  11  27  46  69  94 143 191 248 301 344 446
#     4  11  25  43  66 103 134 185 237 291 372 433
#     4  10  18  38  66 104 146 162 208 292 364 432
#     4   8  21  42  69  96 143 171 220 291 362 430
#     4  12  26  37  67 104 141 179 232 293 369 434
#     4  11  23  37  67 109 136 176 222 290 365 443
#     4   9  20  39  66  98 140 173 219 286 366 419
#     4   9  23  48  70  97 137 197 237 295 359 427
#
# _framework density 25.552526
#
# number of rings (size 3 to 8) (size 9 to 14) (size 15 to 20)
#    0.800    1.067    1.333    1.600    7.467    1.600 
#    0.000    0.667    0.000    3.200    0.000    0.000 
#    0.000    0.000    0.000    0.000    0.000    0.000 
#
# Total GULP energy -167219.834256 kJ/mol
# GULP energy per Si atom -5573.994475 kJ/mol
# Density = 2.549437 g / cm^3
# Si number density = 25.552526 Si / 1000 Ang^3
#
#
#
# Elastic Constant Matrix: (Units=GPa)
#
#
# Indices 1 2 3 4 5 6 
#
# 1 107.3972 1.3989 18.0554 -0.0001 0.0000 0.0000
# 2 1.3989 33.3742 14.8263 0.0000 0.0000 0.0000
# 3 18.0554 14.8263 81.1821 0.0004 0.0001 0.0001
# 4 -0.0001 0.0000 0.0004 17.8273 0.0001 0.0000
# 5 0.0000 0.0000 0.0001 0.0001 33.0817 0.0000
# 6 0.0000 0.0000 0.0001 0.0000 0.0000 11.8603
#
#
#
# Elastic Compliance Matrix: (Units=1/GPa)
#
#
# Indices 1 2 3 4 5 6 
#
# 1 0.009684 0.000600 -0.002263 0.000000 0.000000 0.000000
# 2 0.000600 0.032646 -0.006095 0.000000 0.000000 0.000000
# 3 -0.002263 -0.006095 0.013935 0.000000 0.000000 0.000000
# 4 0.000000 0.000000 0.000000 0.056094 0.000000 0.000000
# 5 0.000000 0.000000 0.000000 0.000000 0.030228 0.000000
# 6 0.000000 0.000000 0.000000 0.000000 0.000000 0.084315
#
#
# Mechanical properties :
#
#
# Convention : Reuss Voigt Hill
#
# Bulk Modulus (GPa) = 24.54225 32.27941 28.41083
# Shear Modulus (GPa) = 19.53111 25.06538 22.29824
#
# Velocity S-wave (km/s) = 2.76769 3.13539 2.95726
# Velocity P-wave (km/s) = 4.45409 5.07617 4.77527
#
# Compressibility (1/GPa) = 0.04074606
#
# Stress axis : x y z
#
# Youngs Moduli (GPa) = 103.26402 30.63164 71.76396
#
# Poissons Ratio (x) = -0.01836 0.16242
# Poissons Ratio (y) = -0.06191 0.43744
# Poissons Ratio (z) = 0.23371 0.18671
#
# Static dielectric constant tensor:
#      x y z
#    x 2.069240 0.000000 0.000000 
#    y 0.000000 2.025750 0.000000 
#    z 0.000000 0.000000 2.173920 
# 
# From -- ./inp_files/4337.got.cif
#   From: 2010.05.17/outbox.cif.g08.bks.cpg/sg45_3_cif.got.tgz:4337.got - 2010.06.03 19:51:22.
