data_PCOD9376066
_publ_section_title
;
Structure prediction by ZEFSAII (Michael W. Deem and Ramdas Pophale) SiO2 
 PCOD9376066
Probable space group: I B A 2
;
_chemical_formula_sum "Si O2"
_cell_formula_units_Z 40
_cell_length_a 13.217734
_cell_length_b 5.393685
_cell_length_c 26.292989
_cell_angle_alpha 90.000000
_cell_angle_beta 90.000000
_cell_angle_gamma 90.000000
_cell_volume 1874.487492
_symmetry_space_group_name_H-M "I B A 2"
_symmetry_group_IT_number 45
_symmetry_cell_setting 'orthorhombic'
loop_
_space_group_symop_operation_xyz
x,y,z
-x,-y,z
-x,y,1/2+z
x,-y,1/2+z
1/2+x,1/2+y,1/2+z
1/2-x,1/2-y,1/2+z
1/2-x,1/2+y,z
1/2+x,1/2-y,z
loop_
_atom_site_type_symbol
_atom_site_label
_atom_site_fract_x
_atom_site_fract_y
_atom_site_fract_z
Si Si1 0.366275 0.904922 0.917200
Si Si2 0.000000 0.500000 0.718547
Si Si3 0.365738 0.405520 0.877083
Si Si4 0.816888 0.528285 0.140138
Si Si5 0.186798 0.541711 0.028055
Si Si6 0.500000 0.500000 0.284563
O O1 0.404304 0.627258 0.912470
O O2 0.251930 0.879269 0.893449
O O3 0.409393 0.133124 0.885653
O O4 0.369312 0.990833 0.975453
O O5 0.901840 0.489504 0.682634
O O6 0.003679 0.249978 0.751834
O O7 0.400898 0.486735 0.821117
O O8 0.741229 0.291826 0.144344
O O9 0.862528 0.505077 0.082927
O O10 0.226934 0.824664 0.026681
#
# Coordination Sequence:
#
# PCOD9376066 Si02
#       6
#     8   4   8   8   8   4
#     4  10  17  35  61  88 122 156 201 248 307 390
#     4  12  26  50  64  92 138 166 226 300 308 372
#     4  10  20  35  56  87 117 166 201 250 307 375
#     4  10  23  43  70  98 128 170 223 265 338 397
#     4  10  16  32  63  91 123 160 198 255 319 394
#     4  12  26  44  60  86 134 170 216 278 330 360
#
# _framework density 21.339165999999999
#
# number of rings (size 3 to 8) (size 9 to 14) (size 15 to 20)
#    0.000    1.600    4.000    2.400    0.000    0.000 
#   21.600    2.000    0.000    0.000    0.000    0.000 
#    0.000    0.000    0.000    0.000    0.000    0.000 
#
# Total GULP energy -111498.177994 kJ/mol
# GULP energy per Si atom -5574.908900 kJ/mol
# Density = 2.129060 g / cm^3
# Si number density = 21.339166 Si / 1000 Ang^3
#
#
#
# Elastic Constant Matrix: (Units=GPa)
#
#
# Indices 1 2 3 4 5 6 
#
# 1 77.5478 23.7700 30.4051 0.0000 0.0000 0.0000
# 2 23.7700 146.5121 32.5584 0.0000 0.0000 0.0000
# 3 30.4051 32.5584 153.7018 0.0000 0.0000 0.0000
# 4 0.0000 0.0000 0.0000 43.2472 0.0000 0.0000
# 5 0.0000 0.0000 0.0000 0.0000 137.1034 0.0000
# 6 0.0000 0.0000 0.0000 0.0000 0.0000 26.3358
#
#
#
# Elastic Compliance Matrix: (Units=1/GPa)
#
#
# Indices 1 2 3 4 5 6 
#
# 1 0.014413 -0.001789 -0.002472 0.000000 0.000000 0.000000
# 2 -0.001789 0.007385 -0.001210 0.000000 0.000000 0.000000
# 3 -0.002472 -0.001210 0.007252 0.000000 0.000000 0.000000
# 4 0.000000 0.000000 0.000000 0.023123 0.000000 0.000000
# 5 0.000000 0.000000 0.000000 0.000000 0.007294 0.000000
# 6 0.000000 0.000000 0.000000 0.000000 0.000000 0.037971
#
#
# Mechanical properties :
#
#
# Convention : Reuss Voigt Hill
#
# Bulk Modulus (GPa) = 55.23032 61.24764 58.23898
# Shear Modulus (GPa) = 43.70043 60.73913 52.21978
#
# Velocity S-wave (km/s) = 4.53028 5.34092 4.95222
# Velocity P-wave (km/s) = 7.30088 8.17302 7.74923
#
# Compressibility (1/GPa) = 0.01810600
#
# Stress axis : x y z
#
# Youngs Moduli (GPa) = 69.38210 135.41711 137.90168
#
# Poissons Ratio (x) = 0.24226 0.34092
# Poissons Ratio (y) = 0.12412 0.16691
# Poissons Ratio (z) = 0.17153 0.16391
#
# Static dielectric constant tensor:
#      x y z
#    x 1.443350 0.000000 0.000000 
#    y 0.000000 1.783460 0.000000 
#    z 0.000000 0.000000 1.770100 
# 
# From -- ./inp_files/8640.got.cif
#   From: 2010.05.17/outbox.cif.g08.bks.cpg/sg45_5_cif.got.tgz:8640.got - 2010.06.03 19:51:22.
