data_PCOD9376912
_publ_section_title
;
Structure prediction by ZEFSAII (Michael W. Deem and Ramdas Pophale) SiO2 
 PCOD9376912
Probable space group: I B A 2
;
_chemical_formula_sum "Si O2"
_cell_formula_units_Z 44
_cell_length_a 8.130608
_cell_length_b 10.026887
_cell_length_c 21.974068
_cell_angle_alpha 90.000000
_cell_angle_beta 90.000000
_cell_angle_gamma 90.000000
_cell_volume 1791.429030
_symmetry_space_group_name_H-M "I B A 2"
_symmetry_group_IT_number 45
_symmetry_cell_setting 'orthorhombic'
loop_
_space_group_symop_operation_xyz
x,y,z
-x,-y,z
-x,y,1/2+z
x,-y,1/2+z
1/2+x,1/2+y,1/2+z
1/2-x,1/2-y,1/2+z
1/2-x,1/2+y,z
1/2+x,1/2-y,z
loop_
_atom_site_type_symbol
_atom_site_label
_atom_site_fract_x
_atom_site_fract_y
_atom_site_fract_z
Si Si1 0.000000 0.000000 0.029500
Si Si2 0.273877 0.717310 0.502498
Si Si3 0.736064 0.956780 0.746350
Si Si4 0.428015 0.785401 0.792180
Si Si5 0.487210 0.142758 0.919200
Si Si6 0.689809 0.042929 0.103158
O O1 0.836536 0.966002 0.067975
O O2 0.943109 0.130955 0.994805
O O3 0.323055 0.839348 0.459170
O O4 0.227345 0.689415 0.573311
O O5 0.131831 0.641401 0.467741
O O6 0.581486 0.861506 0.762573
O O7 0.884502 0.857854 0.763843
O O8 0.726475 0.973652 0.673805
O O9 0.713935 0.100648 0.779397
O O10 0.473189 0.761887 0.862941
O O11 0.500000 0.000000 0.887465
O O12 0.500000 0.000000 0.091625
#
# Coordination Sequence:
#
# PCOD9376912 Si02
#       6
#     4   8   8   8   8   8
#     4   8  24  46  70 118 140 198 254 298 400 456
#     4  10  26  42  75 107 148 200 257 315 394 450
#     4  11  24  48  74 110 152 201 261 316 404 462
#     4  11  25  46  74 111 151 205 256 324 389 465
#     4  12  25  46  74 105 156 199 260 324 386 475
#     4  10  21  48  78 108 155 197 253 326 384 469
#
# _framework density 24.561399999999999
#
# number of rings (size 3 to 8) (size 9 to 14) (size 15 to 20)
#    1.091    0.364    3.636    1.636    2.545    3.636 
#    6.545    0.000    0.000    0.000    0.000    0.000 
#    0.000    0.000    0.000    0.000    0.000    0.000 
#
# Total GULP energy -122552.372918 kJ/mol
# GULP energy per Si atom -5570.562405 kJ/mol
# Density = 2.450550 g / cm^3
# Si number density = 24.561400 Si / 1000 Ang^3
#
#
#
# Elastic Constant Matrix: (Units=GPa)
#
#
# Indices 1 2 3 4 5 6 
#
# 1 85.2410 -3.4580 7.0098 0.0000 0.0000 0.0000
# 2 -3.4580 87.5095 -7.1275 0.0000 0.0000 0.0000
# 3 7.0098 -7.1275 127.1385 0.0000 0.0000 0.0000
# 4 0.0000 0.0000 0.0000 15.9161 0.0000 0.0000
# 5 0.0000 0.0000 0.0000 0.0000 16.3822 0.0000
# 6 0.0000 0.0000 0.0000 0.0000 0.0000 20.0590
#
#
#
# Elastic Compliance Matrix: (Units=1/GPa)
#
#
# Indices 1 2 3 4 5 6 
#
# 1 0.011800 0.000415 -0.000627 0.000000 0.000000 0.000000
# 2 0.000415 0.011494 0.000621 0.000000 0.000000 0.000000
# 3 -0.000627 0.000621 0.007935 0.000000 0.000000 0.000000
# 4 0.000000 0.000000 0.000000 0.062830 0.000000 0.000000
# 5 0.000000 0.000000 0.000000 0.000000 0.061042 0.000000
# 6 0.000000 0.000000 0.000000 0.000000 0.000000 0.049853
#
#
# Mechanical properties :
#
#
# Convention : Reuss Voigt Hill
#
# Bulk Modulus (GPa) = 31.20335 32.52639 31.86487
# Shear Modulus (GPa) = 23.27559 30.70243 26.98901
#
# Velocity S-wave (km/s) = 3.08173 3.53941 3.31847
# Velocity P-wave (km/s) = 5.03930 5.47493 5.26163
#
# Compressibility (1/GPa) = 0.03204785
#
# Stress axis : x y z
#
# Youngs Moduli (GPa) = 84.74662 86.99916 126.02605
#
# Poissons Ratio (x) = -0.03612 0.07906
# Poissons Ratio (y) = -0.03519 -0.07832
# Poissons Ratio (z) = 0.05316 -0.05407
#
# Static dielectric constant tensor:
#      x y z
#    x 2.131720 0.000000 0.000000 
#    y 0.000000 2.076510 0.000000 
#    z 0.000000 0.000000 1.884960 
# 
# From -- ./inp_files/9514.got.cif
#   From: 2010.05.17/outbox.cif.g08.bks.cpg/sg45_5_cif.got.tgz:9514.got - 2010.06.03 19:51:22.
