data_PCOD9376659
_publ_section_title
;
Structure prediction by ZEFSAII (Michael W. Deem and Ramdas Pophale) SiO2 
 PCOD9376659
Probable space group: I B A 2
;
_chemical_formula_sum "Si O2"
_cell_formula_units_Z 52
_cell_length_a 10.933871
_cell_length_b 27.758834
_cell_length_c 8.242419
_cell_angle_alpha 90.000000
_cell_angle_beta 90.000000
_cell_angle_gamma 90.000000
_cell_volume 2501.669037
_symmetry_space_group_name_H-M "I B A 2"
_symmetry_group_IT_number 45
_symmetry_cell_setting 'orthorhombic'
loop_
_space_group_symop_operation_xyz
x,y,z
-x,-y,z
-x,y,1/2+z
x,-y,1/2+z
1/2+x,1/2+y,1/2+z
1/2-x,1/2-y,1/2+z
1/2-x,1/2+y,z
1/2+x,1/2-y,z
loop_
_atom_site_type_symbol
_atom_site_label
_atom_site_fract_x
_atom_site_fract_y
_atom_site_fract_z
Si Si1 0.356470 0.376835 0.662050
Si Si2 0.000000 0.500000 0.475889
Si Si3 0.630243 0.265452 0.801902
Si Si4 0.568652 0.327265 0.492662
Si Si5 0.173417 0.323906 0.413877
Si Si6 0.854112 0.562088 0.730218
Si Si7 0.976761 0.336730 0.205439
O O1 0.490622 0.370022 0.582563
O O2 0.362075 0.348110 0.834358
O O3 0.269255 0.353539 0.521904
O O4 0.289185 0.427484 0.698559
O O5 0.927024 0.539595 0.578949
O O6 0.896037 0.473080 0.372462
O O7 0.631880 0.298170 0.639003
O O8 0.530295 0.289827 0.918767
O O9 0.762490 0.272835 0.883830
O O10 0.589850 0.211770 0.766947
O O11 0.049416 0.329376 0.515044
O O12 0.120387 0.340761 0.242432
O O13 0.910477 0.614813 0.760195
#
# Coordination Sequence:
#
# PCOD9376659 Si02
#       7
#     8   4   8   8   8   8   8
#     4   9  19  38  60  86 115 152 193 230 282 342
#     4  10  22  40  60  82 110 142 186 244 308 358
#     4  10  21  36  53  81 120 159 188 228 278 326
#     4   9  19  36  59  85 119 156 190 223 270 342
#     4  10  23  35  52  81 118 157 193 235 277 324
#     4  10  21  38  59  82 109 144 187 241 298 348
#     4  11  22  36  55  83 114 148 200 237 273 346
#
# _framework density 20.786121999999999
#
# number of rings (size 3 to 8) (size 9 to 14) (size 15 to 20)
#    0.000    2.154    0.000    2.769    0.000   13.538 
#    0.000    4.615    0.000    2.769    0.000    0.000 
#    0.000    0.000    0.000    0.000    0.000    0.000 
#
# Total GULP energy -144770.059894 kJ/mol
# GULP energy per Si atom -5568.079227 kJ/mol
# Density = 2.073881 g / cm^3
# Si number density = 20.786122 Si / 1000 Ang^3
#
#
#
# Elastic Constant Matrix: (Units=GPa)
#
#
# Indices 1 2 3 4 5 6 
#
# 1 74.3323 33.7501 41.9428 0.0000 -0.0007 -0.0001
# 2 33.7501 74.1659 17.6578 -0.0008 -0.0004 0.0001
# 3 41.9428 17.6578 64.9186 -0.0007 -0.0070 -0.0005
# 4 0.0000 -0.0008 -0.0007 26.9122 0.0004 0.0002
# 5 -0.0007 -0.0004 -0.0070 0.0004 24.3747 0.0007
# 6 -0.0001 0.0001 -0.0005 0.0002 0.0007 35.1480
#
#
#
# Elastic Compliance Matrix: (Units=1/GPa)
#
#
# Indices 1 2 3 4 5 6 
#
# 1 0.024977 -0.008045 -0.013949 -0.000001 -0.000003 0.000000
# 2 -0.008045 0.017008 0.000571 0.000001 0.000000 0.000000
# 3 -0.013949 0.000571 0.024261 0.000001 0.000007 0.000000
# 4 -0.000001 0.000001 0.000001 0.037158 -0.000001 0.000000
# 5 -0.000003 0.000000 0.000007 -0.000001 0.041026 -0.000001
# 6 0.000000 0.000000 0.000000 0.000000 -0.000001 0.028451
#
#
# Mechanical properties :
#
#
# Convention : Reuss Voigt Hill
#
# Bulk Modulus (GPa) = 42.73340 44.45758 43.59549
# Shear Modulus (GPa) = 22.36887 25.29139 23.83013
#
# Velocity S-wave (km/s) = 3.28402 3.49197 3.38959
# Velocity P-wave (km/s) = 5.91464 6.13946 6.02810
#
# Compressibility (1/GPa) = 0.02340090
#
# Stress axis : x y z
#
# Youngs Moduli (GPa) = 40.03759 58.79539 41.21925
#
# Poissons Ratio (x) = 0.47300 0.57496
# Poissons Ratio (y) = 0.32210 -0.02355
# Poissons Ratio (z) = 0.55847 -0.03360
#
# Static dielectric constant tensor:
#      x y z
#    x 1.853290 0.000000 0.000000 
#    y 0.000000 1.692950 0.000000 
#    z 0.000000 0.000000 1.854990 
# 
# From -- ./inp_files/1424.got.cif
#   From: 2010.05.17/outbox.cif.g08.bks.cpg/sg45_1_cif.got.tgz:1424.got - 2010.06.03 19:51:22.
