data_PCOD9376250
_publ_section_title
;
Structure prediction by ZEFSAII (Michael W. Deem and Ramdas Pophale) SiO2 
 PCOD9376250
Probable space group: I B A 2
;
_chemical_formula_sum "Si O2"
_cell_formula_units_Z 64
_cell_length_a 21.116081
_cell_length_b 20.079235
_cell_length_c 8.809509
_cell_angle_alpha 90.000000
_cell_angle_beta 90.000000
_cell_angle_gamma 90.000000
_cell_volume 3735.185590
_symmetry_space_group_name_H-M "I B A 2"
_symmetry_group_IT_number 45
_symmetry_cell_setting 'orthorhombic'
loop_
_space_group_symop_operation_xyz
x,y,z
-x,-y,z
-x,y,1/2+z
x,-y,1/2+z
1/2+x,1/2+y,1/2+z
1/2-x,1/2-y,1/2+z
1/2-x,1/2+y,z
1/2+x,1/2-y,z
loop_
_atom_site_type_symbol
_atom_site_label
_atom_site_fract_x
_atom_site_fract_y
_atom_site_fract_z
Si Si1 0.384597 0.570017 0.745770
Si Si2 0.933761 0.212285 0.246948
Si Si3 0.734628 0.929172 0.745767
Si Si4 0.692180 0.207278 0.746475
Si Si5 0.765372 0.570817 0.882215
Si Si6 0.192193 0.707291 0.881510
Si Si7 0.933749 0.787727 0.381000
Si Si8 0.384597 0.429996 0.882220
O O1 0.420070 0.636333 0.799049
O O2 0.309786 0.578389 0.782005
O O3 0.406662 0.500009 0.814006
O O4 0.389774 0.566289 0.563995
O O5 0.873815 0.257587 0.289592
O O6 0.000010 0.235718 0.313960
O O7 0.936974 0.211598 0.063973
O O8 0.728348 0.928863 0.563991
O O9 0.698585 0.867065 0.818037
O O10 0.714376 0.999993 0.814000
O O11 0.698582 0.132920 0.809929
O O12 0.749988 0.249997 0.814009
O O13 0.696892 0.207447 0.563993
O O14 0.690214 0.578375 0.845978
O O15 0.126207 0.742439 0.838369
O O16 0.920070 0.863684 0.328921
#
# Coordination Sequence:
#
# PCOD9376250 Si02
#       8
#     8   8   8   8   8   8   8   8
#     4   9  18  33  50  74 108 143 180 221 260 315
#     4  10  22  38  53  76 110 145 185 227 271 325
#     4  10  19  34  55  83 113 142 180 225 276 328
#     4  11  21  36  57  82 111 144 184 231 276 325
#     4  10  19  34  55  83 113 142 180 225 276 328
#     4  11  21  36  57  82 111 144 184 231 276 325
#     4  10  22  38  53  76 110 145 185 227 271 325
#     4   9  18  33  50  74 108 143 180 221 260 315
#
# _framework density 17.134356
#
# number of rings (size 3 to 8) (size 9 to 14) (size 15 to 20)
#    0.000    2.000    2.500    1.500    0.000    4.500 
#    0.000    2.500    0.000    0.750    0.000    5.250 
#    0.000    0.000    0.000    0.000    0.000    0.000 
#
# Total GULP energy -178652.206866 kJ/mol
# GULP energy per Si atom -5582.881465 kJ/mol
# Density = 1.709536 g / cm^3
# Si number density = 17.134356 Si / 1000 Ang^3
#
#
#
# Elastic Constant Matrix: (Units=GPa)
#
#
# Indices 1 2 3 4 5 6 
#
# 1 116.5143 70.9261 40.1329 0.0000 0.0000 0.0000
# 2 70.9261 137.6634 40.7109 0.0000 0.0000 0.0000
# 3 40.1329 40.7109 35.1723 0.0000 0.0000 0.0000
# 4 0.0000 0.0000 0.0000 33.9171 0.0000 0.0000
# 5 0.0000 0.0000 0.0000 0.0000 23.1686 0.0000
# 6 0.0000 0.0000 0.0000 0.0000 0.0000 21.4856
#
#
#
# Elastic Compliance Matrix: (Units=1/GPa)
#
#
# Indices 1 2 3 4 5 6 
#
# 1 0.015599 -0.004216 -0.012919 0.000000 0.000000 0.000000
# 2 -0.004216 0.012184 -0.009292 0.000000 0.000000 0.000000
# 3 -0.012919 -0.009292 0.053928 0.000000 0.000000 0.000000
# 4 0.000000 0.000000 0.000000 0.029484 0.000000 0.000000
# 5 0.000000 0.000000 0.000000 0.000000 0.043162 0.000000
# 6 0.000000 0.000000 0.000000 0.000000 0.000000 0.046543
#
#
# Mechanical properties :
#
#
# Convention : Reuss Voigt Hill
#
# Bulk Modulus (GPa) = 34.65405 65.87665 50.26535
# Shear Modulus (GPa) = 18.98450 24.88627 21.93539
#
# Velocity S-wave (km/s) = 3.33224 3.81520 3.58187
# Velocity P-wave (km/s) = 5.92232 7.61172 6.81954
#
# Compressibility (1/GPa) = 0.02885665
#
# Stress axis : x y z
#
# Youngs Moduli (GPa) = 64.10586 82.07256 18.54339
#
# Poissons Ratio (x) = 0.34605 0.23956
# Poissons Ratio (y) = 0.27030 0.17230
# Poissons Ratio (z) = 0.82818 0.76261
#
# Static dielectric constant tensor:
#      x y z
#    x 1.569120 0.000000 0.000000 
#    y 0.000000 1.579200 0.000000 
#    z 0.000000 0.000000 1.573760 
# 
# From -- ./inp_files/2381.got.cif
#   From: 2010.05.17/outbox.cif.g08.bks.cpg/sg45_2_cif.got.tgz:2381.got - 2010.06.03 19:51:22.
