data_PCOD9376342
_publ_section_title
;
Structure prediction by ZEFSAII (Michael W. Deem and Ramdas Pophale) SiO2 
 PCOD9376342
Probable space group: I B A 2
;
_chemical_formula_sum "Si O2"
_cell_formula_units_Z 64
_cell_length_a 17.655647
_cell_length_b 13.633472
_cell_length_c 10.431326
_cell_angle_alpha 90.000000
_cell_angle_beta 90.000000
_cell_angle_gamma 90.000000
_cell_volume 2510.901209
_symmetry_space_group_name_H-M "I B A 2"
_symmetry_group_IT_number 45
_symmetry_cell_setting 'orthorhombic'
loop_
_space_group_symop_operation_xyz
x,y,z
-x,-y,z
-x,y,1/2+z
x,-y,1/2+z
1/2+x,1/2+y,1/2+z
1/2-x,1/2-y,1/2+z
1/2-x,1/2+y,z
1/2+x,1/2-y,z
loop_
_atom_site_type_symbol
_atom_site_label
_atom_site_fract_x
_atom_site_fract_y
_atom_site_fract_z
Si Si1 0.772556 0.765241 0.486930
Si Si2 0.624782 0.652441 0.757567
Si Si3 0.475923 0.347489 0.386007
Si Si4 0.660256 0.931738 0.592411
Si Si5 0.708172 0.019250 0.854301
Si Si6 0.477035 0.190868 0.598817
Si Si7 0.624499 0.799802 0.223958
Si Si8 0.668045 0.420134 0.993889
O O1 0.821459 0.797109 0.363402
O O2 0.722538 0.852771 0.546995
O O3 0.825773 0.733405 0.604370
O O4 0.713535 0.678516 0.455481
O O5 0.549702 0.606555 0.822100
O O6 0.669248 0.586593 0.650693
O O7 0.581730 0.741053 0.680369
O O8 0.502102 0.259684 0.481268
O O9 0.416568 0.294681 0.288828
O O10 0.421051 0.416058 0.467057
O O11 0.672582 0.017528 0.489204
O O12 0.577359 0.895757 0.561098
O O13 0.795212 0.998305 0.400175
O O14 0.673181 0.125306 0.810858
O O15 0.680644 0.955127 0.736376
O O16 0.548415 0.148566 0.673166
#
# Coordination Sequence:
#
# PCOD9376342 Si02
#       8
#     8   8   8   8   8   8   8   8
#     4  12  23  40  72 107 141 195 263 308 376 453
#     4  10  22  38  72 111 138 187 255 326 368 443
#     4  10  19  43  69 107 140 188 257 316 372 444
#     4  12  26  45  69 102 148 200 251 312 384 464
#     4  12  27  45  64 108 152 196 242 312 403 461
#     4  10  20  42  66 104 142 189 254 306 375 459
#     4  11  23  40  70 103 146 193 240 309 381 463
#     4  11  24  41  70 105 148 186 251 309 376 465
#
# _framework density 25.488856999999999
#
# number of rings (size 3 to 8) (size 9 to 14) (size 15 to 20)
#    0.000    1.000    5.000    2.250    5.250    0.500 
#    0.000    2.500    0.000    0.750    9.750    0.000 
#    0.000    0.000    0.000    0.000    0.000    0.000 
#
# Total GULP energy -178749.555929 kJ/mol
# GULP energy per Si atom -5585.923623 kJ/mol
# Density = 2.543084 g / cm^3
# Si number density = 25.488857 Si / 1000 Ang^3
#
#
#
# Elastic Constant Matrix: (Units=GPa)
#
#
# Indices 1 2 3 4 5 6 
#
# 1 123.9104 19.9154 51.3818 0.0000 0.0000 0.0000
# 2 19.9154 66.6452 38.4829 0.0000 0.0000 0.0000
# 3 51.3818 38.4829 155.5848 0.0000 0.0000 0.0000
# 4 0.0000 0.0000 0.0000 41.4387 0.0000 0.0000
# 5 0.0000 0.0000 0.0000 0.0000 65.5648 0.0000
# 6 0.0000 0.0000 0.0000 0.0000 0.0000 27.8021
#
#
#
# Elastic Compliance Matrix: (Units=1/GPa)
#
#
# Indices 1 2 3 4 5 6 
#
# 1 0.009431 -0.001190 -0.002820 0.000000 0.000000 0.000000
# 2 -0.001190 0.017655 -0.003974 0.000000 0.000000 0.000000
# 3 -0.002820 -0.003974 0.008342 0.000000 0.000000 0.000000
# 4 0.000000 0.000000 0.000000 0.024132 0.000000 0.000000
# 5 0.000000 0.000000 0.000000 0.000000 0.015252 0.000000
# 6 0.000000 0.000000 0.000000 0.000000 0.000000 0.035968
#
#
# Mechanical properties :
#
#
# Convention : Reuss Voigt Hill
#
# Bulk Modulus (GPa) = 51.38800 62.85560 57.12180
# Shear Modulus (GPa) = 37.52768 42.71847 40.12308
#
# Velocity S-wave (km/s) = 3.84124 4.09830 3.97185
# Velocity P-wave (km/s) = 6.31492 6.86355 6.59494
#
# Compressibility (1/GPa) = 0.01945980
#
# Stress axis : x y z
#
# Youngs Moduli (GPa) = 106.03250 56.64109 119.87952
#
# Poissons Ratio (x) = 0.06739 0.33810
# Poissons Ratio (y) = 0.12615 0.47640
# Poissons Ratio (z) = 0.29905 0.22509
#
# Static dielectric constant tensor:
#      x y z
#    x 2.075110 0.000000 0.000000 
#    y 0.000000 2.156240 0.000000 
#    z 0.000000 0.000000 2.089600 
# 
# From -- ./inp_files/4505.got.cif
#   From: 2010.05.17/outbox.cif.g08.bks.cpg/sg45_3_cif.got.tgz:4505.got - 2010.06.03 19:51:22.
