data_PCOD9376246
_publ_section_title
;
Structure prediction by ZEFSAII (Michael W. Deem and Ramdas Pophale) SiO2 
 PCOD9376246
Probable space group: I B A 2
;
_chemical_formula_sum "Si O2"
_cell_formula_units_Z 52
_cell_length_a 8.188661
_cell_length_b 16.359983
_cell_length_c 18.785600
_cell_angle_alpha 90.000000
_cell_angle_beta 90.000000
_cell_angle_gamma 90.000000
_cell_volume 2516.638354
_symmetry_space_group_name_H-M "I B A 2"
_symmetry_group_IT_number 45
_symmetry_cell_setting 'orthorhombic'
loop_
_space_group_symop_operation_xyz
x,y,z
-x,-y,z
-x,y,1/2+z
x,-y,1/2+z
1/2+x,1/2+y,1/2+z
1/2-x,1/2-y,1/2+z
1/2-x,1/2+y,z
1/2+x,1/2-y,z
loop_
_atom_site_type_symbol
_atom_site_label
_atom_site_fract_x
_atom_site_fract_y
_atom_site_fract_z
Si Si1 0.203591 0.726319 0.709250
Si Si2 0.081309 0.875276 0.293156
Si Si3 0.885479 0.623469 0.925379
Si Si4 0.266994 0.033695 0.289493
Si Si5 0.103995 0.377078 0.656457
Si Si6 0.394861 0.260449 0.876838
Si Si7 0.000000 0.500000 0.538448
O O1 0.370150 0.675111 0.723015
O O2 0.257554 0.806685 0.665875
O O3 0.156730 0.745109 0.793071
O O4 0.065973 0.670657 0.672804
O O5 0.910557 0.922468 0.286199
O O6 0.054217 0.817295 0.361061
O O7 0.226165 0.939778 0.301460
O O8 0.865750 0.572030 0.853626
O O9 0.732393 0.685669 0.921153
O O10 0.045184 0.679968 0.916886
O O11 0.890406 0.558586 0.988633
O O12 0.358327 0.058658 0.218702
O O13 0.093865 0.433302 0.586893
#
# Coordination Sequence:
#
# PCOD9376246 Si02
#       7
#     8   8   8   8   8   8   4
#     4  12  19  38  71 100 123 168 226 291 321 382
#     4  10  19  33  63 111 123 153 215 291 346 358
#     4  11  24  43  66  98 133 173 222 270 338 388
#     4  10  20  38  67  97 133 163 221 294 313 390
#     4  12  23  44  65 102 135 177 227 266 345 388
#     4  11  19  40  69 102 121 166 227 287 321 381
#     4  12  32  42  56 100 148 190 210 262 342 422
#
# _framework density 20.662483000000002
#
# number of rings (size 3 to 8) (size 9 to 14) (size 15 to 20)
#    0.000    0.923    7.692    0.923    2.154    1.846 
#    0.000    0.000    0.000   24.000    0.000    0.000 
#    0.000    0.000    0.000    0.000    0.000    0.000 
#
# Total GULP energy -145057.465594 kJ/mol
# GULP energy per Si atom -5579.133292 kJ/mol
# Density = 2.061545 g / cm^3
# Si number density = 20.662483 Si / 1000 Ang^3
#
#
#
# Elastic Constant Matrix: (Units=GPa)
#
#
# Indices 1 2 3 4 5 6 
#
# 1 85.0124 48.6178 33.3144 0.0000 0.0000 0.0000
# 2 48.6178 133.7320 47.4039 0.0000 0.0000 0.0000
# 3 33.3144 47.4039 84.5545 0.0000 0.0000 0.0000
# 4 0.0000 0.0000 0.0000 50.2399 0.0000 0.0000
# 5 0.0000 0.0000 0.0000 0.0000 -28.9689 0.0000
# 6 0.0000 0.0000 0.0000 0.0000 0.0000 55.9560
#
#
#
# Elastic Compliance Matrix: (Units=1/GPa)
#
#
# Indices 1 2 3 4 5 6 
#
# 1 0.015743 -0.004399 -0.003737 0.000000 0.000000 0.000000
# 2 -0.004399 0.010561 -0.004188 0.000000 0.000000 0.000000
# 3 -0.003737 -0.004188 0.015647 0.000000 0.000000 0.000000
# 4 0.000000 0.000000 0.000000 0.019904 0.000000 0.000000
# 5 0.000000 0.000000 0.000000 0.000000 -0.034520 0.000000
# 6 0.000000 0.000000 0.000000 0.000000 0.000000 0.017871
#
#
# Mechanical properties :
#
#
# Convention : Reuss Voigt Hill
#
# Bulk Modulus (GPa) = 57.78859 62.44124 60.11492
# Shear Modulus (GPa) = 66.11887 27.04293 46.58090
#
# Velocity S-wave (km/s) = 5.66295 3.62165 4.75317
# Velocity P-wave (km/s) = 8.41351 6.91185 7.69938
#
# Compressibility (1/GPa) = 0.01730445
#
# Stress axis : x y z
#
# Youngs Moduli (GPa) = 63.52074 94.68559 63.91104
#
# Poissons Ratio (x) = 0.41650 0.23881
# Poissons Ratio (y) = 0.27941 0.26765
# Poissons Ratio (z) = 0.23735 0.39653
#
# Static dielectric constant tensor:
#      x y z
#    x 1.844620 0.000000 0.000000 
#    y 0.000000 1.838530 0.000000 
#    z 0.000000 0.000000 1.694920 
# 
# From -- ./inp_files/7650.got.cif
#   From: 2010.05.17/outbox.cif.g08.bks.cpg/sg45_4_cif.got.tgz:7650.got - 2010.06.03 19:51:22.
