data_PCOD9376461
_publ_section_title
;
Structure prediction by ZEFSAII (Michael W. Deem and Ramdas Pophale) SiO2 
 PCOD9376461
Probable space group: I B A 2
;
_chemical_formula_sum "Si O2"
_cell_formula_units_Z 56
_cell_length_a 9.058553
_cell_length_b 18.165122
_cell_length_c 17.309729
_cell_angle_alpha 90.000000
_cell_angle_beta 90.000000
_cell_angle_gamma 90.000000
_cell_volume 2848.311067
_symmetry_space_group_name_H-M "I B A 2"
_symmetry_group_IT_number 45
_symmetry_cell_setting 'orthorhombic'
loop_
_space_group_symop_operation_xyz
x,y,z
-x,-y,z
-x,y,1/2+z
x,-y,1/2+z
1/2+x,1/2+y,1/2+z
1/2-x,1/2-y,1/2+z
1/2-x,1/2+y,z
1/2+x,1/2-y,z
loop_
_atom_site_type_symbol
_atom_site_label
_atom_site_fract_x
_atom_site_fract_y
_atom_site_fract_z
Si Si1 0.184092 0.269383 0.555810
Si Si2 0.861287 0.644475 0.229830
Si Si3 0.930238 0.702413 0.946067
Si Si4 0.415132 0.324626 0.316620
Si Si5 0.850115 0.026401 0.265531
Si Si6 0.562964 0.287798 0.155812
Si Si7 0.100914 0.569821 0.336025
O O1 0.302544 0.229858 0.502038
O O2 0.285591 0.315126 0.616689
O O3 0.075621 0.311485 0.497378
O O4 0.080142 0.211106 0.601194
O O5 0.753420 0.691002 0.287555
O O6 0.757031 0.575030 0.211412
O O7 0.908116 0.700140 0.164818
O O8 0.003900 0.612661 0.271996
O O9 0.956530 0.768946 0.884183
O O10 0.880497 0.629418 0.902246
O O11 0.401844 0.412678 0.329999
O O12 0.517853 0.315427 0.240626
O O13 0.751494 0.962811 0.302105
O O14 0.000000 0.000000 0.227078
O O15 0.000000 0.500000 0.359772
#
# Coordination Sequence:
#
# PCOD9376461 Si02
#       7
#     8   8   8   8   8   8   8
#     4  10  24  34  57  90 127 158 201 250 324 362
#     4   9  19  35  60  88 114 159 212 238 317 360
#     4  11  22  37  59  95 120 156 215 262 297 372
#     4  10  21  34  68  89 118 150 222 254 305 357
#     4   9  21  35  54  97 127 152 194 265 316 354
#     4  11  19  41  58  91 125 160 194 269 309 368
#     4  10  20  37  61  89 130 160 200 262 308 365
#
# _framework density 19.660772999999999
#
# number of rings (size 3 to 8) (size 9 to 14) (size 15 to 20)
#    0.857    1.143    2.857    0.857    2.000    1.143 
#    0.000    0.000    0.000   18.857   11.143    0.000 
#    0.000    0.000    0.000    0.000    0.000    0.000 
#
# Total GULP energy -155880.266659 kJ/mol
# GULP energy per Si atom -5567.152381 kJ/mol
# Density = 1.961602 g / cm^3
# Si number density = 19.660773 Si / 1000 Ang^3
#
#
#
# Elastic Constant Matrix: (Units=GPa)
#
#
# Indices 1 2 3 4 5 6 
#
# 1 131.4170 28.0762 38.6881 0.0000 0.0000 0.0000
# 2 28.0762 57.0804 28.9725 0.0000 0.0000 0.0000
# 3 38.6881 28.9725 74.5370 0.0000 0.0000 0.0000
# 4 0.0000 0.0000 0.0000 13.0175 0.0000 0.0000
# 5 0.0000 0.0000 0.0000 0.0000 22.0323 0.0000
# 6 0.0000 0.0000 0.0000 0.0000 0.0000 17.3417
#
#
#
# Elastic Compliance Matrix: (Units=1/GPa)
#
#
# Indices 1 2 3 4 5 6 
#
# 1 0.009291 -0.002644 -0.003795 0.000000 0.000000 0.000000
# 2 -0.002644 0.022577 -0.007403 0.000000 0.000000 0.000000
# 3 -0.003795 -0.007403 0.018264 0.000000 0.000000 0.000000
# 4 0.000000 0.000000 0.000000 0.076820 0.000000 0.000000
# 5 0.000000 0.000000 0.000000 0.000000 0.045388 0.000000
# 6 0.000000 0.000000 0.000000 0.000000 0.000000 0.057664
#
#
# Mechanical properties :
#
#
# Convention : Reuss Voigt Hill
#
# Bulk Modulus (GPa) = 44.54806 50.50089 47.52447
# Shear Modulus (GPa) = 18.85570 21.63149 20.24359
#
# Velocity S-wave (km/s) = 3.10022 3.32058 3.21229
# Velocity P-wave (km/s) = 5.96009 6.35952 6.16304
#
# Compressibility (1/GPa) = 0.02244767
#
# Stress axis : x y z
#
# Youngs Moduli (GPa) = 107.62604 44.29198 54.75362
#
# Poissons Ratio (x) = 0.11711 0.20779
# Poissons Ratio (y) = 0.28456 0.40537
# Poissons Ratio (z) = 0.40844 0.32792
#
# Static dielectric constant tensor:
#      x y z
#    x 1.761860 0.000000 0.000000 
#    y 0.000000 1.712770 0.000000 
#    z 0.000000 0.000000 1.721980 
# 
# From -- ./inp_files/7741.got.cif
#   From: 2010.05.17/outbox.cif.g08.bks.cpg/sg45_4_cif.got.tgz:7741.got - 2010.06.03 19:51:22.
