data_PCOD9376410
_publ_section_title
;
Structure prediction by ZEFSAII (Michael W. Deem and Ramdas Pophale) SiO2 
 PCOD9376410
Probable space group: I B A 2
;
_chemical_formula_sum "Si O2"
_cell_formula_units_Z 64
_cell_length_a 9.133718
_cell_length_b 20.330279
_cell_length_c 14.460734
_cell_angle_alpha 90.000000
_cell_angle_beta 90.000000
_cell_angle_gamma 90.000000
_cell_volume 2685.228667
_symmetry_space_group_name_H-M "I B A 2"
_symmetry_group_IT_number 45
_symmetry_cell_setting 'orthorhombic'
loop_
_space_group_symop_operation_xyz
x,y,z
-x,-y,z
-x,y,1/2+z
x,-y,1/2+z
1/2+x,1/2+y,1/2+z
1/2-x,1/2-y,1/2+z
1/2-x,1/2+y,z
1/2+x,1/2-y,z
loop_
_atom_site_type_symbol
_atom_site_label
_atom_site_fract_x
_atom_site_fract_y
_atom_site_fract_z
Si Si1 0.615854 0.454810 0.302430
Si Si2 0.496003 0.322678 0.768233
Si Si3 0.166088 0.832388 0.073884
Si Si4 0.429658 0.935291 0.748399
Si Si5 0.430188 0.933688 0.539753
Si Si6 0.502053 0.791781 0.055480
Si Si7 0.651017 0.798899 0.259191
Si Si8 0.162239 0.982845 0.009723
O O1 0.500000 0.500000 0.253316
O O2 0.529943 0.388193 0.325489
O O3 0.756552 0.445822 0.240798
O O4 0.668207 0.485102 0.398257
O O5 0.584510 0.340320 0.673689
O O6 0.590993 0.264539 0.811230
O O7 0.326650 0.300323 0.753153
O O8 0.327709 0.798648 0.072401
O O9 0.060468 0.779458 0.020699
O O10 0.191975 0.906610 0.036624
O O11 0.494172 0.929696 0.645027
O O12 0.424833 0.865039 0.798287
O O13 0.500000 0.000000 0.790967
O O14 0.450372 0.859573 0.504153
O O15 0.500000 0.000000 0.496300
O O16 0.265174 0.958615 0.543747
O O17 0.585526 0.795079 0.155306
O O18 0.000000 0.000000 0.038467
#
# Coordination Sequence:
#
# PCOD9376410 Si02
#       8
#     8   8   8   8   8   8   8   8
#     4  10  24  41  55  84 123 154 197 245 298 366
#     4  10  20  35  62  84 121 157 193 247 295 354
#     4  11  22  36  61  92 119 159 201 253 305 363
#     4   9  20  35  61  89 117 147 200 249 292 361
#     4  10  20  38  63  93 117 155 208 254 301 366
#     4  10  20  35  58  94 126 149 202 259 305 355
#     4   9  18  33  55  91 118 145 193 245 293 342
#     4  11  26  40  59  86 124 164 204 252 308 367
#
# _framework density 23.834097
#
# number of rings (size 3 to 8) (size 9 to 14) (size 15 to 20)
#    0.000    2.000    1.250    3.000    8.750    1.500 
#    0.000    2.500    0.000    0.000    0.000    0.000 
#    0.000    0.000    0.000    0.000    0.000    0.000 
#
# Total GULP energy -178293.634587 kJ/mol
# GULP energy per Si atom -5571.676081 kJ/mol
# Density = 2.377985 g / cm^3
# Si number density = 23.834097 Si / 1000 Ang^3
#
#
#
# Elastic Constant Matrix: (Units=GPa)
#
#
# Indices 1 2 3 4 5 6 
#
# 1 118.8807 33.8030 1.2648 0.0000 0.0000 0.0000
# 2 33.8030 121.4037 0.8177 0.0000 0.0000 0.0000
# 3 1.2648 0.8177 60.6771 0.0000 0.0000 0.0000
# 4 0.0000 0.0000 0.0000 -21.2381 0.0000 0.0000
# 5 0.0000 0.0000 0.0000 0.0000 104.2634 0.0000
# 6 0.0000 0.0000 0.0000 0.0000 0.0000 51.6303
#
#
#
# Elastic Compliance Matrix: (Units=1/GPa)
#
#
# Indices 1 2 3 4 5 6 
#
# 1 0.009137 -0.002543 -0.000156 0.000000 0.000000 0.000000
# 2 -0.002543 0.008945 -0.000068 0.000000 0.000000 0.000000
# 3 -0.000156 -0.000068 0.016485 0.000000 0.000000 0.000000
# 4 0.000000 0.000000 0.000000 -0.047085 0.000000 0.000000
# 5 0.000000 0.000000 0.000000 0.000000 0.009591 0.000000
# 6 0.000000 0.000000 0.000000 0.000000 0.000000 0.019368
#
#
# Mechanical properties :
#
#
# Convention : Reuss Voigt Hill
#
# Bulk Modulus (GPa) = 34.44283 41.41473 37.92878
# Shear Modulus (GPa) = 157.96627 44.60284 101.28455
#
# Velocity S-wave (km/s) = 8.14993 4.33065 6.52594
# Velocity P-wave (km/s) = 10.15107 6.51306 8.52831
#
# Compressibility (1/GPa) = 0.02903362
#
# Stress axis : x y z
#
# Youngs Moduli (GPa) = 109.45109 111.78860 60.66176
#
# Poissons Ratio (x) = 0.28426 0.00947
# Poissons Ratio (y) = 0.27832 0.00410
# Poissons Ratio (z) = 0.01709 0.00755
#
# Static dielectric constant tensor:
#      x y z
#    x 0.702320 0.000000 0.000000 
#    y 0.000000 2.136380 0.000000 
#    z 0.000000 0.000000 1.941790 
# 
# From -- ./inp_files/7790.got.cif
#   From: 2010.05.17/outbox.cif.g08.bks.cpg/sg45_4_cif.got.tgz:7790.got - 2010.06.03 19:51:22.
