data_PCOD9376672
_publ_section_title
;
Structure prediction by ZEFSAII (Michael W. Deem and Ramdas Pophale) SiO2 
 PCOD9376672
Probable space group: I B A 2
;
_chemical_formula_sum "Si O2"
_cell_formula_units_Z 64
_cell_length_a 5.233608
_cell_length_b 14.529011
_cell_length_c 39.131636
_cell_angle_alpha 90.000000
_cell_angle_beta 90.000000
_cell_angle_gamma 90.000000
_cell_volume 2975.536269
_symmetry_space_group_name_H-M "I B A 2"
_symmetry_group_IT_number 45
_symmetry_cell_setting 'orthorhombic'
loop_
_space_group_symop_operation_xyz
x,y,z
-x,-y,z
-x,y,1/2+z
x,-y,1/2+z
1/2+x,1/2+y,1/2+z
1/2-x,1/2-y,1/2+z
1/2-x,1/2+y,z
1/2+x,1/2-y,z
loop_
_atom_site_type_symbol
_atom_site_label
_atom_site_fract_x
_atom_site_fract_y
_atom_site_fract_z
Si Si1 0.092071 0.808475 0.480200
Si Si2 0.469886 0.687194 0.055675
Si Si3 0.498861 0.610211 0.907019
Si Si4 0.092077 0.691525 0.794431
Si Si5 0.800689 0.396264 0.651096
Si Si6 0.199311 0.896264 0.623535
Si Si7 0.469884 0.812806 0.218956
Si Si8 0.498862 0.110211 0.867612
O O1 0.385763 0.775062 0.479227
O O2 0.050374 0.853315 0.517388
O O3 0.022529 0.864766 0.446626
O O4 0.746132 0.735452 0.058524
O O5 0.409015 0.615243 0.085611
O O6 0.500000 0.500000 0.904601
O O7 0.249997 0.644931 0.887316
O O8 0.749997 0.643868 0.887315
O O9 0.385768 0.724938 0.795404
O O10 0.050377 0.646685 0.757243
O O11 0.022534 0.635234 0.828005
O O12 0.520197 0.353245 0.647383
O O13 0.750000 0.500000 0.637315
O O14 0.909014 0.384757 0.689020
O O15 0.020197 0.353245 0.627248
O O16 0.746130 0.764548 0.216107
O O17 0.500000 0.000000 0.870030
#
# Coordination Sequence:
#
# PCOD9376672 Si02
#       8
#     8   8   8   8   8   8   8   8
#     4  10  21  37  58  85 116 147 192 236 283 340
#     4  10  21  37  58  83 114 149 186 234 287 339
#     4  10  21  37  57  83 118 152 192 233 280 337
#     4  10  21  37  58  85 116 147 192 236 283 340
#     4  10  21  37  56  81 114 143 187 239 275 340
#     4  10  21  37  56  81 114 143 187 239 275 340
#     4  10  21  37  58  83 114 149 186 234 287 339
#     4  10  21  37  57  83 118 152 192 233 280 337
#
# _framework density 21.508727
#
# number of rings (size 3 to 8) (size 9 to 14) (size 15 to 20)
#    0.000    2.000    0.000    3.000    0.000    6.000 
#    4.500    0.000   11.000    0.000    0.000    0.000 
#    0.000    0.000    0.000    0.000    0.000    0.000 
#
# Total GULP energy -178580.563709 kJ/mol
# GULP energy per Si atom -5580.642616 kJ/mol
# Density = 2.145977 g / cm^3
# Si number density = 21.508727 Si / 1000 Ang^3
#
#
#
# Elastic Constant Matrix: (Units=GPa)
#
#
# Indices 1 2 3 4 5 6 
#
# 1 141.4168 0.0144 46.0489 0.0000 0.0000 0.0000
# 2 0.0144 54.7793 36.2373 0.0000 0.0000 0.0000
# 3 46.0489 36.2373 208.9208 0.0000 0.0000 0.0000
# 4 0.0000 0.0000 0.0000 -84.7302 0.0000 0.0000
# 5 0.0000 0.0000 0.0000 0.0000 35.5643 0.0000
# 6 0.0000 0.0000 0.0000 0.0000 0.0000 -4.8401
#
#
#
# Elastic Compliance Matrix: (Units=1/GPa)
#
#
# Indices 1 2 3 4 5 6 
#
# 1 0.007695 0.001265 -0.001915 0.000000 0.000000 0.000000
# 2 0.001265 0.020829 -0.003892 0.000000 0.000000 0.000000
# 3 -0.001915 -0.003892 0.005884 0.000000 0.000000 0.000000
# 4 0.000000 0.000000 0.000000 -0.011802 0.000000 0.000000
# 5 0.000000 0.000000 0.000000 0.000000 0.028118 0.000000
# 6 0.000000 0.000000 0.000000 0.000000 0.000000 -0.206607
#
#
# Mechanical properties :
#
#
# Convention : Reuss Voigt Hill
#
# Bulk Modulus (GPa) = 39.48877 63.30198 51.39538
# Shear Modulus (GPa) = -36.13805 10.71987 -12.70909
#
# Velocity S-wave (km/s) = -4.10342 2.23490 -2.43344
# Velocity P-wave (km/s) = 2.01282 6.01286 4.00643
#
# Compressibility (1/GPa) = 0.02532365
#
# Stress axis : x y z
#
# Youngs Moduli (GPa) = 129.95621 48.00972 169.96082
#
# Poissons Ratio (x) = -0.06074 0.32556
# Poissons Ratio (y) = -0.16441 0.66143
# Poissons Ratio (z) = 0.24893 0.18684
#
# Static dielectric constant tensor:
#      x y z
#    x 1.841540 0.000000 0.000000 
#    y 0.000000 1.938530 0.000000 
#    z 0.000000 0.000000 1.807900 
# 
# From -- ./inp_files/10148.got.cif
#   From: 2010.05.17/outbox.cif.g08.bks.cpg/sg45_6_cif.got.tgz:10148.got - 2010.06.03 19:51:22.
