data_PCOD9376482
_publ_section_title
;
Structure prediction by ZEFSAII (Michael W. Deem and Ramdas Pophale) SiO2 
 PCOD9376482
Probable space group: I B A 2
;
_chemical_formula_sum "Si O2"
_cell_formula_units_Z 20
_cell_length_a 16.597491
_cell_length_b 5.647917
_cell_length_c 8.797946
_cell_angle_alpha 90.000000
_cell_angle_beta 90.000000
_cell_angle_gamma 90.000000
_cell_volume 824.730469
_symmetry_space_group_name_H-M "I B A 2"
_symmetry_group_IT_number 45
_symmetry_cell_setting 'orthorhombic'
loop_
_space_group_symop_operation_xyz
x,y,z
-x,-y,z
-x,y,1/2+z
x,-y,1/2+z
1/2+x,1/2+y,1/2+z
1/2-x,1/2-y,1/2+z
1/2-x,1/2+y,z
1/2+x,1/2-y,z
loop_
_atom_site_type_symbol
_atom_site_label
_atom_site_fract_x
_atom_site_fract_y
_atom_site_fract_z
Si Si1 0.760109 0.996278 0.349480
Si Si2 0.389532 0.782883 0.973022
Si Si3 0.500000 0.000000 0.721281
O O1 0.815228 0.467467 0.463310
O O2 0.743879 0.245091 0.265217
O O3 0.843207 0.037446 0.440625
O O4 0.443888 0.832964 0.117597
O O5 0.444828 0.839639 0.828300
#
# Coordination Sequence:
#
# PCOD9376482 Si02
#       3
#     8   8   4
#     4   8  18  40  64  86 116 164 206 242 290 376
#     4   9  20  38  62  87 120 162 196 255 290 374
#     4  10  20  38  58  94 126 148 202 254 318 326
#
# _framework density 24.250346
#
# number of rings (size 3 to 8) (size 9 to 14) (size 15 to 20)
#    2.400    0.800    0.000    0.000    0.000    3.200 
#    0.000   12.000    0.000    0.000    0.000    0.000 
#    0.000    0.000    0.000    0.000    0.000    0.000 
#
# Total GULP energy -55730.539938 kJ/mol
# GULP energy per Si atom -5573.053994 kJ/mol
# Density = 2.419515 g / cm^3
# Si number density = 24.250346 Si / 1000 Ang^3
#
#
#
# Elastic Constant Matrix: (Units=GPa)
#
#
# Indices 1 2 3 4 5 6 
#
# 1 159.4582 16.1588 78.0337 0.0000 0.0000 0.0000
# 2 16.1588 157.5872 30.8621 0.0000 0.0000 0.0000
# 3 78.0337 30.8621 118.6603 0.0000 0.0000 0.0000
# 4 0.0000 0.0000 0.0000 9.0597 0.0000 0.0000
# 5 0.0000 0.0000 0.0000 0.0000 12.8568 0.0000
# 6 0.0000 0.0000 0.0000 0.0000 0.0000 6.9459
#
#
#
# Elastic Compliance Matrix: (Units=1/GPa)
#
#
# Indices 1 2 3 4 5 6 
#
# 1 0.009257 0.000256 -0.006154 0.000000 0.000000 0.000000
# 2 0.000256 0.006693 -0.001909 0.000000 0.000000 0.000000
# 3 -0.006154 -0.001909 0.012971 0.000000 0.000000 0.000000
# 4 0.000000 0.000000 0.000000 0.110379 0.000000 0.000000
# 5 0.000000 0.000000 0.000000 0.000000 0.077780 0.000000
# 6 0.000000 0.000000 0.000000 0.000000 0.000000 0.143970
#
#
# Mechanical properties :
#
#
# Convention : Reuss Voigt Hill
#
# Bulk Modulus (GPa) = 75.15027 76.20165 75.67596
# Shear Modulus (GPa) = 13.11991 26.48255 19.80123
#
# Velocity S-wave (km/s) = 2.32851 3.30820 2.86061
# Velocity P-wave (km/s) = 6.18756 6.78847 6.49497
#
# Compressibility (1/GPa) = 0.01330667
#
# Stress axis : x y z
#
# Youngs Moduli (GPa) = 108.02699 149.40209 77.09435
#
# Poissons Ratio (x) = -0.03825 0.47445
# Poissons Ratio (y) = -0.02766 0.14719
# Poissons Ratio (z) = 0.66482 0.28525
#
# Static dielectric constant tensor:
#      x y z
#    x 1.933410 0.000000 0.000000 
#    y 0.000000 1.980620 0.000000 
#    z 0.000000 0.000000 1.890150 
# 
# From -- ./inp_files/726.got.cif
#   From: 2010.05.17/outbox.cif.g08.bks.cpg/sg45_1_cif.got.tgz:726.got - 2010.06.03 19:51:22.
