data_PCOD9376315
_publ_section_title
;
Structure prediction by ZEFSAII (Michael W. Deem and Ramdas Pophale) SiO2 
 PCOD9376315
Probable space group: I B A 2
;
_chemical_formula_sum "Si O2"
_cell_formula_units_Z 56
_cell_length_a 28.401973
_cell_length_b 14.709866
_cell_length_c 5.349525
_cell_angle_alpha 90.000000
_cell_angle_beta 90.000000
_cell_angle_gamma 90.000000
_cell_volume 2234.973861
_symmetry_space_group_name_H-M "I B A 2"
_symmetry_group_IT_number 45
_symmetry_cell_setting 'orthorhombic'
loop_
_space_group_symop_operation_xyz
x,y,z
-x,-y,z
-x,y,1/2+z
x,-y,1/2+z
1/2+x,1/2+y,1/2+z
1/2-x,1/2-y,1/2+z
1/2-x,1/2+y,z
1/2+x,1/2-y,z
loop_
_atom_site_type_symbol
_atom_site_label
_atom_site_fract_x
_atom_site_fract_y
_atom_site_fract_z
Si Si1 0.468522 0.612199 0.674140
Si Si2 0.260541 0.939428 0.975326
Si Si3 0.372724 0.539411 0.542785
Si Si4 0.898762 0.728104 0.833490
Si Si5 0.850521 0.630010 0.211711
Si Si6 0.922340 0.527482 0.727831
Si Si7 0.820554 0.207926 0.022026
O O1 0.499156 0.608515 0.421169
O O2 0.427843 0.538024 0.611705
O O3 0.437351 0.701520 0.740714
O O4 0.313197 0.901423 0.003339
O O5 0.253999 0.008623 0.211244
O O6 0.225930 0.852724 0.009082
O O7 0.353645 0.472825 0.326569
O O8 0.359119 0.635477 0.418718
O O9 0.908649 0.632456 0.696931
O O10 0.846875 0.768820 0.779974
O O11 0.893020 0.695048 0.116879
O O12 0.876889 0.537466 0.284431
O O13 0.819914 0.694450 0.390926
O O14 0.947726 0.484610 0.492083
#
# Coordination Sequence:
#
# PCOD9376315 Si02
#       7
#     8   8   8   8   8   8   8
#     4  11  26  44  72 106 142 177 228 293 354 425
#     4  12  29  47  69 103 152 192 242 307 363 423
#     4  11  25  45  72 102 143 186 232 280 356 433
#     4  10  24  42  71 101 139 185 236 292 362 427
#     4  11  25  42  73  99 140 187 255 287 357 425
#     4  10  19  38  63  95 126 172 227 284 332 408
#     4  11  26  42  72 102 145 188 244 294 367 417
#
# _framework density 25.056218999999999
#
# number of rings (size 3 to 8) (size 9 to 14) (size 15 to 20)
#    0.000    1.143    1.429    3.429   14.000    1.714 
#    0.000    0.000    0.000   10.286    0.000    0.000 
#    0.000    0.000    0.000    0.000    0.000    0.000 
#
# Total GULP energy -155984.876144 kJ/mol
# GULP energy per Si atom -5570.888434 kJ/mol
# Density = 2.499919 g / cm^3
# Si number density = 25.056219 Si / 1000 Ang^3
#
#
#
# Elastic Constant Matrix: (Units=GPa)
#
#
# Indices 1 2 3 4 5 6 
#
# 1 85.1139 25.9082 17.1228 0.0000 0.0000 0.0000
# 2 25.9082 123.7300 32.3558 0.0000 0.0000 0.0000
# 3 17.1228 32.3558 134.7842 -0.0001 0.0000 0.0000
# 4 0.0000 0.0000 -0.0001 51.3500 0.0000 0.0000
# 5 0.0000 0.0000 0.0000 0.0000 10.7663 0.0000
# 6 0.0000 0.0000 0.0000 0.0000 0.0000 27.5723
#
#
#
# Elastic Compliance Matrix: (Units=1/GPa)
#
#
# Indices 1 2 3 4 5 6 
#
# 1 0.012684 -0.002384 -0.001039 0.000000 0.000000 0.000000
# 2 -0.002384 0.009072 -0.001875 0.000000 0.000000 0.000000
# 3 -0.001039 -0.001875 0.008001 0.000000 0.000000 0.000000
# 4 0.000000 0.000000 0.000000 0.019474 0.000000 0.000000
# 5 0.000000 0.000000 0.000000 0.000000 0.092882 0.000000
# 6 0.000000 0.000000 0.000000 0.000000 0.000000 0.036268
#
#
# Mechanical properties :
#
#
# Convention : Reuss Voigt Hill
#
# Bulk Modulus (GPa) = 52.19021 54.93352 53.56186
# Shear Modulus (GPa) = 25.59319 35.82048 30.70684
#
# Velocity S-wave (km/s) = 3.19945 3.78511 3.50454
# Velocity P-wave (km/s) = 5.87564 6.40894 6.14807
#
# Compressibility (1/GPa) = 0.01916068
#
# Stress axis : x y z
#
# Youngs Moduli (GPa) = 78.84126 110.23393 124.97940
#
# Poissons Ratio (x) = 0.26282 0.12985
# Poissons Ratio (y) = 0.18797 0.23431
# Poissons Ratio (z) = 0.08191 0.20667
#
# Static dielectric constant tensor:
#      x y z
#    x 1.990420 0.000000 0.000000 
#    y 0.000000 2.026100 0.000000 
#    z 0.000000 0.000000 2.137880 
# 
# From -- ./inp_files/217.got.cif
#   From: 2010.05.17/outbox.cif.g08.bks.cpg/sg45_1_cif.got.tgz:217.got - 2010.06.03 19:51:22.
