data_PCOD9376928
_publ_section_title
;
Structure prediction by ZEFSAII (Michael W. Deem and Ramdas Pophale) SiO2 
 PCOD9376928
Probable space group: I B A 2
;
_chemical_formula_sum "Si O2"
_cell_formula_units_Z 60
_cell_length_a 17.156733
_cell_length_b 17.285747
_cell_length_c 9.060868
_cell_angle_alpha 90.000000
_cell_angle_beta 90.000000
_cell_angle_gamma 90.000000
_cell_volume 2687.153951
_symmetry_space_group_name_H-M "I B A 2"
_symmetry_group_IT_number 45
_symmetry_cell_setting 'orthorhombic'
loop_
_space_group_symop_operation_xyz
x,y,z
-x,-y,z
-x,y,1/2+z
x,-y,1/2+z
1/2+x,1/2+y,1/2+z
1/2-x,1/2-y,1/2+z
1/2-x,1/2+y,z
1/2+x,1/2-y,z
loop_
_atom_site_type_symbol
_atom_site_label
_atom_site_fract_x
_atom_site_fract_y
_atom_site_fract_z
Si Si1 0.095915 0.381667 0.795050
Si Si2 0.987171 0.697262 0.519182
Si Si3 0.240052 0.042868 0.028667
Si Si4 0.893222 0.279019 0.738519
Si Si5 0.768641 0.163813 0.791888
Si Si6 0.842247 0.449235 0.744712
Si Si7 0.500000 0.500000 0.173736
Si Si8 0.106543 0.058954 0.430188
O O1 0.178914 0.342805 0.839540
O O2 0.108349 0.472405 0.766110
O O3 0.066180 0.340970 0.645199
O O4 0.034261 0.365735 0.922891
O O5 0.051166 0.748713 0.605617
O O6 0.935757 0.737930 0.393810
O O7 0.229650 0.109727 0.147058
O O8 0.280461 0.972360 0.118419
O O9 0.297299 0.064771 0.897392
O O10 0.159315 0.016811 0.958692
O O11 0.806892 0.244602 0.746709
O O12 0.888440 0.371347 0.715444
O O13 0.829108 0.125066 0.906269
O O14 0.442286 0.546659 0.281342
O O15 0.548008 0.558221 0.067964
#
# Coordination Sequence:
#
# PCOD9376928 Si02
#       8
#     8   8   8   8   8   8   4   8
#     4  10  22  43  70  98 130 174 224 276 319 401
#     4  10  24  44  65  95 140 173 217 268 343 392
#     4  11  20  41  65  98 124 165 222 285 308 385
#     4  11  25  42  63  96 135 178 215 269 339 397
#     4  11  24  41  70  93 131 168 230 270 326 397
#     4  11  22  38  69  98 131 167 224 273 323 380
#     4  10  22  36  66  92 126 164 212 276 336 368
#     4  11  20  40  63  93 124 163 218 269 321 380
#
# _framework density 22.328457
#
# number of rings (size 3 to 8) (size 9 to 14) (size 15 to 20)
#    0.000    1.333    4.000    2.400    0.000    6.400 
#    0.000    0.000    0.000    0.000    0.000    0.000 
#    0.000    0.000    0.000    0.000    0.000    0.000 
#
# Total GULP energy -167685.854983 kJ/mol
# GULP energy per Si atom -5589.528499 kJ/mol
# Density = 2.227764 g / cm^3
# Si number density = 22.328457 Si / 1000 Ang^3
#
#
#
# Elastic Constant Matrix: (Units=GPa)
#
#
# Indices 1 2 3 4 5 6 
#
# 1 110.9035 26.6059 37.5535 0.0000 0.0000 0.0000
# 2 26.6059 34.5851 5.6204 0.0000 0.0000 0.0000
# 3 37.5535 5.6204 113.1713 0.0000 0.0000 0.0000
# 4 0.0000 0.0000 0.0000 -8.6451 0.0000 0.0000
# 5 0.0000 0.0000 0.0000 0.0000 45.2586 0.0000
# 6 0.0000 0.0000 0.0000 0.0000 0.0000 24.2899
#
#
#
# Elastic Compliance Matrix: (Units=1/GPa)
#
#
# Indices 1 2 3 4 5 6 
#
# 1 0.012407 -0.008948 -0.003673 0.000000 0.000000 0.000000
# 2 -0.008948 0.035602 0.001201 0.000000 0.000000 0.000000
# 3 -0.003673 0.001201 0.009995 0.000000 0.000000 0.000000
# 4 0.000000 0.000000 0.000000 -0.115672 0.000000 0.000000
# 5 0.000000 0.000000 0.000000 0.000000 0.022095 0.000000
# 6 0.000000 0.000000 0.000000 0.000000 0.000000 0.041169
#
#
# Mechanical properties :
#
#
# Convention : Reuss Voigt Hill
#
# Bulk Modulus (GPa) = 28.43667 44.24662 36.34164
# Shear Modulus (GPa) = 124.50940 24.77268 74.64104
#
# Velocity S-wave (km/s) = 7.47554 3.33448 5.78802
# Velocity P-wave (km/s) = 9.34210 5.88934 7.80894
#
# Compressibility (1/GPa) = 0.03516587
#
# Stress axis : x y z
#
# Youngs Moduli (GPa) = 80.59945 28.08803 100.04792
#
# Poissons Ratio (x) = 0.25132 0.36744
# Poissons Ratio (y) = 0.72118 -0.12016
# Poissons Ratio (z) = 0.29601 -0.03373
#
# Static dielectric constant tensor:
#      x y z
#    x 1.867050 0.000000 0.000000 
#    y 0.000000 1.821700 0.000000 
#    z 0.000000 0.000000 1.828620 
# 
# From -- ./inp_files/2150.got.cif
#   From: 2010.05.17/outbox.cif.g08.bks.cpg/sg45_2_cif.got.tgz:2150.got - 2010.06.03 19:51:22.
