data_PCOD9376399
_publ_section_title
;
Structure prediction by ZEFSAII (Michael W. Deem and Ramdas Pophale) SiO2 
 PCOD9376399
Probable space group: I B A 2
;
_chemical_formula_sum "Si O2"
_cell_formula_units_Z 64
_cell_length_a 14.267519
_cell_length_b 29.305407
_cell_length_c 8.072409
_cell_angle_alpha 90.000000
_cell_angle_beta 90.000000
_cell_angle_gamma 90.000000
_cell_volume 3375.198931
_symmetry_space_group_name_H-M "I B A 2"
_symmetry_group_IT_number 45
_symmetry_cell_setting 'orthorhombic'
loop_
_space_group_symop_operation_xyz
x,y,z
-x,-y,z
-x,y,1/2+z
x,-y,1/2+z
1/2+x,1/2+y,1/2+z
1/2-x,1/2-y,1/2+z
1/2-x,1/2+y,z
1/2+x,1/2-y,z
loop_
_atom_site_type_symbol
_atom_site_label
_atom_site_fract_x
_atom_site_fract_y
_atom_site_fract_z
Si Si1 0.378274 0.317244 0.546440
Si Si2 0.763890 0.368350 0.597021
Si Si3 0.317937 0.774338 0.941929
Si Si4 0.822845 0.352312 0.979846
Si Si5 0.564900 0.666927 0.164812
Si Si6 0.879750 0.544910 0.101428
Si Si7 0.593157 0.053756 0.492305
Si Si8 0.876614 0.261406 0.061668
O O1 0.371836 0.261908 0.560268
O O2 0.272845 0.336202 0.569960
O O3 0.405756 0.326203 0.354740
O O4 0.455231 0.344340 0.652781
O O5 0.811497 0.326206 0.500347
O O6 0.650619 0.362551 0.589652
O O7 0.804590 0.417358 0.544676
O O8 0.794021 0.360051 0.788769
O O9 0.213215 0.754275 0.955397
O O10 0.353239 0.769443 0.755414
O O11 0.862292 0.399048 0.052166
O O12 0.898982 0.311371 0.992279
O O13 0.564112 0.715397 0.067246
O O14 0.860931 0.491711 0.067643
O O15 0.891430 0.550584 0.296960
O O16 0.982050 0.553936 0.024088
#
# Coordination Sequence:
#
# PCOD9376399 Si02
#       8
#     8   8   8   8   8   8   8   8
#     4   9  18  31  46  68  97 129 163 197 233 274
#     4   9  19  34  50  70  98 129 161 199 241 286
#     4   9  17  29  45  66  94 126 161 198 234 275
#     4   9  19  34  50  70  98 129 161 199 241 286
#     4   9  18  31  46  68  97 129 163 197 233 274
#     4  10  20  35  54  75  99 124 155 198 246 297
#     4  10  20  35  54  75  99 124 155 198 246 297
#     4   9  17  29  45  66  94 126 161 198 234 275
#
# _framework density 18.961843999999999
#
# number of rings (size 3 to 8) (size 9 to 14) (size 15 to 20)
#    0.000    2.750    0.000    3.750    0.000    8.000 
#    0.000    5.000    0.000    0.750    0.000    5.250 
#    0.000    0.000    0.000    0.000    0.000    0.000 
#
# Total GULP energy -178215.248283 kJ/mol
# GULP energy per Si atom -5569.226509 kJ/mol
# Density = 1.891869 g / cm^3
# Si number density = 18.961844 Si / 1000 Ang^3
#
#
#
# Elastic Constant Matrix: (Units=GPa)
#
#
# Indices 1 2 3 4 5 6 
#
# 1 32.8493 24.5517 9.3721 -0.0018 0.0001 -0.0009
# 2 24.5517 128.5893 12.0618 -0.0034 0.0011 -0.0009
# 3 9.3721 12.0618 12.1862 0.0080 -0.0040 -0.0003
# 4 -0.0018 -0.0034 0.0080 12.8124 -0.0007 -0.0003
# 5 0.0001 0.0011 -0.0040 -0.0007 20.8435 0.0008
# 6 -0.0009 -0.0009 -0.0003 -0.0003 0.0008 23.2913
#
#
#
# Elastic Compliance Matrix: (Units=1/GPa)
#
#
# Indices 1 2 3 4 5 6 
#
# 1 0.042299 -0.005539 -0.027049 0.000021 -0.000005 0.000001
# 2 -0.005539 0.009298 -0.004943 0.000005 -0.000001 0.000000
# 3 -0.027049 -0.004943 0.107756 -0.000072 0.000021 0.000000
# 4 0.000021 0.000005 -0.000072 0.078049 0.000003 0.000001
# 5 -0.000005 -0.000001 0.000021 0.000003 0.047977 -0.000002
# 6 0.000001 0.000000 0.000000 0.000001 -0.000002 0.042935
#
#
# Mechanical properties :
#
#
# Convention : Reuss Voigt Hill
#
# Bulk Modulus (GPa) = 11.86370 29.51067 20.68719
# Shear Modulus (GPa) = 11.58823 19.89871 15.74347
#
# Velocity S-wave (km/s) = 2.47479 3.24297 2.88457
# Velocity P-wave (km/s) = 3.79952 5.44238 4.69339
#
# Compressibility (1/GPa) = 0.08429071
#
# Stress axis : x y z
#
# Youngs Moduli (GPa) = 23.64117 107.55074 9.28025
#
# Poissons Ratio (x) = 0.59572 0.25102
# Poissons Ratio (y) = 0.13095 0.04587
# Poissons Ratio (z) = 0.63947 0.53164
#
# Static dielectric constant tensor:
#      x y z
#    x 1.718610 0.000000 0.000000 
#    y 0.000000 1.698040 0.000000 
#    z 0.000000 0.000000 1.680100 
# 
# From -- ./inp_files/1993.got.cif
#   From: 2010.05.17/outbox.cif.g08.bks.cpg/sg45_1_cif.got.tgz:1993.got - 2010.06.03 19:51:22.
