data_PCOD9376924
_publ_section_title
;
Structure prediction by ZEFSAII (Michael W. Deem and Ramdas Pophale) SiO2 
 PCOD9376924
Probable space group: I B A 2
;
_chemical_formula_sum "Si O2"
_cell_formula_units_Z 40
_cell_length_a 16.903147
_cell_length_b 9.934778
_cell_length_c 9.388147
_cell_angle_alpha 90.000000
_cell_angle_beta 90.000000
_cell_angle_gamma 90.000000
_cell_volume 1576.542259
_symmetry_space_group_name_H-M "I B A 2"
_symmetry_group_IT_number 45
_symmetry_cell_setting 'orthorhombic'
loop_
_space_group_symop_operation_xyz
x,y,z
-x,-y,z
-x,y,1/2+z
x,-y,1/2+z
1/2+x,1/2+y,1/2+z
1/2-x,1/2-y,1/2+z
1/2-x,1/2+y,z
1/2+x,1/2-y,z
loop_
_atom_site_type_symbol
_atom_site_label
_atom_site_fract_x
_atom_site_fract_y
_atom_site_fract_z
Si Si1 0.385899 0.591760 0.285010
Si Si2 0.643400 0.708038 0.335360
Si Si3 0.247967 0.674017 0.091719
Si Si4 0.505500 0.814419 0.699136
Si Si5 0.398342 0.140162 0.939531
O O1 0.392367 0.442133 0.341715
O O2 0.306127 0.592797 0.193658
O O3 0.454112 0.665164 0.190174
O O4 0.380433 0.700035 0.412710
O O5 0.694576 0.739024 0.474285
O O6 0.699819 0.729667 0.198448
O O7 0.567872 0.799702 0.306717
O O8 0.182892 0.587278 0.004567
O O9 0.468071 0.864012 0.553965
O O10 0.572362 0.899846 0.782108
#
# Coordination Sequence:
#
# PCOD9376924 Si02
#       5
#     8   8   8   8   8
#     4  10  22  36  58  89 121 156 195 239 304 351
#     4  11  22  37  60  84 129 155 196 250 293 370
#     4  11  22  38  55  87 125 160 202 233 299 366
#     4   9  19  35  56  87 119 150 190 237 312 357
#     4   9  20  37  53  87 119 158 188 236 297 358
#
# _framework density 25.371981999999999
#
# number of rings (size 3 to 8) (size 9 to 14) (size 15 to 20)
#    1.200    0.800    2.000    1.800    5.600    0.000 
#    7.200    0.000    0.000    0.000    0.000   68.600 
#    0.000    0.000    0.000    0.000    0.000    0.000 
#
# Total GULP energy -111662.714801 kJ/mol
# GULP energy per Si atom -5583.135740 kJ/mol
# Density = 2.531423 g / cm^3
# Si number density = 25.371982 Si / 1000 Ang^3
#
#
#
# Elastic Constant Matrix: (Units=GPa)
#
#
# Indices 1 2 3 4 5 6 
#
# 1 104.7586 22.3854 34.9497 0.0000 0.0000 0.0000
# 2 22.3854 99.5698 0.5029 0.0000 0.0000 0.0000
# 3 34.9497 0.5029 111.5844 0.0000 0.0000 0.0000
# 4 0.0000 0.0000 0.0000 4.8710 0.0000 0.0000
# 5 0.0000 0.0000 0.0000 0.0000 75.7180 0.0000
# 6 0.0000 0.0000 0.0000 0.0000 0.0000 10.5934
#
#
#
# Elastic Compliance Matrix: (Units=1/GPa)
#
#
# Indices 1 2 3 4 5 6 
#
# 1 0.011255 -0.002513 -0.003514 0.000000 0.000000 0.000000
# 2 -0.002513 0.010604 0.000739 0.000000 0.000000 0.000000
# 3 -0.003514 0.000739 0.010059 0.000000 0.000000 0.000000
# 4 0.000000 0.000000 0.000000 0.205296 0.000000 0.000000
# 5 0.000000 0.000000 0.000000 0.000000 0.013207 0.000000
# 6 0.000000 0.000000 0.000000 0.000000 0.000000 0.094398
#
#
# Mechanical properties :
#
#
# Convention : Reuss Voigt Hill
#
# Bulk Modulus (GPa) = 46.85197 47.95431 47.40314
# Shear Modulus (GPa) = 13.79276 35.44147 24.61712
#
# Velocity S-wave (km/s) = 2.33410 3.74153 3.11826
# Velocity P-wave (km/s) = 5.07643 6.13245 5.62926
#
# Compressibility (1/GPa) = 0.02134382
#
# Stress axis : x y z
#
# Youngs Moduli (GPa) = 88.84964 94.30081 99.41251
#
# Poissons Ratio (x) = 0.23694 0.34932
# Poissons Ratio (y) = 0.22324 -0.07349
# Poissons Ratio (z) = 0.31221 -0.06971
#
# Static dielectric constant tensor:
#      x y z
#    x 2.030670 0.000000 0.000000 
#    y 0.000000 2.025430 0.000000 
#    z 0.000000 0.000000 1.988780 
# 
# From -- ./inp_files/2056.got.cif
#   From: 2010.05.17/outbox.cif.g08.bks.cpg/sg45_2_cif.got.tgz:2056.got - 2010.06.03 19:51:22.
