data_PCOD9376259
_publ_section_title
;
Structure prediction by ZEFSAII (Michael W. Deem and Ramdas Pophale) SiO2 
 PCOD9376259
Probable space group: I B A 2
;
_chemical_formula_sum "Si O2"
_cell_formula_units_Z 56
_cell_length_a 32.206099
_cell_length_b 5.669304
_cell_length_c 12.687133
_cell_angle_alpha 90.000000
_cell_angle_beta 90.000000
_cell_angle_gamma 90.000000
_cell_volume 2316.494971
_symmetry_space_group_name_H-M "I B A 2"
_symmetry_group_IT_number 45
_symmetry_cell_setting 'orthorhombic'
loop_
_space_group_symop_operation_xyz
x,y,z
-x,-y,z
-x,y,1/2+z
x,-y,1/2+z
1/2+x,1/2+y,1/2+z
1/2-x,1/2-y,1/2+z
1/2-x,1/2+y,z
1/2+x,1/2-y,z
loop_
_atom_site_type_symbol
_atom_site_label
_atom_site_fract_x
_atom_site_fract_y
_atom_site_fract_z
Si Si1 0.240194 0.380021 0.117140
Si Si2 0.088552 0.996515 0.061188
Si Si3 0.500000 0.500000 0.582915
Si Si4 0.360455 0.517469 0.390302
Si Si5 0.916468 0.707336 0.770021
Si Si6 0.354916 0.837030 0.182913
Si Si7 0.728854 0.366597 0.852980
Si Si8 0.500000 0.000000 0.212736
O O1 0.250048 0.629675 0.064287
O O2 0.191821 0.376678 0.146772
O O3 0.268755 0.372914 0.223429
O O4 0.122007 0.847937 0.992564
O O5 0.042156 0.992792 0.014910
O O6 0.115506 0.225115 0.093680
O O7 0.076734 0.894111 0.176647
O O8 0.505206 0.754159 0.645862
O O9 0.398828 0.339428 0.371087
O O10 0.354418 0.669429 0.285763
O O11 0.317132 0.385500 0.400179
O O12 0.877382 0.565459 0.725972
O O13 0.957620 0.548721 0.777767
O O14 0.752192 0.611570 0.877008
#
# Coordination Sequence:
#
# PCOD9376259 Si02
#       8
#     8   8   4   8   8   8   8   4
#     4  10  19  34  62  90 122 170 213 263 332 390
#     4  10  24  42  63  97 132 178 222 279 344 402
#     4  10  20  46  66  90 140 178 212 276 346 394
#     4  11  23  40  65  99 131 174 231 280 335 411
#     4  10  22  41  68  94 131 177 222 287 333 414
#     4  11  21  40  67  92 127 176 223 269 337 401
#     4  10  19  37  61  88 130 175 211 272 341 388
#     4  10  20  42  70  94 130 178 220 264 350 400
#
# _framework density 24.174454000000001
#
# number of rings (size 3 to 8) (size 9 to 14) (size 15 to 20)
#    0.000    1.714    4.286    1.714    2.000    1.143 
#    2.571    1.429    0.000    0.000    0.000    0.000 
#    0.000    0.000    0.000    0.000    0.000    0.000 
#
# Total GULP energy -156225.764722 kJ/mol
# GULP energy per Si atom -5579.491597 kJ/mol
# Density = 2.411943 g / cm^3
# Si number density = 24.174454 Si / 1000 Ang^3
#
#
#
# Elastic Constant Matrix: (Units=GPa)
#
#
# Indices 1 2 3 4 5 6 
#
# 1 134.2639 25.7284 15.5649 0.0000 0.0000 0.0000
# 2 25.7284 137.0250 13.9397 0.0000 0.0000 0.0000
# 3 15.5649 13.9397 50.2199 0.0000 0.0000 0.0000
# 4 0.0000 0.0000 0.0000 -9.9196 0.0000 0.0000
# 5 0.0000 0.0000 0.0000 0.0000 27.8734 0.0000
# 6 0.0000 0.0000 0.0000 0.0000 0.0000 40.8494
#
#
#
# Elastic Compliance Matrix: (Units=1/GPa)
#
#
# Indices 1 2 3 4 5 6 
#
# 1 0.007937 -0.001276 -0.002106 0.000000 0.000000 0.000000
# 2 -0.001276 0.007715 -0.001746 0.000000 0.000000 0.000000
# 3 -0.002106 -0.001746 0.021050 0.000000 0.000000 0.000000
# 4 0.000000 0.000000 0.000000 -0.100811 0.000000 0.000000
# 5 0.000000 0.000000 0.000000 0.000000 0.035876 0.000000
# 6 0.000000 0.000000 0.000000 0.000000 0.000000 0.024480
#
#
# Mechanical properties :
#
#
# Convention : Reuss Voigt Hill
#
# Bulk Modulus (GPa) = 37.81279 47.99719 42.90499
# Shear Modulus (GPa) = 326.41126 29.51237 177.96182
#
# Velocity S-wave (km/s) = 11.63256 3.49780 8.58926
# Velocity P-wave (km/s) = 14.00348 6.01751 10.77747
#
# Compressibility (1/GPa) = 0.02644608
#
# Stress axis : x y z
#
# Youngs Moduli (GPa) = 125.99798 129.61506 47.50663
#
# Poissons Ratio (x) = 0.16539 0.10003
# Poissons Ratio (y) = 0.16077 0.08295
# Poissons Ratio (z) = 0.26531 0.22631
#
# Static dielectric constant tensor:
#      x y z
#    x 1.967560 0.000000 0.000000 
#    y 0.000000 2.058410 0.000000 
#    z 0.000000 0.000000 2.187490 
# 
# From -- ./inp_files/5294.got.cif
#   From: 2010.05.17/outbox.cif.g08.bks.cpg/sg45_3_cif.got.tgz:5294.got - 2010.06.03 19:51:22.
