data_PCOD9376825
_publ_section_title
;
Structure prediction by ZEFSAII (Michael W. Deem and Ramdas Pophale) SiO2 
 PCOD9376825
Probable space group: I B A 2
;
_chemical_formula_sum "Si O2"
_cell_formula_units_Z 60
_cell_length_a 22.560500
_cell_length_b 5.272723
_cell_length_c 26.162772
_cell_angle_alpha 90.000000
_cell_angle_beta 90.000000
_cell_angle_gamma 90.000000
_cell_volume 3112.199535
_symmetry_space_group_name_H-M "I B A 2"
_symmetry_group_IT_number 45
_symmetry_cell_setting 'orthorhombic'
loop_
_space_group_symop_operation_xyz
x,y,z
-x,-y,z
-x,y,1/2+z
x,-y,1/2+z
1/2+x,1/2+y,1/2+z
1/2-x,1/2-y,1/2+z
1/2-x,1/2+y,z
1/2+x,1/2-y,z
loop_
_atom_site_type_symbol
_atom_site_label
_atom_site_fract_x
_atom_site_fract_y
_atom_site_fract_z
Si Si1 0.000000 0.000000 0.501840
Si Si2 0.290165 0.504225 0.555404
Si Si3 0.287756 0.631820 0.756420
Si Si4 0.433602 0.088011 0.633738
Si Si5 0.875881 0.824352 0.965803
Si Si6 0.710397 0.406387 0.873608
Si Si7 0.935595 0.560355 0.521507
Si Si8 0.133677 0.075608 0.657797
O O1 0.944002 0.078582 0.466079
O O2 0.042978 0.165121 0.539317
O O3 0.255032 0.768602 0.551283
O O4 0.337243 0.462931 0.509703
O O5 0.322711 0.509174 0.610324
O O6 0.236898 0.417171 0.751004
O O7 0.310150 0.604851 0.814633
O O8 0.333187 0.573112 0.711647
O O9 0.426986 0.101342 0.572097
O O10 0.390806 0.858438 0.649711
O O11 0.500000 0.000000 0.645209
O O12 0.415646 0.356235 0.656747
O O13 0.884772 0.528878 0.983539
O O14 0.842250 0.863607 0.913383
O O15 0.742958 0.675827 0.881562
O O16 0.000000 0.500000 0.495981
#
# Coordination Sequence:
#
# PCOD9376825 Si02
#       8
#     4   8   8   8   8   8   8   8
#     4  10  22  36  62  84 122 170 218 248 302 372
#     4  12  25  37  56  90 129 161 197 253 317 368
#     4  10  21  41  65  89 116 157 210 253 308 381
#     4  11  23  37  60  89 124 165 209 251 301 376
#     4  11  22  38  60  87 126 162 209 256 308 376
#     4  10  23  41  65  92 118 160 206 261 318 373
#     4   9  20  35  54  85 117 166 204 243 291 366
#     4  12  22  39  61  88 125 164 204 255 314 369
#
# _framework density 19.278970000000001
#
# number of rings (size 3 to 8) (size 9 to 14) (size 15 to 20)
#    0.000    1.333    1.333    4.400    7.467    0.000 
#    0.000    0.000    2.933    0.800    0.000    0.000 
#    0.000    0.000    0.000    0.000    0.000    0.000 
#
# Total GULP energy -167112.738259 kJ/mol
# GULP energy per Si atom -5570.424609 kJ/mol
# Density = 1.923509 g / cm^3
# Si number density = 19.278970 Si / 1000 Ang^3
#
#
#
# Elastic Constant Matrix: (Units=GPa)
#
#
# Indices 1 2 3 4 5 6 
#
# 1 82.5352 15.0125 58.8625 0.0000 0.0000 0.0000
# 2 15.0125 79.1343 20.4167 0.0000 0.0000 0.0000
# 3 58.8625 20.4167 115.4381 0.0000 0.0000 0.0000
# 4 0.0000 0.0000 0.0000 15.2771 0.0000 0.0000
# 5 0.0000 0.0000 0.0000 0.0000 27.6395 0.0000
# 6 0.0000 0.0000 0.0000 0.0000 0.0000 46.7117
#
#
#
# Elastic Compliance Matrix: (Units=1/GPa)
#
#
# Indices 1 2 3 4 5 6 
#
# 1 0.019142 -0.001166 -0.009554 0.000000 0.000000 0.000000
# 2 -0.001166 0.013312 -0.001760 0.000000 0.000000 0.000000
# 3 -0.009554 -0.001760 0.013846 0.000000 0.000000 0.000000
# 4 0.000000 0.000000 0.000000 0.065457 0.000000 0.000000
# 5 0.000000 0.000000 0.000000 0.000000 0.036180 0.000000
# 6 0.000000 0.000000 0.000000 0.000000 0.000000 0.021408
#
#
# Mechanical properties :
#
#
# Convention : Reuss Voigt Hill
#
# Bulk Modulus (GPa) = 46.86252 51.74344 49.30298
# Shear Modulus (GPa) = 24.82383 30.11339 27.46861
#
# Velocity S-wave (km/s) = 3.59222 3.95648 3.77874
# Velocity P-wave (km/s) = 6.44715 6.91153 6.68337
#
# Compressibility (1/GPa) = 0.02133901
#
# Stress axis : x y z
#
# Youngs Moduli (GPa) = 52.24048 75.12012 72.22442
#
# Poissons Ratio (x) = 0.08762 0.69006
# Poissons Ratio (y) = 0.06093 0.12709
# Poissons Ratio (z) = 0.49913 0.13218
#
# Static dielectric constant tensor:
#      x y z
#    x 1.671440 0.000000 0.000000 
#    y 0.000000 0.430360 0.000000 
#    z 0.000000 0.000000 1.642400 
# 
# From -- ./inp_files/9451.got.cif
#   From: 2010.05.17/outbox.cif.g08.bks.cpg/sg45_5_cif.got.tgz:9451.got - 2010.06.03 19:51:22.
