data_PCOD9376953
_publ_section_title
;
Structure prediction by ZEFSAII (Michael W. Deem and Ramdas Pophale) SiO2 
 PCOD9376953
Probable space group: I B A 2
;
_chemical_formula_sum "Si O2"
_cell_formula_units_Z 52
_cell_length_a 18.161714
_cell_length_b 8.608733
_cell_length_c 14.094536
_cell_angle_alpha 90.000000
_cell_angle_beta 90.000000
_cell_angle_gamma 90.000000
_cell_volume 2203.671495
_symmetry_space_group_name_H-M "I B A 2"
_symmetry_group_IT_number 45
_symmetry_cell_setting 'orthorhombic'
loop_
_space_group_symop_operation_xyz
x,y,z
-x,-y,z
-x,y,1/2+z
x,-y,1/2+z
1/2+x,1/2+y,1/2+z
1/2-x,1/2-y,1/2+z
1/2-x,1/2+y,z
1/2+x,1/2-y,z
loop_
_atom_site_type_symbol
_atom_site_label
_atom_site_fract_x
_atom_site_fract_y
_atom_site_fract_z
Si Si1 0.786002 0.287205 0.517910
Si Si2 0.862259 0.152298 0.340591
Si Si3 0.290360 0.600110 0.209614
Si Si4 0.000000 0.000000 0.342411
Si Si5 0.612253 0.915738 0.207908
Si Si6 0.092701 0.718196 0.804825
Si Si7 0.362035 0.132461 0.009007
O O1 0.806847 0.202874 0.420644
O O2 0.810514 0.182038 0.608903
O O3 0.697630 0.271679 0.520467
O O4 0.819898 0.462134 0.512742
O O5 0.927848 0.061460 0.393923
O O6 0.900714 0.299519 0.293323
O O7 0.826545 0.057736 0.252066
O O8 0.202764 0.575985 0.208673
O O9 0.324347 0.720681 0.284964
O O10 0.037676 0.140305 0.285774
O O11 0.590065 0.862909 0.103919
O O12 0.579248 0.079834 0.233603
O O13 0.093648 0.657220 0.912431
#
# Coordination Sequence:
#
# PCOD9376953 Si02
#       7
#     8   8   8   4   8   8   8
#     4  11  23  39  63 103 138 165 212 266 348 409
#     4  11  24  42  66  89 132 177 215 272 326 389
#     4  10  22  38  65 103 138 165 206 273 343 421
#     4  10  28  46  64  88 122 186 230 282 306 390
#     4  11  21  38  68 101 129 167 212 272 339 409
#     4  11  22  44  64  91 140 173 230 264 340 382
#     4  11  24  37  67 105 134 170 207 275 337 420
#
# _framework density 23.596983999999999
#
# number of rings (size 3 to 8) (size 9 to 14) (size 15 to 20)
#    0.000    1.231    3.077    2.769   10.769    0.615 
#    0.000    6.923    3.385    0.000    0.000    0.000 
#    0.000    0.000    0.000    0.000    0.000    0.000 
#
# Total GULP energy -145071.033873 kJ/mol
# GULP energy per Si atom -5579.655149 kJ/mol
# Density = 2.354328 g / cm^3
# Si number density = 23.596984 Si / 1000 Ang^3
#
#
#
# Elastic Constant Matrix: (Units=GPa)
#
#
# Indices 1 2 3 4 5 6 
#
# 1 54.9390 18.6775 19.0655 0.0000 0.0000 0.0000
# 2 18.6775 101.6854 29.4706 0.0000 0.0000 0.0000
# 3 19.0655 29.4706 137.5662 0.0000 0.0000 0.0000
# 4 0.0000 0.0000 0.0000 19.7073 0.0000 0.0000
# 5 0.0000 0.0000 0.0000 0.0000 8.7996 0.0000
# 6 0.0000 0.0000 0.0000 0.0000 0.0000 37.4819
#
#
#
# Elastic Compliance Matrix: (Units=1/GPa)
#
#
# Indices 1 2 3 4 5 6 
#
# 1 0.019975 -0.003056 -0.002114 0.000000 0.000000 0.000000
# 2 -0.003056 0.010953 -0.001923 0.000000 0.000000 0.000000
# 3 -0.002114 -0.001923 0.007974 0.000000 0.000000 0.000000
# 4 0.000000 0.000000 0.000000 0.050743 0.000000 0.000000
# 5 0.000000 0.000000 0.000000 0.000000 0.113641 0.000000
# 6 0.000000 0.000000 0.000000 0.000000 0.000000 0.026680
#
#
# Mechanical properties :
#
#
# Convention : Reuss Voigt Hill
#
# Bulk Modulus (GPa) = 40.45956 47.62421 44.04188
# Shear Modulus (GPa) = 19.81066 28.32955 24.07010
#
# Velocity S-wave (km/s) = 2.90063 3.46867 3.19729
# Velocity P-wave (km/s) = 5.32930 6.02232 5.68638
#
# Compressibility (1/GPa) = 0.02471604
#
# Stress axis : x y z
#
# Youngs Moduli (GPa) = 50.06375 91.29980 125.40644
#
# Poissons Ratio (x) = 0.27905 0.26505
# Poissons Ratio (y) = 0.15301 0.24114
# Poissons Ratio (z) = 0.10581 0.17556
#
# Static dielectric constant tensor:
#      x y z
#    x 2.007740 0.000000 0.000000 
#    y 0.000000 2.015350 0.000000 
#    z 0.000000 0.000000 1.859470 
# 
# From -- ./inp_files/5715.got.cif
#   From: 2010.05.17/outbox.cif.g08.bks.cpg/sg45_3_cif.got.tgz:5715.got - 2010.06.03 19:51:22.
