data_PCOD9376556
_publ_section_title
;
Structure prediction by ZEFSAII (Michael W. Deem and Ramdas Pophale) SiO2 
 PCOD9376556
Probable space group: I B A 2
;
_chemical_formula_sum "Si O2"
_cell_formula_units_Z 64
_cell_length_a 18.993395
_cell_length_b 10.303707
_cell_length_c 16.128953
_cell_angle_alpha 90.000000
_cell_angle_beta 90.000000
_cell_angle_gamma 90.000000
_cell_volume 3156.474441
_symmetry_space_group_name_H-M "I B A 2"
_symmetry_group_IT_number 45
_symmetry_cell_setting 'orthorhombic'
loop_
_space_group_symop_operation_xyz
x,y,z
-x,-y,z
-x,y,1/2+z
x,-y,1/2+z
1/2+x,1/2+y,1/2+z
1/2-x,1/2-y,1/2+z
1/2-x,1/2+y,z
1/2+x,1/2-y,z
loop_
_atom_site_type_symbol
_atom_site_label
_atom_site_fract_x
_atom_site_fract_y
_atom_site_fract_z
Si Si1 0.441669 0.104045 0.727350
Si Si2 0.207376 0.426012 0.011659
Si Si3 0.794817 0.157063 0.452919
Si Si4 0.290562 0.002533 0.203907
Si Si5 0.818607 0.790780 0.761437
Si Si6 0.049103 0.611539 0.528062
Si Si7 0.954153 0.117405 0.468971
Si Si8 0.023303 0.142171 0.771618
O O1 0.445161 0.104239 0.627146
O O2 0.465042 0.246644 0.756976
O O3 0.500000 0.000000 0.757488
O O4 0.362134 0.057372 0.744446
O O5 0.208213 0.480548 0.104890
O O6 0.125786 0.406213 0.989119
O O7 0.236340 0.279091 0.004013
O O8 0.245782 0.531301 0.955344
O O9 0.808720 0.209592 0.360709
O O10 0.870938 0.112335 0.488200
O O11 0.289669 0.155100 0.225306
O O12 0.224851 0.916890 0.233239
O O13 0.900991 0.808569 0.738368
O O14 0.018304 0.749666 0.506022
O O15 0.000000 0.500000 0.495700
O O16 0.963743 0.124750 0.369977
O O17 0.000000 0.000000 0.501672
O O18 0.000000 0.000000 0.739428
#
# Coordination Sequence:
#
# PCOD9376556 Si02
#       8
#     8   8   8   8   8   8   8   8
#     4  10  20  40  61  85 118 159 196 250 305 358
#     4  10  21  40  60  84 118 159 194 246 300 356
#     4  10  21  40  60  83 123 156 196 244 298 357
#     4  11  23  39  63  89 123 158 208 254 305 364
#     4  11  23  40  61  92 124 158 204 254 299 369
#     4   9  20  37  59  86 114 146 199 243 289 356
#     4   9  20  39  56  83 118 151 191 244 288 353
#     4  10  22  40  60  86 122 158 200 246 304 361
#
# _framework density 20.275784999999999
#
# number of rings (size 3 to 8) (size 9 to 14) (size 15 to 20)
#    0.000    2.000    1.250    1.500    1.750    2.000 
#    9.000    0.000    0.000    0.000    0.000    0.000 
#    0.000    0.000    0.000    0.000    0.000    0.000 
#
# Total GULP energy -178588.476860 kJ/mol
# GULP energy per Si atom -5580.889902 kJ/mol
# Density = 2.022964 g / cm^3
# Si number density = 20.275785 Si / 1000 Ang^3
#
#
#
# Elastic Constant Matrix: (Units=GPa)
#
#
# Indices 1 2 3 4 5 6 
#
# 1 33.1216 29.1370 5.6998 0.0000 0.0000 0.0000
# 2 29.1370 151.5228 13.7547 0.0000 0.0000 0.0000
# 3 5.6998 13.7547 25.5318 0.0000 0.0000 0.0000
# 4 0.0000 0.0000 0.0000 -18.3516 0.0000 0.0000
# 5 0.0000 0.0000 0.0000 0.0000 14.2468 0.0000
# 6 0.0000 0.0000 0.0000 0.0000 0.0000 36.9400
#
#
#
# Elastic Compliance Matrix: (Units=1/GPa)
#
#
# Indices 1 2 3 4 5 6 
#
# 1 0.036854 -0.006666 -0.004636 0.000000 0.000000 0.000000
# 2 -0.006666 0.008145 -0.002900 0.000000 0.000000 0.000000
# 3 -0.004636 -0.002900 0.041764 0.000000 0.000000 0.000000
# 4 0.000000 0.000000 0.000000 -0.054491 0.000000 0.000000
# 5 0.000000 0.000000 0.000000 0.000000 0.070191 0.000000
# 6 0.000000 0.000000 0.000000 0.000000 0.000000 0.027071
#
#
# Mechanical properties :
#
#
# Convention : Reuss Voigt Hill
#
# Bulk Modulus (GPa) = 17.13539 34.15104 25.64321
# Shear Modulus (GPa) = 28.18651 17.33934 22.76292
#
# Velocity S-wave (km/s) = 3.73252 2.92751 3.35425
# Velocity P-wave (km/s) = 5.20050 5.32042 5.26080
#
# Compressibility (1/GPa) = 0.05835875
#
# Stress axis : x y z
#
# Youngs Moduli (GPa) = 27.13444 122.77920 23.94407
#
# Poissons Ratio (x) = 0.81843 0.11101
# Poissons Ratio (y) = 0.18087 0.06943
# Poissons Ratio (z) = 0.12580 0.35602
#
# Static dielectric constant tensor:
#      x y z
#    x 1.728200 0.000000 0.000000 
#    y 0.000000 1.730650 0.000000 
#    z 0.000000 0.000000 1.739600 
# 
# From -- ./inp_files/7773.got.cif
#   From: 2010.05.17/outbox.cif.g08.bks.cpg/sg45_4_cif.got.tgz:7773.got - 2010.06.03 19:51:22.
