data_PCOD9376789
_publ_section_title
;
Structure prediction by ZEFSAII (Michael W. Deem and Ramdas Pophale) SiO2 
 PCOD9376789
Probable space group: I B A 2
;
_chemical_formula_sum "Si O2"
_cell_formula_units_Z 56
_cell_length_a 20.115205
_cell_length_b 9.209530
_cell_length_c 13.950577
_cell_angle_alpha 90.000000
_cell_angle_beta 90.000000
_cell_angle_gamma 90.000000
_cell_volume 2584.366486
_symmetry_space_group_name_H-M "I B A 2"
_symmetry_group_IT_number 45
_symmetry_cell_setting 'orthorhombic'
loop_
_space_group_symop_operation_xyz
x,y,z
-x,-y,z
-x,y,1/2+z
x,-y,1/2+z
1/2+x,1/2+y,1/2+z
1/2-x,1/2-y,1/2+z
1/2-x,1/2+y,z
1/2+x,1/2-y,z
loop_
_atom_site_type_symbol
_atom_site_label
_atom_site_fract_x
_atom_site_fract_y
_atom_site_fract_z
Si Si1 0.753836 0.868991 0.120290
Si Si2 0.058427 0.206563 0.467509
Si Si3 0.661524 0.932262 0.956797
Si Si4 0.408105 0.761859 0.972986
Si Si5 0.631271 0.488579 0.828200
Si Si6 0.600945 0.473283 0.118303
Si Si7 0.721591 0.086253 0.253618
O O1 0.818613 0.971659 0.106329
O O2 0.770095 0.728711 0.186027
O O3 0.700211 0.959333 0.181596
O O4 0.722833 0.861341 0.015153
O O5 0.099083 0.346112 0.496600
O O6 0.985400 0.263691 0.441887
O O7 0.100730 0.125699 0.384399
O O8 0.063106 0.087792 0.552080
O O9 0.674307 0.901503 0.844647
O O10 0.640637 0.100248 0.970745
O O11 0.378822 0.644857 0.899322
O O12 0.412814 0.688237 0.078484
O O13 0.591101 0.488239 0.728533
O O14 0.708867 0.476178 0.798750
#
# Coordination Sequence:
#
# PCOD9376789 Si02
#       7
#     8   8   8   8   8   8   8
#     4  11  23  39  63  96 125 157 207 261 325 397
#     4  11  24  39  58  87 120 165 218 251 305 390
#     4  12  23  40  62  88 131 168 196 265 332 372
#     4  11  24  39  60  89 120 163 214 258 310 380
#     4  10  21  40  64  88 117 157 208 266 317 377
#     4  10  21  40  64  88 117 157 208 266 317 377
#     4  11  23  39  63  96 125 157 207 261 325 397
#
# _framework density 21.668752999999999
#
# number of rings (size 3 to 8) (size 9 to 14) (size 15 to 20)
#    0.000    1.143    0.000    9.000    0.000    5.714 
#    0.000    0.000    0.000    5.143    0.000    0.000 
#    0.000    0.000    0.000    0.000    0.000    0.000 
#
# Total GULP energy -156002.061344 kJ/mol
# GULP energy per Si atom -5571.502191 kJ/mol
# Density = 2.161943 g / cm^3
# Si number density = 21.668753 Si / 1000 Ang^3
#
#
#
# Elastic Constant Matrix: (Units=GPa)
#
#
# Indices 1 2 3 4 5 6 
#
# 1 68.3396 -0.5932 0.9947 0.0000 0.0000 0.0000
# 2 -0.5932 84.1431 34.0192 0.0000 0.0000 0.0000
# 3 0.9947 34.0192 78.4391 0.0000 0.0000 0.0000
# 4 0.0000 0.0000 0.0000 20.2428 0.0000 0.0000
# 5 0.0000 0.0000 0.0000 0.0000 14.5658 0.0000
# 6 0.0000 0.0000 0.0000 0.0000 0.0000 27.6277
#
#
#
# Elastic Compliance Matrix: (Units=1/GPa)
#
#
# Indices 1 2 3 4 5 6 
#
# 1 0.014639 0.000216 -0.000279 0.000000 0.000000 0.000000
# 2 0.000216 0.014415 -0.006254 0.000000 0.000000 0.000000
# 3 -0.000279 -0.006254 0.015465 0.000000 0.000000 0.000000
# 4 0.000000 0.000000 0.000000 0.049400 0.000000 0.000000
# 5 0.000000 0.000000 0.000000 0.000000 0.068654 0.000000
# 6 0.000000 0.000000 0.000000 0.000000 0.000000 0.036196
#
#
# Mechanical properties :
#
#
# Convention : Reuss Voigt Hill
#
# Bulk Modulus (GPa) = 31.36468 33.30702 32.33585
# Shear Modulus (GPa) = 22.51938 25.58734 24.05336
#
# Velocity S-wave (km/s) = 3.22725 3.44006 3.33535
# Velocity P-wave (km/s) = 5.32850 5.58418 5.45784
#
# Compressibility (1/GPa) = 0.03188300
#
# Stress axis : x y z
#
# Youngs Moduli (GPa) = 68.31183 69.37357 64.66284
#
# Poissons Ratio (x) = -0.01499 0.01807
# Poissons Ratio (y) = -0.01477 0.40443
# Poissons Ratio (z) = 0.01908 0.43389
#
# Static dielectric constant tensor:
#      x y z
#    x 1.879760 0.000000 0.000000 
#    y 0.000000 1.854290 0.000000 
#    z 0.000000 0.000000 1.864650 
# 
# From -- ./inp_files/5729.got.cif
#   From: 2010.05.17/outbox.cif.g08.bks.cpg/sg45_3_cif.got.tgz:5729.got - 2010.06.03 19:51:22.
