data_PCOD9376171
_publ_section_title
;
Structure prediction by ZEFSAII (Michael W. Deem and Ramdas Pophale) SiO2 
 PCOD9376171
Probable space group: I B A 2
;
_chemical_formula_sum "Si O2"
_cell_formula_units_Z 60
_cell_length_a 8.713218
_cell_length_b 17.542262
_cell_length_c 15.625779
_cell_angle_alpha 90.000000
_cell_angle_beta 90.000000
_cell_angle_gamma 90.000000
_cell_volume 2388.393336
_symmetry_space_group_name_H-M "I B A 2"
_symmetry_group_IT_number 45
_symmetry_cell_setting 'orthorhombic'
loop_
_space_group_symop_operation_xyz
x,y,z
-x,-y,z
-x,y,1/2+z
x,-y,1/2+z
1/2+x,1/2+y,1/2+z
1/2-x,1/2-y,1/2+z
1/2-x,1/2+y,z
1/2+x,1/2-y,z
loop_
_atom_site_type_symbol
_atom_site_label
_atom_site_fract_x
_atom_site_fract_y
_atom_site_fract_z
Si Si1 0.442995 0.351083 0.005590
Si Si2 0.015762 0.354705 0.847603
Si Si3 0.445616 0.339446 0.201162
Si Si4 0.519294 0.100929 0.529827
Si Si5 0.919701 0.319326 0.682981
Si Si6 0.000000 0.000000 0.214707
Si Si7 0.275532 0.265293 0.419423
Si Si8 0.230778 0.991851 0.061546
O O1 0.496736 0.353707 0.103423
O O2 0.372295 0.437510 0.999376
O O3 0.583491 0.317994 0.950325
O O4 0.305518 0.290051 0.989462
O O5 0.995195 0.379335 0.750317
O O6 0.856980 0.314794 0.877483
O O7 0.154183 0.295368 0.854184
O O8 0.036549 0.406237 0.931661
O O9 0.262953 0.327503 0.190540
O O10 0.532988 0.262436 0.222937
O O11 0.484612 0.415719 0.255837
O O12 0.499042 0.175923 0.588832
O O13 0.386204 0.054836 0.578192
O O14 0.692391 0.070304 0.530709
O O15 0.144783 0.002159 0.150582
#
# Coordination Sequence:
#
# PCOD9376171 Si02
#       8
#     8   8   8   8   8   4   8   8
#     4  10  18  37  65  98 129 177 223 282 344 420
#     4  11  23  40  66  99 137 176 224 296 334 410
#     4  11  23  39  67 103 136 180 234 285 345 415
#     4  11  23  43  68  97 138 183 230 286 343 418
#     4  12  24  43  69 105 137 179 239 288 346 405
#     4  10  22  42  68 102 140 182 232 288 348 424
#     4  10  20  36  62  96 136 166 224 285 346 398
#     4  10  22  40  65  98 135 178 235 275 351 418
#
# _framework density 25.121490999999999
#
# number of rings (size 3 to 8) (size 9 to 14) (size 15 to 20)
#    0.000    1.333    4.000    3.200    5.600    0.000 
#    0.000    2.667    8.800    0.000    0.000    0.000 
#    0.000    0.000    0.000    0.000    0.000    0.000 
#
# Total GULP energy -167187.879107 kJ/mol
# GULP energy per Si atom -5572.929304 kJ/mol
# Density = 2.506431 g / cm^3
# Si number density = 25.121491 Si / 1000 Ang^3
#
#
#
# Elastic Constant Matrix: (Units=GPa)
#
#
# Indices 1 2 3 4 5 6 
#
# 1 91.8707 44.8688 -2.5322 0.0000 0.0000 0.0000
# 2 44.8688 105.8232 5.7976 0.0000 0.0000 0.0000
# 3 -2.5322 5.7976 58.3598 0.0000 0.0000 0.0000
# 4 0.0000 0.0000 0.0000 4.3606 0.0000 0.0000
# 5 0.0000 0.0000 0.0000 0.0000 21.6297 0.0000
# 6 0.0000 0.0000 0.0000 0.0000 0.0000 48.8216
#
#
#
# Elastic Compliance Matrix: (Units=1/GPa)
#
#
# Indices 1 2 3 4 5 6 
#
# 1 0.013809 -0.005920 0.001187 0.000000 0.000000 0.000000
# 2 -0.005920 0.012039 -0.001453 0.000000 0.000000 0.000000
# 3 0.001187 -0.001453 0.017331 0.000000 0.000000 0.000000
# 4 0.000000 0.000000 0.000000 0.229328 0.000000 0.000000
# 5 0.000000 0.000000 0.000000 0.000000 0.046233 0.000000
# 6 0.000000 0.000000 0.000000 0.000000 0.000000 0.020483
#
#
# Mechanical properties :
#
#
# Convention : Reuss Voigt Hill
#
# Bulk Modulus (GPa) = 32.45911 39.14690 35.80300
# Shear Modulus (GPa) = 13.81737 28.82367 21.32052
#
# Velocity S-wave (km/s) = 2.34780 3.39096 2.91640
# Velocity P-wave (km/s) = 4.50538 5.56312 5.06196
#
# Compressibility (1/GPa) = 0.03080799
#
# Stress axis : x y z
#
# Youngs Moduli (GPa) = 72.41738 83.06078 57.70025
#
# Poissons Ratio (x) = 0.49172 -0.06851
# Poissons Ratio (y) = 0.42871 0.08383
# Poissons Ratio (z) = -0.08598 0.12068
#
# Static dielectric constant tensor:
#      x y z
#    x 1.943410 0.000000 0.000000 
#    y 0.000000 2.383250 0.000000 
#    z 0.000000 0.000000 2.122340 
# 
# From -- ./inp_files/7699.got.cif
#   From: 2010.05.17/outbox.cif.g08.bks.cpg/sg45_4_cif.got.tgz:7699.got - 2010.06.03 19:51:22.
