data_PCOD9376209
_publ_section_title
;
Structure prediction by ZEFSAII (Michael W. Deem and Ramdas Pophale) SiO2 
 PCOD9376209
Probable space group: I B A 2
;
_chemical_formula_sum "Si O2"
_cell_formula_units_Z 64
_cell_length_a 13.842492
_cell_length_b 30.278999
_cell_length_c 8.704467
_cell_angle_alpha 90.000000
_cell_angle_beta 90.000000
_cell_angle_gamma 90.000000
_cell_volume 3648.362456
_symmetry_space_group_name_H-M "I B A 2"
_symmetry_group_IT_number 45
_symmetry_cell_setting 'orthorhombic'
loop_
_space_group_symop_operation_xyz
x,y,z
-x,-y,z
-x,y,1/2+z
x,-y,1/2+z
1/2+x,1/2+y,1/2+z
1/2-x,1/2-y,1/2+z
1/2-x,1/2+y,z
1/2+x,1/2-y,z
loop_
_atom_site_type_symbol
_atom_site_label
_atom_site_fract_x
_atom_site_fract_y
_atom_site_fract_z
Si Si1 0.425534 0.320385 0.299010
Si Si2 0.202026 0.771924 0.803372
Si Si3 0.907429 0.051942 0.014976
Si Si4 0.121220 0.958149 0.380625
Si Si5 0.872346 0.135396 0.826429
Si Si6 0.721243 0.624582 0.488947
Si Si7 0.978850 0.760693 0.074962
Si Si8 0.149947 0.297919 0.553164
O O1 0.514114 0.354403 0.314615
O O2 0.333303 0.346764 0.357363
O O3 0.442563 0.280076 0.415873
O O4 0.443887 0.296904 0.137549
O O5 0.178913 0.819433 0.876577
O O6 0.112592 0.761758 0.687675
O O7 0.199345 0.732492 0.922585
O O8 0.298382 0.780618 0.707604
O O9 0.896065 0.046873 0.197959
O O10 0.859091 0.095433 0.943314
O O11 0.021207 0.053976 0.969521
O O12 0.864660 0.008925 0.929291
O O13 0.206961 0.925615 0.434242
O O14 0.834988 0.127415 0.652502
O O15 0.820227 0.651402 0.521106
O O16 0.037659 0.715440 0.058601
#
# Coordination Sequence:
#
# PCOD9376209 Si02
#       8
#     8   8   8   8   8   8   8   8
#     4  11  18  31  48  66  95 136 178 214 253 299
#     4  10  22  34  48  75  98 137 180 221 261 318
#     4  11  21  33  49  70  95 137 172 217 254 308
#     4  11  22  32  48  69  98 129 177 214 255 307
#     4  10  19  31  47  66  95 127 172 215 250 303
#     4  11  21  33  47  72  97 134 177 219 255 307
#     4  11  20  34  49  69 100 139 182 220 262 305
#     4  11  21  34  51  71 103 136 183 222 262 310
#
# _framework density 17.542117000000001
#
# number of rings (size 3 to 8) (size 9 to 14) (size 15 to 20)
#    0.000    1.250    7.500    3.750    1.750    1.000 
#    0.000    0.000    0.000    0.000    0.000    0.000 
#    0.000    0.000    0.000   45.000    0.000    0.000 
#
# Total GULP energy -178486.119961 kJ/mol
# GULP energy per Si atom -5577.691249 kJ/mol
# Density = 1.750219 g / cm^3
# Si number density = 17.542117 Si / 1000 Ang^3
#
#
#
# Elastic Constant Matrix: (Units=GPa)
#
#
# Indices 1 2 3 4 5 6 
#
# 1 28.5559 30.6458 -4.7288 0.0000 0.0001 0.0001
# 2 30.6458 112.9957 31.4765 -0.0001 -0.0003 -0.0001
# 3 -4.7288 31.4765 73.9407 -0.0013 0.0001 0.0004
# 4 0.0000 -0.0001 -0.0013 23.6504 0.0001 0.0002
# 5 0.0001 -0.0003 0.0001 0.0001 16.5523 -0.0001
# 6 0.0001 -0.0001 0.0004 0.0002 -0.0001 26.8987
#
#
#
# Elastic Compliance Matrix: (Units=1/GPa)
#
#
# Indices 1 2 3 4 5 6 
#
# 1 0.056999 -0.018691 0.011602 0.000000 -0.000001 0.000000
# 2 -0.018691 0.016169 -0.008079 0.000000 0.000000 0.000000
# 3 0.011602 -0.008079 0.017705 0.000001 0.000000 0.000000
# 4 0.000000 0.000000 0.000001 0.042283 0.000000 0.000000
# 5 -0.000001 0.000000 0.000000 0.000000 0.060414 0.000000
# 6 0.000000 0.000000 0.000000 0.000000 0.000000 0.037177
#
#
# Mechanical properties :
#
#
# Convention : Reuss Voigt Hill
#
# Bulk Modulus (GPa) = 16.51832 36.69768 26.60800
# Shear Modulus (GPa) = 17.77705 23.96020 20.86862
#
# Velocity S-wave (km/s) = 3.18684 3.69977 3.45284
# Velocity P-wave (km/s) = 4.79354 6.26229 5.57648
#
# Compressibility (1/GPa) = 0.06053883
#
# Stress axis : x y z
#
# Youngs Moduli (GPa) = 17.54425 61.84511 56.47992
#
# Poissons Ratio (x) = 1.15592 -0.65527
# Poissons Ratio (y) = 0.32791 0.45628
# Poissons Ratio (z) = -0.20355 0.49962
#
# Static dielectric constant tensor:
#      x y z
#    x 1.610940 0.000000 0.000000 
#    y 0.000000 1.637890 0.000000 
#    z 0.000000 0.000000 1.648580 
# 
# From -- ./inp_files/1999.got.cif
#   From: 2010.05.17/outbox.cif.g08.bks.cpg/sg45_1_cif.got.tgz:1999.got - 2010.06.03 19:51:22.
