data_PCOD9376082
_publ_section_title
;
Structure prediction by ZEFSAII (Michael W. Deem and Ramdas Pophale) SiO2 
 PCOD9376082
Probable space group: I B A 2
;
_chemical_formula_sum "Si O2"
_cell_formula_units_Z 56
_cell_length_a 16.540317
_cell_length_b 20.973580
_cell_length_c 9.284127
_cell_angle_alpha 90.000000
_cell_angle_beta 90.000000
_cell_angle_gamma 90.000000
_cell_volume 3220.753358
_symmetry_space_group_name_H-M "I B A 2"
_symmetry_group_IT_number 45
_symmetry_cell_setting 'orthorhombic'
loop_
_space_group_symop_operation_xyz
x,y,z
-x,-y,z
-x,y,1/2+z
x,-y,1/2+z
1/2+x,1/2+y,1/2+z
1/2-x,1/2-y,1/2+z
1/2-x,1/2+y,z
1/2+x,1/2-y,z
loop_
_atom_site_type_symbol
_atom_site_label
_atom_site_fract_x
_atom_site_fract_y
_atom_site_fract_z
Si Si1 0.444821 0.422309 0.411790
Si Si2 0.399327 0.539845 0.584128
Si Si3 0.765223 0.136249 0.033501
Si Si4 0.828812 0.303767 0.303998
Si Si5 0.893518 0.254016 0.029054
Si Si6 0.823068 0.278796 0.742962
Si Si7 0.574521 0.280777 0.005542
O O1 0.399217 0.466998 0.528974
O O2 0.537234 0.429006 0.469156
O O3 0.430273 0.447046 0.248068
O O4 0.420522 0.348811 0.427597
O O5 0.313006 0.572587 0.566836
O O6 0.834188 0.192159 0.032668
O O7 0.701371 0.158965 0.153884
O O8 0.716393 0.138753 0.883335
O O9 0.860042 0.305081 0.142612
O O10 0.760236 0.248516 0.306398
O O11 0.901806 0.275932 0.397825
O O12 0.983715 0.230481 0.060688
O O13 0.885741 0.284180 0.871653
O O14 0.860923 0.227067 0.633488
#
# Coordination Sequence:
#
# PCOD9376082 Si02
#       7
#     8   8   8   8   8   8   8
#     4  11  23  34  49  71  99 139 193 225 263 300
#     4  11  22  36  49  69 102 142 187 232 258 311
#     4   9  18  35  48  65 100 135 169 219 270 308
#     4   9  19  31  46  72  97 134 173 210 267 323
#     4  10  17  29  48  72  97 127 176 213 259 321
#     4   9  19  30  47  70  97 134 174 211 269 324
#     4  11  20  31  50  71 102 142 173 218 264 320
#
# _framework density 17.387236999999999
#
# number of rings (size 3 to 8) (size 9 to 14) (size 15 to 20)
#    0.000    2.000    1.429    5.143    2.000    2.286 
#    0.000    0.000    0.000    0.000    0.000    0.000 
#    0.000    0.000    0.000  501.429    0.000    0.000 
#
# Total GULP energy -155923.652695 kJ/mol
# GULP energy per Si atom -5568.701882 kJ/mol
# Density = 1.734766 g / cm^3
# Si number density = 17.387237 Si / 1000 Ang^3
#
#
#
# Elastic Constant Matrix: (Units=GPa)
#
#
# Indices 1 2 3 4 5 6 
#
# 1 54.9050 23.7950 12.0910 0.0000 0.0000 0.0000
# 2 23.7950 39.0558 14.0902 0.0000 0.0000 0.0000
# 3 12.0910 14.0902 86.6662 0.0000 0.0000 0.0000
# 4 0.0000 0.0000 0.0000 10.3411 0.0000 0.0000
# 5 0.0000 0.0000 0.0000 0.0000 23.4245 0.0000
# 6 0.0000 0.0000 0.0000 0.0000 0.0000 30.6788
#
#
#
# Elastic Compliance Matrix: (Units=1/GPa)
#
#
# Indices 1 2 3 4 5 6 
#
# 1 0.024840 -0.014749 -0.001068 0.000000 0.000000 0.000000
# 2 -0.014749 0.035957 -0.003788 0.000000 0.000000 0.000000
# 3 -0.001068 -0.003788 0.012303 0.000000 0.000000 0.000000
# 4 0.000000 0.000000 0.000000 0.096702 0.000000 0.000000
# 5 0.000000 0.000000 0.000000 0.000000 0.042690 0.000000
# 6 0.000000 0.000000 0.000000 0.000000 0.000000 0.032596
#
#
# Mechanical properties :
#
#
# Convention : Reuss Voigt Hill
#
# Bulk Modulus (GPa) = 29.50634 31.17548 30.34091
# Shear Modulus (GPa) = 16.91501 21.59893 19.25697
#
# Velocity S-wave (km/s) = 3.12242 3.52835 3.33157
# Velocity P-wave (km/s) = 5.47780 5.87946 5.68218
#
# Compressibility (1/GPa) = 0.03389102
#
# Stress axis : x y z
#
# Youngs Moduli (GPa) = 40.25704 27.81103 81.27866
#
# Poissons Ratio (x) = 0.41018 0.08678
# Poissons Ratio (y) = 0.59375 0.30790
# Poissons Ratio (z) = 0.04298 0.10535
#
# Static dielectric constant tensor:
#      x y z
#    x 1.588780 0.000000 0.000000 
#    y 0.000000 1.591550 0.000000 
#    z 0.000000 0.000000 1.657420 
# 
# From -- ./inp_files/2176.got.cif
#   From: 2010.05.17/outbox.cif.g08.bks.cpg/sg45_2_cif.got.tgz:2176.got - 2010.06.03 19:51:22.
