data_PCOD9376646
_publ_section_title
;
Structure prediction by ZEFSAII (Michael W. Deem and Ramdas Pophale) SiO2 
 PCOD9376646
Probable space group: I B A 2
;
_chemical_formula_sum "Si O2"
_cell_formula_units_Z 60
_cell_length_a 25.624866
_cell_length_b 12.549034
_cell_length_c 8.767926
_cell_angle_alpha 90.000000
_cell_angle_beta 90.000000
_cell_angle_gamma 90.000000
_cell_volume 2819.478419
_symmetry_space_group_name_H-M "I B A 2"
_symmetry_group_IT_number 45
_symmetry_cell_setting 'orthorhombic'
loop_
_space_group_symop_operation_xyz
x,y,z
-x,-y,z
-x,y,1/2+z
x,-y,1/2+z
1/2+x,1/2+y,1/2+z
1/2-x,1/2-y,1/2+z
1/2-x,1/2+y,z
1/2+x,1/2-y,z
loop_
_atom_site_type_symbol
_atom_site_label
_atom_site_fract_x
_atom_site_fract_y
_atom_site_fract_z
Si Si1 0.238346 0.030223 0.982570
Si Si2 0.500000 0.500000 0.345738
Si Si3 0.858987 0.746452 0.732972
Si Si4 0.243580 0.849877 0.179689
Si Si5 0.135545 0.856136 0.558917
Si Si6 0.073804 0.076812 0.586726
Si Si7 0.638182 0.050859 0.544110
Si Si8 0.867036 0.655398 0.220888
O O1 0.231252 0.059648 0.806365
O O2 0.196069 0.105753 0.065084
O O3 0.298623 0.047483 0.027397
O O4 0.230326 0.906215 0.020351
O O5 0.540179 0.561752 0.239192
O O6 0.467816 0.581429 0.451135
O O7 0.796588 0.756564 0.711066
O O8 0.870137 0.790219 0.901302
O O9 0.886774 0.827235 0.615172
O O10 0.874720 0.628528 0.685244
O O11 0.304231 0.828993 0.202249
O O12 0.114441 0.774959 0.686824
O O13 0.104639 0.966572 0.559724
O O14 0.620436 0.104303 0.385127
O O15 0.619658 0.933115 0.591931
#
# Coordination Sequence:
#
# PCOD9376646 Si02
#       8
#     8   4   8   8   8   8   8   8
#     4   9  18  31  48  76 114 154 194 236 273 319
#     4  10  24  42  60  86 122 138 176 238 312 364
#     4  11  21  34  56  84 113 149 195 234 280 343
#     4   9  18  31  48  76 114 154 194 236 273 319
#     4  11  21  34  56  84 113 149 195 234 280 343
#     4  11  22  40  62  90 116 146 180 234 300 357
#     4  10  21  35  52  77 116 160 198 235 273 316
#     4  10  21  35  52  77 116 160 198 235 273 316
#
# _framework density 21.280531
#
# number of rings (size 3 to 8) (size 9 to 14) (size 15 to 20)
#    0.000    1.867    2.667    1.600    1.867    2.133 
#    0.000    0.000    0.000    0.000    0.000    5.600 
#    0.000    0.000    0.000    0.000    0.000    0.000 
#
# Total GULP energy -167419.497833 kJ/mol
# GULP energy per Si atom -5580.649928 kJ/mol
# Density = 2.123210 g / cm^3
# Si number density = 21.280531 Si / 1000 Ang^3
#
#
#
# Elastic Constant Matrix: (Units=GPa)
#
#
# Indices 1 2 3 4 5 6 
#
# 1 18.3526 -6.9208 3.7765 0.0000 0.0000 0.0000
# 2 -6.9208 57.1199 -1.0243 0.0000 0.0000 0.0000
# 3 3.7765 -1.0243 46.2229 0.0000 0.0000 0.0000
# 4 0.0000 0.0000 0.0000 28.9874 0.0000 0.0000
# 5 0.0000 0.0000 0.0000 0.0000 24.7372 0.0000
# 6 0.0000 0.0000 0.0000 0.0000 0.0000 5.6078
#
#
#
# Elastic Compliance Matrix: (Units=1/GPa)
#
#
# Indices 1 2 3 4 5 6 
#
# 1 0.058054 0.006952 -0.004589 0.000000 0.000000 0.000000
# 2 0.006952 0.018346 -0.000161 0.000000 0.000000 0.000000
# 3 -0.004589 -0.000161 0.022006 0.000000 0.000000 0.000000
# 4 0.000000 0.000000 0.000000 0.034498 0.000000 0.000000
# 5 0.000000 0.000000 0.000000 0.000000 0.040425 0.000000
# 6 0.000000 0.000000 0.000000 0.000000 0.000000 0.178322
#
#
# Mechanical properties :
#
#
# Convention : Reuss Voigt Hill
#
# Bulk Modulus (GPa) = 9.72683 12.59536 11.16110
# Shear Modulus (GPa) = 13.10557 20.25745 16.68151
#
# Velocity S-wave (km/s) = 2.48432 3.08867 2.80283
# Velocity P-wave (km/s) = 3.57908 4.31873 3.96619
#
# Compressibility (1/GPa) = 0.10280842
#
# Stress axis : x y z
#
# Youngs Moduli (GPa) = 17.22538 54.50654 45.44292
#
# Poissons Ratio (x) = -0.37891 0.20854
# Poissons Ratio (y) = -0.11975 0.00734
# Poissons Ratio (z) = 0.07905 0.00880
#
# Static dielectric constant tensor:
#      x y z
#    x 1.758140 0.000000 0.000000 
#    y 0.000000 1.807020 0.000000 
#    z 0.000000 0.000000 1.825920 
# 
# From -- ./inp_files/1438.got.cif
#   From: 2010.05.17/outbox.cif.g08.bks.cpg/sg45_1_cif.got.tgz:1438.got - 2010.06.03 19:51:22.
