data_PCOD9376467
_publ_section_title
;
Structure prediction by ZEFSAII (Michael W. Deem and Ramdas Pophale) SiO2 
 PCOD9376467
Probable space group: I B A 2
;
_chemical_formula_sum "Si O2"
_cell_formula_units_Z 60
_cell_length_a 26.967108
_cell_length_b 5.155133
_cell_length_c 21.257161
_cell_angle_alpha 90.000000
_cell_angle_beta 90.000000
_cell_angle_gamma 90.000000
_cell_volume 2955.149868
_symmetry_space_group_name_H-M "I B A 2"
_symmetry_group_IT_number 45
_symmetry_cell_setting 'orthorhombic'
loop_
_space_group_symop_operation_xyz
x,y,z
-x,-y,z
-x,y,1/2+z
x,-y,1/2+z
1/2+x,1/2+y,1/2+z
1/2-x,1/2-y,1/2+z
1/2-x,1/2+y,z
1/2+x,1/2-y,z
loop_
_atom_site_type_symbol
_atom_site_label
_atom_site_fract_x
_atom_site_fract_y
_atom_site_fract_z
Si Si1 0.055887 0.608869 0.890300
Si Si2 0.395087 0.042823 0.025302
Si Si3 0.571863 0.367010 0.723601
Si Si4 0.283884 0.010200 0.983152
Si Si5 0.280145 0.980453 0.834622
Si Si6 0.943777 0.961816 0.082607
Si Si7 0.120652 0.607596 0.770350
Si Si8 0.000000 0.000000 0.324023
O O1 0.092079 0.526767 0.834404
O O2 0.000000 0.500000 0.888472
O O3 0.043257 0.904672 0.870340
O O4 0.080792 0.548083 0.955856
O O5 0.336244 0.999593 0.018770
O O6 0.407843 0.323786 0.052766
O O7 0.422591 0.819738 0.065235
O O8 0.555162 0.472243 0.656406
O O9 0.604571 0.602366 0.752298
O O10 0.526191 0.316036 0.771921
O O11 0.602262 0.100979 0.719365
O O12 0.251619 0.266257 0.996384
O O13 0.295363 0.012111 0.907939
O O14 0.265099 0.681782 0.825867
O O15 0.322440 0.070934 0.787287
O O16 0.000000 0.000000 0.057742
#
# Coordination Sequence:
#
# PCOD9376467 Si02
#       8
#     8   8   8   8   8   8   8   4
#     4  11  22  37  58  95 133 162 199 255 327 372
#     4  12  26  41  67  95 133 167 214 273 324 386
#     4  11  23  41  64  85 128 172 224 242 298 366
#     4  10  21  41  65  93 125 165 210 265 328 397
#     4  10  20  37  62  94 130 159 198 259 334 387
#     4  12  26  45  63  92 132 182 219 258 306 383
#     4  11  22  38  65  95 122 164 208 268 304 381
#     4  10  22  38  60  88 128 170 206 250 298 376
#
# _framework density 20.303539000000001
#
# number of rings (size 3 to 8) (size 9 to 14) (size 15 to 20)
#    0.000    1.067    3.333    3.600    2.800    0.000 
#    0.000    0.000    0.000   16.000    0.000    0.000 
#    0.000    0.000    0.000    0.000    0.000    0.000 
#
# Total GULP energy -167417.031343 kJ/mol
# GULP energy per Si atom -5580.567711 kJ/mol
# Density = 2.025733 g / cm^3
# Si number density = 20.303539 Si / 1000 Ang^3
#
#
#
# Elastic Constant Matrix: (Units=GPa)
#
#
# Indices 1 2 3 4 5 6 
#
# 1 92.1050 2.0683 10.9468 0.0000 0.0000 0.0000
# 2 2.0683 73.7554 1.2448 0.0000 0.0000 0.0000
# 3 10.9468 1.2448 55.9904 0.0000 0.0000 0.0000
# 4 0.0000 0.0000 0.0000 27.6789 0.0000 0.0000
# 5 0.0000 0.0000 0.0000 0.0000 18.0664 0.0000
# 6 0.0000 0.0000 0.0000 0.0000 0.0000 21.4543
#
#
#
# Elastic Compliance Matrix: (Units=1/GPa)
#
#
# Indices 1 2 3 4 5 6 
#
# 1 0.011121 -0.000275 -0.002168 0.000000 0.000000 0.000000
# 2 -0.000275 0.013570 -0.000248 0.000000 0.000000 0.000000
# 3 -0.002168 -0.000248 0.018290 0.000000 0.000000 0.000000
# 4 0.000000 0.000000 0.000000 0.036129 0.000000 0.000000
# 5 0.000000 0.000000 0.000000 0.000000 0.055351 0.000000
# 6 0.000000 0.000000 0.000000 0.000000 0.000000 0.046611
#
#
# Mechanical properties :
#
#
# Convention : Reuss Voigt Hill
#
# Bulk Modulus (GPa) = 26.59701 27.81897 27.20799
# Shear Modulus (GPa) = 25.12727 27.27932 26.20329
#
# Velocity S-wave (km/s) = 3.52174 3.66946 3.59636
# Velocity P-wave (km/s) = 5.44656 5.62890 5.53848
#
# Compressibility (1/GPa) = 0.03759821
#
# Stress axis : x y z
#
# Youngs Moduli (GPa) = 89.91963 73.69073 54.67586
#
# Poissons Ratio (x) = 0.02028 0.11855
# Poissons Ratio (y) = 0.02475 0.01355
# Poissons Ratio (z) = 0.19496 0.01827
#
# Static dielectric constant tensor:
#      x y z
#    x 1.720190 0.000000 0.000000 
#    y 0.000000 1.827300 0.000000 
#    z 0.000000 0.000000 1.710900 
# 
# From -- ./inp_files/7355.got.cif
#   From: 2010.05.17/outbox.cif.g08.bks.cpg/sg45_4_cif.got.tgz:7355.got - 2010.06.03 19:51:22.
