data_PCOD9376854
_publ_section_title
;
Structure prediction by ZEFSAII (Michael W. Deem and Ramdas Pophale) SiO2 
 PCOD9376854
Probable space group: I B A 2
;
_chemical_formula_sum "Si O2"
_cell_formula_units_Z 60
_cell_length_a 11.825613
_cell_length_b 8.885336
_cell_length_c 26.888942
_cell_angle_alpha 90.000000
_cell_angle_beta 90.000000
_cell_angle_gamma 90.000000
_cell_volume 2825.343344
_symmetry_space_group_name_H-M "I B A 2"
_symmetry_group_IT_number 45
_symmetry_cell_setting 'orthorhombic'
loop_
_space_group_symop_operation_xyz
x,y,z
-x,-y,z
-x,y,1/2+z
x,-y,1/2+z
1/2+x,1/2+y,1/2+z
1/2-x,1/2-y,1/2+z
1/2-x,1/2+y,z
1/2+x,1/2-y,z
loop_
_atom_site_type_symbol
_atom_site_label
_atom_site_fract_x
_atom_site_fract_y
_atom_site_fract_z
Si Si1 0.285154 0.174204 0.765760
Si Si2 0.129106 0.966332 0.931571
Si Si3 0.131664 0.033915 0.317037
Si Si4 0.759784 0.215660 0.490530
Si Si5 0.161133 0.634704 0.147500
Si Si6 0.875671 0.533855 0.048597
Si Si7 0.000000 0.500000 0.228763
Si Si8 0.631032 0.448445 0.673960
O O1 0.317102 0.345077 0.778429
O O2 0.405978 0.091725 0.759287
O O3 0.203799 0.130674 0.719003
O O4 0.210010 0.111618 0.810709
O O5 0.139895 0.917223 0.874240
O O6 0.176458 0.838539 0.967521
O O7 0.188434 0.124287 0.944417
O O8 0.000000 0.000000 0.942134
O O9 0.000000 0.000000 0.305974
O O10 0.841879 0.304177 0.528132
O O11 0.702910 0.089063 0.523403
O O12 0.130164 0.508829 0.106517
O O13 0.291530 0.592464 0.159929
O O14 0.139141 0.810004 0.134011
O O15 0.075918 0.605049 0.193299
O O16 0.000000 0.500000 0.030333
O O17 0.500000 0.500000 0.682168
#
# Coordination Sequence:
#
# PCOD9376854 Si02
#       8
#     8   8   8   8   8   8   4   8
#     4  11  24  42  63  95 126 175 222 272 333 393
#     4  10  21  42  64  94 128 166 208 271 335 398
#     4  11  25  41  68  95 132 169 223 278 334 411
#     4  10  22  39  66  94 128 169 214 264 338 402
#     4  11  24  42  63  95 130 175 225 281 333 394
#     4  11  22  40  64  94 129 169 218 272 324 400
#     4  10  24  40  64  88 134 174 218 276 328 396
#     4  11  26  42  66  91 131 178 226 282 340 397
#
# _framework density 21.236357999999999
#
# number of rings (size 3 to 8) (size 9 to 14) (size 15 to 20)
#    0.000    1.333    0.667    4.400    9.333    1.067 
#    0.000    3.333    2.933    0.000    0.000    0.000 
#    0.000    0.000    0.000    0.000    0.000    0.000 
#
# Total GULP energy -167393.755331 kJ/mol
# GULP energy per Si atom -5579.791844 kJ/mol
# Density = 2.118802 g / cm^3
# Si number density = 21.236358 Si / 1000 Ang^3
#
#
#
# Elastic Constant Matrix: (Units=GPa)
#
#
# Indices 1 2 3 4 5 6 
#
# 1 128.6045 34.7064 8.5850 0.0000 0.0000 0.0000
# 2 34.7064 96.6220 4.9862 0.0000 0.0000 0.0000
# 3 8.5850 4.9862 30.0754 0.0000 0.0000 0.0000
# 4 0.0000 0.0000 0.0000 30.9777 0.0000 0.0000
# 5 0.0000 0.0000 0.0000 0.0000 22.2051 0.0000
# 6 0.0000 0.0000 0.0000 0.0000 0.0000 31.5619
#
#
#
# Elastic Compliance Matrix: (Units=1/GPa)
#
#
# Indices 1 2 3 4 5 6 
#
# 1 0.008727 -0.003032 -0.001988 0.000000 0.000000 0.000000
# 2 -0.003032 0.011492 -0.001040 0.000000 0.000000 0.000000
# 3 -0.001988 -0.001040 0.033990 0.000000 0.000000 0.000000
# 4 0.000000 0.000000 0.000000 0.032281 0.000000 0.000000
# 5 0.000000 0.000000 0.000000 0.000000 0.045035 0.000000
# 6 0.000000 0.000000 0.000000 0.000000 0.000000 0.031684
#
#
# Mechanical properties :
#
#
# Convention : Reuss Voigt Hill
#
# Bulk Modulus (GPa) = 23.75953 39.09524 31.42739
# Shear Modulus (GPa) = 26.40495 30.75057 28.57776
#
# Velocity S-wave (km/s) = 3.52999 3.80941 3.67236
# Velocity P-wave (km/s) = 5.27512 6.14803 5.72823
#
# Compressibility (1/GPa) = 0.04208838
#
# Stress axis : x y z
#
# Youngs Moduli (GPa) = 114.59009 87.01431 29.42068
#
# Poissons Ratio (x) = 0.26383 0.05850
# Poissons Ratio (y) = 0.34744 0.03059
# Poissons Ratio (z) = 0.22785 0.09048
#
# Static dielectric constant tensor:
#      x y z
#    x 1.753950 0.000000 0.000000 
#    y 0.000000 1.803340 0.000000 
#    z 0.000000 0.000000 1.831260 
# 
# From -- ./inp_files/9961.got.cif
#   From: 2010.05.17/outbox.cif.g08.bks.cpg/sg45_5_cif.got.tgz:9961.got - 2010.06.03 19:51:22.
