data_PCOD9376227
_publ_section_title
;
Structure prediction by ZEFSAII (Michael W. Deem and Ramdas Pophale) SiO2 
 PCOD9376227
Probable space group: I B A 2
;
_chemical_formula_sum "Si O2"
_cell_formula_units_Z 56
_cell_length_a 5.242329
_cell_length_b 31.353843
_cell_length_c 16.310021
_cell_angle_alpha 90.000000
_cell_angle_beta 90.000000
_cell_angle_gamma 90.000000
_cell_volume 2680.831838
_symmetry_space_group_name_H-M "I B A 2"
_symmetry_group_IT_number 45
_symmetry_cell_setting 'orthorhombic'
loop_
_space_group_symop_operation_xyz
x,y,z
-x,-y,z
-x,y,1/2+z
x,-y,1/2+z
1/2+x,1/2+y,1/2+z
1/2-x,1/2-y,1/2+z
1/2-x,1/2+y,z
1/2+x,1/2-y,z
loop_
_atom_site_type_symbol
_atom_site_label
_atom_site_fract_x
_atom_site_fract_y
_atom_site_fract_z
Si Si1 0.887975 0.388700 0.202920
Si Si2 0.177093 0.225425 0.547316
Si Si3 0.329266 0.238366 0.866054
Si Si4 0.744402 0.472725 0.304016
Si Si5 0.907659 0.358515 0.871119
Si Si6 0.888499 0.871904 0.602605
Si Si7 0.593919 0.594789 0.931257
O O1 0.820068 0.434642 0.242097
O O2 0.624831 0.371817 0.165259
O O3 0.995741 0.360562 0.277905
O O4 0.122853 0.388782 0.139800
O O5 0.438038 0.246710 0.576744
O O6 0.176088 0.231959 0.447704
O O7 0.150418 0.176348 0.570733
O O8 0.576121 0.252058 0.817402
O O9 0.343966 0.189759 0.893790
O O10 0.500000 0.500000 0.275105
O O11 0.658224 0.449813 0.388453
O O12 0.000000 0.500000 0.316145
O O13 0.650631 0.385590 0.884288
O O14 0.147276 0.377480 0.920283
O O15 0.966973 0.902210 0.526831
#
# Coordination Sequence:
#
# PCOD9376227 Si02
#       7
#     8   8   8   8   8   8   8
#     4  11  25  42  65  94 132 174 204 256 334 396
#     4  10  19  34  56  85 121 167 212 260 311 353
#     4  10  19  32  55  85 114 158 218 270 303 339
#     4  11  23  45  70  95 124 164 213 262 317 393
#     4  11  21  41  63  90 124 171 223 258 303 389
#     4  12  23  41  64  98 134 169 214 264 323 388
#     4  11  22  39  69  95 121 163 212 262 311 378
#
# _framework density 20.889037999999999
#
# number of rings (size 3 to 8) (size 9 to 14) (size 15 to 20)
#    0.000    1.143    0.000   10.286    0.000    0.000 
#    0.000    8.571    0.000    0.000    0.000    0.000 
#    0.000    0.000    0.000    0.000    0.000    0.000 
#
# Total GULP energy -156444.421572 kJ/mol
# GULP energy per Si atom -5587.300770 kJ/mol
# Density = 2.084149 g / cm^3
# Si number density = 20.889038 Si / 1000 Ang^3
#
#
#
# Elastic Constant Matrix: (Units=GPa)
#
#
# Indices 1 2 3 4 5 6 
#
# 1 167.5606 43.9451 16.0905 0.0000 0.0000 0.0000
# 2 43.9451 104.0979 37.3930 0.0000 0.0000 0.0000
# 3 16.0905 37.3930 65.4648 0.0000 0.0000 0.0000
# 4 0.0000 0.0000 0.0000 15.5024 0.0000 0.0000
# 5 0.0000 0.0000 0.0000 0.0000 30.5452 0.0000
# 6 0.0000 0.0000 0.0000 0.0000 0.0000 49.7331
#
#
#
# Elastic Compliance Matrix: (Units=1/GPa)
#
#
# Indices 1 2 3 4 5 6 
#
# 1 0.006711 -0.002819 -0.000039 0.000000 0.000000 0.000000
# 2 -0.002819 0.013270 -0.006887 0.000000 0.000000 0.000000
# 3 -0.000039 -0.006887 0.019219 0.000000 0.000000 0.000000
# 4 0.000000 0.000000 0.000000 0.064506 0.000000 0.000000
# 5 0.000000 0.000000 0.000000 0.000000 0.032738 0.000000
# 6 0.000000 0.000000 0.000000 0.000000 0.000000 0.020107
#
#
# Mechanical properties :
#
#
# Convention : Reuss Voigt Hill
#
# Bulk Modulus (GPa) = 50.73671 59.10894 54.92283
# Shear Modulus (GPa) = 27.38040 35.13580 31.25810
#
# Velocity S-wave (km/s) = 3.62436 4.10569 3.87251
# Velocity P-wave (km/s) = 6.46963 7.12978 6.80771
#
# Compressibility (1/GPa) = 0.01970959
#
# Stress axis : x y z
#
# Youngs Moduli (GPa) = 149.00736 75.35654 52.03218
#
# Poissons Ratio (x) = 0.21243 0.00205
# Poissons Ratio (y) = 0.42005 0.35835
# Poissons Ratio (z) = 0.00586 0.51898
#
# Static dielectric constant tensor:
#      x y z
#    x 1.831690 0.000000 0.000000 
#    y 0.000000 1.734050 0.000000 
#    z 0.000000 0.000000 1.780340 
# 
# From -- ./inp_files/5286.got.cif
#   From: 2010.05.17/outbox.cif.g08.bks.cpg/sg45_3_cif.got.tgz:5286.got - 2010.06.03 19:51:22.
