data_PCOD9376513
_publ_section_title
;
Structure prediction by ZEFSAII (Michael W. Deem and Ramdas Pophale) SiO2 
 PCOD9376513
Probable space group: I B A 2
;
_chemical_formula_sum "Si O2"
_cell_formula_units_Z 40
_cell_length_a 12.649910
_cell_length_b 12.942066
_cell_length_c 9.037264
_cell_angle_alpha 90.000000
_cell_angle_beta 90.000000
_cell_angle_gamma 90.000000
_cell_volume 1479.544443
_symmetry_space_group_name_H-M "I B A 2"
_symmetry_group_IT_number 45
_symmetry_cell_setting 'orthorhombic'
loop_
_space_group_symop_operation_xyz
x,y,z
-x,-y,z
-x,y,1/2+z
x,-y,1/2+z
1/2+x,1/2+y,1/2+z
1/2-x,1/2-y,1/2+z
1/2-x,1/2+y,z
1/2+x,1/2-y,z
loop_
_atom_site_type_symbol
_atom_site_label
_atom_site_fract_x
_atom_site_fract_y
_atom_site_fract_z
Si Si1 0.440999 0.645452 0.812660
Si Si2 0.795937 0.756573 0.066579
Si Si3 0.360194 0.039065 0.503877
Si Si4 0.137987 0.904289 0.002796
Si Si5 0.609924 0.142950 0.703014
O O1 0.366188 0.682062 0.949107
O O2 0.395532 0.580780 0.674479
O O3 0.542425 0.597824 0.890283
O O4 0.458657 0.754486 0.726532
O O5 0.851045 0.644981 0.103525
O O6 0.689807 0.709680 0.991086
O O7 0.734975 0.822979 0.189846
O O8 0.234794 0.019181 0.473401
O O9 0.404243 0.076491 0.349656
O O10 0.408730 0.936259 0.570766
#
# Coordination Sequence:
#
# PCOD9376513 Si02
#       5
#     8   8   8   8   8
#     4  10  20  38  65  94 128 178 221 288 354 429
#     4   8  20  38  63  89 124 182 222 286 360 424
#     4   9  21  36  62  97 123 170 225 287 344 426
#     4   9  21  36  62  97 123 170 225 287 344 426
#     4  10  20  38  65  94 128 178 221 288 354 429
#
# _framework density 27.035352
#
# number of rings (size 3 to 8) (size 9 to 14) (size 15 to 20)
#    1.200    1.600    0.000    0.000    5.600    0.000 
#    0.000    1.000    0.000   48.000    0.000    0.000 
#    0.000    0.000    0.000    0.000    0.000    0.000 
#
# Total GULP energy -111625.204577 kJ/mol
# GULP energy per Si atom -5581.260229 kJ/mol
# Density = 2.697382 g / cm^3
# Si number density = 27.035352 Si / 1000 Ang^3
#
#
#
# Elastic Constant Matrix: (Units=GPa)
#
#
# Indices 1 2 3 4 5 6 
#
# 1 92.7877 10.2272 20.2580 0.0000 0.0000 0.0000
# 2 10.2272 113.1281 20.6316 0.0000 0.0000 0.0000
# 3 20.2580 20.6316 86.6471 0.0000 0.0000 0.0000
# 4 0.0000 0.0000 0.0000 28.3812 0.0000 0.0000
# 5 0.0000 0.0000 0.0000 0.0000 30.3931 0.0000
# 6 0.0000 0.0000 0.0000 0.0000 0.0000 21.4549
#
#
#
# Elastic Compliance Matrix: (Units=1/GPa)
#
#
# Indices 1 2 3 4 5 6 
#
# 1 0.011392 -0.000569 -0.002528 0.000000 0.000000 0.000000
# 2 -0.000569 0.009269 -0.002074 0.000000 0.000000 0.000000
# 3 -0.002528 -0.002074 0.012626 0.000000 0.000000 0.000000
# 4 0.000000 0.000000 0.000000 0.035235 0.000000 0.000000
# 5 0.000000 0.000000 0.000000 0.000000 0.032902 0.000000
# 6 0.000000 0.000000 0.000000 0.000000 0.000000 0.046609
#
#
# Mechanical properties :
#
#
# Convention : Reuss Voigt Hill
#
# Bulk Modulus (GPa) = 43.58195 43.86628 43.72412
# Shear Modulus (GPa) = 30.11620 32.14225 31.12923
#
# Velocity S-wave (km/s) = 3.34122 3.45178 3.39695
# Velocity P-wave (km/s) = 5.57139 5.66984 5.62083
#
# Compressibility (1/GPa) = 0.02294528
#
# Stress axis : x y z
#
# Youngs Moduli (GPa) = 87.78155 107.88385 79.20180
#
# Poissons Ratio (x) = 0.06137 0.20022
# Poissons Ratio (y) = 0.04993 0.16427
# Poissons Ratio (z) = 0.22191 0.22376
#
# Static dielectric constant tensor:
#      x y z
#    x 2.214950 0.000000 0.000000 
#    y 0.000000 2.185160 0.000000 
#    z 0.000000 0.000000 2.068210 
# 
# From -- ./inp_files/1658.got.cif
#   From: 2010.05.17/outbox.cif.g08.bks.cpg/sg45_1_cif.got.tgz:1658.got - 2010.06.03 19:51:22.
