data_PCOD9376476
_publ_section_title
;
Structure prediction by ZEFSAII (Michael W. Deem and Ramdas Pophale) SiO2 
 PCOD9376476
Probable space group: I B A 2
;
_chemical_formula_sum "Si O2"
_cell_formula_units_Z 48
_cell_length_a 9.395257
_cell_length_b 15.399020
_cell_length_c 14.625769
_cell_angle_alpha 90.000000
_cell_angle_beta 90.000000
_cell_angle_gamma 90.000000
_cell_volume 2116.023357
_symmetry_space_group_name_H-M "I B A 2"
_symmetry_group_IT_number 45
_symmetry_cell_setting 'orthorhombic'
loop_
_space_group_symop_operation_xyz
x,y,z
-x,-y,z
-x,y,1/2+z
x,-y,1/2+z
1/2+x,1/2+y,1/2+z
1/2-x,1/2-y,1/2+z
1/2-x,1/2+y,z
1/2+x,1/2-y,z
loop_
_atom_site_type_symbol
_atom_site_label
_atom_site_fract_x
_atom_site_fract_y
_atom_site_fract_z
Si Si1 0.634020 0.051429 0.919790
Si Si2 0.546848 0.189394 0.483611
Si Si3 0.344597 0.969791 0.224056
Si Si4 0.678342 0.790745 0.650607
Si Si5 0.604943 0.629417 0.017553
Si Si6 0.301327 0.603938 0.095583
O O1 0.500000 0.000000 0.964634
O O2 0.672187 0.006170 0.825615
O O3 0.553361 0.143182 0.909395
O O4 0.776612 0.065939 0.976626
O O5 0.441629 0.195910 0.571977
O O6 0.585429 0.286344 0.452637
O O7 0.685285 0.136982 0.520145
O O8 0.344248 0.865400 0.224793
O O9 0.500000 0.000000 0.191971
O O10 0.239894 0.019771 0.154646
O O11 0.824578 0.823649 0.604973
O O12 0.687691 0.687820 0.664208
O O13 0.452060 0.594422 0.045452
#
# Coordination Sequence:
#
# PCOD9376476 Si02
#       6
#     8   8   8   8   8   8
#     4  10  23  41  64  95 136 180 215 262 345 416
#     4   9  18  38  68  94 125 171 226 275 322 398
#     4  11  22  40  67  93 134 179 220 261 337 416
#     4   9  19  37  65  96 129 167 226 272 325 403
#     4   9  20  39  66  98 127 166 226 282 331 381
#     4  10  20  37  71  97 120 170 225 285 329 378
#
# _framework density 22.684058
#
# number of rings (size 3 to 8) (size 9 to 14) (size 15 to 20)
#    0.000    2.333    1.667    1.000    4.667    0.667 
#    6.000    0.000   14.667    0.000    0.000    0.000 
#    0.000    0.000    0.000    0.000    0.000    0.000 
#
# Total GULP energy -133873.818723 kJ/mol
# GULP energy per Si atom -5578.075780 kJ/mol
# Density = 2.263243 g / cm^3
# Si number density = 22.684058 Si / 1000 Ang^3
#
#
#
# Elastic Constant Matrix: (Units=GPa)
#
#
# Indices 1 2 3 4 5 6 
#
# 1 160.6720 35.0559 26.0086 0.0000 0.0000 0.0000
# 2 35.0559 134.9773 43.8162 0.0000 0.0000 0.0000
# 3 26.0086 43.8162 68.2659 0.0000 0.0000 0.0000
# 4 0.0000 0.0000 0.0000 28.1963 0.0000 0.0000
# 5 0.0000 0.0000 0.0000 0.0000 18.9613 0.0000
# 6 0.0000 0.0000 0.0000 0.0000 0.0000 49.1399
#
#
#
# Elastic Compliance Matrix: (Units=1/GPa)
#
#
# Indices 1 2 3 4 5 6 
#
# 1 0.006775 -0.001164 -0.001834 0.000000 0.000000 0.000000
# 2 -0.001164 0.009559 -0.005692 0.000000 0.000000 0.000000
# 3 -0.001834 -0.005692 0.019000 0.000000 0.000000 0.000000
# 4 0.000000 0.000000 0.000000 0.035466 0.000000 0.000000
# 5 0.000000 0.000000 0.000000 0.000000 0.052739 0.000000
# 6 0.000000 0.000000 0.000000 0.000000 0.000000 0.020350
#
#
# Mechanical properties :
#
#
# Convention : Reuss Voigt Hill
#
# Bulk Modulus (GPa) = 55.69663 63.74185 59.71924
# Shear Modulus (GPa) = 29.89488 36.52846 33.21167
#
# Velocity S-wave (km/s) = 3.63420 4.01723 3.83050
# Velocity P-wave (km/s) = 6.49741 7.04828 6.77845
#
# Compressibility (1/GPa) = 0.01795441
#
# Stress axis : x y z
#
# Youngs Moduli (GPa) = 147.60745 104.61755 52.63041
#
# Poissons Ratio (x) = 0.12180 0.09652
# Poissons Ratio (y) = 0.17185 0.29955
# Poissons Ratio (z) = 0.27069 0.59544
#
# Static dielectric constant tensor:
#      x y z
#    x 1.855110 0.000000 0.000000 
#    y 0.000000 2.044670 0.000000 
#    z 0.000000 0.000000 1.853230 
# 
# From -- ./inp_files/7572.got.cif
#   From: 2010.05.17/outbox.cif.g08.bks.cpg/sg45_4_cif.got.tgz:7572.got - 2010.06.03 19:51:22.
