data_PCOD9376284
_publ_section_title
;
Structure prediction by ZEFSAII (Michael W. Deem and Ramdas Pophale) SiO2 
 PCOD9376284
Probable space group: I B A 2
;
_chemical_formula_sum "Si O2"
_cell_formula_units_Z 56
_cell_length_a 10.285955
_cell_length_b 21.361176
_cell_length_c 13.371402
_cell_angle_alpha 90.000000
_cell_angle_beta 90.000000
_cell_angle_gamma 90.000000
_cell_volume 2937.965719
_symmetry_space_group_name_H-M "I B A 2"
_symmetry_group_IT_number 45
_symmetry_cell_setting 'orthorhombic'
loop_
_space_group_symop_operation_xyz
x,y,z
-x,-y,z
-x,y,1/2+z
x,-y,1/2+z
1/2+x,1/2+y,1/2+z
1/2-x,1/2-y,1/2+z
1/2-x,1/2+y,z
1/2+x,1/2-y,z
loop_
_atom_site_type_symbol
_atom_site_label
_atom_site_fract_x
_atom_site_fract_y
_atom_site_fract_z
Si Si1 0.169324 0.566848 0.414820
Si Si2 0.598186 0.161008 0.317790
Si Si3 0.127963 0.383389 0.698868
Si Si4 0.069271 0.240502 0.913639
Si Si5 0.801743 0.762500 0.717796
Si Si6 0.639301 0.069326 0.472778
Si Si7 0.690660 0.311775 0.502367
O O1 0.181914 0.578452 0.294837
O O2 0.205511 0.497029 0.449606
O O3 0.250806 0.622209 0.466942
O O4 0.015640 0.567466 0.445657
O O5 0.524459 0.122703 0.230828
O O6 0.492750 0.191371 0.391966
O O7 0.664135 0.219715 0.264692
O O8 0.687644 0.119574 0.390066
O O9 0.179406 0.311493 0.700391
O O10 0.149875 0.411156 0.588890
O O11 0.100690 0.215809 0.803907
O O12 0.205400 0.257729 0.967333
O O13 0.955236 0.201582 0.964300
O O14 0.816865 0.802903 0.619972
#
# Coordination Sequence:
#
# PCOD9376284 Si02
#       7
#     8   8   8   8   8   8   8
#     4  10  21  37  54  88 125 157 207 257 299 379
#     4  10  19  36  55  89 125 153 208 252 308 376
#     4  10  20  34  54  87 121 159 198 253 314 365
#     4  11  22  38  58  93 128 159 204 259 313 383
#     4  11  23  35  64  88 125 165 202 260 321 376
#     4  10  20  34  60  83 123 167 201 255 312 361
#     4  12  23  39  62  91 132 162 206 262 320 380
#
# _framework density 19.060807
#
# number of rings (size 3 to 8) (size 9 to 14) (size 15 to 20)
#    0.000    1.429    5.714    1.714    4.000    5.714 
#    0.000    0.000    0.000    0.857    0.000    4.000 
#    0.000    0.000    0.000    0.000    0.000    0.000 
#
# Total GULP energy -155899.768220 kJ/mol
# GULP energy per Si atom -5567.848865 kJ/mol
# Density = 1.901742 g / cm^3
# Si number density = 19.060807 Si / 1000 Ang^3
#
#
#
# Elastic Constant Matrix: (Units=GPa)
#
#
# Indices 1 2 3 4 5 6 
#
# 1 46.0588 14.7748 26.9794 0.0000 0.0000 0.0000
# 2 14.7748 87.6282 52.6008 0.0000 0.0000 0.0000
# 3 26.9794 52.6008 124.4772 0.0000 0.0000 0.0000
# 4 0.0000 0.0000 0.0000 23.6203 0.0000 0.0000
# 5 0.0000 0.0000 0.0000 0.0000 22.1883 0.0000
# 6 0.0000 0.0000 0.0000 0.0000 0.0000 10.2157
#
#
#
# Elastic Compliance Matrix: (Units=1/GPa)
#
#
# Indices 1 2 3 4 5 6 
#
# 1 0.024977 -0.001289 -0.004869 0.000000 0.000000 0.000000
# 2 -0.001289 0.015357 -0.006210 0.000000 0.000000 0.000000
# 3 -0.004869 -0.006210 0.011713 0.000000 0.000000 0.000000
# 4 0.000000 0.000000 0.000000 0.042337 0.000000 0.000000
# 5 0.000000 0.000000 0.000000 0.000000 0.045069 0.000000
# 6 0.000000 0.000000 0.000000 0.000000 0.000000 0.097889
#
#
# Mechanical properties :
#
#
# Convention : Reuss Voigt Hill
#
# Bulk Modulus (GPa) = 36.61468 49.65269 43.13369
# Shear Modulus (GPa) = 18.43793 22.12547 20.28170
#
# Velocity S-wave (km/s) = 3.11355 3.41072 3.26552
# Velocity P-wave (km/s) = 5.67245 6.45112 6.07427
#
# Compressibility (1/GPa) = 0.02731145
#
# Stress axis : x y z
#
# Youngs Moduli (GPa) = 40.03714 65.11743 85.37421
#
# Poissons Ratio (x) = 0.08391 0.41569
# Poissons Ratio (y) = 0.05159 0.53018
# Poissons Ratio (z) = 0.19494 0.40439
#
# Static dielectric constant tensor:
#      x y z
#    x 1.767320 0.000000 0.000000 
#    y 0.000000 1.730090 0.000000 
#    z 0.000000 0.000000 1.688980 
# 
# From -- ./inp_files/3774.got.cif
#   From: 2010.05.17/outbox.cif.g08.bks.cpg/sg45_2_cif.got.tgz:3774.got - 2010.06.03 19:51:22.
