data_PCOD9376977
_publ_section_title
;
Structure prediction by ZEFSAII (Michael W. Deem and Ramdas Pophale) SiO2 
 PCOD9376977
Probable space group: I B A 2
;
_chemical_formula_sum "Si O2"
_cell_formula_units_Z 48
_cell_length_a 9.707984
_cell_length_b 13.161907
_cell_length_c 17.529457
_cell_angle_alpha 90.000000
_cell_angle_beta 90.000000
_cell_angle_gamma 90.000000
_cell_volume 2239.836580
_symmetry_space_group_name_H-M "I B A 2"
_symmetry_group_IT_number 45
_symmetry_cell_setting 'orthorhombic'
loop_
_space_group_symop_operation_xyz
x,y,z
-x,-y,z
-x,y,1/2+z
x,-y,1/2+z
1/2+x,1/2+y,1/2+z
1/2-x,1/2-y,1/2+z
1/2-x,1/2+y,z
1/2+x,1/2-y,z
loop_
_atom_site_type_symbol
_atom_site_label
_atom_site_fract_x
_atom_site_fract_y
_atom_site_fract_z
Si Si1 0.029500 0.619536 0.012610
Si Si2 0.376672 0.285659 0.291435
Si Si3 0.233353 0.259017 0.953301
Si Si4 0.399458 0.586063 0.383153
Si Si5 0.337033 0.488837 0.231270
Si Si6 0.416064 0.905126 0.686696
O O1 0.024470 0.620235 0.104210
O O2 0.000000 0.500000 0.989110
O O3 0.179109 0.665792 0.988036
O O4 0.913627 0.699923 0.983217
O O5 0.281270 0.260749 0.362832
O O6 0.507155 0.337906 0.332594
O O7 0.309351 0.369229 0.235860
O O8 0.417028 0.188803 0.243160
O O9 0.327290 0.359354 0.952475
O O10 0.500000 0.500000 0.413916
O O11 0.309594 0.530678 0.317681
O O12 0.500000 0.500000 0.215589
O O13 0.239794 0.553398 0.177617
O O14 0.500000 0.000000 0.719995
#
# Coordination Sequence:
#
# PCOD9376977 Si02
#       6
#     8   8   8   8   8   8
#     4  11  30  46  66 103 151 190 240 280 370 437
#     4  10  22  39  72  98 126 177 237 290 353 404
#     4  12  23  44  69 101 135 188 229 304 346 427
#     4   9  20  39  64 105 130 167 229 295 358 412
#     4   9  21  38  66  97 129 167 229 291 342 412
#     4  11  25  44  63 101 142 185 228 291 348 426
#
# _framework density 21.430135
#
# number of rings (size 3 to 8) (size 9 to 14) (size 15 to 20)
#    0.000    2.000    3.333    0.000    7.000    6.000 
#    0.000    0.000    0.000    1.000    0.000    0.000 
#    0.000    0.000    0.000    0.000    0.000    0.000 
#
# Total GULP energy -133813.585050 kJ/mol
# GULP energy per Si atom -5575.566044 kJ/mol
# Density = 2.138136 g / cm^3
# Si number density = 21.430135 Si / 1000 Ang^3
#
#
#
# Elastic Constant Matrix: (Units=GPa)
#
#
# Indices 1 2 3 4 5 6 
#
# 1 64.6178 29.5664 5.2769 0.0000 0.0000 0.0000
# 2 29.5664 131.2105 31.1557 0.0000 0.0000 0.0000
# 3 5.2769 31.1557 28.7378 0.0000 0.0000 0.0000
# 4 0.0000 0.0000 0.0000 18.4050 0.0000 0.0000
# 5 0.0000 0.0000 0.0000 0.0000 24.4311 0.0000
# 6 0.0000 0.0000 0.0000 0.0000 0.0000 28.1112
#
#
#
# Elastic Compliance Matrix: (Units=1/GPa)
#
#
# Indices 1 2 3 4 5 6 
#
# 1 0.017297 -0.004233 0.001413 0.000000 0.000000 0.000000
# 2 -0.004233 0.011299 -0.011473 0.000000 0.000000 0.000000
# 3 0.001413 -0.011473 0.046976 0.000000 0.000000 0.000000
# 4 0.000000 0.000000 0.000000 0.054333 0.000000 0.000000
# 5 0.000000 0.000000 0.000000 0.000000 0.040931 0.000000
# 6 0.000000 0.000000 0.000000 0.000000 0.000000 0.035573
#
#
# Mechanical properties :
#
#
# Convention : Reuss Voigt Hill
#
# Bulk Modulus (GPa) = 21.28248 39.61822 30.45035
# Shear Modulus (GPa) = 19.94751 24.76060 22.35406
#
# Velocity S-wave (km/s) = 3.05424 3.40282 3.23323
# Velocity P-wave (km/s) = 4.73186 5.82805 5.30833
#
# Compressibility (1/GPa) = 0.04698701
#
# Stress axis : x y z
#
# Youngs Moduli (GPa) = 57.81295 88.49996 21.28749
#
# Poissons Ratio (x) = 0.37464 -0.03009
# Poissons Ratio (y) = 0.24474 0.24423
# Poissons Ratio (z) = -0.08171 1.01534
#
# Static dielectric constant tensor:
#      x y z
#    x 1.704110 0.000000 0.000000 
#    y 0.000000 1.878800 0.000000 
#    z 0.000000 0.000000 1.757090 
# 
# From -- ./inp_files/7887.got.cif
#   From: 2010.05.17/outbox.cif.g08.bks.cpg/sg45_4_cif.got.tgz:7887.got - 2010.06.03 19:51:22.
