data_PCOD9376743
_publ_section_title
;
Structure prediction by ZEFSAII (Michael W. Deem and Ramdas Pophale) SiO2 
 PCOD9376743
Probable space group: I B A 2
;
_chemical_formula_sum "Si O2"
_cell_formula_units_Z 52
_cell_length_a 7.852345
_cell_length_b 23.170249
_cell_length_c 13.402360
_cell_angle_alpha 90.000000
_cell_angle_beta 90.000000
_cell_angle_gamma 90.000000
_cell_volume 2438.435951
_symmetry_space_group_name_H-M "I B A 2"
_symmetry_group_IT_number 45
_symmetry_cell_setting 'orthorhombic'
loop_
_space_group_symop_operation_xyz
x,y,z
-x,-y,z
-x,y,1/2+z
x,-y,1/2+z
1/2+x,1/2+y,1/2+z
1/2-x,1/2-y,1/2+z
1/2-x,1/2+y,z
1/2+x,1/2-y,z
loop_
_atom_site_type_symbol
_atom_site_label
_atom_site_fract_x
_atom_site_fract_y
_atom_site_fract_z
Si Si1 0.204771 0.182793 0.557310
Si Si2 0.204772 0.817207 0.815698
Si Si3 0.000000 0.000000 0.686504
Si Si4 0.108620 0.101004 0.056249
Si Si5 0.090505 0.310509 0.558023
Si Si6 0.409494 0.189491 0.814986
Si Si7 0.108619 0.898996 0.316759
O O1 0.208130 0.184745 0.436504
O O2 0.138222 0.245615 0.589833
O O3 0.399205 0.174010 0.590138
O O4 0.068531 0.133647 0.581269
O O5 0.399205 0.825990 0.782870
O O6 0.138223 0.754385 0.783175
O O7 0.068531 0.866353 0.791738
O O8 0.889488 0.958591 0.757494
O O9 0.110513 0.958591 0.615514
O O10 0.262246 0.144087 0.082640
O O11 0.113134 0.091597 0.936504
O O12 0.088032 0.308933 0.436504
O O13 0.262245 0.144087 0.790368
#
# Coordination Sequence:
#
# PCOD9376743 Si02
#       7
#     8   8   4   8   8   8   8
#     4   9  15  28  57  93 119 143 180 231 297 355
#     4   9  15  28  57  93 119 143 180 231 297 355
#     4  12  26  44  58  78 112 166 214 230 266 334
#     4  10  21  39  61  84 117 153 190 240 284 334
#     4   9  15  28  57  93 119 143 180 231 297 355
#     4   9  15  28  57  93 119 143 180 231 297 355
#     4  10  21  39  61  84 117 153 190 240 284 334
#
# _framework density 21.325143000000001
#
# number of rings (size 3 to 8) (size 9 to 14) (size 15 to 20)
#    0.000    2.462    3.077    0.462    0.000    0.000 
#    0.000    6.154    0.000    7.385    0.000    0.000 
#    0.000    0.000    0.000    0.000    0.000    0.000 
#
# Total GULP energy -145475.880121 kJ/mol
# GULP energy per Si atom -5595.226158 kJ/mol
# Density = 2.127661 g / cm^3
# Si number density = 21.325143 Si / 1000 Ang^3
#
#
#
# Elastic Constant Matrix: (Units=GPa)
#
#
# Indices 1 2 3 4 5 6 
#
# 1 181.8977 69.6537 38.3970 0.0000 0.0000 0.0000
# 2 69.6537 144.5206 40.8419 0.0000 0.0000 0.0000
# 3 38.3970 40.8419 102.1882 0.0000 0.0000 0.0000
# 4 0.0000 0.0000 0.0000 41.7017 0.0000 0.0000
# 5 0.0000 0.0000 0.0000 0.0000 37.4997 0.0000
# 6 0.0000 0.0000 0.0000 0.0000 0.0000 6.2328
#
#
#
# Elastic Compliance Matrix: (Units=1/GPa)
#
#
# Indices 1 2 3 4 5 6 
#
# 1 0.006922 -0.002932 -0.001429 0.000000 0.000000 0.000000
# 2 -0.002932 0.009043 -0.002512 0.000000 0.000000 0.000000
# 3 -0.001429 -0.002512 0.011327 0.000000 0.000000 0.000000
# 4 0.000000 0.000000 0.000000 0.023980 0.000000 0.000000
# 5 0.000000 0.000000 0.000000 0.000000 0.026667 0.000000
# 6 0.000000 0.000000 0.000000 0.000000 0.000000 0.160441
#
#
# Mechanical properties :
#
#
# Convention : Reuss Voigt Hill
#
# Bulk Modulus (GPa) = 73.83109 80.71017 77.27063
# Shear Modulus (GPa) = 19.48239 35.73444 27.60841
#
# Velocity S-wave (km/s) = 3.02584 4.09797 3.60202
# Velocity P-wave (km/s) = 6.84868 7.76664 7.32206
#
# Compressibility (1/GPa) = 0.01354443
#
# Stress axis : x y z
#
# Youngs Moduli (GPa) = 144.46409 110.58629 88.28540
#
# Poissons Ratio (x) = 0.32428 0.12616
# Poissons Ratio (y) = 0.42362 0.22180
# Poissons Ratio (z) = 0.20644 0.27782
#
# Static dielectric constant tensor:
#      x y z
#    x 1.750610 0.000000 0.000000 
#    y 0.000000 1.697130 0.000000 
#    z 0.000000 0.000000 1.892870 
# 
# From -- ./inp_files/5695.got.cif
#   From: 2010.05.17/outbox.cif.g08.bks.cpg/sg45_3_cif.got.tgz:5695.got - 2010.06.03 19:51:22.
