data_PCOD9376616
_publ_section_title
;
Structure prediction by ZEFSAII (Michael W. Deem and Ramdas Pophale) SiO2 
 PCOD9376616
Probable space group: I B A 2
;
_chemical_formula_sum "Si O2"
_cell_formula_units_Z 44
_cell_length_a 10.139663
_cell_length_b 14.568688
_cell_length_c 12.448244
_cell_angle_alpha 90.000000
_cell_angle_beta 90.000000
_cell_angle_gamma 90.000000
_cell_volume 1838.874355
_symmetry_space_group_name_H-M "I B A 2"
_symmetry_group_IT_number 45
_symmetry_cell_setting 'orthorhombic'
loop_
_space_group_symop_operation_xyz
x,y,z
-x,-y,z
-x,y,1/2+z
x,-y,1/2+z
1/2+x,1/2+y,1/2+z
1/2-x,1/2-y,1/2+z
1/2-x,1/2+y,z
1/2+x,1/2-y,z
loop_
_atom_site_type_symbol
_atom_site_label
_atom_site_fract_x
_atom_site_fract_y
_atom_site_fract_z
Si Si1 0.170386 0.302764 0.744530
Si Si2 0.000000 0.000000 0.615598
Si Si3 0.238149 0.906395 0.188740
Si Si4 0.421974 0.116447 0.851544
Si Si5 0.831851 0.354338 0.465939
Si Si6 0.304643 0.648539 0.027426
O O1 0.213044 0.198179 0.725328
O O2 0.014975 0.312958 0.778566
O O3 0.216717 0.352145 0.636343
O O4 0.241320 0.340899 0.852257
O O5 0.895678 0.958095 0.697464
O O6 0.076986 0.923447 0.544787
O O7 0.357588 0.945217 0.258899
O O8 0.262518 0.905396 0.061668
O O9 0.296875 0.135485 0.928917
O O10 0.463561 0.907101 0.934491
O O11 0.862528 0.251314 0.508857
#
# Coordination Sequence:
#
# PCOD9376616 Si02
#       6
#     8   4   8   8   8   8
#     4   9  22  40  77 102 125 177 241 284 324 394
#     4  12  32  42  62 100 154 186 202 290 360 418
#     4  11  23  45  64 104 146 173 227 277 351 411
#     4  10  20  43  73 102 122 181 238 289 319 396
#     4   9  22  40  77 102 125 177 241 284 324 394
#     4  11  23  45  64 104 146 173 227 277 351 411
#
# _framework density 23.927682999999998
#
# number of rings (size 3 to 8) (size 9 to 14) (size 15 to 20)
#    1.091    0.727    1.818    1.091   10.182    0.727 
#    6.545    5.455    0.000    0.000    0.000    0.000 
#    0.000    0.000    0.000    0.000    0.000    0.000 
#
# Total GULP energy -122558.717455 kJ/mol
# GULP energy per Si atom -5570.850793 kJ/mol
# Density = 2.387322 g / cm^3
# Si number density = 23.927683 Si / 1000 Ang^3
#
#
#
# Elastic Constant Matrix: (Units=GPa)
#
#
# Indices 1 2 3 4 5 6 
#
# 1 112.4402 31.6125 51.7422 0.0000 0.0000 0.0000
# 2 31.6125 61.2811 17.8858 0.0000 0.0000 0.0000
# 3 51.7422 17.8858 158.7780 0.0000 0.0000 0.0000
# 4 0.0000 0.0000 0.0000 9.6172 0.0000 0.0000
# 5 0.0000 0.0000 0.0000 0.0000 52.0050 0.0000
# 6 0.0000 0.0000 0.0000 0.0000 0.0000 44.8459
#
#
#
# Elastic Compliance Matrix: (Units=1/GPa)
#
#
# Indices 1 2 3 4 5 6 
#
# 1 0.011854 -0.005157 -0.003282 0.000000 0.000000 0.000000
# 2 -0.005157 0.019117 -0.000473 0.000000 0.000000 0.000000
# 3 -0.003282 -0.000473 0.007421 0.000000 0.000000 0.000000
# 4 0.000000 0.000000 0.000000 0.103981 0.000000 0.000000
# 5 0.000000 0.000000 0.000000 0.000000 0.019229 0.000000
# 6 0.000000 0.000000 0.000000 0.000000 0.000000 0.022299
#
#
# Mechanical properties :
#
#
# Convention : Reuss Voigt Hill
#
# Bulk Modulus (GPa) = 48.62025 59.44225 54.03125
# Shear Modulus (GPa) = 23.97172 36.71086 30.34129
#
# Velocity S-wave (km/s) = 3.16862 3.92119 3.56482
# Velocity P-wave (km/s) = 5.80953 6.73776 6.29079
#
# Compressibility (1/GPa) = 0.02056756
#
# Stress axis : x y z
#
# Youngs Moduli (GPa) = 84.36125 52.31068 134.75474
#
# Poissons Ratio (x) = 0.26977 0.44226
# Poissons Ratio (y) = 0.43505 0.06372
# Poissons Ratio (z) = 0.27687 0.02474
#
# Static dielectric constant tensor:
#      x y z
#    x 1.900240 0.000000 0.000000 
#    y 0.000000 1.988160 0.000000 
#    z 0.000000 0.000000 1.912910 
# 
# From -- ./inp_files/4078.got.cif
#   From: 2010.05.17/outbox.cif.g08.bks.cpg/sg45_3_cif.got.tgz:4078.got - 2010.06.03 19:51:22.
