data_PCOD9376814
_publ_section_title
;
Structure prediction by ZEFSAII (Michael W. Deem and Ramdas Pophale) SiO2 
 PCOD9376814
Probable space group: I B A 2
;
_chemical_formula_sum "Si O2"
_cell_formula_units_Z 64
_cell_length_a 14.507119
_cell_length_b 18.404855
_cell_length_c 11.437219
_cell_angle_alpha 90.000000
_cell_angle_beta 90.000000
_cell_angle_gamma 90.000000
_cell_volume 3053.753733
_symmetry_space_group_name_H-M "I B A 2"
_symmetry_group_IT_number 45
_symmetry_cell_setting 'orthorhombic'
loop_
_space_group_symop_operation_xyz
x,y,z
-x,-y,z
-x,y,1/2+z
x,-y,1/2+z
1/2+x,1/2+y,1/2+z
1/2-x,1/2-y,1/2+z
1/2-x,1/2+y,z
1/2+x,1/2-y,z
loop_
_atom_site_type_symbol
_atom_site_label
_atom_site_fract_x
_atom_site_fract_y
_atom_site_fract_z
Si Si1 0.780102 0.187933 0.389120
Si Si2 0.623714 0.681664 0.628764
Si Si3 0.917769 0.287240 0.826170
Si Si4 0.577904 0.687427 0.045734
Si Si5 0.383189 0.192620 0.244512
Si Si6 0.754815 0.563053 0.706442
Si Si7 0.858455 0.967189 0.568439
Si Si8 0.640006 0.535827 0.330626
O O1 0.805222 0.194481 0.524391
O O2 0.672774 0.170890 0.369171
O O3 0.812405 0.261989 0.326252
O O4 0.841060 0.120961 0.343344
O O5 0.609644 0.754057 0.701670
O O6 0.523940 0.659626 0.580389
O O7 0.668698 0.619212 0.706263
O O8 0.019406 0.319159 0.809949
O O9 0.927695 0.221389 0.917772
O O10 0.601890 0.752420 0.135418
O O11 0.645994 0.618995 0.049011
O O12 0.341592 0.115163 0.209399
O O13 0.736136 0.511976 0.593892
O O14 0.736164 0.508745 0.813228
O O15 0.902553 0.973859 0.700014
O O16 0.899340 0.003976 0.451593
#
# Coordination Sequence:
#
# PCOD9376814 Si02
#       8
#     8   8   8   8   8   8   8   8
#     4  12  21  42  65  90 131 173 216 283 339 414
#     4  11  22  40  62  97 131 172 216 275 347 402
#     4  11  25  38  67 103 126 175 225 281 347 406
#     4  11  23  39  64  96 138 166 233 277 335 425
#     4  11  22  43  63  99 130 170 227 290 335 408
#     4  10  21  41  62  87 130 174 216 277 337 405
#     4  10  22  39  59  93 131 181 215 281 332 417
#     4  10  22  40  59  93 127 176 226 257 352 403
#
# _framework density 20.957813999999999
#
# number of rings (size 3 to 8) (size 9 to 14) (size 15 to 20)
#    0.750    0.500    5.000    1.500    0.000    0.500 
#    0.000    1.875    0.000    0.000    3.250    0.000 
#    0.000    0.000    0.000    0.000    0.000    0.000 
#
# Total GULP energy -178293.227976 kJ/mol
# GULP energy per Si atom -5571.663374 kJ/mol
# Density = 2.091011 g / cm^3
# Si number density = 20.957814 Si / 1000 Ang^3
#
#
#
# Elastic Constant Matrix: (Units=GPa)
#
#
# Indices 1 2 3 4 5 6 
#
# 1 82.1382 28.4929 13.4722 0.0000 0.0000 0.0000
# 2 28.4929 63.8980 23.1343 0.0000 0.0000 0.0000
# 3 13.4722 23.1343 106.3494 0.0000 0.0000 0.0000
# 4 0.0000 0.0000 0.0000 23.7641 0.0000 0.0000
# 5 0.0000 0.0000 0.0000 0.0000 13.6003 0.0000
# 6 0.0000 0.0000 0.0000 0.0000 0.0000 11.8527
#
#
#
# Elastic Compliance Matrix: (Units=1/GPa)
#
#
# Indices 1 2 3 4 5 6 
#
# 1 0.014424 -0.006263 -0.000465 0.000000 0.000000 0.000000
# 2 -0.006263 0.019708 -0.003494 0.000000 0.000000 0.000000
# 3 -0.000465 -0.003494 0.010222 0.000000 0.000000 0.000000
# 4 0.000000 0.000000 0.000000 0.042080 0.000000 0.000000
# 5 0.000000 0.000000 0.000000 0.000000 0.073528 0.000000
# 6 0.000000 0.000000 0.000000 0.000000 0.000000 0.084369
#
#
# Mechanical properties :
#
#
# Convention : Reuss Voigt Hill
#
# Bulk Modulus (GPa) = 41.82399 42.50937 42.16668
# Shear Modulus (GPa) = 18.33224 22.32916 20.33070
#
# Velocity S-wave (km/s) = 2.96078 3.26764 3.11799
# Velocity P-wave (km/s) = 5.62920 5.87911 5.75551
#
# Compressibility (1/GPa) = 0.02390972
#
# Stress axis : x y z
#
# Youngs Moduli (GPa) = 69.33112 50.74146 97.83017
#
# Poissons Ratio (x) = 0.31781 0.04546
# Poissons Ratio (y) = 0.43425 0.34178
# Poissons Ratio (z) = 0.03222 0.17727
#
# Static dielectric constant tensor:
#      x y z
#    x 1.777110 0.000000 0.000000 
#    y 0.000000 1.750600 0.000000 
#    z 0.000000 0.000000 1.812840 
# 
# From -- ./inp_files/4280.got.cif
#   From: 2010.05.17/outbox.cif.g08.bks.cpg/sg45_3_cif.got.tgz:4280.got - 2010.06.03 19:51:22.
