data_PCOD9376738
_publ_section_title
;
Structure prediction by ZEFSAII (Michael W. Deem and Ramdas Pophale) SiO2 
 PCOD9376738
Probable space group: I B A 2
;
_chemical_formula_sum "Si O2"
_cell_formula_units_Z 60
_cell_length_a 17.948315
_cell_length_b 13.086740
_cell_length_c 12.876542
_cell_angle_alpha 90.000000
_cell_angle_beta 90.000000
_cell_angle_gamma 90.000000
_cell_volume 3024.505690
_symmetry_space_group_name_H-M "I B A 2"
_symmetry_group_IT_number 45
_symmetry_cell_setting 'orthorhombic'
loop_
_space_group_symop_operation_xyz
x,y,z
-x,-y,z
-x,y,1/2+z
x,-y,1/2+z
1/2+x,1/2+y,1/2+z
1/2-x,1/2-y,1/2+z
1/2-x,1/2+y,z
1/2+x,1/2-y,z
loop_
_atom_site_type_symbol
_atom_site_label
_atom_site_fract_x
_atom_site_fract_y
_atom_site_fract_z
Si Si1 0.137027 0.524734 0.430140
Si Si2 0.902296 0.637101 0.720616
Si Si3 0.947332 0.149456 0.324081
Si Si4 0.604809 0.572350 0.762814
Si Si5 0.200109 0.896460 0.948720
Si Si6 0.304307 0.174961 0.025253
Si Si7 0.636401 0.393077 0.028627
Si Si8 0.500000 0.000000 0.078555
O O1 0.116703 0.560980 0.315023
O O2 0.212044 0.584196 0.463451
O O3 0.159327 0.405896 0.445165
O O4 0.066814 0.540402 0.505750
O O5 0.924149 0.746393 0.768167
O O6 0.834416 0.648202 0.639539
O O7 0.968014 0.588735 0.651745
O O8 0.919343 0.149953 0.442589
O O9 0.034953 0.126999 0.317696
O O10 0.909070 0.049675 0.271090
O O11 0.678822 0.598702 0.827146
O O12 0.607378 0.608680 0.645090
O O13 0.175971 0.789620 0.995903
O O14 0.154938 0.989396 0.999837
O O15 0.215661 0.162647 0.020193
#
# Coordination Sequence:
#
# PCOD9376738 Si02
#       8
#     8   8   8   8   8   8   8   4
#     4  10  22  41  61  89 124 153 202 257 297 359
#     4  11  22  40  62  87 120 161 201 247 306 364
#     4  10  23  37  59  89 120 156 199 249 298 359
#     4  10  22  39  59  88 122 159 197 245 303 359
#     4  10  21  39  63  89 119 156 200 248 299 362
#     4  10  22  39  63  88 117 159 200 247 306 361
#     4  10  21  39  59  87 122 154 198 248 296 356
#     4  10  24  40  60  88 120 162 200 246 302 358
#
# _framework density 19.837952999999999
#
# number of rings (size 3 to 8) (size 9 to 14) (size 15 to 20)
#    0.000    1.867    0.000    2.800    0.000   10.667 
#    0.000   10.667    0.000    0.000    0.000    0.000 
#    0.000    0.000    0.000    0.000    0.000    0.000 
#
# Total GULP energy -167622.886705 kJ/mol
# GULP energy per Si atom -5587.429557 kJ/mol
# Density = 1.979280 g / cm^3
# Si number density = 19.837953 Si / 1000 Ang^3
#
#
#
# Elastic Constant Matrix: (Units=GPa)
#
#
# Indices 1 2 3 4 5 6 
#
# 1 100.1609 35.9279 64.1914 0.0000 0.0000 0.0000
# 2 35.9279 96.8968 55.3718 0.0000 0.0000 0.0000
# 3 64.1914 55.3718 136.7849 0.0000 0.0000 0.0000
# 4 0.0000 0.0000 0.0000 15.4135 0.0000 0.0000
# 5 0.0000 0.0000 0.0000 0.0000 25.8043 0.0000
# 6 0.0000 0.0000 0.0000 0.0000 0.0000 2.0515
#
#
#
# Elastic Compliance Matrix: (Units=1/GPa)
#
#
# Indices 1 2 3 4 5 6 
#
# 1 0.014554 -0.001943 -0.006044 0.000000 0.000000 0.000000
# 2 -0.001943 0.013685 -0.004628 0.000000 0.000000 0.000000
# 3 -0.006044 -0.004628 0.012020 0.000000 0.000000 0.000000
# 4 0.000000 0.000000 0.000000 0.064878 0.000000 0.000000
# 5 0.000000 0.000000 0.000000 0.000000 0.038753 0.000000
# 6 0.000000 0.000000 0.000000 0.000000 0.000000 0.487441
#
#
# Mechanical properties :
#
#
# Convention : Reuss Voigt Hill
#
# Bulk Modulus (GPa) = 66.53052 71.64719 69.08885
# Shear Modulus (GPa) = 7.55776 20.54397 14.05087
#
# Velocity S-wave (km/s) = 1.95397 3.22155 2.66424
# Velocity P-wave (km/s) = 6.22097 7.07336 6.66082
#
# Compressibility (1/GPa) = 0.01503070
#
# Stress axis : x y z
#
# Youngs Moduli (GPa) = 68.70944 73.07030 83.19148
#
# Poissons Ratio (x) = 0.14196 0.50277
# Poissons Ratio (y) = 0.13349 0.38503
# Poissons Ratio (z) = 0.41525 0.33819
#
# Static dielectric constant tensor:
#      x y z
#    x 1.696350 0.000000 0.000000 
#    y 0.000000 1.680900 0.000000 
#    z 0.000000 0.000000 1.675560 
# 
# From -- ./inp_files/4677.got.cif
#   From: 2010.05.17/outbox.cif.g08.bks.cpg/sg45_3_cif.got.tgz:4677.got - 2010.06.03 19:51:22.
