data_PCOD9376322
_publ_section_title
;
Structure prediction by ZEFSAII (Michael W. Deem and Ramdas Pophale) SiO2 
 PCOD9376322
Probable space group: I B A 2
;
_chemical_formula_sum "Si O2"
_cell_formula_units_Z 44
_cell_length_a 22.831586
_cell_length_b 8.856017
_cell_length_c 8.850639
_cell_angle_alpha 90.000000
_cell_angle_beta 90.000000
_cell_angle_gamma 90.000000
_cell_volume 1789.571891
_symmetry_space_group_name_H-M "I B A 2"
_symmetry_group_IT_number 45
_symmetry_cell_setting 'orthorhombic'
loop_
_space_group_symop_operation_xyz
x,y,z
-x,-y,z
-x,y,1/2+z
x,-y,1/2+z
1/2+x,1/2+y,1/2+z
1/2-x,1/2-y,1/2+z
1/2-x,1/2+y,z
1/2+x,1/2-y,z
loop_
_atom_site_type_symbol
_atom_site_label
_atom_site_fract_x
_atom_site_fract_y
_atom_site_fract_z
Si Si1 0.387092 0.169339 0.419560
Si Si2 0.000000 0.500000 0.981067
Si Si3 0.808019 0.099656 0.839488
Si Si4 0.429107 0.386722 0.686998
Si Si5 0.772176 0.205257 0.507697
Si Si6 0.047684 0.213171 0.664101
O O1 0.410043 0.271776 0.557059
O O2 0.319099 0.159928 0.465305
O O3 0.395040 0.248705 0.259441
O O4 0.438779 0.045503 0.400852
O O5 0.975554 0.355720 0.072773
O O6 0.876458 0.101769 0.803082
O O7 0.778351 0.149689 0.679911
O O8 0.789615 0.224810 0.962023
O O9 0.788913 0.937096 0.902589
O O10 0.439037 0.546429 0.603622
O O11 0.489060 0.327569 0.762150
#
# Coordination Sequence:
#
# PCOD9376322 Si02
#       6
#     8   4   8   8   8   8
#     4  10  21  42  62  97 132 177 224 280 336 411
#     4  10  22  38  60 100 140 170 218 276 340 412
#     4  11  23  48  67 103 135 183 232 293 338 416
#     4   9  21  38  66  94 130 177 233 269 335 407
#     4  11  24  46  73  97 141 180 239 284 353 401
#     4  10  19  39  63  94 132 175 215 274 337 403
#
# _framework density 24.586884999999999
#
# number of rings (size 3 to 8) (size 9 to 14) (size 15 to 20)
#    0.000    1.818    1.818    1.636    0.000    5.818 
#   16.364    0.000    0.000    0.000    0.000    0.000 
#    0.000    0.000    0.000    0.000    0.000    0.000 
#
# Total GULP energy -122695.438383 kJ/mol
# GULP energy per Si atom -5577.065381 kJ/mol
# Density = 2.453092 g / cm^3
# Si number density = 24.586885 Si / 1000 Ang^3
#
#
#
# Elastic Constant Matrix: (Units=GPa)
#
#
# Indices 1 2 3 4 5 6 
#
# 1 57.8271 26.4151 31.8098 0.0000 0.0000 0.0000
# 2 26.4151 42.7908 10.6912 0.0000 0.0000 0.0000
# 3 31.8098 10.6912 71.9043 0.0000 0.0000 0.0000
# 4 0.0000 0.0000 0.0000 18.0829 0.0000 0.0000
# 5 0.0000 0.0000 0.0000 0.0000 29.5551 0.0000
# 6 0.0000 0.0000 0.0000 0.0000 0.0000 30.5116
#
#
#
# Elastic Compliance Matrix: (Units=1/GPa)
#
#
# Indices 1 2 3 4 5 6 
#
# 1 0.030920 -0.016274 -0.011259 0.000000 0.000000 0.000000
# 2 -0.016274 0.032837 0.002317 0.000000 0.000000 0.000000
# 3 -0.011259 0.002317 0.018544 0.000000 0.000000 0.000000
# 4 0.000000 0.000000 0.000000 0.055301 0.000000 0.000000
# 5 0.000000 0.000000 0.000000 0.000000 0.033835 0.000000
# 6 0.000000 0.000000 0.000000 0.000000 0.000000 0.032774
#
#
# Mechanical properties :
#
#
# Convention : Reuss Voigt Hill
#
# Bulk Modulus (GPa) = 31.37895 34.48383 32.93139
# Shear Modulus (GPa) = 18.84896 22.53700 20.69298
#
# Velocity S-wave (km/s) = 2.77181 3.03087 2.90423
# Velocity P-wave (km/s) = 4.79938 5.12874 4.96679
#
# Compressibility (1/GPa) = 0.03186850
#
# Stress axis : x y z
#
# Youngs Moduli (GPa) = 32.34114 30.45368 53.92650
#
# Poissons Ratio (x) = 0.49561 0.60716
# Poissons Ratio (y) = 0.52633 -0.12496
# Poissons Ratio (z) = 0.36413 -0.07057
#
# Static dielectric constant tensor:
#      x y z
#    x 1.997650 0.000000 0.000000 
#    y 0.000000 2.038750 0.000000 
#    z 0.000000 0.000000 1.977270 
# 
# From -- ./inp_files/3243.got.cif
#   From: 2010.05.17/outbox.cif.g08.bks.cpg/sg45_2_cif.got.tgz:3243.got - 2010.06.03 19:51:22.
