data_PCOD9376301
_publ_section_title
;
Structure prediction by ZEFSAII (Michael W. Deem and Ramdas Pophale) SiO2 
 PCOD9376301
Probable space group: I B A 2
;
_chemical_formula_sum "Si O2"
_cell_formula_units_Z 64
_cell_length_a 12.535038
_cell_length_b 14.713293
_cell_length_c 13.771842
_cell_angle_alpha 90.000000
_cell_angle_beta 90.000000
_cell_angle_gamma 90.000000
_cell_volume 2539.964051
_symmetry_space_group_name_H-M "I B A 2"
_symmetry_group_IT_number 45
_symmetry_cell_setting 'orthorhombic'
loop_
_space_group_symop_operation_xyz
x,y,z
-x,-y,z
-x,y,1/2+z
x,-y,1/2+z
1/2+x,1/2+y,1/2+z
1/2-x,1/2-y,1/2+z
1/2-x,1/2+y,z
1/2+x,1/2-y,z
loop_
_atom_site_type_symbol
_atom_site_label
_atom_site_fract_x
_atom_site_fract_y
_atom_site_fract_z
Si Si1 0.807566 0.254761 0.103130
Si Si2 0.622793 0.198364 0.254887
Si Si3 0.598135 0.434417 0.017011
Si Si4 0.574529 0.916135 0.588981
Si Si5 0.730676 0.450363 0.841141
Si Si6 0.239703 0.551280 0.162761
Si Si7 0.356624 0.233846 0.449179
Si Si8 0.566989 0.686640 0.264169
O O1 0.709912 0.230658 0.176306
O O2 0.819262 0.362240 0.117286
O O3 0.905436 0.201592 0.150888
O O4 0.761807 0.232930 0.996835
O O5 0.544563 0.136835 0.188026
O O6 0.680965 0.129573 0.328914
O O7 0.553612 0.284472 0.288070
O O8 0.500000 0.500000 0.999713
O O9 0.697232 0.468338 0.950213
O O10 0.590353 0.328687 0.986950
O O11 0.639327 0.439802 0.126506
O O12 0.583159 0.849406 0.498374
O O13 0.500000 0.000000 0.567785
O O14 0.687884 0.959989 0.619715
O O15 0.765646 0.535857 0.777715
O O16 0.621367 0.408113 0.794242
O O17 0.367336 0.242332 0.333982
#
# Coordination Sequence:
#
# PCOD9376301 Si02
#       8
#     8   8   8   8   8   8   8   8
#     4   9  19  37  56  82 122 157 200 254 304 363
#     4   9  19  36  58  85 118 157 201 248 299 363
#     4  10  22  40  60  87 119 155 200 244 299 366
#     4  10  20  37  58  84 119 159 201 244 303 366
#     4   9  21  38  57  88 122 147 195 256 297 354
#     4  10  21  36  56  84 118 155 194 248 302 353
#     4   9  21  39  57  88 123 151 200 258 298 357
#     4  10  19  37  62  84 114 163 204 242 310 374
#
# _framework density 25.197206000000001
#
# number of rings (size 3 to 8) (size 9 to 14) (size 15 to 20)
#    0.000    2.500    0.000    1.500    0.000    7.500 
#    0.000   16.875    0.000    0.000    0.000    0.000 
#    0.000    0.000    0.000    0.000    0.000    0.000 
#
# Total GULP energy -178714.112947 kJ/mol
# GULP energy per Si atom -5584.816030 kJ/mol
# Density = 2.513986 g / cm^3
# Si number density = 25.197206 Si / 1000 Ang^3
#
#
#
# Elastic Constant Matrix: (Units=GPa)
#
#
# Indices 1 2 3 4 5 6 
#
# 1 67.4190 7.7273 3.1712 0.0000 0.0000 0.0000
# 2 7.7273 81.2810 0.6025 0.0000 0.0000 0.0000
# 3 3.1712 0.6025 76.2286 0.0000 0.0000 0.0000
# 4 0.0000 0.0000 0.0000 38.4247 0.0000 0.0000
# 5 0.0000 0.0000 0.0000 0.0000 26.4486 0.0000
# 6 0.0000 0.0000 0.0000 0.0000 0.0000 34.7465
#
#
#
# Elastic Compliance Matrix: (Units=1/GPa)
#
#
# Indices 1 2 3 4 5 6 
#
# 1 0.015025 -0.001424 -0.000614 0.000000 0.000000 0.000000
# 2 -0.001424 0.012439 -0.000039 0.000000 0.000000 0.000000
# 3 -0.000614 -0.000039 0.013144 0.000000 0.000000 0.000000
# 4 0.000000 0.000000 0.000000 0.026025 0.000000 0.000000
# 5 0.000000 0.000000 0.000000 0.000000 0.037809 0.000000
# 6 0.000000 0.000000 0.000000 0.000000 0.000000 0.028780
#
#
# Mechanical properties :
#
#
# Convention : Reuss Voigt Hill
#
# Bulk Modulus (GPa) = 27.43166 27.54783 27.48974
# Shear Modulus (GPa) = 33.43892 34.15248 33.79570
#
# Velocity S-wave (km/s) = 3.64687 3.68558 3.66628
# Velocity P-wave (km/s) = 5.35195 5.39147 5.37175
#
# Compressibility (1/GPa) = 0.03645423
#
# Stress axis : x y z
#
# Youngs Moduli (GPa) = 66.55718 80.39460 76.07869
#
# Poissons Ratio (x) = 0.11447 0.04670
# Poissons Ratio (y) = 0.09477 0.00297
# Poissons Ratio (z) = 0.04085 0.00314
#
# Static dielectric constant tensor:
#      x y z
#    x 2.064380 0.000000 0.000000 
#    y 0.000000 2.022310 0.000000 
#    z 0.000000 0.000000 2.003660 
# 
# From -- ./inp_files/6290.got.cif
#   From: 2010.05.17/outbox.cif.g08.bks.cpg/sg45_4_cif.got.tgz:6290.got - 2010.06.03 19:51:22.
