data_PCOD9376296
_publ_section_title
;
Structure prediction by ZEFSAII (Michael W. Deem and Ramdas Pophale) SiO2 
 PCOD9376296
Probable space group: I B A 2
;
_chemical_formula_sum "Si O2"
_cell_formula_units_Z 60
_cell_length_a 13.046909
_cell_length_b 24.615286
_cell_length_c 8.694343
_cell_angle_alpha 90.000000
_cell_angle_beta 90.000000
_cell_angle_gamma 90.000000
_cell_volume 2792.217784
_symmetry_space_group_name_H-M "I B A 2"
_symmetry_group_IT_number 45
_symmetry_cell_setting 'orthorhombic'
loop_
_space_group_symop_operation_xyz
x,y,z
-x,-y,z
-x,y,1/2+z
x,-y,1/2+z
1/2+x,1/2+y,1/2+z
1/2-x,1/2-y,1/2+z
1/2-x,1/2+y,z
1/2+x,1/2-y,z
loop_
_atom_site_type_symbol
_atom_site_label
_atom_site_fract_x
_atom_site_fract_y
_atom_site_fract_z
Si Si1 0.933072 0.716351 0.477880
Si Si2 0.372245 0.441911 0.086113
Si Si3 0.021244 0.364009 0.735038
Si Si4 0.583831 0.340663 0.804400
Si Si5 0.262405 0.721276 0.607459
Si Si6 0.500000 0.500000 0.831335
Si Si7 0.591613 0.302867 0.116916
Si Si8 0.343785 0.893181 0.021487
O O1 0.919012 0.667760 0.601163
O O2 0.835358 0.754265 0.477300
O O3 0.963485 0.684590 0.325765
O O4 0.023029 0.756204 0.534202
O O5 0.395193 0.387714 0.182459
O O6 0.406231 0.485014 0.217067
O O7 0.253251 0.434087 0.035609
O O8 0.449011 0.454674 0.943970
O O9 0.932647 0.399598 0.651927
O O10 0.096489 0.392273 0.858050
O O11 0.662977 0.294813 0.747667
O O12 0.468690 0.323582 0.764065
O O13 0.601625 0.348580 0.984507
O O14 0.194033 0.772096 0.651164
O O15 0.201674 0.667778 0.551703
#
# Coordination Sequence:
#
# PCOD9376296 Si02
#       8
#     8   8   8   8   8   4   8   8
#     4  10  20  31  47  73 110 169 231 240 299 326
#     4  10  22  45  67 101 119 159 194 267 337 406
#     4  10  19  37  52  78 118 171 203 268 284 360
#     4  10  23  35  52  84 120 154 208 255 291 360
#     4  10  21  28  49  76 114 168 211 249 280 333
#     4  10  22  46  80  92 126 146 192 258 362 424
#     4  11  20  33  49  74 122 166 206 255 283 333
#     4  10  22  37  60  85 130 159 219 254 308 356
#
# _framework density 21.488298
#
# number of rings (size 3 to 8) (size 9 to 14) (size 15 to 20)
#    0.000    1.867    2.667    2.400    3.733    1.067 
#    4.800    4.000    0.000    2.400    0.000    0.000 
#    0.000    0.000    0.000    0.000    0.000    0.000 
#
# Total GULP energy -167329.994336 kJ/mol
# GULP energy per Si atom -5577.666478 kJ/mol
# Density = 2.143939 g / cm^3
# Si number density = 21.488298 Si / 1000 Ang^3
#
#
#
# Elastic Constant Matrix: (Units=GPa)
#
#
# Indices 1 2 3 4 5 6 
#
# 1 116.3210 30.6120 42.2819 -0.0002 -0.0003 0.0000
# 2 30.6120 32.1421 18.5381 -0.0005 -0.0001 0.0001
# 3 42.2819 18.5381 121.3548 -0.0042 -0.0009 0.0005
# 4 -0.0002 -0.0005 -0.0042 21.2860 0.0004 0.0001
# 5 -0.0003 -0.0001 -0.0009 0.0004 26.0571 -0.0001
# 6 0.0000 0.0001 0.0005 0.0001 -0.0001 33.8773
#
#
#
# Elastic Compliance Matrix: (Units=1/GPa)
#
#
# Indices 1 2 3 4 5 6 
#
# 1 0.012242 -0.010088 -0.002724 -0.000001 0.000000 0.000000
# 2 -0.010088 0.042431 -0.002967 0.000000 0.000000 0.000000
# 3 -0.002724 -0.002967 0.009643 0.000002 0.000000 0.000000
# 4 -0.000001 0.000000 0.000002 0.046979 -0.000001 0.000000
# 5 0.000000 0.000000 0.000000 -0.000001 0.038377 0.000000
# 6 0.000000 0.000000 0.000000 0.000000 0.000000 0.029518
#
#
# Mechanical properties :
#
#
# Convention : Reuss Voigt Hill
#
# Bulk Modulus (GPa) = 30.52767 50.29798 40.41283
# Shear Modulus (GPa) = 22.55629 28.13646 25.34638
#
# Velocity S-wave (km/s) = 3.24342 3.62247 3.43817
# Velocity P-wave (km/s) = 5.31638 6.39956 5.88295
#
# Compressibility (1/GPa) = 0.03275717
#
# Stress axis : x y z
#
# Youngs Moduli (GPa) = 81.68615 23.56781 103.70543
#
# Poissons Ratio (x) = 0.23775 0.28252
# Poissons Ratio (y) = 0.82405 0.30768
# Poissons Ratio (z) = 0.22253 0.06992
#
# Static dielectric constant tensor:
#      x y z
#    x 1.827940 0.000000 0.000000 
#    y 0.000000 1.807990 0.000000 
#    z 0.000000 0.000000 1.855450 
# 
# From -- ./inp_files/1441.got.cif
#   From: 2010.05.17/outbox.cif.g08.bks.cpg/sg45_1_cif.got.tgz:1441.got - 2010.06.03 19:51:22.
