data_PCOD9376888
_publ_section_title
;
Structure prediction by ZEFSAII (Michael W. Deem and Ramdas Pophale) SiO2 
 PCOD9376888
Probable space group: I B A 2
;
_chemical_formula_sum "Si O2"
_cell_formula_units_Z 40
_cell_length_a 15.780707
_cell_length_b 10.861049
_cell_length_c 9.408935
_cell_angle_alpha 90.000000
_cell_angle_beta 90.000000
_cell_angle_gamma 90.000000
_cell_volume 1612.644715
_symmetry_space_group_name_H-M "I B A 2"
_symmetry_group_IT_number 45
_symmetry_cell_setting 'orthorhombic'
loop_
_space_group_symop_operation_xyz
x,y,z
-x,-y,z
-x,y,1/2+z
x,-y,1/2+z
1/2+x,1/2+y,1/2+z
1/2-x,1/2-y,1/2+z
1/2-x,1/2+y,z
1/2+x,1/2-y,z
loop_
_atom_site_type_symbol
_atom_site_label
_atom_site_fract_x
_atom_site_fract_y
_atom_site_fract_z
Si Si1 0.094401 0.993158 0.611740
Si Si2 0.505182 0.857081 0.276029
Si Si3 0.407090 0.747955 0.513128
Si Si4 0.769930 0.828723 0.705725
Si Si5 0.155374 0.262480 0.977655
O O1 0.122466 0.864751 0.546673
O O2 0.911945 0.899099 0.491579
O O3 0.169261 0.051110 0.708171
O O4 0.000000 0.000000 0.678133
O O5 0.424332 0.815078 0.367357
O O6 0.522473 0.786570 0.130064
O O7 0.582966 0.824545 0.381699
O O8 0.500000 0.000000 0.245678
O O9 0.322754 0.767053 0.605543
O O10 0.771865 0.770741 0.860700
O O11 0.688469 0.846993 0.606976
#
# Coordination Sequence:
#
# PCOD9376888 Si02
#       5
#     8   8   8   8   8
#     4  10  21  43  72  97 133 173 239 296 331 414
#     4  11  22  41  68  96 138 178 226 286 345 421
#     4   9  22  42  63 101 125 177 233 274 352 396
#     4   9  24  39  63  99 135 175 221 281 353 411
#     4  11  22  44  66 102 137 181 230 284 359 418
#
# _framework density 24.803975999999999
#
# number of rings (size 3 to 8) (size 9 to 14) (size 15 to 20)
#    1.200    0.800    2.000    0.600    0.000    7.200 
#    0.000    4.000    0.000    0.000    0.000    0.000 
#    0.000    0.000    0.000    0.000    0.000    0.000 
#
# Total GULP energy -111613.346754 kJ/mol
# GULP energy per Si atom -5580.667338 kJ/mol
# Density = 2.474752 g / cm^3
# Si number density = 24.803976 Si / 1000 Ang^3
#
#
#
# Elastic Constant Matrix: (Units=GPa)
#
#
# Indices 1 2 3 4 5 6 
#
# 1 54.5683 12.7983 50.2978 0.0000 0.0000 0.0000
# 2 12.7983 91.8106 13.7938 0.0000 0.0000 0.0000
# 3 50.2978 13.7938 143.7231 0.0000 0.0000 0.0000
# 4 0.0000 0.0000 0.0000 26.0204 0.0000 0.0000
# 5 0.0000 0.0000 0.0000 0.0000 48.7562 0.0000
# 6 0.0000 0.0000 0.0000 0.0000 0.0000 18.5258
#
#
#
# Elastic Compliance Matrix: (Units=1/GPa)
#
#
# Indices 1 2 3 4 5 6 
#
# 1 0.027576 -0.002429 -0.009417 0.000000 0.000000 0.000000
# 2 -0.002429 0.011265 -0.000231 0.000000 0.000000 0.000000
# 3 -0.009417 -0.000231 0.010276 0.000000 0.000000 0.000000
# 4 0.000000 0.000000 0.000000 0.038431 0.000000 0.000000
# 5 0.000000 0.000000 0.000000 0.000000 0.020510 0.000000
# 6 0.000000 0.000000 0.000000 0.000000 0.000000 0.053979
#
#
# Mechanical properties :
#
#
# Convention : Reuss Voigt Hill
#
# Bulk Modulus (GPa) = 40.06148 49.32020 44.69084
# Shear Modulus (GPa) = 25.70524 32.87462 29.28993
#
# Velocity S-wave (km/s) = 3.22271 3.64452 3.44009
# Velocity P-wave (km/s) = 5.48034 6.13492 5.81684
#
# Compressibility (1/GPa) = 0.02496163
#
# Stress axis : x y z
#
# Youngs Moduli (GPa) = 36.26375 88.76794 97.31663
#
# Poissons Ratio (x) = 0.21563 0.91647
# Poissons Ratio (y) = 0.08809 0.02249
# Poissons Ratio (z) = 0.34151 0.02051
#
# Static dielectric constant tensor:
#      x y z
#    x 2.130040 0.000000 0.000000 
#    y 0.000000 1.887070 0.000000 
#    z 0.000000 0.000000 1.886720 
# 
# From -- ./inp_files/1246.got.cif
#   From: 2010.05.17/outbox.cif.g08.bks.cpg/sg45_1_cif.got.tgz:1246.got - 2010.06.03 19:51:22.
