data_PCOD9376361
_publ_section_title
;
Structure prediction by ZEFSAII (Michael W. Deem and Ramdas Pophale) SiO2 
 PCOD9376361
Probable space group: I B A 2
;
_chemical_formula_sum "Si O2"
_cell_formula_units_Z 52
_cell_length_a 27.231992
_cell_length_b 5.503808
_cell_length_c 13.111562
_cell_angle_alpha 90.000000
_cell_angle_beta 90.000000
_cell_angle_gamma 90.000000
_cell_volume 1965.156395
_symmetry_space_group_name_H-M "I B A 2"
_symmetry_group_IT_number 45
_symmetry_cell_setting 'orthorhombic'
loop_
_space_group_symop_operation_xyz
x,y,z
-x,-y,z
-x,y,1/2+z
x,-y,1/2+z
1/2+x,1/2+y,1/2+z
1/2-x,1/2-y,1/2+z
1/2-x,1/2+y,z
1/2+x,1/2-y,z
loop_
_atom_site_type_symbol
_atom_site_label
_atom_site_fract_x
_atom_site_fract_y
_atom_site_fract_z
Si Si1 0.765032 0.651036 0.852110
Si Si2 0.371142 0.654987 0.899180
Si Si3 0.112482 0.369478 0.634992
Si Si4 0.587774 0.364469 0.112489
Si Si5 0.729804 0.117498 0.617298
Si Si6 0.500000 0.500000 0.464272
Si Si7 0.079298 0.344172 0.399802
O O1 0.768211 0.374280 0.891885
O O2 0.818805 0.766561 0.858867
O O3 0.750082 0.614758 0.733871
O O4 0.385015 0.380232 0.870148
O O5 0.407280 0.880023 0.868731
O O6 0.370346 0.649065 0.024088
O O7 0.091215 0.621172 0.678012
O O8 0.171018 0.378934 0.626018
O O9 0.089049 0.364471 0.522100
O O10 0.095797 0.108816 0.675611
O O11 0.539624 0.383814 0.041764
O O12 0.750936 0.365827 0.571601
O O13 0.473972 0.710722 0.397248
#
# Coordination Sequence:
#
# PCOD9376361 Si02
#       7
#     8   8   8   8   8   4   8
#     4  10  20  33  49  66  88 123 163 194 220 262
#     4   9  17  31  44  68  95 116 151 188 227 270
#     4   9  17  31  44  68  95 116 151 188 227 270
#     4   9  18  29  48  70  94 119 145 184 230 275
#     4  10  20  33  49  66  88 123 163 194 220 262
#     4   8  16  30  48  74  94 118 152 178 220 284
#     4   9  18  29  48  70  94 119 145 184 230 275
#
# _framework density 26.460999000000001
#
# number of rings (size 3 to 8) (size 9 to 14) (size 15 to 20)
#    0.000    3.077    0.000    1.846    0.000    9.846 
#    0.000   18.462    0.000    0.000    0.000   35.538 
#    0.000    0.000    0.000    0.000    0.000    0.000 
#
# Total GULP energy -145255.682421 kJ/mol
# GULP energy per Si atom -5586.757016 kJ/mol
# Density = 2.640077 g / cm^3
# Si number density = 26.460999 Si / 1000 Ang^3
#
#
#
# Elastic Constant Matrix: (Units=GPa)
#
#
# Indices 1 2 3 4 5 6 
#
# 1 101.2461 46.2680 -39.3826 0.0000 0.0000 0.0000
# 2 46.2680 271.4406 26.1220 0.0000 0.0000 0.0000
# 3 -39.3826 26.1220 55.5631 0.0000 0.0000 0.0000
# 4 0.0000 0.0000 0.0000 54.5943 0.0000 0.0000
# 5 0.0000 0.0000 0.0000 0.0000 -116.3806 0.0000
# 6 0.0000 0.0000 0.0000 0.0000 0.0000 35.5665
#
#
#
# Elastic Compliance Matrix: (Units=1/GPa)
#
#
# Indices 1 2 3 4 5 6 
#
# 1 0.017501 -0.004375 0.014462 0.000000 0.000000 0.000000
# 2 -0.004375 0.004952 -0.005429 0.000000 0.000000 0.000000
# 3 0.014462 -0.005429 0.030800 0.000000 0.000000 0.000000
# 4 0.000000 0.000000 0.000000 0.018317 0.000000 0.000000
# 5 0.000000 0.000000 0.000000 0.000000 -0.008592 0.000000
# 6 0.000000 0.000000 0.000000 0.000000 0.000000 0.028116
#
#
# Mechanical properties :
#
#
# Convention : Reuss Voigt Hill
#
# Bulk Modulus (GPa) = 15.98230 54.91829 35.45029
# Shear Modulus (GPa) = 48.71594 21.10552 34.91073
#
# Velocity S-wave (km/s) = 4.29540 2.82726 3.63620
# Velocity P-wave (km/s) = 5.53657 5.60869 5.57275
#
# Compressibility (1/GPa) = 0.06256923
#
# Stress axis : x y z
#
# Youngs Moduli (GPa) = 57.13808 201.92919 32.46730
#
# Poissons Ratio (x) = 0.88342 -0.46953
# Poissons Ratio (y) = 0.24997 0.17627
# Poissons Ratio (z) = -0.82631 1.09629
#
# Static dielectric constant tensor:
#      x y z
#    x 2.043570 0.000000 0.000000 
#    y 0.000000 2.203880 0.000000 
#    z 0.000000 0.000000 2.143440 
# 
# From -- ./inp_files/8526.got.cif
#   From: 2010.05.17/outbox.cif.g08.bks.cpg/sg45_5_cif.got.tgz:8526.got - 2010.06.03 19:51:22.
