data_PCOD9376674
_publ_section_title
;
Structure prediction by ZEFSAII (Michael W. Deem and Ramdas Pophale) SiO2 
 PCOD9376674
Probable space group: I B A 2
;
_chemical_formula_sum "Si O2"
_cell_formula_units_Z 40
_cell_length_a 14.326736
_cell_length_b 18.122501
_cell_length_c 7.015719
_cell_angle_alpha 90.000000
_cell_angle_beta 90.000000
_cell_angle_gamma 90.000000
_cell_volume 1821.535235
_symmetry_space_group_name_H-M "I B A 2"
_symmetry_group_IT_number 45
_symmetry_cell_setting 'orthorhombic'
loop_
_space_group_symop_operation_xyz
x,y,z
-x,-y,z
-x,y,1/2+z
x,-y,1/2+z
1/2+x,1/2+y,1/2+z
1/2-x,1/2-y,1/2+z
1/2-x,1/2+y,z
1/2+x,1/2-y,z
loop_
_atom_site_type_symbol
_atom_site_label
_atom_site_fract_x
_atom_site_fract_y
_atom_site_fract_z
Si Si1 0.435971 0.736923 0.169050
Si Si2 0.871279 0.555237 0.792229
Si Si3 0.922933 0.601234 0.204990
Si Si4 0.769202 0.845271 0.094284
Si Si5 0.860717 0.780063 0.762077
O O1 0.420351 0.814575 0.276018
O O2 0.362679 0.672838 0.216418
O O3 0.541060 0.706361 0.158000
O O4 0.402163 0.756775 0.954911
O O5 0.880428 0.467528 0.818611
O O6 0.783557 0.584580 0.675556
O O7 0.966617 0.582993 0.690377
O O8 0.875102 0.590570 0.000775
O O9 0.703280 0.774645 0.141834
O O10 0.799660 0.843057 0.870495
#
# Coordination Sequence:
#
# PCOD9376674 Si02
#       5
#     8   8   8   8   8
#     4  10  21  37  56  86 123 164 198 262 310 380
#     4  11  21  36  55  91 122 166 200 252 322 387
#     4  11  20  35  58  84 130 160 197 254 319 382
#     4  10  22  36  57  88 123 161 209 257 311 389
#     4  10  22  34  61  80 129 152 213 249 317 369
#
# _framework density 21.959500999999999
#
# number of rings (size 3 to 8) (size 9 to 14) (size 15 to 20)
#    1.200    0.400    4.000    2.400    2.800    3.200 
#    0.000    0.000    0.000    0.000    0.000   11.200 
#    0.000    0.000    0.000    0.000    0.000    0.000 
#
# Total GULP energy -111403.437167 kJ/mol
# GULP energy per Si atom -5570.171858 kJ/mol
# Density = 2.190952 g / cm^3
# Si number density = 21.959501 Si / 1000 Ang^3
#
#
#
# Elastic Constant Matrix: (Units=GPa)
#
#
# Indices 1 2 3 4 5 6 
#
# 1 140.9641 20.4655 22.9135 0.0000 0.0000 0.0000
# 2 20.4655 52.1109 17.1321 0.0000 0.0000 0.0000
# 3 22.9135 17.1321 56.7021 0.0000 0.0000 0.0000
# 4 0.0000 0.0000 0.0000 26.8229 0.0000 0.0000
# 5 0.0000 0.0000 0.0000 0.0000 39.4722 0.0000
# 6 0.0000 0.0000 0.0000 0.0000 0.0000 40.1232
#
#
#
# Elastic Compliance Matrix: (Units=1/GPa)
#
#
# Indices 1 2 3 4 5 6 
#
# 1 0.007825 -0.002258 -0.002480 0.000000 0.000000 0.000000
# 2 -0.002258 0.021958 -0.005722 0.000000 0.000000 0.000000
# 3 -0.002480 -0.005722 0.020367 0.000000 0.000000 0.000000
# 4 0.000000 0.000000 0.000000 0.037282 0.000000 0.000000
# 5 0.000000 0.000000 0.000000 0.000000 0.025334 0.000000
# 6 0.000000 0.000000 0.000000 0.000000 0.000000 0.024923
#
#
# Mechanical properties :
#
#
# Convention : Reuss Voigt Hill
#
# Bulk Modulus (GPa) = 34.21106 41.19993 37.70550
# Shear Modulus (GPa) = 29.69977 33.90139 31.80058
#
# Velocity S-wave (km/s) = 3.68160 3.93340 3.80958
# Velocity P-wave (km/s) = 5.80389 6.27944 6.04634
#
# Compressibility (1/GPa) = 0.02923031
#
# Stress axis : x y z
#
# Youngs Moduli (GPa) = 127.79716 45.54208 49.09896
#
# Poissons Ratio (x) = 0.10282 0.12176
# Poissons Ratio (y) = 0.28854 0.28094
# Poissons Ratio (z) = 0.31692 0.26059
#
# Static dielectric constant tensor:
#      x y z
#    x 1.897560 0.000000 0.000000 
#    y 0.000000 1.790890 0.000000 
#    z 0.000000 0.000000 1.956800 
# 
# From -- ./inp_files/1758.got.cif
#   From: 2010.05.17/outbox.cif.g08.bks.cpg/sg45_1_cif.got.tgz:1758.got - 2010.06.03 19:51:22.
