data_PCOD9376324
_publ_section_title
;
Structure prediction by ZEFSAII (Michael W. Deem and Ramdas Pophale) SiO2 
 PCOD9376324
Probable space group: I B A 2
;
_chemical_formula_sum "Si O2"
_cell_formula_units_Z 60
_cell_length_a 8.903519
_cell_length_b 13.736402
_cell_length_c 18.991829
_cell_angle_alpha 90.000000
_cell_angle_beta 90.000000
_cell_angle_gamma 90.000000
_cell_volume 2322.744676
_symmetry_space_group_name_H-M "I B A 2"
_symmetry_group_IT_number 45
_symmetry_cell_setting 'orthorhombic'
loop_
_space_group_symop_operation_xyz
x,y,z
-x,-y,z
-x,y,1/2+z
x,-y,1/2+z
1/2+x,1/2+y,1/2+z
1/2-x,1/2-y,1/2+z
1/2-x,1/2+y,z
1/2+x,1/2-y,z
loop_
_atom_site_type_symbol
_atom_site_label
_atom_site_fract_x
_atom_site_fract_y
_atom_site_fract_z
Si Si1 0.493803 0.890622 0.940160
Si Si2 0.031715 0.330774 0.582312
Si Si3 0.651678 0.378630 0.394190
Si Si4 0.655820 0.225190 0.717301
Si Si5 0.877436 0.318467 0.809876
Si Si6 0.162108 0.960551 0.744510
Si Si7 0.000000 0.000000 0.511154
Si Si8 0.713569 0.972169 0.611921
O O1 0.321932 0.866294 0.922064
O O2 0.596530 0.895735 0.871066
O O3 0.500000 0.000000 0.970666
O O4 0.553699 0.816581 0.999578
O O5 0.092560 0.254307 0.639297
O O6 0.118404 0.429818 0.600887
O O7 0.861612 0.369185 0.591924
O O8 0.600797 0.280553 0.355550
O O9 0.667143 0.454245 0.328588
O O10 0.539250 0.414062 0.455115
O O11 0.719829 0.306594 0.769971
O O12 0.515752 0.174714 0.756188
O O13 0.794764 0.148548 0.717592
O O14 0.268565 0.025849 0.696280
O O15 0.000000 0.000000 0.724767
O O16 0.141756 0.004936 0.563743
#
# Coordination Sequence:
#
# PCOD9376324 Si02
#       8
#     8   8   8   8   8   8   4   8
#     4  12  23  46  77 108 145 202 256 318 390 466
#     4  10  21  44  65 102 145 185 251 312 376 448
#     4  11  24  42  67 108 151 191 257 309 388 453
#     4  10  24  46  67  96 149 202 244 308 375 456
#     4  11  24  49  67 103 153 195 256 309 382 470
#     4  10  19  39  65 102 137 185 246 301 370 443
#     4  12  20  38  72 112 144 198 252 312 386 468
#     4  10  20  37  66 104 145 182 244 316 368 447
#
# _framework density 25.831510000000002
#
# number of rings (size 3 to 8) (size 9 to 14) (size 15 to 20)
#    0.000    1.333    6.667    0.000    0.000    3.200 
#    7.200    2.667    0.000    0.000    0.000    0.000 
#    0.000    0.000    0.000    0.000    0.000    0.000 
#
# Total GULP energy -167566.280892 kJ/mol
# GULP energy per Si atom -5585.542696 kJ/mol
# Density = 2.577272 g / cm^3
# Si number density = 25.831510 Si / 1000 Ang^3
#
#
#
# Elastic Constant Matrix: (Units=GPa)
#
#
# Indices 1 2 3 4 5 6 
#
# 1 97.2092 15.0022 31.6937 0.0000 0.0000 0.0000
# 2 15.0022 48.3517 18.0556 0.0000 0.0000 0.0000
# 3 31.6937 18.0556 161.7994 0.0000 0.0000 0.0000
# 4 0.0000 0.0000 0.0000 34.1516 0.0000 0.0000
# 5 0.0000 0.0000 0.0000 0.0000 32.8572 0.0000
# 6 0.0000 0.0000 0.0000 0.0000 0.0000 34.6838
#
#
#
# Elastic Compliance Matrix: (Units=1/GPa)
#
#
# Indices 1 2 3 4 5 6 
#
# 1 0.011343 -0.002807 -0.001909 0.000000 0.000000 0.000000
# 2 -0.002807 0.022276 -0.001936 0.000000 0.000000 0.000000
# 3 -0.001909 -0.001936 0.006770 0.000000 0.000000 0.000000
# 4 0.000000 0.000000 0.000000 0.029281 0.000000 0.000000
# 5 0.000000 0.000000 0.000000 0.000000 0.030435 0.000000
# 6 0.000000 0.000000 0.000000 0.000000 0.000000 0.028832
#
#
# Mechanical properties :
#
#
# Convention : Reuss Voigt Hill
#
# Bulk Modulus (GPa) = 36.91932 48.54036 42.72984
# Shear Modulus (GPa) = 33.05407 36.51245 34.78326
#
# Velocity S-wave (km/s) = 3.58103 3.76371 3.67351
# Velocity P-wave (km/s) = 5.60551 6.14161 5.87967
#
# Compressibility (1/GPa) = 0.02708609
#
# Stress axis : x y z
#
# Youngs Moduli (GPa) = 88.16396 44.89224 147.70170
#
# Poissons Ratio (x) = 0.12599 0.28191
# Poissons Ratio (y) = 0.24744 0.28596
# Poissons Ratio (z) = 0.16827 0.08691
#
# Static dielectric constant tensor:
#      x y z
#    x 2.076470 0.000000 0.000000 
#    y 0.000000 2.134040 0.000000 
#    z 0.000000 0.000000 2.073410 
# 
# From -- ./inp_files/7698.got.cif
#   From: 2010.05.17/outbox.cif.g08.bks.cpg/sg45_4_cif.got.tgz:7698.got - 2010.06.03 19:51:22.
