data_PCOD9376665
_publ_section_title
;
Structure prediction by ZEFSAII (Michael W. Deem and Ramdas Pophale) SiO2 
 PCOD9376665
Probable space group: I B A 2
;
_chemical_formula_sum "Si O2"
_cell_formula_units_Z 48
_cell_length_a 5.088058
_cell_length_b 15.450859
_cell_length_c 29.493919
_cell_angle_alpha 90.000000
_cell_angle_beta 90.000000
_cell_angle_gamma 90.000000
_cell_volume 2318.660512
_symmetry_space_group_name_H-M "I B A 2"
_symmetry_group_IT_number 45
_symmetry_cell_setting 'orthorhombic'
loop_
_space_group_symop_operation_xyz
x,y,z
-x,-y,z
-x,y,1/2+z
x,-y,1/2+z
1/2+x,1/2+y,1/2+z
1/2-x,1/2-y,1/2+z
1/2-x,1/2+y,z
1/2+x,1/2-y,z
loop_
_atom_site_type_symbol
_atom_site_label
_atom_site_fract_x
_atom_site_fract_y
_atom_site_fract_z
Si Si1 0.503040 0.396159 0.063550
Si Si2 0.869974 0.310794 0.714675
Si Si3 0.003782 0.604976 0.618450
Si Si4 0.023611 0.806746 0.469671
Si Si5 0.932336 0.189647 0.367985
Si Si6 0.249293 0.444016 0.292729
O O1 0.500000 0.500000 0.063223
O O2 0.217113 0.368538 0.080727
O O3 0.719212 0.367224 0.100306
O O4 0.572061 0.364132 0.013612
O O5 0.601752 0.258109 0.719903
O O6 0.911230 0.354440 0.665803
O O7 0.864408 0.384563 0.752651
O O8 0.000000 0.500000 0.622610
O O9 0.224735 0.726318 0.471784
O O10 0.076346 0.845017 0.419756
O O11 0.714377 0.265035 0.362039
O O12 0.865112 0.116105 0.332306
O O13 0.500000 0.500000 0.276190
O O14 0.000000 0.500000 0.309123
#
# Coordination Sequence:
#
# PCOD9376665 Si02
#       6
#     8   8   8   8   8   8
#     4  10  21  37  57  84 119 157 195 242 293 344
#     4  12  25  41  63  91 120 157 200 248 300 358
#     4  10  22  39  58  83 119 158 197 243 294 345
#     4  10  21  36  59  86 117 155 195 240 291 344
#     4  10  21  41  63  88 122 159 198 247 300 353
#     4  12  25  42  65  92 120 156 197 246 302 362
#
# _framework density 20.701606999999999
#
# number of rings (size 3 to 8) (size 9 to 14) (size 15 to 20)
#    0.000    1.333    0.000    5.500    0.000    6.667 
#    0.000    2.500    0.000    0.000    0.000    0.000 
#    0.000    0.000    0.000    0.000    0.000    0.000 
#
# Total GULP energy -134213.796091 kJ/mol
# GULP energy per Si atom -5592.241504 kJ/mol
# Density = 2.065449 g / cm^3
# Si number density = 20.701607 Si / 1000 Ang^3
#
#
#
# Elastic Constant Matrix: (Units=GPa)
#
#
# Indices 1 2 3 4 5 6 
#
# 1 129.8164 39.3502 4.8207 0.0000 0.0000 0.0000
# 2 39.3502 61.8821 44.5373 0.0000 0.0000 0.0000
# 3 4.8207 44.5373 121.4636 0.0000 0.0000 0.0000
# 4 0.0000 0.0000 0.0000 46.0732 0.0000 0.0000
# 5 0.0000 0.0000 0.0000 0.0000 27.0955 0.0000
# 6 0.0000 0.0000 0.0000 0.0000 0.0000 31.4094
#
#
#
# Elastic Compliance Matrix: (Units=1/GPa)
#
#
# Indices 1 2 3 4 5 6 
#
# 1 0.010140 -0.008366 0.002665 0.000000 0.000000 0.000000
# 2 -0.008366 0.028856 -0.010249 0.000000 0.000000 0.000000
# 3 0.002665 -0.010249 0.011885 0.000000 0.000000 0.000000
# 4 0.000000 0.000000 0.000000 0.021705 0.000000 0.000000
# 5 0.000000 0.000000 0.000000 0.000000 0.036906 0.000000
# 6 0.000000 0.000000 0.000000 0.000000 0.000000 0.031838
#
#
# Mechanical properties :
#
#
# Convention : Reuss Voigt Hill
#
# Bulk Modulus (GPa) = 52.68199 54.50871 53.59535
# Shear Modulus (GPa) = 27.84645 35.87922 31.86284
#
# Velocity S-wave (km/s) = 3.67159 4.16764 3.92745
# Velocity P-wave (km/s) = 6.59375 7.03895 6.81998
#
# Compressibility (1/GPa) = 0.01898182
#
# Stress axis : x y z
#
# Youngs Moduli (GPa) = 98.61732 34.65511 84.13967
#
# Poissons Ratio (x) = 0.28993 -0.22425
# Poissons Ratio (y) = 0.82506 0.86231
# Poissons Ratio (z) = -0.26284 0.35516
#
# Static dielectric constant tensor:
#      x y z
#    x 1.718640 0.000000 0.000000 
#    y 0.000000 1.733460 0.000000 
#    z 0.000000 0.000000 1.721030 
# 
# From -- ./inp_files/9887.got.cif
#   From: 2010.05.17/outbox.cif.g08.bks.cpg/sg45_5_cif.got.tgz:9887.got - 2010.06.03 19:51:22.
