data_PCOD9376241
_publ_section_title
;
Structure prediction by ZEFSAII (Michael W. Deem and Ramdas Pophale) SiO2 
 PCOD9376241
Probable space group: I B A 2
;
_chemical_formula_sum "Si O2"
_cell_formula_units_Z 40
_cell_length_a 22.916100
_cell_length_b 10.605968
_cell_length_c 6.833973
_cell_angle_alpha 90.000000
_cell_angle_beta 90.000000
_cell_angle_gamma 90.000000
_cell_volume 1660.979528
_symmetry_space_group_name_H-M "I B A 2"
_symmetry_group_IT_number 45
_symmetry_cell_setting 'orthorhombic'
loop_
_space_group_symop_operation_xyz
x,y,z
-x,-y,z
-x,y,1/2+z
x,-y,1/2+z
1/2+x,1/2+y,1/2+z
1/2-x,1/2-y,1/2+z
1/2-x,1/2+y,z
1/2+x,1/2-y,z
loop_
_atom_site_type_symbol
_atom_site_label
_atom_site_fract_x
_atom_site_fract_y
_atom_site_fract_z
Si Si1 0.458888 0.323023 0.598230
Si Si2 0.420554 0.600137 0.682301
Si Si3 0.300778 0.522217 0.146885
Si Si4 0.291345 0.000668 0.403121
Si Si5 0.352955 0.803114 0.161167
O O1 0.442657 0.455094 0.702472
O O2 0.528227 0.326308 0.567303
O O3 0.427250 0.337803 0.391269
O O4 0.422717 0.207438 0.683170
O O5 0.353483 0.582134 0.628999
O O6 0.283390 0.492182 0.396286
O O7 0.326177 0.663301 0.159197
O O8 0.225669 0.531163 0.152147
O O9 0.329031 0.123325 0.468546
O O10 0.327434 0.876641 0.347167
#
# Coordination Sequence:
#
# PCOD9376241 Si02
#       5
#     8   8   8   8   8
#     4  10  20  36  58  88 122 153 197 252 315 362
#     4  10  19  33  57  89 119 150 194 251 304 367
#     4  10  19  34  57  87 120 150 192 254 314 362
#     4  10  21  36  56  86 121 155 200 244 304 382
#     4  10  21  37  56  83 118 160 199 247 303 361
#
# _framework density 24.082176
#
# number of rings (size 3 to 8) (size 9 to 14) (size 15 to 20)
#    0.000    2.000    0.000    6.000    0.000    3.200 
#    0.000   12.000    0.000    3.600    0.000    0.000 
#    0.000    0.000    0.000    0.000    0.000    0.000 
#
# Total GULP energy -111334.589627 kJ/mol
# GULP energy per Si atom -5566.729481 kJ/mol
# Density = 2.402736 g / cm^3
# Si number density = 24.082176 Si / 1000 Ang^3
#
#
#
# Elastic Constant Matrix: (Units=GPa)
#
#
# Indices 1 2 3 4 5 6 
#
# 1 191.5585 63.1888 84.3912 0.0000 0.0000 0.0000
# 2 63.1888 98.3562 44.4910 0.0000 0.0000 0.0000
# 3 84.3912 44.4910 154.4564 0.0000 0.0000 0.0000
# 4 0.0000 0.0000 0.0000 51.7367 0.0000 0.0000
# 5 0.0000 0.0000 0.0000 0.0000 47.7275 0.0000
# 6 0.0000 0.0000 0.0000 0.0000 0.0000 -21.5881
#
#
#
# Elastic Compliance Matrix: (Units=1/GPa)
#
#
# Indices 1 2 3 4 5 6 
#
# 1 0.007826 -0.003557 -0.003251 0.000000 0.000000 0.000000
# 2 -0.003557 0.013307 -0.001890 0.000000 0.000000 0.000000
# 3 -0.003251 -0.001890 0.008795 0.000000 0.000000 0.000000
# 4 0.000000 0.000000 0.000000 0.019329 0.000000 0.000000
# 5 0.000000 0.000000 0.000000 0.000000 0.020952 0.000000
# 6 0.000000 0.000000 0.000000 0.000000 0.000000 -0.046322
#
#
# Mechanical properties :
#
#
# Convention : Reuss Voigt Hill
#
# Bulk Modulus (GPa) = 79.79458 92.05699 85.92579
# Shear Modulus (GPa) = 109.98420 32.39522 71.18971
#
# Velocity S-wave (km/s) = 6.76532 3.67167 5.44292
# Velocity P-wave (km/s) = 9.70733 7.50227 8.67515
#
# Compressibility (1/GPa) = 0.01253218
#
# Stress axis : x y z
#
# Youngs Moduli (GPa) = 127.77742 75.14759 113.69997
#
# Poissons Ratio (x) = 0.26731 0.36968
# Poissons Ratio (y) = 0.45452 0.21485
# Poissons Ratio (z) = 0.41545 0.14200
#
# Static dielectric constant tensor:
#      x y z
#    x 2.069420 0.000000 0.000000 
#    y 0.000000 1.621800 0.000000 
#    z 0.000000 0.000000 2.342860 
# 
# From -- ./inp_files/2447.got.cif
#   From: 2010.05.17/outbox.cif.g08.bks.cpg/sg45_2_cif.got.tgz:2447.got - 2010.06.03 19:51:22.
