data_PCOD9376001
_publ_section_title
;
Structure prediction by ZEFSAII (Michael W. Deem and Ramdas Pophale) SiO2 
 PCOD9376001
Probable space group: I M M 2
;
_chemical_formula_sum "Si O2"
_cell_formula_units_Z 24
_cell_length_a 9.000000
_cell_length_b 18.000000
_cell_length_c 15.000000
_cell_angle_alpha 90.000000
_cell_angle_beta 90.000000
_cell_angle_gamma 90.000000
_cell_volume 2430.000000
_symmetry_space_group_name_H-M "I M M 2"
_symmetry_group_IT_number 44
_symmetry_cell_setting 'orthorhombic'
loop_
_space_group_symop_operation_xyz
x,y,z
-x,-y,z
-x,y,z
x,-y,z
1/2+x,1/2+y,1/2+z
1/2-x,1/2-y,1/2+z
1/2-x,1/2+y,1/2+z
1/2+x,1/2-y,1/2+z
loop_
_atom_site_type_symbol
_atom_site_label
_atom_site_fract_x
_atom_site_fract_y
_atom_site_fract_z
Si Si1 0.324068 0.298369 0.309910
Si Si2 0.169738 0.307227 0.118596
Si Si3 0.668007 0.085068 0.260097
Si Si4 0.833088 0.586534 0.427969
Si Si5 0.665610 0.635542 0.595711
Si Si6 0.678969 0.840601 0.432497
O O1 0.500000 0.291133 0.301542
O O2 0.254995 0.304015 0.211628
O O3 0.279325 0.370698 0.364901
O O4 0.270386 0.230031 0.372884
O O5 0.163804 0.223382 0.080190
O O6 0.000000 0.331771 0.137281
O O7 0.237221 0.349517 0.032870
O O8 0.500000 0.115643 0.247280
O O9 0.783161 0.125127 0.196729
O O10 0.704292 0.092799 0.363953
O O11 0.666882 0.000000 0.233080
O O12 0.833104 0.500000 0.407842
O O13 0.781080 0.598471 0.529263
O O14 0.000000 0.616213 0.415816
O O15 0.500000 0.605763 0.581056
O O16 0.500000 0.832680 0.443965
#
# Coordination Sequence:
#
# PCOD9376001 Si02
#       6
#     8   8   8   8   8   8
#     4  11  21  37  60  85 113 149 190 236 283 333
#     4  10  20  36  56  83 115 147 187 235 284 336
#     4  10  20  35  56  82 113 151 191 232 283 340
#     4  11  24  40  58  83 116 153 191 234 288 349
#     4  11  21  34  56  86 118 151 186 232 287 341
#     4   9  18  35  56  79 111 148 190 232 272 329
#
# _framework density 9.8765429999999999
#
# number of rings (size 3 to 8) (size 9 to 14) (size 15 to 20)
#    0.000    1.667    3.333    2.000    0.000    4.333 
#    0.000    1.667    0.000    3.000    0.000    0.000 
#    0.000    0.000    0.000    0.000    0.000    0.000 
#
# Total GULP energy -133757.005533 kJ/mol
# GULP energy per Si atom -5573.208564 kJ/mol
# Density = 0.985406 g / cm^3
# Si number density = 9.876543 Si / 1000 Ang^3
#
#
#
# Elastic Constant Matrix: (Units=GPa)
#
#
# Indices 1 2 3 4 5 6 
#
# 1 34.5446 4.5071 17.7039 0.0000 0.0000 0.0000
# 2 4.5071 30.7532 3.6360 0.0000 0.0000 0.0000
# 3 17.7039 3.6360 114.1165 0.0000 0.0000 0.0000
# 4 0.0000 0.0000 0.0000 18.0291 0.0000 0.0000
# 5 0.0000 0.0000 0.0000 0.0000 22.9367 0.0000
# 6 0.0000 0.0000 0.0000 0.0000 0.0000 12.1024
#
#
#
# Elastic Compliance Matrix: (Units=1/GPa)
#
#
# Indices 1 2 3 4 5 6 
#
# 1 0.031958 -0.004113 -0.004827 0.000000 0.000000 0.000000
# 2 -0.004113 0.033169 -0.000419 0.000000 0.000000 0.000000
# 3 -0.004827 -0.000419 0.009525 0.000000 0.000000 0.000000
# 4 0.000000 0.000000 0.000000 0.055466 0.000000 0.000000
# 5 0.000000 0.000000 0.000000 0.000000 0.043598 0.000000
# 6 0.000000 0.000000 0.000000 0.000000 0.000000 0.082628
#
#
# Mechanical properties :
#
#
# Convention : Reuss Voigt Hill
#
# Bulk Modulus (GPa) = 17.87774 25.67869 21.77822
# Shear Modulus (GPa) = 17.02373 20.85147 18.93760
#
# Velocity S-wave (km/s) = 2.93887 3.25253 3.09967
# Velocity P-wave (km/s) = 4.53720 5.20897 4.88465
#
# Compressibility (1/GPa) = 0.05593547
#
# Stress axis : x y z
#
# Youngs Moduli (GPa) = 31.29059 30.14839 104.98504
#
# Poissons Ratio (x) = 0.12400 0.50676
# Poissons Ratio (y) = 0.12870 0.04396
# Poissons Ratio (z) = 0.15104 0.01262
#
# Static dielectric constant tensor:
#      x y z
#    x 1.700370 0.000000 0.000000 
#    y 0.000000 1.712570 0.000000 
#    z 0.000000 0.000000 1.702690 
# 
# From -- ./inp_files/14595.got.cif
#   From: 2010.05.17/outbox.ucp.g08.bks.cvg/sg44_8_cif.got.tgz:14595.got - 2010.06.11 16:32:36.
