data_PCOD9376774
_publ_section_title
;
Structure prediction by ZEFSAII (Michael W. Deem and Ramdas Pophale) SiO2 
 PCOD9376774
Probable space group: I B A 2
;
_chemical_formula_sum "Si O2"
_cell_formula_units_Z 60
_cell_length_a 10.630069
_cell_length_b 26.056511
_cell_length_c 8.814214
_cell_angle_alpha 90.000000
_cell_angle_beta 90.000000
_cell_angle_gamma 90.000000
_cell_volume 2441.383116
_symmetry_space_group_name_H-M "I B A 2"
_symmetry_group_IT_number 45
_symmetry_cell_setting 'orthorhombic'
loop_
_space_group_symop_operation_xyz
x,y,z
-x,-y,z
-x,y,1/2+z
x,-y,1/2+z
1/2+x,1/2+y,1/2+z
1/2-x,1/2-y,1/2+z
1/2-x,1/2+y,z
1/2+x,1/2-y,z
loop_
_atom_site_type_symbol
_atom_site_label
_atom_site_fract_x
_atom_site_fract_y
_atom_site_fract_z
Si Si1 0.500000 0.000000 0.208161
Si Si2 0.145467 0.450622 0.964635
Si Si3 0.849599 0.746952 0.702219
Si Si4 0.099688 0.806662 0.611444
Si Si5 0.983674 0.120769 0.880466
Si Si6 0.652815 0.570818 0.160996
Si Si7 0.568245 0.838260 0.443600
Si Si8 0.324023 0.158479 0.773017
O O1 0.611984 0.985375 0.321825
O O2 0.464388 0.955216 0.091321
O O3 0.138511 0.392094 0.906399
O O4 0.267541 0.469562 0.060583
O O5 0.735458 0.719928 0.611341
O O6 0.885662 0.708497 0.838531
O O7 0.776990 0.796575 0.764770
O O8 0.975225 0.769128 0.618082
O O9 0.085213 0.845981 0.473164
O O10 0.084075 0.840752 0.764404
O O11 0.040247 0.072735 0.783563
O O12 0.898625 0.103316 0.019041
O O13 0.757539 0.604241 0.246441
O O14 0.594323 0.831793 0.620500
O O15 0.420807 0.843121 0.409722
#
# Coordination Sequence:
#
# PCOD9376774 Si02
#       8
#     4   8   8   8   8   8   8   8
#     4  10  22  44  80 108 142 164 210 288 404 464
#     4  10  21  44  72 108 136 176 215 292 370 454
#     4  12  24  37  57  90 134 193 245 304 336 401
#     4  11  24  36  58  81 129 186 249 285 356 374
#     4  10  21  40  57  85 125 183 225 288 323 406
#     4  10  21  41  66  91 135 173 234 276 340 416
#     4  11  25  40  66  95 140 176 245 287 351 419
#     4  11  23  41  58  91 132 186 233 302 341 402
#
# _framework density 24.576233999999999
#
# number of rings (size 3 to 8) (size 9 to 14) (size 15 to 20)
#    0.000    1.333    4.000    3.200    1.867    2.133 
#    0.000   10.667    0.000    2.400    0.000    0.000 
#    0.000    0.000    0.000    0.000    0.000    0.000 
#
# Total GULP energy -167442.643833 kJ/mol
# GULP energy per Si atom -5581.421461 kJ/mol
# Density = 2.452030 g / cm^3
# Si number density = 24.576234 Si / 1000 Ang^3
#
#
#
# Elastic Constant Matrix: (Units=GPa)
#
#
# Indices 1 2 3 4 5 6 
#
# 1 102.4727 -1.0793 27.4374 0.0005 0.0035 0.0008
# 2 -1.0793 35.1969 20.5001 -0.0002 0.0015 0.0003
# 3 27.4374 20.5001 100.5813 0.0017 0.0099 0.0016
# 4 0.0005 -0.0002 0.0017 30.5891 -0.0012 -0.0004
# 5 0.0035 0.0015 0.0099 -0.0012 23.4585 -0.0010
# 6 0.0008 0.0003 0.0016 -0.0004 -0.0010 28.9426
#
#
#
# Elastic Compliance Matrix: (Units=1/GPa)
#
#
# Indices 1 2 3 4 5 6 
#
# 1 0.010689 0.002299 -0.003384 0.000000 0.000000 0.000000
# 2 0.002299 0.032733 -0.007299 0.000001 0.000001 0.000000
# 3 -0.003384 -0.007299 0.012353 -0.000001 -0.000004 -0.000001
# 4 0.000000 0.000001 -0.000001 0.032691 0.000002 0.000000
# 5 0.000000 0.000001 -0.000004 0.000002 0.042628 0.000001
# 6 0.000000 0.000000 -0.000001 0.000000 0.000001 0.034551
#
#
# Mechanical properties :
#
#
# Convention : Reuss Voigt Hill
#
# Bulk Modulus (GPa) = 25.63640 36.88526 31.26083
# Shear Modulus (GPa) = 25.58635 29.35757 27.47196
#
# Velocity S-wave (km/s) = 3.23011 3.45998 3.34702
# Velocity P-wave (km/s) = 4.93614 5.56803 5.26158
#
# Compressibility (1/GPa) = 0.03900703
#
# Stress axis : x y z
#
# Youngs Moduli (GPa) = 93.55326 30.55010 80.95182
#
# Poissons Ratio (x) = -0.07023 0.27398
# Poissons Ratio (y) = -0.21508 0.59084
# Poissons Ratio (z) = 0.31662 0.22298
#
# Static dielectric constant tensor:
#      x y z
#    x 2.111370 0.000000 0.000000 
#    y 0.000000 2.007560 0.000000 
#    z 0.000000 0.000000 1.911160 
# 
# From -- ./inp_files/1452.got.cif
#   From: 2010.05.17/outbox.cif.g08.bks.cpg/sg45_1_cif.got.tgz:1452.got - 2010.06.03 19:51:22.
